MODEL 1
REMARK VINA RESULT:    -6.572      0.000      0.000
REMARK INTER + INTRA:          -7.565
REMARK INTER:                  -7.148
REMARK INTRA:                  -0.416
REMARK UNBOUND:                -0.416
REMARK SMILES C=C1C[C@]2(O)O[C@]3(C[C@@H]2C(C)C)[C@@H](C)CC[C@@H]13
REMARK SMILES IDX 14 1 13 2 15 3 16 4 17 5 7 6 8 7 9 8 4 9 6 10 3 11 2 12 1 13
REMARK SMILES IDX 10 14 11 15 12 16 5 17
REMARK H PARENT 5 18
REMARK Flexibility Score: inf
ROOT
ATOM      1  C   UNL     1      32.124  17.066 -32.172  1.00  0.00     0.011 C 
ATOM      2  C   UNL     1      30.989  18.096 -32.253  1.00  0.00     0.019 C 
ATOM      3  C   UNL     1      29.766  17.605 -33.061  1.00  0.00     0.007 C 
ATOM      4  C   UNL     1      28.527  18.278 -32.435  1.00  0.00     0.011 C 
ATOM      5  C   UNL     1      29.106  19.245 -31.407  1.00  0.00     0.047 C 
ATOM      6  C   UNL     1      30.384  18.558 -30.918  1.00  0.00     0.081 C 
ATOM      7  C   UNL     1      30.099  17.417 -29.898  1.00  0.00     0.046 C 
ATOM      8  C   UNL     1      30.398  18.073 -28.555  1.00  0.00     0.054 C 
ATOM      9  C   UNL     1      30.506  19.560 -28.950  1.00  0.00     0.173 C 
ATOM     10  O   UNL     1      31.129  19.533 -30.227  1.00  0.00    -0.342 OA
ATOM     11  C   UNL     1      29.109  20.275 -29.066  1.00  0.00     0.096 C 
ATOM     12  C   UNL     1      28.298  19.698 -30.216  1.00  0.00    -0.066 C 
ATOM     13  C   UNL     1      26.962  19.796 -30.244  1.00  0.00     0.008 C 
ENDROOT
BRANCH   8  14
ATOM     14  C   UNL     1      29.394  17.691 -27.424  1.00  0.00    -0.009 C 
ATOM     15  C   UNL     1      30.122  17.128 -26.192  1.00  0.00     0.008 C 
ATOM     16  C   UNL     1      28.383  16.642 -27.922  1.00  0.00     0.008 C 
ENDBRANCH   8  14
BRANCH   9  17
ATOM     17  O   UNL     1      31.327  20.238 -28.034  1.00  0.00    -0.365 OA
ATOM     18  H   UNL     1      31.266  21.205 -28.250  1.00  0.00     0.214 HD
ENDBRANCH   9  17
TORSDOF 2
ENDMDL
MODEL 2
REMARK VINA RESULT:    -6.558      2.217      3.799
REMARK INTER + INTRA:          -7.549
REMARK INTER:                  -7.128
REMARK INTRA:                  -0.421
REMARK UNBOUND:                -0.416
REMARK SMILES C=C1C[C@]2(O)O[C@]3(C[C@@H]2C(C)C)[C@@H](C)CC[C@@H]13
REMARK SMILES IDX 14 1 13 2 15 3 16 4 17 5 7 6 8 7 9 8 4 9 6 10 3 11 2 12 1 13
REMARK SMILES IDX 10 14 11 15 12 16 5 17
REMARK H PARENT 5 18
REMARK Flexibility Score: inf
ROOT
ATOM      1  C   UNL     1      27.012  21.407 -29.742  1.00  0.00     0.011 C 
ATOM      2  C   UNL     1      27.511  20.535 -30.902  1.00  0.00     0.019 C 
ATOM      3  C   UNL     1      28.756  21.110 -31.617  1.00  0.00     0.007 C 
ATOM      4  C   UNL     1      29.570  19.901 -32.124  1.00  0.00     0.011 C 
ATOM      5  C   UNL     1      28.680  18.699 -31.823  1.00  0.00     0.047 C 
ATOM      6  C   UNL     1      27.923  19.097 -30.552  1.00  0.00     0.081 C 
ATOM      7  C   UNL     1      28.793  18.958 -29.267  1.00  0.00     0.046 C 
ATOM      8  C   UNL     1      28.322  17.636 -28.672  1.00  0.00     0.054 C 
ATOM      9  C   UNL     1      27.490  17.050 -29.832  1.00  0.00     0.173 C 
ATOM     10  O   UNL     1      26.859  18.185 -30.412  1.00  0.00    -0.342 OA
ATOM     11  C   UNL     1      28.365  16.326 -30.920  1.00  0.00     0.096 C 
ATOM     12  C   UNL     1      29.263  17.319 -31.642  1.00  0.00    -0.066 C 
ATOM     13  C   UNL     1      30.386  16.923 -32.257  1.00  0.00     0.008 C 
ENDROOT
BRANCH   8  14
ATOM     14  C   UNL     1      29.469  16.760 -28.083  1.00  0.00    -0.009 C 
ATOM     15  C   UNL     1      29.240  16.462 -26.592  1.00  0.00     0.008 C 
ATOM     16  C   UNL     1      30.829  17.460 -28.243  1.00  0.00     0.008 C 
ENDBRANCH   8  14
BRANCH   9  17
ATOM     17  O   UNL     1      26.517  16.173 -29.325  1.00  0.00    -0.365 OA
ATOM     18  H   UNL     1      25.910  16.710 -28.753  1.00  0.00     0.214 HD
ENDBRANCH   9  17
TORSDOF 2
ENDMDL
MODEL 3
REMARK VINA RESULT:    -6.485      2.226      3.937
REMARK INTER + INTRA:          -7.470
REMARK INTER:                  -7.061
REMARK INTRA:                  -0.409
REMARK UNBOUND:                -0.416
REMARK SMILES C=C1C[C@]2(O)O[C@]3(C[C@@H]2C(C)C)[C@@H](C)CC[C@@H]13
REMARK SMILES IDX 14 1 13 2 15 3 16 4 17 5 7 6 8 7 9 8 4 9 6 10 3 11 2 12 1 13
REMARK SMILES IDX 10 14 11 15 12 16 5 17
REMARK H PARENT 5 18
REMARK Flexibility Score: inf
ROOT
ATOM      1  C   UNL     1      29.886  18.732 -34.504  1.00  0.00     0.011 C 
ATOM      2  C   UNL     1      29.952  17.669 -33.399  1.00  0.00     0.019 C 
ATOM      3  C   UNL     1      31.371  17.468 -32.819  1.00  0.00     0.007 C 
ATOM      4  C   UNL     1      31.189  17.066 -31.341  1.00  0.00     0.011 C 
ATOM      5  C   UNL     1      29.681  16.896 -31.182  1.00  0.00     0.047 C 
ATOM      6  C   UNL     1      29.081  17.914 -32.157  1.00  0.00     0.081 C 
ATOM      7  C   UNL     1      29.121  19.370 -31.605  1.00  0.00     0.046 C 
ATOM      8  C   UNL     1      27.698  19.588 -31.104  1.00  0.00     0.054 C 
ATOM      9  C   UNL     1      27.129  18.154 -31.145  1.00  0.00     0.173 C 
ATOM     10  O   UNL     1      27.720  17.581 -32.304  1.00  0.00    -0.342 OA
ATOM     11  C   UNL     1      27.514  17.297 -29.883  1.00  0.00     0.096 C 
ATOM     12  C   UNL     1      29.013  17.043 -29.837  1.00  0.00    -0.066 C 
ATOM     13  C   UNL     1      29.636  16.755 -28.686  1.00  0.00     0.008 C 
ENDROOT
BRANCH   8  14
ATOM     14  C   UNL     1      27.611  20.368 -29.757  1.00  0.00    -0.009 C 
ATOM     15  C   UNL     1      26.869  21.704 -29.927  1.00  0.00     0.008 C 
ATOM     16  C   UNL     1      29.017  20.652 -29.199  1.00  0.00     0.008 C 
ENDBRANCH   8  14
BRANCH   9  17
ATOM     17  O   UNL     1      25.733  18.200 -31.297  1.00  0.00    -0.365 OA
ATOM     18  H   UNL     1      25.384  17.305 -31.046  1.00  0.00     0.214 HD
ENDBRANCH   9  17
TORSDOF 2
ENDMDL
MODEL 4
REMARK VINA RESULT:    -6.460      2.057      4.468
REMARK INTER + INTRA:          -7.443
REMARK INTER:                  -7.023
REMARK INTRA:                  -0.420
REMARK UNBOUND:                -0.416
REMARK SMILES C=C1C[C@]2(O)O[C@]3(C[C@@H]2C(C)C)[C@@H](C)CC[C@@H]13
REMARK SMILES IDX 14 1 13 2 15 3 16 4 17 5 7 6 8 7 9 8 4 9 6 10 3 11 2 12 1 13
REMARK SMILES IDX 10 14 11 15 12 16 5 17
REMARK H PARENT 5 18
REMARK Flexibility Score: inf
ROOT
ATOM      1  C   UNL     1      30.075  15.193 -28.103  1.00  0.00     0.011 C 
ATOM      2  C   UNL     1      29.734  16.659 -27.802  1.00  0.00     0.019 C 
ATOM      3  C   UNL     1      30.962  17.509 -27.402  1.00  0.00     0.007 C 
ATOM      4  C   UNL     1      30.685  18.943 -27.896  1.00  0.00     0.011 C 
ATOM      5  C   UNL     1      29.249  18.890 -28.410  1.00  0.00     0.047 C 
ATOM      6  C   UNL     1      29.090  17.463 -28.942  1.00  0.00     0.081 C 
ATOM      7  C   UNL     1      29.751  17.266 -30.338  1.00  0.00     0.046 C 
ATOM      8  C   UNL     1      28.566  17.342 -31.294  1.00  0.00     0.054 C 
ATOM      9  C   UNL     1      27.453  17.877 -30.370  1.00  0.00     0.173 C 
ATOM     10  O   UNL     1      27.709  17.249 -29.121  1.00  0.00    -0.342 OA
ATOM     11  C   UNL     1      27.493  19.439 -30.188  1.00  0.00     0.096 C 
ATOM     12  C   UNL     1      28.752  19.866 -29.449  1.00  0.00    -0.066 C 
ATOM     13  C   UNL     1      29.241  21.108 -29.565  1.00  0.00     0.008 C 
ENDROOT
BRANCH   8  14
ATOM     14  C   UNL     1      28.861  18.127 -32.609  1.00  0.00    -0.009 C 
ATOM     15  C   UNL     1      28.667  17.239 -33.850  1.00  0.00     0.008 C 
ATOM     16  C   UNL     1      30.301  18.669 -32.611  1.00  0.00     0.008 C 
ENDBRANCH   8  14
BRANCH   9  17
ATOM     17  O   UNL     1      26.197  17.475 -30.855  1.00  0.00    -0.365 OA
ATOM     18  H   UNL     1      25.808  16.860 -30.180  1.00  0.00     0.214 HD
ENDBRANCH   9  17
TORSDOF 2
ENDMDL
MODEL 5
REMARK VINA RESULT:    -6.458      1.430      3.939
REMARK INTER + INTRA:          -7.441
REMARK INTER:                  -7.060
REMARK INTRA:                  -0.381
REMARK UNBOUND:                -0.416
REMARK SMILES C=C1C[C@]2(O)O[C@]3(C[C@@H]2C(C)C)[C@@H](C)CC[C@@H]13
REMARK SMILES IDX 14 1 13 2 15 3 16 4 17 5 7 6 8 7 9 8 4 9 6 10 3 11 2 12 1 13
REMARK SMILES IDX 10 14 11 15 12 16 5 17
REMARK H PARENT 5 18
REMARK Flexibility Score: inf
ROOT
ATOM      1  C   UNL     1      29.743  17.302 -26.628  1.00  0.00     0.011 C 
ATOM      2  C   UNL     1      30.732  17.766 -27.706  1.00  0.00     0.019 C 
ATOM      3  C   UNL     1      31.426  16.603 -28.450  1.00  0.00     0.007 C 
ATOM      4  C   UNL     1      31.701  17.100 -29.885  1.00  0.00     0.011 C 
ATOM      5  C   UNL     1      31.303  18.572 -29.853  1.00  0.00     0.047 C 
ATOM      6  C   UNL     1      30.158  18.633 -28.838  1.00  0.00     0.081 C 
ATOM      7  C   UNL     1      28.806  18.131 -29.427  1.00  0.00     0.046 C 
ATOM      8  C   UNL     1      28.071  19.425 -29.755  1.00  0.00     0.054 C 
ATOM      9  C   UNL     1      29.196  20.470 -29.609  1.00  0.00     0.173 C 
ATOM     10  O   UNL     1      29.972  19.992 -28.518  1.00  0.00    -0.342 OA
ATOM     11  C   UNL     1      30.107  20.584 -30.887  1.00  0.00     0.096 C 
ATOM     12  C   UNL     1      30.892  19.300 -31.109  1.00  0.00    -0.066 C 
ATOM     13  C   UNL     1      31.363  18.973 -32.320  1.00  0.00     0.008 C 
ENDROOT
BRANCH   8  14
ATOM     14  C   UNL     1      27.284  19.385 -31.100  1.00  0.00    -0.009 C 
ATOM     15  C   UNL     1      25.766  19.475 -30.868  1.00  0.00     0.008 C 
ATOM     16  C   UNL     1      27.588  18.089 -31.873  1.00  0.00     0.008 C 
ENDBRANCH   8  14
BRANCH   9  17
ATOM     17  O   UNL     1      28.646  21.722 -29.289  1.00  0.00    -0.365 OA
ATOM     18  H   UNL     1      28.455  21.715 -28.315  1.00  0.00     0.214 HD
ENDBRANCH   9  17
TORSDOF 2
ENDMDL
MODEL 6
REMARK VINA RESULT:    -6.365      1.493      3.804
REMARK INTER + INTRA:          -7.339
REMARK INTER:                  -6.940
REMARK INTRA:                  -0.400
REMARK UNBOUND:                -0.416
REMARK SMILES C=C1C[C@]2(O)O[C@]3(C[C@@H]2C(C)C)[C@@H](C)CC[C@@H]13
REMARK SMILES IDX 14 1 13 2 15 3 16 4 17 5 7 6 8 7 9 8 4 9 6 10 3 11 2 12 1 13
REMARK SMILES IDX 10 14 11 15 12 16 5 17
REMARK H PARENT 5 18
REMARK Flexibility Score: inf
ROOT
ATOM      1  C   UNL     1      30.744  17.624 -27.051  1.00  0.00     0.011 C 
ATOM      2  C   UNL     1      30.635  16.924 -28.412  1.00  0.00     0.019 C 
ATOM      3  C   UNL     1      29.790  15.630 -28.376  1.00  0.00     0.007 C 
ATOM      4  C   UNL     1      29.123  15.501 -29.761  1.00  0.00     0.011 C 
ATOM      5  C   UNL     1      29.739  16.631 -30.579  1.00  0.00     0.047 C 
ATOM      6  C   UNL     1      30.008  17.737 -29.555  1.00  0.00     0.081 C 
ATOM      7  C   UNL     1      28.720  18.524 -29.170  1.00  0.00     0.046 C 
ATOM      8  C   UNL     1      28.832  19.797 -30.001  1.00  0.00     0.054 C 
ATOM      9  C   UNL     1      29.980  19.439 -30.967  1.00  0.00     0.173 C 
ATOM     10  O   UNL     1      30.869  18.663 -30.175  1.00  0.00    -0.342 OA
ATOM     11  C   UNL     1      29.508  18.592 -32.206  1.00  0.00     0.096 C 
ATOM     12  C   UNL     1      29.021  17.219 -31.769  1.00  0.00    -0.066 C 
ATOM     13  C   UNL     1      28.173  16.507 -32.524  1.00  0.00     0.008 C 
ENDROOT
BRANCH   8  14
ATOM     14  C   UNL     1      27.481  20.273 -30.618  1.00  0.00    -0.009 C 
ATOM     15  C   UNL     1      27.054  21.638 -30.052  1.00  0.00     0.008 C 
ATOM     16  C   UNL     1      26.364  19.252 -30.341  1.00  0.00     0.008 C 
ENDBRANCH   8  14
BRANCH   9  17
ATOM     17  O   UNL     1      30.624  20.612 -31.396  1.00  0.00    -0.365 OA
ATOM     18  H   UNL     1      31.331  20.338 -32.036  1.00  0.00     0.214 HD
ENDBRANCH   9  17
TORSDOF 2
ENDMDL
MODEL 7
REMARK VINA RESULT:    -6.352      2.260      3.865
REMARK INTER + INTRA:          -7.326
REMARK INTER:                  -6.922
REMARK INTRA:                  -0.403
REMARK UNBOUND:                -0.416
REMARK SMILES C=C1C[C@]2(O)O[C@]3(C[C@@H]2C(C)C)[C@@H](C)CC[C@@H]13
REMARK SMILES IDX 14 1 13 2 15 3 16 4 17 5 7 6 8 7 9 8 4 9 6 10 3 11 2 12 1 13
REMARK SMILES IDX 10 14 11 15 12 16 5 17
REMARK H PARENT 5 18
REMARK Flexibility Score: inf
ROOT
ATOM      1  C   UNL     1      29.311  21.337 -29.743  1.00  0.00     0.011 C 
ATOM      2  C   UNL     1      29.660  20.444 -30.942  1.00  0.00     0.019 C 
ATOM      3  C   UNL     1      31.158  20.070 -31.019  1.00  0.00     0.007 C 
ATOM      4  C   UNL     1      31.230  18.671 -31.665  1.00  0.00     0.011 C 
ATOM      5  C   UNL     1      29.791  18.375 -32.076  1.00  0.00     0.047 C 
ATOM      6  C   UNL     1      28.941  19.088 -31.020  1.00  0.00     0.081 C 
ATOM      7  C   UNL     1      28.871  18.304 -29.677  1.00  0.00     0.046 C 
ATOM      8  C   UNL     1      27.513  17.616 -29.749  1.00  0.00     0.054 C 
ATOM      9  C   UNL     1      27.129  17.836 -31.227  1.00  0.00     0.173 C 
ATOM     10  O   UNL     1      27.626  19.134 -31.523  1.00  0.00    -0.342 OA
ATOM     11  C   UNL     1      27.786  16.790 -32.202  1.00  0.00     0.096 C 
ATOM     12  C   UNL     1      29.298  16.958 -32.237  1.00  0.00    -0.066 C 
ATOM     13  C   UNL     1      30.102  15.951 -32.603  1.00  0.00     0.008 C 
ENDROOT
BRANCH   8  14
ATOM     14  C   UNL     1      27.511  16.154 -29.206  1.00  0.00    -0.009 C 
ATOM     15  C   UNL     1      26.607  16.014 -27.970  1.00  0.00     0.008 C 
ATOM     16  C   UNL     1      28.935  15.710 -28.828  1.00  0.00     0.008 C 
ENDBRANCH   8  14
BRANCH   9  17
ATOM     17  O   UNL     1      25.731  17.819 -31.364  1.00  0.00    -0.365 OA
ATOM     18  H   UNL     1      25.507  18.406 -32.132  1.00  0.00     0.214 HD
ENDBRANCH   9  17
TORSDOF 2
ENDMDL
MODEL 8
REMARK VINA RESULT:    -6.331      2.792      4.534
REMARK INTER + INTRA:          -7.302
REMARK INTER:                  -6.889
REMARK INTRA:                  -0.413
REMARK UNBOUND:                -0.416
REMARK SMILES C=C1C[C@]2(O)O[C@]3(C[C@@H]2C(C)C)[C@@H](C)CC[C@@H]13
REMARK SMILES IDX 14 1 13 2 15 3 16 4 17 5 7 6 8 7 9 8 4 9 6 10 3 11 2 12 1 13
REMARK SMILES IDX 10 14 11 15 12 16 5 17
REMARK H PARENT 5 18
REMARK Flexibility Score: inf
ROOT
ATOM      1  C   UNL     1      30.326  14.289 -31.995  1.00  0.00     0.011 C 
ATOM      2  C   UNL     1      30.543  14.573 -30.503  1.00  0.00     0.019 C 
ATOM      3  C   UNL     1      31.882  15.283 -30.197  1.00  0.00     0.007 C 
ATOM      4  C   UNL     1      31.637  16.168 -28.957  1.00  0.00     0.011 C 
ATOM      5  C   UNL     1      30.224  15.805 -28.511  1.00  0.00     0.047 C 
ATOM      6  C   UNL     1      29.494  15.459 -29.813  1.00  0.00     0.081 C 
ATOM      7  C   UNL     1      29.071  16.723 -30.618  1.00  0.00     0.046 C 
ATOM      8  C   UNL     1      27.592  16.869 -30.278  1.00  0.00     0.054 C 
ATOM      9  C   UNL     1      27.442  15.881 -29.103  1.00  0.00     0.173 C 
ATOM     10  O   UNL     1      28.303  14.803 -29.446  1.00  0.00    -0.342 OA
ATOM     11  C   UNL     1      27.888  16.487 -27.721  1.00  0.00     0.096 C 
ATOM     12  C   UNL     1      29.383  16.769 -27.711  1.00  0.00    -0.066 C 
ATOM     13  C   UNL     1      29.916  17.670 -26.875  1.00  0.00     0.008 C 
ENDROOT
BRANCH   8  14
ATOM     14  C   UNL     1      27.135  18.343 -30.054  1.00  0.00    -0.009 C 
ATOM     15  C   UNL     1      26.073  18.765 -31.084  1.00  0.00     0.008 C 
ATOM     16  C   UNL     1      28.329  19.307 -30.154  1.00  0.00     0.008 C 
ENDBRANCH   8  14
BRANCH   9  17
ATOM     17  O   UNL     1      26.115  15.426 -29.030  1.00  0.00    -0.365 OA
ATOM     18  H   UNL     1      26.031  14.908 -28.188  1.00  0.00     0.214 HD
ENDBRANCH   9  17
TORSDOF 2
ENDMDL
MODEL 9
REMARK VINA RESULT:    -6.189      1.838      4.727
REMARK INTER + INTRA:          -7.148
REMARK INTER:                  -6.741
REMARK INTRA:                  -0.407
REMARK UNBOUND:                -0.416
REMARK SMILES C=C1C[C@]2(O)O[C@]3(C[C@@H]2C(C)C)[C@@H](C)CC[C@@H]13
REMARK SMILES IDX 14 1 13 2 15 3 16 4 17 5 7 6 8 7 9 8 4 9 6 10 3 11 2 12 1 13
REMARK SMILES IDX 10 14 11 15 12 16 5 17
REMARK H PARENT 5 18
REMARK Flexibility Score: inf
ROOT
ATOM      1  C   UNL     1      28.025  21.115 -29.371  1.00  0.00     0.011 C 
ATOM      2  C   UNL     1      29.421  20.479 -29.402  1.00  0.00     0.019 C 
ATOM      3  C   UNL     1      29.727  19.600 -28.168  1.00  0.00     0.007 C 
ATOM      4  C   UNL     1      30.674  18.481 -28.649  1.00  0.00     0.011 C 
ATOM      5  C   UNL     1      30.998  18.860 -30.091  1.00  0.00     0.047 C 
ATOM      6  C   UNL     1      29.731  19.558 -30.592  1.00  0.00     0.081 C 
ATOM      7  C   UNL     1      28.597  18.555 -30.958  1.00  0.00     0.046 C 
ATOM      8  C   UNL     1      28.688  18.470 -32.477  1.00  0.00     0.054 C 
ATOM      9  C   UNL     1      30.034  19.174 -32.749  1.00  0.00     0.173 C 
ATOM     10  O   UNL     1      30.078  20.219 -31.787  1.00  0.00    -0.342 OA
ATOM     11  C   UNL     1      31.278  18.231 -32.555  1.00  0.00     0.096 C 
ATOM     12  C   UNL     1      31.423  17.819 -31.097  1.00  0.00    -0.066 C 
ATOM     13  C   UNL     1      32.084  16.706 -30.750  1.00  0.00     0.008 C 
ENDROOT
BRANCH   8  14
ATOM     14  C   UNL     1      28.489  17.032 -33.046  1.00  0.00    -0.009 C 
ATOM     15  C   UNL     1      27.239  16.947 -33.937  1.00  0.00     0.008 C 
ATOM     16  C   UNL     1      28.353  16.007 -31.906  1.00  0.00     0.008 C 
ENDBRANCH   8  14
BRANCH   9  17
ATOM     17  O   UNL     1      30.033  19.719 -34.044  1.00  0.00    -0.365 OA
ATOM     18  H   UNL     1      29.717  19.007 -34.659  1.00  0.00     0.214 HD
ENDBRANCH   9  17
TORSDOF 2
ENDMDL
