MODEL 1
REMARK VINA RESULT:    -5.181      0.000      0.000
REMARK INTER + INTRA:         -16.337
REMARK INTER:                 -13.662
REMARK INTRA:                  -2.675
REMARK UNBOUND:                -2.675
REMARK SMILES CCCCCCCCCCCCCCCCCCCCCCCCCCCCCC(=O)[O-]
REMARK SMILES IDX 16 1 17 2 18 3 19 4 20 5 21 6 22 7 23 8 24 9 25 10 26 11
REMARK SMILES IDX 27 12 28 13 29 14 30 15 31 16 32 17 15 18 14 19 13 20 12 21
REMARK SMILES IDX 11 22 10 23 9 24 8 25 7 26 6 27 5 28 4 29 3 30 2 31 1 32
REMARK H PARENT
REMARK Flexibility Score: inf
ROOT
ATOM      1  C   UNL     1      23.420   3.792  62.711  1.00  0.00     0.000 C 
ENDROOT
BRANCH   1   2
ATOM      2  C   UNL     1      23.765   4.067  64.191  1.00  0.00     0.000 C 
BRANCH   2   3
ATOM      3  C   UNL     1      23.237   2.997  65.161  1.00  0.00     0.000 C 
BRANCH   3   4
ATOM      4  C   UNL     1      23.981   2.986  66.508  1.00  0.00     0.000 C 
BRANCH   4   5
ATOM      5  C   UNL     1      23.078   2.591  67.689  1.00  0.00     0.000 C 
BRANCH   5   6
ATOM      6  C   UNL     1      23.281   3.487  68.921  1.00  0.00     0.000 C 
BRANCH   6   7
ATOM      7  C   UNL     1      23.324   2.687  70.236  1.00  0.00     0.000 C 
BRANCH   7   8
ATOM      8  C   UNL     1      21.951   2.562  70.932  1.00  0.00     0.000 C 
BRANCH   8   9
ATOM      9  C   UNL     1      21.489   1.102  71.053  1.00  0.00     0.000 C 
BRANCH   9  10
ATOM     10  C   UNL     1      20.057   1.023  71.604  1.00  0.00     0.000 C 
BRANCH  10  11
ATOM     11  C   UNL     1      19.098   0.256  70.676  1.00  0.00     0.000 C 
BRANCH  11  12
ATOM     12  C   UNL     1      17.776  -0.185  71.330  1.00  0.00     0.000 C 
BRANCH  12  13
ATOM     13  C   UNL     1      17.483  -1.681  71.138  1.00  0.00     0.006 C 
BRANCH  13  14
ATOM     14  C   UNL     1      16.116  -1.890  70.476  1.00  0.00     0.053 C 
BRANCH  14  15
ATOM     15  C   UNL     1      16.237  -1.868  68.984  1.00  0.00     0.041 C 
ATOM     16  O   UNL     1      15.231  -1.605  68.271  1.00  0.00    -0.550 OA
ATOM     17  O   UNL     1      17.454  -2.154  68.379  1.00  0.00    -0.550 OA
ENDBRANCH  14  15
ENDBRANCH  13  14
ENDBRANCH  12  13
ENDBRANCH  11  12
ENDBRANCH  10  11
ENDBRANCH   9  10
ENDBRANCH   8   9
ENDBRANCH   7   8
ENDBRANCH   6   7
ENDBRANCH   5   6
ENDBRANCH   4   5
ENDBRANCH   3   4
ENDBRANCH   2   3
ENDBRANCH   1   2
BRANCH   1  18
ATOM     18  C   UNL     1      24.568   3.081  61.973  1.00  0.00     0.000 C 
BRANCH  18  19
ATOM     19  C   UNL     1      25.809   2.885  62.855  1.00  0.00     0.000 C 
BRANCH  19  20
ATOM     20  C   UNL     1      26.187   1.404  63.026  1.00  0.00     0.000 C 
BRANCH  20  21
ATOM     21  C   UNL     1      25.207   0.449  62.322  1.00  0.00     0.000 C 
BRANCH  21  22
ATOM     22  C   UNL     1      25.896  -0.720  61.588  1.00  0.00     0.000 C 
BRANCH  22  23
ATOM     23  C   UNL     1      25.496  -2.086  62.165  1.00  0.00     0.000 C 
BRANCH  23  24
ATOM     24  C   UNL     1      25.625  -3.195  61.110  1.00  0.00    -0.000 C 
BRANCH  24  25
ATOM     25  C   UNL     1      25.363  -2.689  59.678  1.00  0.00    -0.000 C 
BRANCH  25  26
ATOM     26  C   UNL     1      24.010  -3.109  59.065  1.00  0.00    -0.000 C 
BRANCH  26  27
ATOM     27  C   UNL     1      23.025  -3.768  60.050  1.00  0.00    -0.000 C 
BRANCH  27  28
ATOM     28  C   UNL     1      21.596  -3.219  59.909  1.00  0.00    -0.000 C 
BRANCH  28  29
ATOM     29  C   UNL     1      21.479  -1.768  60.411  1.00  0.00    -0.000 C 
BRANCH  29  30
ATOM     30  C   UNL     1      21.936  -1.593  61.877  1.00  0.00    -0.000 C 
BRANCH  30  31
ATOM     31  C   UNL     1      21.200  -0.462  62.616  1.00  0.00    -0.003 C 
ATOM     32  C   UNL     1      21.471   0.918  62.018  1.00  0.00     0.004 C 
ENDBRANCH  30  31
ENDBRANCH  29  30
ENDBRANCH  28  29
ENDBRANCH  27  28
ENDBRANCH  26  27
ENDBRANCH  25  26
ENDBRANCH  24  25
ENDBRANCH  23  24
ENDBRANCH  22  23
ENDBRANCH  21  22
ENDBRANCH  20  21
ENDBRANCH  19  20
ENDBRANCH  18  19
ENDBRANCH   1  18
TORSDOF 28
ENDMDL
MODEL 2
REMARK VINA RESULT:    -5.050      3.081     10.132
REMARK INTER + INTRA:         -15.991
REMARK INTER:                 -13.270
REMARK INTRA:                  -2.720
REMARK UNBOUND:                -2.675
REMARK SMILES CCCCCCCCCCCCCCCCCCCCCCCCCCCCCC(=O)[O-]
REMARK SMILES IDX 16 1 17 2 18 3 19 4 20 5 21 6 22 7 23 8 24 9 25 10 26 11
REMARK SMILES IDX 27 12 28 13 29 14 30 15 31 16 32 17 15 18 14 19 13 20 12 21
REMARK SMILES IDX 11 22 10 23 9 24 8 25 7 26 6 27 5 28 4 29 3 30 2 31 1 32
REMARK H PARENT
REMARK Flexibility Score: inf
ROOT
ATOM      1  C   UNL     1      21.890   2.131  62.750  1.00  0.00     0.000 C 
ENDROOT
BRANCH   1   2
ATOM      2  C   UNL     1      21.365   0.681  62.821  1.00  0.00     0.000 C 
BRANCH   2   3
ATOM      3  C   UNL     1      21.140   0.033  61.444  1.00  0.00     0.000 C 
BRANCH   3   4
ATOM      4  C   UNL     1      21.314  -1.496  61.462  1.00  0.00     0.000 C 
BRANCH   4   5
ATOM      5  C   UNL     1      21.285  -2.120  60.057  1.00  0.00     0.000 C 
BRANCH   5   6
ATOM      6  C   UNL     1      22.222  -3.331  59.923  1.00  0.00     0.000 C 
BRANCH   6   7
ATOM      7  C   UNL     1      23.455  -3.032  59.051  1.00  0.00     0.000 C 
BRANCH   7   8
ATOM      8  C   UNL     1      24.782  -3.539  59.657  1.00  0.00     0.000 C 
BRANCH   8   9
ATOM      9  C   UNL     1      24.661  -3.840  61.159  1.00  0.00     0.000 C 
BRANCH   9  10
ATOM     10  C   UNL     1      25.767  -3.128  61.953  1.00  0.00     0.000 C 
BRANCH  10  11
ATOM     11  C   UNL     1      25.893  -1.635  61.600  1.00  0.00     0.000 C 
BRANCH  11  12
ATOM     12  C   UNL     1      24.768  -0.740  62.152  1.00  0.00     0.000 C 
BRANCH  12  13
ATOM     13  C   UNL     1      25.077   0.759  62.020  1.00  0.00     0.006 C 
BRANCH  13  14
ATOM     14  C   UNL     1      26.010   1.226  63.143  1.00  0.00     0.053 C 
BRANCH  14  15
ATOM     15  C   UNL     1      25.758   2.662  63.483  1.00  0.00     0.041 C 
ATOM     16  O   UNL     1      25.212   3.427  62.642  1.00  0.00    -0.550 OA
ATOM     17  O   UNL     1      26.141   3.163  64.721  1.00  0.00    -0.550 OA
ENDBRANCH  14  15
ENDBRANCH  13  14
ENDBRANCH  12  13
ENDBRANCH  11  12
ENDBRANCH  10  11
ENDBRANCH   9  10
ENDBRANCH   8   9
ENDBRANCH   7   8
ENDBRANCH   6   7
ENDBRANCH   5   6
ENDBRANCH   4   5
ENDBRANCH   3   4
ENDBRANCH   2   3
ENDBRANCH   1   2
BRANCH   1  18
ATOM     18  C   UNL     1      21.521   2.941  64.006  1.00  0.00     0.000 C 
BRANCH  18  19
ATOM     19  C   UNL     1      21.943   2.243  65.307  1.00  0.00     0.000 C 
BRANCH  19  20
ATOM     20  C   UNL     1      23.110   2.956  66.010  1.00  0.00     0.000 C 
BRANCH  20  21
ATOM     21  C   UNL     1      23.317   2.483  67.460  1.00  0.00     0.000 C 
BRANCH  21  22
ATOM     22  C   UNL     1      23.526   3.634  68.466  1.00  0.00     0.000 C 
BRANCH  22  23
ATOM     23  C   UNL     1      23.362   3.172  69.921  1.00  0.00     0.000 C 
BRANCH  23  24
ATOM     24  C   UNL     1      22.279   2.089  70.043  1.00  0.00    -0.000 C 
BRANCH  24  25
ATOM     25  C   UNL     1      21.664   2.018  71.454  1.00  0.00    -0.000 C 
BRANCH  25  26
ATOM     26  C   UNL     1      20.744   0.805  71.712  1.00  0.00    -0.000 C 
BRANCH  26  27
ATOM     27  C   UNL     1      19.446   0.782  70.882  1.00  0.00    -0.000 C 
BRANCH  27  28
ATOM     28  C   UNL     1      18.280   0.116  71.631  1.00  0.00    -0.000 C 
BRANCH  28  29
ATOM     29  C   UNL     1      17.453  -0.805  70.716  1.00  0.00    -0.000 C 
BRANCH  29  30
ATOM     30  C   UNL     1      18.072  -0.982  69.311  1.00  0.00    -0.000 C 
BRANCH  30  31
ATOM     31  C   UNL     1      17.253  -1.907  68.394  1.00  0.00    -0.003 C 
ATOM     32  C   UNL     1      15.764  -1.921  68.734  1.00  0.00     0.004 C 
ENDBRANCH  30  31
ENDBRANCH  29  30
ENDBRANCH  28  29
ENDBRANCH  27  28
ENDBRANCH  26  27
ENDBRANCH  25  26
ENDBRANCH  24  25
ENDBRANCH  23  24
ENDBRANCH  22  23
ENDBRANCH  21  22
ENDBRANCH  20  21
ENDBRANCH  19  20
ENDBRANCH  18  19
ENDBRANCH   1  18
TORSDOF 28
ENDMDL
MODEL 3
REMARK VINA RESULT:    -5.034      1.010      2.756
REMARK INTER + INTRA:         -15.950
REMARK INTER:                 -13.491
REMARK INTRA:                  -2.459
REMARK UNBOUND:                -2.675
REMARK SMILES CCCCCCCCCCCCCCCCCCCCCCCCCCCCCC(=O)[O-]
REMARK SMILES IDX 16 1 17 2 18 3 19 4 20 5 21 6 22 7 23 8 24 9 25 10 26 11
REMARK SMILES IDX 27 12 28 13 29 14 30 15 31 16 32 17 15 18 14 19 13 20 12 21
REMARK SMILES IDX 11 22 10 23 9 24 8 25 7 26 6 27 5 28 4 29 3 30 2 31 1 32
REMARK H PARENT
REMARK Flexibility Score: inf
ROOT
ATOM      1  C   UNL     1      25.434   3.613  64.315  1.00  0.00     0.000 C 
ENDROOT
BRANCH   1   2
ATOM      2  C   UNL     1      25.085   3.056  65.712  1.00  0.00     0.000 C 
BRANCH   2   3
ATOM      3  C   UNL     1      23.573   2.943  65.975  1.00  0.00     0.000 C 
BRANCH   3   4
ATOM      4  C   UNL     1      23.241   2.580  67.433  1.00  0.00     0.000 C 
BRANCH   4   5
ATOM      5  C   UNL     1      23.650   3.675  68.432  1.00  0.00     0.000 C 
BRANCH   5   6
ATOM      6  C   UNL     1      23.484   3.239  69.896  1.00  0.00     0.000 C 
BRANCH   6   7
ATOM      7  C   UNL     1      22.476   2.088  70.062  1.00  0.00     0.000 C 
BRANCH   7   8
ATOM      8  C   UNL     1      21.696   2.133  71.394  1.00  0.00     0.000 C 
BRANCH   8   9
ATOM      9  C   UNL     1      20.994   0.802  71.704  1.00  0.00     0.000 C 
BRANCH   9  10
ATOM     10  C   UNL     1      19.703   0.658  70.885  1.00  0.00     0.000 C 
BRANCH  10  11
ATOM     11  C   UNL     1      18.482   0.289  71.747  1.00  0.00     0.000 C 
BRANCH  11  12
ATOM     12  C   UNL     1      17.423  -0.574  71.037  1.00  0.00     0.000 C 
BRANCH  12  13
ATOM     13  C   UNL     1      17.667  -0.699  69.526  1.00  0.00     0.006 C 
BRANCH  13  14
ATOM     14  C   UNL     1      17.176  -2.053  69.002  1.00  0.00     0.053 C 
BRANCH  14  15
ATOM     15  C   UNL     1      15.681  -2.082  68.918  1.00  0.00     0.041 C 
ATOM     16  O   UNL     1      15.071  -1.267  68.175  1.00  0.00    -0.550 OA
ATOM     17  O   UNL     1      14.959  -2.997  69.675  1.00  0.00    -0.550 OA
ENDBRANCH  14  15
ENDBRANCH  13  14
ENDBRANCH  12  13
ENDBRANCH  11  12
ENDBRANCH  10  11
ENDBRANCH   9  10
ENDBRANCH   8   9
ENDBRANCH   7   8
ENDBRANCH   6   7
ENDBRANCH   5   6
ENDBRANCH   4   5
ENDBRANCH   3   4
ENDBRANCH   2   3
ENDBRANCH   1   2
BRANCH   1  18
ATOM     18  C   UNL     1      24.177   4.002  63.517  1.00  0.00     0.000 C 
BRANCH  18  19
ATOM     19  C   UNL     1      24.259   3.586  62.041  1.00  0.00     0.000 C 
BRANCH  19  20
ATOM     20  C   UNL     1      23.060   2.731  61.600  1.00  0.00     0.000 C 
BRANCH  20  21
ATOM     21  C   UNL     1      22.602   1.735  62.680  1.00  0.00     0.000 C 
BRANCH  21  22
ATOM     22  C   UNL     1      21.178   1.186  62.456  1.00  0.00     0.000 C 
BRANCH  22  23
ATOM     23  C   UNL     1      21.095  -0.330  62.692  1.00  0.00     0.000 C 
BRANCH  23  24
ATOM     24  C   UNL     1      21.379  -1.111  61.400  1.00  0.00    -0.000 C 
BRANCH  24  25
ATOM     25  C   UNL     1      22.324  -2.307  61.622  1.00  0.00    -0.000 C 
BRANCH  25  26
ATOM     26  C   UNL     1      22.436  -3.289  60.436  1.00  0.00    -0.000 C 
BRANCH  26  27
ATOM     27  C   UNL     1      22.863  -2.651  59.100  1.00  0.00    -0.000 C 
BRANCH  27  28
ATOM     28  C   UNL     1      24.272  -3.085  58.664  1.00  0.00    -0.000 C 
BRANCH  28  29
ATOM     29  C   UNL     1      25.232  -3.226  59.858  1.00  0.00    -0.000 C 
BRANCH  29  30
ATOM     30  C   UNL     1      25.871  -1.886  60.287  1.00  0.00    -0.000 C 
BRANCH  30  31
ATOM     31  C   UNL     1      25.735  -1.598  61.792  1.00  0.00    -0.003 C 
ATOM     32  C   UNL     1      25.632  -0.107  62.109  1.00  0.00     0.004 C 
ENDBRANCH  30  31
ENDBRANCH  29  30
ENDBRANCH  28  29
ENDBRANCH  27  28
ENDBRANCH  26  27
ENDBRANCH  25  26
ENDBRANCH  24  25
ENDBRANCH  23  24
ENDBRANCH  22  23
ENDBRANCH  21  22
ENDBRANCH  20  21
ENDBRANCH  19  20
ENDBRANCH  18  19
ENDBRANCH   1  18
TORSDOF 28
ENDMDL
MODEL 4
REMARK VINA RESULT:    -5.022      5.332     11.759
REMARK INTER + INTRA:         -15.917
REMARK INTER:                 -13.559
REMARK INTRA:                  -2.358
REMARK UNBOUND:                -2.675
REMARK SMILES CCCCCCCCCCCCCCCCCCCCCCCCCCCCCC(=O)[O-]
REMARK SMILES IDX 16 1 17 2 18 3 19 4 20 5 21 6 22 7 23 8 24 9 25 10 26 11
REMARK SMILES IDX 27 12 28 13 29 14 30 15 31 16 32 17 15 18 14 19 13 20 12 21
REMARK SMILES IDX 11 22 10 23 9 24 8 25 7 26 6 27 5 28 4 29 3 30 2 31 1 32
REMARK H PARENT
REMARK Flexibility Score: inf
ROOT
ATOM      1  C   UNL     1      25.518  -3.566  59.755  1.00  0.00     0.000 C 
ENDROOT
BRANCH   1   2
ATOM      2  C   UNL     1      25.028  -2.964  58.421  1.00  0.00     0.000 C 
BRANCH   2   3
ATOM      3  C   UNL     1      23.497  -2.941  58.275  1.00  0.00     0.000 C 
BRANCH   3   4
ATOM      4  C   UNL     1      23.032  -2.524  56.868  1.00  0.00     0.000 C 
BRANCH   4   5
ATOM      5  C   UNL     1      23.428  -3.537  55.781  1.00  0.00     0.000 C 
BRANCH   5   6
ATOM      6  C   UNL     1      23.328  -2.957  54.361  1.00  0.00     0.000 C 
BRANCH   6   7
ATOM      7  C   UNL     1      22.026  -2.169  54.132  1.00  0.00     0.000 C 
BRANCH   7   8
ATOM      8  C   UNL     1      21.666  -1.984  52.642  1.00  0.00     0.000 C 
BRANCH   8   9
ATOM      9  C   UNL     1      20.759  -0.765  52.407  1.00  0.00     0.000 C 
BRANCH   9  10
ATOM     10  C   UNL     1      19.560  -0.781  53.367  1.00  0.00     0.000 C 
BRANCH  10  11
ATOM     11  C   UNL     1      18.239  -0.382  52.684  1.00  0.00     0.000 C 
BRANCH  11  12
ATOM     12  C   UNL     1      17.770   1.056  52.968  1.00  0.00     0.000 C 
BRANCH  12  13
ATOM     13  C   UNL     1      17.588   1.342  54.467  1.00  0.00     0.006 C 
BRANCH  13  14
ATOM     14  C   UNL     1      16.384   2.259  54.707  1.00  0.00     0.053 C 
BRANCH  14  15
ATOM     15  C   UNL     1      15.601   1.810  55.902  1.00  0.00     0.041 C 
ATOM     16  O   UNL     1      14.623   1.026  55.760  1.00  0.00    -0.550 OA
ATOM     17  O   UNL     1      15.937   2.270  57.168  1.00  0.00    -0.550 OA
ENDBRANCH  14  15
ENDBRANCH  13  14
ENDBRANCH  12  13
ENDBRANCH  11  12
ENDBRANCH  10  11
ENDBRANCH   9  10
ENDBRANCH   8   9
ENDBRANCH   7   8
ENDBRANCH   6   7
ENDBRANCH   5   6
ENDBRANCH   4   5
ENDBRANCH   3   4
ENDBRANCH   2   3
ENDBRANCH   1   2
BRANCH   1  18
ATOM     18  C   UNL     1      25.942  -2.478  60.758  1.00  0.00     0.000 C 
BRANCH  18  19
ATOM     19  C   UNL     1      25.034  -2.424  61.995  1.00  0.00     0.000 C 
BRANCH  19  20
ATOM     20  C   UNL     1      23.784  -3.308  61.850  1.00  0.00     0.000 C 
BRANCH  20  21
ATOM     21  C   UNL     1      22.471  -2.527  62.037  1.00  0.00     0.000 C 
BRANCH  21  22
ATOM     22  C   UNL     1      22.589  -1.024  61.708  1.00  0.00     0.000 C 
BRANCH  22  23
ATOM     23  C   UNL     1      21.437  -0.205  62.309  1.00  0.00     0.000 C 
BRANCH  23  24
ATOM     24  C   UNL     1      21.853   1.256  62.537  1.00  0.00    -0.000 C 
BRANCH  24  25
ATOM     25  C   UNL     1      21.397   1.800  63.905  1.00  0.00    -0.000 C 
BRANCH  25  26
ATOM     26  C   UNL     1      21.540   3.326  64.090  1.00  0.00    -0.000 C 
BRANCH  26  27
ATOM     27  C   UNL     1      22.978   3.864  63.971  1.00  0.00    -0.000 C 
BRANCH  27  28
ATOM     28  C   UNL     1      23.963   3.124  64.892  1.00  0.00    -0.000 C 
BRANCH  28  29
ATOM     29  C   UNL     1      25.427   3.341  64.471  1.00  0.00    -0.000 C 
BRANCH  29  30
ATOM     30  C   UNL     1      25.595   3.576  62.953  1.00  0.00    -0.000 C 
BRANCH  30  31
ATOM     31  C   UNL     1      25.374   2.309  62.110  1.00  0.00    -0.003 C 
ATOM     32  C   UNL     1      25.926   1.047  62.771  1.00  0.00     0.004 C 
ENDBRANCH  30  31
ENDBRANCH  29  30
ENDBRANCH  28  29
ENDBRANCH  27  28
ENDBRANCH  26  27
ENDBRANCH  25  26
ENDBRANCH  24  25
ENDBRANCH  23  24
ENDBRANCH  22  23
ENDBRANCH  21  22
ENDBRANCH  20  21
ENDBRANCH  19  20
ENDBRANCH  18  19
ENDBRANCH   1  18
TORSDOF 28
ENDMDL
MODEL 5
REMARK VINA RESULT:    -5.009      5.218     11.458
REMARK INTER + INTRA:         -15.885
REMARK INTER:                 -13.149
REMARK INTRA:                  -2.735
REMARK UNBOUND:                -2.675
REMARK SMILES CCCCCCCCCCCCCCCCCCCCCCCCCCCCCC(=O)[O-]
REMARK SMILES IDX 16 1 17 2 18 3 19 4 20 5 21 6 22 7 23 8 24 9 25 10 26 11
REMARK SMILES IDX 27 12 28 13 29 14 30 15 31 16 32 17 15 18 14 19 13 20 12 21
REMARK SMILES IDX 11 22 10 23 9 24 8 25 7 26 6 27 5 28 4 29 3 30 2 31 1 32
REMARK H PARENT
REMARK Flexibility Score: inf
ROOT
ATOM      1  C   UNL     1      24.472  -3.640  61.964  1.00  0.00     0.000 C 
ENDROOT
BRANCH   1   2
ATOM      2  C   UNL     1      24.301  -4.127  60.509  1.00  0.00     0.000 C 
BRANCH   2   3
ATOM      3  C   UNL     1      25.454  -3.715  59.576  1.00  0.00     0.000 C 
BRANCH   3   4
ATOM      4  C   UNL     1      24.985  -2.884  58.370  1.00  0.00     0.000 C 
BRANCH   4   5
ATOM      5  C   UNL     1      23.473  -2.999  58.112  1.00  0.00     0.000 C 
BRANCH   5   6
ATOM      6  C   UNL     1      23.074  -2.558  56.696  1.00  0.00     0.000 C 
BRANCH   6   7
ATOM      7  C   UNL     1      23.587  -3.518  55.608  1.00  0.00     0.000 C 
BRANCH   7   8
ATOM      8  C   UNL     1      23.252  -3.065  54.170  1.00  0.00     0.000 C 
BRANCH   8   9
ATOM      9  C   UNL     1      22.157  -1.987  54.138  1.00  0.00     0.000 C 
BRANCH   9  10
ATOM     10  C   UNL     1      21.438  -1.976  52.780  1.00  0.00     0.000 C 
BRANCH  10  11
ATOM     11  C   UNL     1      20.582  -0.716  52.565  1.00  0.00     0.000 C 
BRANCH  11  12
ATOM     12  C   UNL     1      19.234  -0.712  53.308  1.00  0.00     0.000 C 
BRANCH  12  13
ATOM     13  C   UNL     1      18.155   0.111  52.587  1.00  0.00     0.006 C 
BRANCH  13  14
ATOM     14  C   UNL     1      16.986   0.425  53.527  1.00  0.00     0.053 C 
BRANCH  14  15
ATOM     15  C   UNL     1      17.387   1.432  54.560  1.00  0.00     0.041 C 
ATOM     16  O   UNL     1      17.972   2.495  54.215  1.00  0.00    -0.550 OA
ATOM     17  O   UNL     1      17.133   1.191  55.904  1.00  0.00    -0.550 OA
ENDBRANCH  14  15
ENDBRANCH  13  14
ENDBRANCH  12  13
ENDBRANCH  11  12
ENDBRANCH  10  11
ENDBRANCH   9  10
ENDBRANCH   8   9
ENDBRANCH   7   8
ENDBRANCH   6   7
ENDBRANCH   5   6
ENDBRANCH   4   5
ENDBRANCH   3   4
ENDBRANCH   2   3
ENDBRANCH   1   2
BRANCH   1  18
ATOM     18  C   UNL     1      25.478  -2.480  62.071  1.00  0.00     0.000 C 
BRANCH  18  19
ATOM     19  C   UNL     1      24.802  -1.102  62.023  1.00  0.00     0.000 C 
BRANCH  19  20
ATOM     20  C   UNL     1      25.815   0.053  61.979  1.00  0.00     0.000 C 
BRANCH  20  21
ATOM     21  C   UNL     1      25.471   1.192  62.955  1.00  0.00     0.000 C 
BRANCH  21  22
ATOM     22  C   UNL     1      25.818   2.597  62.419  1.00  0.00     0.000 C 
BRANCH  22  23
ATOM     23  C   UNL     1      25.247   3.715  63.305  1.00  0.00     0.000 C 
BRANCH  23  24
ATOM     24  C   UNL     1      25.510   3.436  64.792  1.00  0.00    -0.000 C 
BRANCH  24  25
ATOM     25  C   UNL     1      24.229   3.061  65.563  1.00  0.00    -0.000 C 
BRANCH  25  26
ATOM     26  C   UNL     1      22.905   3.486  64.892  1.00  0.00    -0.000 C 
BRANCH  26  27
ATOM     27  C   UNL     1      21.906   2.341  64.639  1.00  0.00    -0.000 C 
BRANCH  27  28
ATOM     28  C   UNL     1      21.343   2.356  63.208  1.00  0.00    -0.000 C 
BRANCH  28  29
ATOM     29  C   UNL     1      21.881   1.189  62.361  1.00  0.00    -0.000 C 
BRANCH  29  30
ATOM     30  C   UNL     1      20.867   0.034  62.202  1.00  0.00    -0.000 C 
BRANCH  30  31
ATOM     31  C   UNL     1      21.530  -1.335  61.972  1.00  0.00    -0.003 C 
ATOM     32  C   UNL     1      21.392  -1.832  60.534  1.00  0.00     0.004 C 
ENDBRANCH  30  31
ENDBRANCH  29  30
ENDBRANCH  28  29
ENDBRANCH  27  28
ENDBRANCH  26  27
ENDBRANCH  25  26
ENDBRANCH  24  25
ENDBRANCH  23  24
ENDBRANCH  22  23
ENDBRANCH  21  22
ENDBRANCH  20  21
ENDBRANCH  19  20
ENDBRANCH  18  19
ENDBRANCH   1  18
TORSDOF 28
ENDMDL
MODEL 6
REMARK VINA RESULT:    -4.888      5.086      8.550
REMARK INTER + INTRA:         -15.563
REMARK INTER:                 -13.303
REMARK INTRA:                  -2.260
REMARK UNBOUND:                -2.675
REMARK SMILES CCCCCCCCCCCCCCCCCCCCCCCCCCCCCC(=O)[O-]
REMARK SMILES IDX 16 1 17 2 18 3 19 4 20 5 21 6 22 7 23 8 24 9 25 10 26 11
REMARK SMILES IDX 27 12 28 13 29 14 30 15 31 16 32 17 15 18 14 19 13 20 12 21
REMARK SMILES IDX 11 22 10 23 9 24 8 25 7 26 6 27 5 28 4 29 3 30 2 31 1 32
REMARK H PARENT
REMARK Flexibility Score: inf
ROOT
ATOM      1  C   UNL     1      23.950  -4.071  60.226  1.00  0.00     0.000 C 
ENDROOT
BRANCH   1   2
ATOM      2  C   UNL     1      23.214  -3.114  61.189  1.00  0.00     0.000 C 
BRANCH   2   3
ATOM      3  C   UNL     1      24.060  -2.678  62.398  1.00  0.00     0.000 C 
BRANCH   3   4
ATOM      4  C   UNL     1      25.550  -2.497  62.057  1.00  0.00     0.000 C 
BRANCH   4   5
ATOM      5  C   UNL     1      25.887  -1.077  61.574  1.00  0.00     0.000 C 
BRANCH   5   6
ATOM      6  C   UNL     1      25.105   0.011  62.326  1.00  0.00     0.000 C 
BRANCH   6   7
ATOM      7  C   UNL     1      25.996   1.188  62.761  1.00  0.00     0.000 C 
BRANCH   7   8
ATOM      8  C   UNL     1      25.539   2.553  62.202  1.00  0.00     0.000 C 
BRANCH   8   9
ATOM      9  C   UNL     1      25.408   3.620  63.301  1.00  0.00     0.000 C 
BRANCH   9  10
ATOM     10  C   UNL     1      25.303   2.968  64.688  1.00  0.00     0.000 C 
BRANCH  10  11
ATOM     11  C   UNL     1      23.858   2.904  65.214  1.00  0.00     0.000 C 
BRANCH  11  12
ATOM     12  C   UNL     1      22.855   3.805  64.470  1.00  0.00     0.000 C 
BRANCH  12  13
ATOM     13  C   UNL     1      21.631   3.037  63.950  1.00  0.00     0.006 C 
BRANCH  13  14
ATOM     14  C   UNL     1      22.021   2.097  62.804  1.00  0.00     0.053 C 
BRANCH  14  15
ATOM     15  C   UNL     1      21.375   0.756  62.970  1.00  0.00     0.041 C 
ATOM     16  O   UNL     1      21.391  -0.077  62.023  1.00  0.00    -0.550 OA
ATOM     17  O   UNL     1      20.741   0.431  64.162  1.00  0.00    -0.550 OA
ENDBRANCH  14  15
ENDBRANCH  13  14
ENDBRANCH  12  13
ENDBRANCH  11  12
ENDBRANCH  10  11
ENDBRANCH   9  10
ENDBRANCH   8   9
ENDBRANCH   7   8
ENDBRANCH   6   7
ENDBRANCH   5   6
ENDBRANCH   4   5
ENDBRANCH   3   4
ENDBRANCH   2   3
ENDBRANCH   1   2
BRANCH   1  18
ATOM     18  C   UNL     1      24.252  -3.406  58.871  1.00  0.00     0.000 C 
BRANCH  18  19
ATOM     19  C   UNL     1      23.001  -2.806  58.213  1.00  0.00     0.000 C 
BRANCH  19  20
ATOM     20  C   UNL     1      23.248  -2.369  56.760  1.00  0.00     0.000 C 
BRANCH  20  21
ATOM     21  C   UNL     1      23.218  -3.543  55.766  1.00  0.00     0.000 C 
BRANCH  21  22
ATOM     22  C   UNL     1      23.263  -3.108  54.287  1.00  0.00     0.000 C 
BRANCH  22  23
ATOM     23  C   UNL     1      22.402  -1.864  54.019  1.00  0.00     0.000 C 
BRANCH  23  24
ATOM     24  C   UNL     1      21.616  -2.003  52.707  1.00  0.00    -0.000 C 
BRANCH  24  25
ATOM     25  C   UNL     1      20.657  -0.822  52.459  1.00  0.00    -0.000 C 
BRANCH  25  26
ATOM     26  C   UNL     1      19.404  -0.787  53.360  1.00  0.00    -0.000 C 
BRANCH  26  27
ATOM     27  C   UNL     1      18.191  -0.050  52.762  1.00  0.00    -0.000 C 
BRANCH  27  28
ATOM     28  C   UNL     1      17.720   1.120  53.642  1.00  0.00    -0.000 C 
BRANCH  28  29
ATOM     29  C   UNL     1      16.360   1.677  53.187  1.00  0.00    -0.000 C 
BRANCH  29  30
ATOM     30  C   UNL     1      15.661   2.534  54.267  1.00  0.00    -0.000 C 
BRANCH  30  31
ATOM     31  C   UNL     1      14.615   1.756  55.083  1.00  0.00    -0.003 C 
ATOM     32  C   UNL     1      14.941   1.701  56.575  1.00  0.00     0.004 C 
ENDBRANCH  30  31
ENDBRANCH  29  30
ENDBRANCH  28  29
ENDBRANCH  27  28
ENDBRANCH  26  27
ENDBRANCH  25  26
ENDBRANCH  24  25
ENDBRANCH  23  24
ENDBRANCH  22  23
ENDBRANCH  21  22
ENDBRANCH  20  21
ENDBRANCH  19  20
ENDBRANCH  18  19
ENDBRANCH   1  18
TORSDOF 28
ENDMDL
MODEL 7
REMARK VINA RESULT:    -4.857      5.889     11.939
REMARK INTER + INTRA:         -15.482
REMARK INTER:                 -13.261
REMARK INTRA:                  -2.221
REMARK UNBOUND:                -2.675
REMARK SMILES CCCCCCCCCCCCCCCCCCCCCCCCCCCCCC(=O)[O-]
REMARK SMILES IDX 16 1 17 2 18 3 19 4 20 5 21 6 22 7 23 8 24 9 25 10 26 11
REMARK SMILES IDX 27 12 28 13 29 14 30 15 31 16 32 17 15 18 14 19 13 20 12 21
REMARK SMILES IDX 11 22 10 23 9 24 8 25 7 26 6 27 5 28 4 29 3 30 2 31 1 32
REMARK H PARENT
REMARK Flexibility Score: inf
ROOT
ATOM      1  C   UNL     1      22.869  -3.510  60.519  1.00  0.00     0.000 C 
ENDROOT
BRANCH   1   2
ATOM      2  C   UNL     1      22.739  -2.600  59.278  1.00  0.00     0.000 C 
BRANCH   2   3
ATOM      3  C   UNL     1      23.649  -3.010  58.108  1.00  0.00     0.000 C 
BRANCH   3   4
ATOM      4  C   UNL     1      23.012  -2.753  56.731  1.00  0.00     0.000 C 
BRANCH   4   5
ATOM      5  C   UNL     1      23.599  -3.643  55.623  1.00  0.00     0.000 C 
BRANCH   5   6
ATOM      6  C   UNL     1      23.413  -3.047  54.218  1.00  0.00     0.000 C 
BRANCH   6   7
ATOM      7  C   UNL     1      22.112  -2.235  54.086  1.00  0.00     0.000 C 
BRANCH   7   8
ATOM      8  C   UNL     1      21.719  -1.925  52.625  1.00  0.00     0.000 C 
BRANCH   8   9
ATOM      9  C   UNL     1      20.727  -0.756  52.523  1.00  0.00     0.000 C 
BRANCH   9  10
ATOM     10  C   UNL     1      19.487  -1.011  53.393  1.00  0.00     0.000 C 
BRANCH  10  11
ATOM     11  C   UNL     1      18.397   0.060  53.214  1.00  0.00     0.000 C 
BRANCH  11  12
ATOM     12  C   UNL     1      18.035   0.839  54.491  1.00  0.00     0.000 C 
BRANCH  12  13
ATOM     13  C   UNL     1      17.374   2.195  54.199  1.00  0.00     0.006 C 
BRANCH  13  14
ATOM     14  C   UNL     1      16.545   2.133  52.911  1.00  0.00     0.053 C 
BRANCH  14  15
ATOM     15  C   UNL     1      15.165   1.622  53.188  1.00  0.00     0.041 C 
ATOM     16  O   UNL     1      14.685   0.684  52.495  1.00  0.00    -0.550 OA
ATOM     17  O   UNL     1      14.402   2.191  54.199  1.00  0.00    -0.550 OA
ENDBRANCH  14  15
ENDBRANCH  13  14
ENDBRANCH  12  13
ENDBRANCH  11  12
ENDBRANCH  10  11
ENDBRANCH   9  10
ENDBRANCH   8   9
ENDBRANCH   7   8
ENDBRANCH   6   7
ENDBRANCH   5   6
ENDBRANCH   4   5
ENDBRANCH   3   4
ENDBRANCH   2   3
ENDBRANCH   1   2
BRANCH   1  18
ATOM     18  C   UNL     1      24.310  -4.012  60.717  1.00  0.00     0.000 C 
BRANCH  18  19
ATOM     19  C   UNL     1      25.003  -3.365  61.926  1.00  0.00     0.000 C 
BRANCH  19  20
ATOM     20  C   UNL     1      25.830  -2.128  61.543  1.00  0.00     0.000 C 
BRANCH  20  21
ATOM     21  C   UNL     1      25.111  -0.804  61.858  1.00  0.00     0.000 C 
BRANCH  21  22
ATOM     22  C   UNL     1      26.053   0.313  62.355  1.00  0.00     0.000 C 
BRANCH  22  23
ATOM     23  C   UNL     1      25.293   1.598  62.717  1.00  0.00     0.000 C 
BRANCH  23  24
ATOM     24  C   UNL     1      25.847   2.228  64.003  1.00  0.00    -0.000 C 
BRANCH  24  25
ATOM     25  C   UNL     1      25.416   3.697  64.181  1.00  0.00    -0.000 C 
BRANCH  25  26
ATOM     26  C   UNL     1      23.919   3.913  64.492  1.00  0.00    -0.000 C 
BRANCH  26  27
ATOM     27  C   UNL     1      23.361   3.048  65.638  1.00  0.00    -0.000 C 
BRANCH  27  28
ATOM     28  C   UNL     1      22.221   2.124  65.177  1.00  0.00    -0.000 C 
BRANCH  28  29
ATOM     29  C   UNL     1      21.549   2.629  63.888  1.00  0.00    -0.000 C 
BRANCH  29  30
ATOM     30  C   UNL     1      21.997   1.858  62.626  1.00  0.00    -0.000 C 
BRANCH  30  31
ATOM     31  C   UNL     1      20.952   0.847  62.124  1.00  0.00    -0.003 C 
ATOM     32  C   UNL     1      21.356  -0.605  62.376  1.00  0.00     0.004 C 
ENDBRANCH  30  31
ENDBRANCH  29  30
ENDBRANCH  28  29
ENDBRANCH  27  28
ENDBRANCH  26  27
ENDBRANCH  25  26
ENDBRANCH  24  25
ENDBRANCH  23  24
ENDBRANCH  22  23
ENDBRANCH  21  22
ENDBRANCH  20  21
ENDBRANCH  19  20
ENDBRANCH  18  19
ENDBRANCH   1  18
TORSDOF 28
ENDMDL
MODEL 8
REMARK VINA RESULT:    -4.856      5.549      9.318
REMARK INTER + INTRA:         -15.480
REMARK INTER:                 -13.298
REMARK INTRA:                  -2.182
REMARK UNBOUND:                -2.675
REMARK SMILES CCCCCCCCCCCCCCCCCCCCCCCCCCCCCC(=O)[O-]
REMARK SMILES IDX 16 1 17 2 18 3 19 4 20 5 21 6 22 7 23 8 24 9 25 10 26 11
REMARK SMILES IDX 27 12 28 13 29 14 30 15 31 16 32 17 15 18 14 19 13 20 12 21
REMARK SMILES IDX 11 22 10 23 9 24 8 25 7 26 6 27 5 28 4 29 3 30 2 31 1 32
REMARK H PARENT
REMARK Flexibility Score: inf
ROOT
ATOM      1  C   UNL     1      25.437  -3.205  59.756  1.00  0.00     0.000 C 
ENDROOT
BRANCH   1   2
ATOM      2  C   UNL     1      25.897  -1.885  60.413  1.00  0.00     0.000 C 
BRANCH   2   3
ATOM      3  C   UNL     1      25.336  -1.666  61.828  1.00  0.00     0.000 C 
BRANCH   3   4
ATOM      4  C   UNL     1      24.773  -2.952  62.458  1.00  0.00     0.000 C 
BRANCH   4   5
ATOM      5  C   UNL     1      23.251  -2.900  62.672  1.00  0.00     0.000 C 
BRANCH   5   6
ATOM      6  C   UNL     1      22.458  -3.111  61.373  1.00  0.00     0.000 C 
BRANCH   6   7
ATOM      7  C   UNL     1      21.748  -1.832  60.898  1.00  0.00     0.000 C 
BRANCH   7   8
ATOM      8  C   UNL     1      21.337  -0.885  62.046  1.00  0.00     0.000 C 
BRANCH   8   9
ATOM      9  C   UNL     1      22.034   0.482  61.954  1.00  0.00     0.000 C 
BRANCH   9  10
ATOM     10  C   UNL     1      21.503   1.442  63.029  1.00  0.00     0.000 C 
BRANCH  10  11
ATOM     11  C   UNL     1      22.384   2.692  63.205  1.00  0.00     0.000 C 
BRANCH  11  12
ATOM     12  C   UNL     1      23.287   3.025  62.004  1.00  0.00     0.000 C 
BRANCH  12  13
ATOM     13  C   UNL     1      24.713   2.473  62.156  1.00  0.00     0.006 C 
BRANCH  13  14
ATOM     14  C   UNL     1      25.614   3.479  62.881  1.00  0.00     0.053 C 
BRANCH  14  15
ATOM     15  C   UNL     1      25.874   3.044  64.290  1.00  0.00     0.041 C 
ATOM     16  O   UNL     1      25.286   3.616  65.248  1.00  0.00    -0.550 OA
ATOM     17  O   UNL     1      26.778   2.022  64.549  1.00  0.00    -0.550 OA
ENDBRANCH  14  15
ENDBRANCH  13  14
ENDBRANCH  12  13
ENDBRANCH  11  12
ENDBRANCH  10  11
ENDBRANCH   9  10
ENDBRANCH   8   9
ENDBRANCH   7   8
ENDBRANCH   6   7
ENDBRANCH   5   6
ENDBRANCH   4   5
ENDBRANCH   3   4
ENDBRANCH   2   3
ENDBRANCH   1   2
BRANCH   1  18
ATOM     18  C   UNL     1      25.045  -3.010  58.281  1.00  0.00     0.000 C 
BRANCH  18  19
ATOM     19  C   UNL     1      23.525  -3.016  58.065  1.00  0.00     0.000 C 
BRANCH  19  20
ATOM     20  C   UNL     1      23.123  -2.509  56.670  1.00  0.00     0.000 C 
BRANCH  20  21
ATOM     21  C   UNL     1      23.413  -3.527  55.553  1.00  0.00     0.000 C 
BRANCH  21  22
ATOM     22  C   UNL     1      23.206  -2.967  54.131  1.00  0.00     0.000 C 
BRANCH  22  23
ATOM     23  C   UNL     1      21.825  -2.318  53.956  1.00  0.00     0.000 C 
BRANCH  23  24
ATOM     24  C   UNL     1      21.731  -1.558  52.625  1.00  0.00    -0.000 C 
BRANCH  24  25
ATOM     25  C   UNL     1      20.386  -0.828  52.448  1.00  0.00    -0.000 C 
BRANCH  25  26
ATOM     26  C   UNL     1      19.474  -0.813  53.694  1.00  0.00    -0.000 C 
BRANCH  26  27
ATOM     27  C   UNL     1      18.365   0.256  53.677  1.00  0.00    -0.000 C 
BRANCH  27  28
ATOM     28  C   UNL     1      17.985   0.733  55.089  1.00  0.00    -0.000 C 
BRANCH  28  29
ATOM     29  C   UNL     1      17.337   2.129  55.075  1.00  0.00    -0.000 C 
BRANCH  29  30
ATOM     30  C   UNL     1      15.845   2.112  55.478  1.00  0.00    -0.000 C 
BRANCH  30  31
ATOM     31  C   UNL     1      14.886   2.127  54.274  1.00  0.00    -0.003 C 
ATOM     32  C   UNL     1      14.272   0.759  53.982  1.00  0.00     0.004 C 
ENDBRANCH  30  31
ENDBRANCH  29  30
ENDBRANCH  28  29
ENDBRANCH  27  28
ENDBRANCH  26  27
ENDBRANCH  25  26
ENDBRANCH  24  25
ENDBRANCH  23  24
ENDBRANCH  22  23
ENDBRANCH  21  22
ENDBRANCH  20  21
ENDBRANCH  19  20
ENDBRANCH  18  19
ENDBRANCH   1  18
TORSDOF 28
ENDMDL
MODEL 9
REMARK VINA RESULT:    -4.791      5.311     11.472
REMARK INTER + INTRA:         -15.308
REMARK INTER:                 -12.351
REMARK INTRA:                  -2.957
REMARK UNBOUND:                -2.675
REMARK SMILES CCCCCCCCCCCCCCCCCCCCCCCCCCCCCC(=O)[O-]
REMARK SMILES IDX 16 1 17 2 18 3 19 4 20 5 21 6 22 7 23 8 24 9 25 10 26 11
REMARK SMILES IDX 27 12 28 13 29 14 30 15 31 16 32 17 15 18 14 19 13 20 12 21
REMARK SMILES IDX 11 22 10 23 9 24 8 25 7 26 6 27 5 28 4 29 3 30 2 31 1 32
REMARK H PARENT
REMARK Flexibility Score: inf
ROOT
ATOM      1  C   UNL     1      22.075  -2.637  61.389  1.00  0.00     0.000 C 
ENDROOT
BRANCH   1   2
ATOM      2  C   UNL     1      21.208  -2.383  60.137  1.00  0.00     0.000 C 
BRANCH   2   3
ATOM      3  C   UNL     1      22.022  -2.198  58.844  1.00  0.00     0.000 C 
BRANCH   3   4
ATOM      4  C   UNL     1      23.353  -2.970  58.855  1.00  0.00     0.000 C 
BRANCH   4   5
ATOM      5  C   UNL     1      24.017  -3.041  57.470  1.00  0.00     0.000 C 
BRANCH   5   6
ATOM      6  C   UNL     1      23.066  -2.644  56.331  1.00  0.00     0.000 C 
BRANCH   6   7
ATOM      7  C   UNL     1      23.346  -3.414  55.028  1.00  0.00     0.000 C 
BRANCH   7   8
ATOM      8  C   UNL     1      22.909  -2.660  53.754  1.00  0.00     0.000 C 
BRANCH   8   9
ATOM      9  C   UNL     1      21.429  -2.249  53.797  1.00  0.00     0.000 C 
BRANCH   9  10
ATOM     10  C   UNL     1      21.186  -0.985  52.958  1.00  0.00     0.000 C 
BRANCH  10  11
ATOM     11  C   UNL     1      19.704  -0.779  52.598  1.00  0.00     0.000 C 
BRANCH  11  12
ATOM     12  C   UNL     1      18.830  -0.225  53.738  1.00  0.00     0.000 C 
BRANCH  12  13
ATOM     13  C   UNL     1      17.535   0.431  53.235  1.00  0.00     0.006 C 
BRANCH  13  14
ATOM     14  C   UNL     1      17.388   1.851  53.794  1.00  0.00     0.053 C 
BRANCH  14  15
ATOM     15  C   UNL     1      17.103   1.819  55.264  1.00  0.00     0.041 C 
ATOM     16  O   UNL     1      17.940   2.288  56.082  1.00  0.00    -0.550 OA
ATOM     17  O   UNL     1      15.924   1.255  55.733  1.00  0.00    -0.550 OA
ENDBRANCH  14  15
ENDBRANCH  13  14
ENDBRANCH  12  13
ENDBRANCH  11  12
ENDBRANCH  10  11
ENDBRANCH   9  10
ENDBRANCH   8   9
ENDBRANCH   7   8
ENDBRANCH   6   7
ENDBRANCH   5   6
ENDBRANCH   4   5
ENDBRANCH   3   4
ENDBRANCH   2   3
ENDBRANCH   1   2
BRANCH   1  18
ATOM     18  C   UNL     1      22.117  -1.412  62.320  1.00  0.00     0.000 C 
BRANCH  18  19
ATOM     19  C   UNL     1      21.032  -0.377  61.989  1.00  0.00     0.000 C 
BRANCH  19  20
ATOM     20  C   UNL     1      21.496   1.067  62.238  1.00  0.00     0.000 C 
BRANCH  20  21
ATOM     21  C   UNL     1      21.280   1.525  63.691  1.00  0.00     0.000 C 
BRANCH  21  22
ATOM     22  C   UNL     1      21.752   2.968  63.966  1.00  0.00     0.000 C 
BRANCH  22  23
ATOM     23  C   UNL     1      22.898   3.021  64.988  1.00  0.00     0.000 C 
BRANCH  23  24
ATOM     24  C   UNL     1      24.135   3.716  64.400  1.00  0.00    -0.000 C 
BRANCH  24  25
ATOM     25  C   UNL     1      25.454   3.192  65.001  1.00  0.00    -0.000 C 
BRANCH  25  26
ATOM     26  C   UNL     1      26.134   2.053  64.211  1.00  0.00    -0.000 C 
BRANCH  26  27
ATOM     27  C   UNL     1      25.937   2.110  62.684  1.00  0.00    -0.000 C 
BRANCH  27  28
ATOM     28  C   UNL     1      24.956   1.040  62.176  1.00  0.00    -0.000 C 
BRANCH  28  29
ATOM     29  C   UNL     1      25.527  -0.382  62.313  1.00  0.00    -0.000 C 
BRANCH  29  30
ATOM     30  C   UNL     1      25.855  -1.040  60.954  1.00  0.00    -0.000 C 
BRANCH  30  31
ATOM     31  C   UNL     1      26.114  -2.553  61.053  1.00  0.00    -0.003 C 
ATOM     32  C   UNL     1      25.415  -3.203  62.246  1.00  0.00     0.004 C 
ENDBRANCH  30  31
ENDBRANCH  29  30
ENDBRANCH  28  29
ENDBRANCH  27  28
ENDBRANCH  26  27
ENDBRANCH  25  26
ENDBRANCH  24  25
ENDBRANCH  23  24
ENDBRANCH  22  23
ENDBRANCH  21  22
ENDBRANCH  20  21
ENDBRANCH  19  20
ENDBRANCH  18  19
ENDBRANCH   1  18
TORSDOF 28
ENDMDL
