MODEL 1
REMARK VINA RESULT:    -3.025      0.000      0.000
REMARK INTER + INTRA:          -6.692
REMARK INTER:                  -5.147
REMARK INTRA:                  -1.545
REMARK UNBOUND:                -1.545
REMARK SMILES CCCCCCCCCCCCCC(=O)[O-]
REMARK SMILES IDX 8 1 9 2 10 3 11 4 12 5 13 6 14 7 15 8 16 9 7 10 6 11 5 12
REMARK SMILES IDX 4 13 3 14 2 15 1 16
REMARK H PARENT
REMARK Flexibility Score: inf
ROOT
ATOM      1  C   UNL     1      -8.647   5.673   9.552  1.00  0.00     0.000 C 
ENDROOT
BRANCH   1   2
ATOM      2  C   UNL     1      -9.212   6.271   8.252  1.00  0.00     0.000 C 
BRANCH   2   3
ATOM      3  C   UNL     1      -8.264   6.079   7.056  1.00  0.00     0.000 C 
BRANCH   3   4
ATOM      4  C   UNL     1      -9.001   6.118   5.708  1.00  0.00     0.000 C 
BRANCH   4   5
ATOM      5  C   UNL     1      -9.348   7.547   5.252  1.00  0.00     0.006 C 
BRANCH   5   6
ATOM      6  C   UNL     1      -9.899   7.631   3.817  1.00  0.00     0.053 C 
BRANCH   6   7
ATOM      7  C   UNL     1      -8.929   8.255   2.859  1.00  0.00     0.041 C 
ATOM      8  O   UNL     1      -9.346   8.915   1.872  1.00  0.00    -0.550 OA
ATOM      9  O   UNL     1      -7.563   8.078   3.040  1.00  0.00    -0.550 OA
ENDBRANCH   6   7
ENDBRANCH   5   6
ENDBRANCH   4   5
ENDBRANCH   3   4
ENDBRANCH   2   3
ENDBRANCH   1   2
BRANCH   1  10
ATOM     10  C   UNL     1      -7.739   4.460   9.295  1.00  0.00     0.000 C 
BRANCH  10  11
ATOM     11  C   UNL     1      -6.389   4.562  10.028  1.00  0.00    -0.000 C 
BRANCH  11  12
ATOM     12  C   UNL     1      -5.880   6.009  10.125  1.00  0.00    -0.000 C 
BRANCH  12  13
ATOM     13  C   UNL     1      -4.921   6.375   8.980  1.00  0.00    -0.000 C 
BRANCH  13  14
ATOM     14  C   UNL     1      -4.954   7.873   8.628  1.00  0.00    -0.000 C 
BRANCH  14  15
ATOM     15  C   UNL     1      -6.269   8.589   8.984  1.00  0.00    -0.003 C 
ATOM     16  C   UNL     1      -6.866   9.362   7.809  1.00  0.00     0.004 C 
ENDBRANCH  14  15
ENDBRANCH  13  14
ENDBRANCH  12  13
ENDBRANCH  11  12
ENDBRANCH  10  11
ENDBRANCH   1  10
TORSDOF 12
ENDMDL
MODEL 2
REMARK VINA RESULT:    -2.950      2.771      5.619
REMARK INTER + INTRA:          -6.565
REMARK INTER:                  -5.320
REMARK INTRA:                  -1.245
REMARK UNBOUND:                -1.545
REMARK SMILES CCCCCCCCCCCCCC(=O)[O-]
REMARK SMILES IDX 8 1 9 2 10 3 11 4 12 5 13 6 14 7 15 8 16 9 7 10 6 11 5 12
REMARK SMILES IDX 4 13 3 14 2 15 1 16
REMARK H PARENT
REMARK Flexibility Score: inf
ROOT
ATOM      1  C   UNL     1      -9.127   5.986   6.862  1.00  0.00     0.000 C 
ENDROOT
BRANCH   1   2
ATOM      2  C   UNL     1      -9.709   5.183   8.039  1.00  0.00     0.000 C 
BRANCH   2   3
ATOM      3  C   UNL     1      -8.851   5.301   9.310  1.00  0.00     0.000 C 
BRANCH   3   4
ATOM      4  C   UNL     1      -7.707   4.275   9.345  1.00  0.00     0.000 C 
BRANCH   4   5
ATOM      5  C   UNL     1      -6.369   4.880   9.807  1.00  0.00     0.006 C 
BRANCH   5   6
ATOM      6  C   UNL     1      -6.244   6.393   9.552  1.00  0.00     0.053 C 
BRANCH   6   7
ATOM      7  C   UNL     1      -4.925   6.772   8.948  1.00  0.00     0.041 C 
ATOM      8  O   UNL     1      -3.947   5.981   9.010  1.00  0.00    -0.550 OA
ATOM      9  O   UNL     1      -4.769   8.013   8.346  1.00  0.00    -0.550 OA
ENDBRANCH   6   7
ENDBRANCH   5   6
ENDBRANCH   4   5
ENDBRANCH   3   4
ENDBRANCH   2   3
ENDBRANCH   1   2
BRANCH   1  10
ATOM     10  C   UNL     1      -9.148   7.501   7.117  1.00  0.00     0.000 C 
BRANCH  10  11
ATOM     11  C   UNL     1      -7.859   8.200   6.647  1.00  0.00    -0.000 C 
BRANCH  11  12
ATOM     12  C   UNL     1      -8.048   9.713   6.453  1.00  0.00    -0.000 C 
BRANCH  12  13
ATOM     13  C   UNL     1      -8.219  10.101   4.975  1.00  0.00    -0.000 C 
BRANCH  13  14
ATOM     14  C   UNL     1      -6.933   9.903   4.153  1.00  0.00    -0.000 C 
BRANCH  14  15
ATOM     15  C   UNL     1      -7.045   8.867   3.021  1.00  0.00    -0.003 C 
ATOM     16  C   UNL     1      -8.425   8.214   2.944  1.00  0.00     0.004 C 
ENDBRANCH  14  15
ENDBRANCH  13  14
ENDBRANCH  12  13
ENDBRANCH  11  12
ENDBRANCH  10  11
ENDBRANCH   1  10
TORSDOF 12
ENDMDL
MODEL 3
REMARK VINA RESULT:    -2.948      2.872      6.036
REMARK INTER + INTRA:          -6.562
REMARK INTER:                  -4.939
REMARK INTRA:                  -1.623
REMARK UNBOUND:                -1.545
REMARK SMILES CCCCCCCCCCCCCC(=O)[O-]
REMARK SMILES IDX 8 1 9 2 10 3 11 4 12 5 13 6 14 7 15 8 16 9 7 10 6 11 5 12
REMARK SMILES IDX 4 13 3 14 2 15 1 16
REMARK H PARENT
REMARK Flexibility Score: inf
ROOT
ATOM      1  C   UNL     1      -7.585   9.348   6.380  1.00  0.00     0.000 C 
ENDROOT
BRANCH   1   2
ATOM      2  C   UNL     1      -6.384   9.838   7.208  1.00  0.00     0.000 C 
BRANCH   2   3
ATOM      3  C   UNL     1      -6.395   9.283   8.643  1.00  0.00     0.000 C 
BRANCH   3   4
ATOM      4  C   UNL     1      -5.498   8.045   8.803  1.00  0.00     0.000 C 
BRANCH   4   5
ATOM      5  C   UNL     1      -6.236   6.842   9.417  1.00  0.00     0.006 C 
BRANCH   5   6
ATOM      6  C   UNL     1      -6.762   5.833   8.380  1.00  0.00     0.053 C 
BRANCH   6   7
ATOM      7  C   UNL     1      -7.630   4.774   8.991  1.00  0.00     0.041 C 
ATOM      8  O   UNL     1      -7.114   3.828   9.642  1.00  0.00    -0.550 OA
ATOM      9  O   UNL     1      -9.006   4.815   8.811  1.00  0.00    -0.550 OA
ENDBRANCH   6   7
ENDBRANCH   5   6
ENDBRANCH   4   5
ENDBRANCH   3   4
ENDBRANCH   2   3
ENDBRANCH   1   2
BRANCH   1  10
ATOM     10  C   UNL     1      -8.791   8.975   7.257  1.00  0.00     0.000 C 
BRANCH  10  11
ATOM     11  C   UNL     1      -9.535   7.729   6.745  1.00  0.00    -0.000 C 
BRANCH  11  12
ATOM     12  C   UNL     1      -8.788   7.026   5.601  1.00  0.00    -0.000 C 
BRANCH  12  13
ATOM     13  C   UNL     1      -9.629   6.933   4.317  1.00  0.00    -0.000 C 
BRANCH  13  14
ATOM     14  C   UNL     1      -9.410   8.127   3.371  1.00  0.00    -0.000 C 
BRANCH  14  15
ATOM     15  C   UNL     1      -7.966   8.290   2.862  1.00  0.00    -0.003 C 
ATOM     16  C   UNL     1      -7.529   9.751   2.763  1.00  0.00     0.004 C 
ENDBRANCH  14  15
ENDBRANCH  13  14
ENDBRANCH  12  13
ENDBRANCH  11  12
ENDBRANCH  10  11
ENDBRANCH   1  10
TORSDOF 12
ENDMDL
MODEL 4
REMARK VINA RESULT:    -2.890      3.231      7.477
REMARK INTER + INTRA:          -6.462
REMARK INTER:                  -5.685
REMARK INTRA:                  -0.777
REMARK UNBOUND:                -1.545
REMARK SMILES CCCCCCCCCCCCCC(=O)[O-]
REMARK SMILES IDX 8 1 9 2 10 3 11 4 12 5 13 6 14 7 15 8 16 9 7 10 6 11 5 12
REMARK SMILES IDX 4 13 3 14 2 15 1 16
REMARK H PARENT
REMARK Flexibility Score: inf
ROOT
ATOM      1  C   UNL     1      -9.315   7.516   3.816  1.00  0.00     0.000 C 
ENDROOT
BRANCH   1   2
ATOM      2  C   UNL     1      -9.659   7.478   5.316  1.00  0.00     0.000 C 
BRANCH   2   3
ATOM      3  C   UNL     1      -8.408   7.361   6.202  1.00  0.00     0.000 C 
BRANCH   3   4
ATOM      4  C   UNL     1      -8.319   6.003   6.917  1.00  0.00     0.000 C 
BRANCH   4   5
ATOM      5  C   UNL     1      -7.205   5.952   7.978  1.00  0.00     0.006 C 
BRANCH   5   6
ATOM      6  C   UNL     1      -6.818   7.329   8.547  1.00  0.00     0.053 C 
BRANCH   6   7
ATOM      7  C   UNL     1      -5.335   7.516   8.653  1.00  0.00     0.041 C 
ATOM      8  O   UNL     1      -4.785   8.531   8.151  1.00  0.00    -0.550 OA
ATOM      9  O   UNL     1      -4.556   6.551   9.279  1.00  0.00    -0.550 OA
ENDBRANCH   6   7
ENDBRANCH   5   6
ENDBRANCH   4   5
ENDBRANCH   3   4
ENDBRANCH   2   3
ENDBRANCH   1   2
BRANCH   1  10
ATOM     10  C   UNL     1      -7.921   8.104   3.547  1.00  0.00     0.000 C 
BRANCH  10  11
ATOM     11  C   UNL     1      -7.895   9.039   2.325  1.00  0.00    -0.000 C 
BRANCH  11  12
ATOM     12  C   UNL     1      -9.123   9.962   2.265  1.00  0.00    -0.000 C 
BRANCH  12  13
ATOM     13  C   UNL     1      -9.893   9.833   0.940  1.00  0.00    -0.000 C 
BRANCH  13  14
ATOM     14  C   UNL     1      -9.093   9.091  -0.146  1.00  0.00    -0.000 C 
BRANCH  14  15
ATOM     15  C   UNL     1      -8.537   9.991  -1.264  1.00  0.00    -0.003 C 
ATOM     16  C   UNL     1      -9.319   9.872  -2.571  1.00  0.00     0.004 C 
ENDBRANCH  14  15
ENDBRANCH  13  14
ENDBRANCH  12  13
ENDBRANCH  11  12
ENDBRANCH  10  11
ENDBRANCH   1  10
TORSDOF 12
ENDMDL
MODEL 5
REMARK VINA RESULT:    -2.874      2.567      6.492
REMARK INTER + INTRA:          -6.435
REMARK INTER:                  -5.801
REMARK INTRA:                  -0.634
REMARK UNBOUND:                -1.545
REMARK SMILES CCCCCCCCCCCCCC(=O)[O-]
REMARK SMILES IDX 8 1 9 2 10 3 11 4 12 5 13 6 14 7 15 8 16 9 7 10 6 11 5 12
REMARK SMILES IDX 4 13 3 14 2 15 1 16
REMARK H PARENT
REMARK Flexibility Score: inf
ROOT
ATOM      1  C   UNL     1      -9.314   6.336   6.628  1.00  0.00     0.000 C 
ENDROOT
BRANCH   1   2
ATOM      2  C   UNL     1      -7.893   6.010   7.121  1.00  0.00     0.000 C 
BRANCH   2   3
ATOM      3  C   UNL     1      -7.887   5.393   8.530  1.00  0.00     0.000 C 
BRANCH   3   4
ATOM      4  C   UNL     1      -6.781   5.977   9.424  1.00  0.00     0.000 C 
BRANCH   4   5
ATOM      5  C   UNL     1      -5.533   6.410   8.633  1.00  0.00     0.006 C 
BRANCH   5   6
ATOM      6  C   UNL     1      -4.832   7.658   9.201  1.00  0.00     0.053 C 
BRANCH   6   7
ATOM      7  C   UNL     1      -4.986   8.861   8.321  1.00  0.00     0.041 C 
ATOM      8  O   UNL     1      -5.951   8.940   7.516  1.00  0.00    -0.550 OA
ATOM      9  O   UNL     1      -4.043   9.879   8.366  1.00  0.00    -0.550 OA
ENDBRANCH   6   7
ENDBRANCH   5   6
ENDBRANCH   4   5
ENDBRANCH   3   4
ENDBRANCH   2   3
ENDBRANCH   1   2
BRANCH   1  10
ATOM     10  C   UNL     1      -9.344   6.735   5.144  1.00  0.00     0.000 C 
BRANCH  10  11
ATOM     11  C   UNL     1      -8.403   7.910   4.826  1.00  0.00    -0.000 C 
BRANCH  11  12
ATOM     12  C   UNL     1      -7.857   7.854   3.390  1.00  0.00    -0.000 C 
BRANCH  12  13
ATOM     13  C   UNL     1      -8.299   9.058   2.543  1.00  0.00    -0.000 C 
BRANCH  13  14
ATOM     14  C   UNL     1      -9.290   8.673   1.430  1.00  0.00    -0.000 C 
BRANCH  14  15
ATOM     15  C   UNL     1      -9.144   9.482   0.129  1.00  0.00    -0.003 C 
ATOM     16  C   UNL     1      -9.346   8.635  -1.127  1.00  0.00     0.004 C 
ENDBRANCH  14  15
ENDBRANCH  13  14
ENDBRANCH  12  13
ENDBRANCH  11  12
ENDBRANCH  10  11
ENDBRANCH   1  10
TORSDOF 12
ENDMDL
MODEL 6
REMARK VINA RESULT:    -2.731      2.341      4.766
REMARK INTER + INTRA:          -6.192
REMARK INTER:                  -5.524
REMARK INTRA:                  -0.668
REMARK UNBOUND:                -1.545
REMARK SMILES CCCCCCCCCCCCCC(=O)[O-]
REMARK SMILES IDX 8 1 9 2 10 3 11 4 12 5 13 6 14 7 15 8 16 9 7 10 6 11 5 12
REMARK SMILES IDX 4 13 3 14 2 15 1 16
REMARK H PARENT
REMARK Flexibility Score: inf
ROOT
ATOM      1  C   UNL     1      -9.322   9.107   4.763  1.00  0.00     0.000 C 
ENDROOT
BRANCH   1   2
ATOM      2  C   UNL     1      -7.844   8.785   4.477  1.00  0.00     0.000 C 
BRANCH   2   3
ATOM      3  C   UNL     1      -7.595   8.433   3.000  1.00  0.00     0.000 C 
BRANCH   3   4
ATOM      4  C   UNL     1      -7.910   9.605   2.056  1.00  0.00     0.000 C 
BRANCH   4   5
ATOM      5  C   UNL     1      -8.950   9.248   0.979  1.00  0.00     0.006 C 
BRANCH   5   6
ATOM      6  C   UNL     1      -8.524   9.622  -0.453  1.00  0.00     0.053 C 
BRANCH   6   7
ATOM      7  C   UNL     1      -9.273   8.854  -1.499  1.00  0.00     0.041 C 
ATOM      8  O   UNL     1      -9.462   9.352  -2.640  1.00  0.00    -0.550 OA
ATOM      9  O   UNL     1      -9.790   7.599  -1.203  1.00  0.00    -0.550 OA
ENDBRANCH   6   7
ENDBRANCH   5   6
ENDBRANCH   4   5
ENDBRANCH   3   4
ENDBRANCH   2   3
ENDBRANCH   1   2
BRANCH   1  10
ATOM     10  C   UNL     1      -9.998   8.039   5.636  1.00  0.00     0.000 C 
BRANCH  10  11
ATOM     11  C   UNL     1      -9.339   6.655   5.499  1.00  0.00    -0.000 C 
BRANCH  11  12
ATOM     12  C   UNL     1      -9.124   5.968   6.857  1.00  0.00    -0.000 C 
BRANCH  12  13
ATOM     13  C   UNL     1      -7.646   5.945   7.279  1.00  0.00    -0.000 C 
BRANCH  13  14
ATOM     14  C   UNL     1      -7.436   6.366   8.745  1.00  0.00    -0.000 C 
BRANCH  14  15
ATOM     15  C   UNL     1      -6.586   5.391   9.580  1.00  0.00    -0.003 C 
ATOM     16  C   UNL     1      -7.237   4.018   9.740  1.00  0.00     0.004 C 
ENDBRANCH  14  15
ENDBRANCH  13  14
ENDBRANCH  12  13
ENDBRANCH  11  12
ENDBRANCH  10  11
ENDBRANCH   1  10
TORSDOF 12
ENDMDL
MODEL 7
REMARK VINA RESULT:    -2.570      3.381      7.354
REMARK INTER + INTRA:          -5.918
REMARK INTER:                  -5.149
REMARK INTRA:                  -0.768
REMARK UNBOUND:                -1.545
REMARK SMILES CCCCCCCCCCCCCC(=O)[O-]
REMARK SMILES IDX 8 1 9 2 10 3 11 4 12 5 13 6 14 7 15 8 16 9 7 10 6 11 5 12
REMARK SMILES IDX 4 13 3 14 2 15 1 16
REMARK H PARENT
REMARK Flexibility Score: inf
ROOT
ATOM      1  C   UNL     1      -9.280   8.097   5.490  1.00  0.00     0.000 C 
ENDROOT
BRANCH   1   2
ATOM      2  C   UNL     1      -8.854   6.931   6.398  1.00  0.00     0.000 C 
BRANCH   2   3
ATOM      3  C   UNL     1      -8.519   7.392   7.827  1.00  0.00     0.000 C 
BRANCH   3   4
ATOM      4  C   UNL     1      -7.023   7.259   8.153  1.00  0.00     0.000 C 
BRANCH   4   5
ATOM      5  C   UNL     1      -6.645   5.867   8.692  1.00  0.00     0.006 C 
BRANCH   5   6
ATOM      6  C   UNL     1      -7.551   5.369   9.832  1.00  0.00     0.053 C 
BRANCH   6   7
ATOM      7  C   UNL     1      -8.282   4.108   9.483  1.00  0.00     0.041 C 
ATOM      8  O   UNL     1      -7.698   2.995   9.554  1.00  0.00    -0.550 OA
ATOM      9  O   UNL     1      -9.599   4.167   9.046  1.00  0.00    -0.550 OA
ENDBRANCH   6   7
ENDBRANCH   5   6
ENDBRANCH   4   5
ENDBRANCH   3   4
ENDBRANCH   2   3
ENDBRANCH   1   2
BRANCH   1  10
ATOM     10  C   UNL     1      -8.101   8.688   4.700  1.00  0.00     0.000 C 
BRANCH  10  11
ATOM     11  C   UNL     1      -8.191   8.396   3.191  1.00  0.00    -0.000 C 
BRANCH  11  12
ATOM     12  C   UNL     1      -9.630   8.120   2.730  1.00  0.00    -0.000 C 
BRANCH  12  13
ATOM     13  C   UNL     1      -9.881   8.569   1.281  1.00  0.00    -0.000 C 
BRANCH  13  14
ATOM     14  C   UNL     1      -8.739   9.432   0.716  1.00  0.00    -0.000 C 
BRANCH  14  15
ATOM     15  C   UNL     1      -8.675   9.492  -0.820  1.00  0.00    -0.003 C 
ATOM     16  C   UNL     1      -9.558   8.443  -1.495  1.00  0.00     0.004 C 
ENDBRANCH  14  15
ENDBRANCH  13  14
ENDBRANCH  12  13
ENDBRANCH  11  12
ENDBRANCH  10  11
ENDBRANCH   1  10
TORSDOF 12
ENDMDL
MODEL 8
REMARK VINA RESULT:    -2.470      1.537      2.545
REMARK INTER + INTRA:          -5.747
REMARK INTER:                  -4.206
REMARK INTRA:                  -1.541
REMARK UNBOUND:                -1.545
REMARK SMILES CCCCCCCCCCCCCC(=O)[O-]
REMARK SMILES IDX 8 1 9 2 10 3 11 4 12 5 13 6 14 7 15 8 16 9 7 10 6 11 5 12
REMARK SMILES IDX 4 13 3 14 2 15 1 16
REMARK H PARENT
REMARK Flexibility Score: inf
ROOT
ATOM      1  C   UNL     1      -8.293   6.501   6.394  1.00  0.00     0.000 C 
ENDROOT
BRANCH   1   2
ATOM      2  C   UNL     1      -9.747   6.926   6.669  1.00  0.00     0.000 C 
BRANCH   2   3
ATOM      3  C   UNL     1      -9.869   8.425   6.990  1.00  0.00     0.000 C 
BRANCH   3   4
ATOM      4  C   UNL     1      -8.785   9.266   6.296  1.00  0.00     0.000 C 
BRANCH   4   5
ATOM      5  C   UNL     1      -9.335  10.125   5.143  1.00  0.00     0.006 C 
BRANCH   5   6
ATOM      6  C   UNL     1      -9.158   9.493   3.751  1.00  0.00     0.053 C 
BRANCH   6   7
ATOM      7  C   UNL     1      -7.732   9.141   3.451  1.00  0.00     0.041 C 
ATOM      8  O   UNL     1      -6.826  10.007   3.568  1.00  0.00    -0.550 OA
ATOM      9  O   UNL     1      -7.410   7.864   3.010  1.00  0.00    -0.550 OA
ENDBRANCH   6   7
ENDBRANCH   5   6
ENDBRANCH   4   5
ENDBRANCH   3   4
ENDBRANCH   2   3
ENDBRANCH   1   2
BRANCH   1  10
ATOM     10  C   UNL     1      -7.714   5.626   7.518  1.00  0.00     0.000 C 
BRANCH  10  11
ATOM     11  C   UNL     1      -8.546   5.693   8.811  1.00  0.00    -0.000 C 
BRANCH  11  12
ATOM     12  C   UNL     1      -7.771   6.327   9.977  1.00  0.00    -0.000 C 
BRANCH  12  13
ATOM     13  C   UNL     1      -7.325   7.768   9.675  1.00  0.00    -0.000 C 
BRANCH  13  14
ATOM     14  C   UNL     1      -5.822   7.992   9.920  1.00  0.00    -0.000 C 
BRANCH  14  15
ATOM     15  C   UNL     1      -4.909   7.572   8.754  1.00  0.00    -0.003 C 
ATOM     16  C   UNL     1      -4.178   6.255   9.013  1.00  0.00     0.004 C 
ENDBRANCH  14  15
ENDBRANCH  13  14
ENDBRANCH  12  13
ENDBRANCH  11  12
ENDBRANCH  10  11
ENDBRANCH   1  10
TORSDOF 12
ENDMDL
