MODEL 1
REMARK VINA RESULT:    -5.438      0.000      0.000
REMARK INTER + INTRA:          -7.399
REMARK INTER:                  -6.869
REMARK INTRA:                  -0.530
REMARK UNBOUND:                -0.530
REMARK SMILES Oc1ccc(CCc2cc(O)cc(O)c2)cc1
REMARK SMILES IDX 6 1 5 2 4 3 3 4 2 5 16 6 17 7 1 8 7 10 8 11 15 12 9 13 13 14
REMARK SMILES IDX 10 15 12 16 14 17 11 19
REMARK H PARENT 1 9 14 18 11 20
REMARK Flexibility Score: inf
ROOT
ATOM      1  C   UNL     1     141.198 126.980 115.144  1.00  0.00     0.040 C 
ENDROOT
BRANCH   1   2
ATOM      2  C   UNL     1     140.435 128.117 114.520  1.00  0.00    -0.047 A 
ATOM      3  C   UNL     1     140.897 129.437 114.653  1.00  0.00     0.007 A 
ATOM      4  C   UNL     1     140.171 130.496 114.101  1.00  0.00     0.046 A 
ATOM      5  C   UNL     1     138.973 130.250 113.421  1.00  0.00     0.115 A 
ATOM      6  C   UNL     1     139.226 127.875 113.848  1.00  0.00     0.007 A 
ATOM      7  C   UNL     1     138.502 128.935 113.297  1.00  0.00     0.046 A 
BRANCH   5   8
ATOM      8  O   UNL     1     138.261 131.315 112.875  1.00  0.00    -0.508 OA
ATOM      9  H   UNL     1     137.262 131.255 112.712  1.00  0.00     0.293 HD
ENDBRANCH   5   8
ENDBRANCH   1   2
BRANCH   1  10
ATOM     10  C   UNL     1     141.927 127.449 116.407  1.00  0.00     0.040 C 
BRANCH  10  11
ATOM     11  C   UNL     1     143.415 127.300 116.244  1.00  0.00    -0.040 A 
ATOM     12  C   UNL     1     143.998 127.373 114.969  1.00  0.00     0.050 A 
ATOM     13  C   UNL     1     144.239 127.144 117.371  1.00  0.00     0.050 A 
ATOM     14  C   UNL     1     145.389 127.267 114.819  1.00  0.00     0.119 A 
ATOM     15  C   UNL     1     145.626 127.037 117.225  1.00  0.00     0.119 A 
ATOM     16  C   UNL     1     146.199 127.097 115.947  1.00  0.00     0.092 A 
BRANCH  14  17
ATOM     17  O   UNL     1     145.974 127.332 113.556  1.00  0.00    -0.508 OA
ATOM     18  H   UNL     1     145.539 126.901 112.749  1.00  0.00     0.293 HD
ENDBRANCH  14  17
BRANCH  15  19
ATOM     19  O   UNL     1     146.426 126.876 118.354  1.00  0.00    -0.508 OA
ATOM     20  H   UNL     1     146.033 126.605 119.248  1.00  0.00     0.293 HD
ENDBRANCH  15  19
ENDBRANCH  10  11
ENDBRANCH   1  10
TORSDOF 6
ENDMDL
MODEL 2
REMARK VINA RESULT:    -5.396      0.080      2.037
REMARK INTER + INTRA:          -7.346
REMARK INTER:                  -6.809
REMARK INTRA:                  -0.537
REMARK UNBOUND:                -0.530
REMARK SMILES Oc1ccc(CCc2cc(O)cc(O)c2)cc1
REMARK SMILES IDX 6 1 5 2 4 3 3 4 2 5 16 6 17 7 1 8 7 10 8 11 15 12 9 13 13 14
REMARK SMILES IDX 10 15 12 16 14 17 11 19
REMARK H PARENT 1 9 14 18 11 20
REMARK Flexibility Score: inf
ROOT
ATOM      1  C   UNL     1     141.254 126.967 115.084  1.00  0.00     0.040 C 
ENDROOT
BRANCH   1   2
ATOM      2  C   UNL     1     140.455 128.113 114.523  1.00  0.00    -0.047 A 
ATOM      3  C   UNL     1     140.887 129.437 114.712  1.00  0.00     0.007 A 
ATOM      4  C   UNL     1     140.128 130.503 114.219  1.00  0.00     0.046 A 
ATOM      5  C   UNL     1     138.928 130.258 113.543  1.00  0.00     0.115 A 
ATOM      6  C   UNL     1     139.243 127.873 113.856  1.00  0.00     0.007 A 
ATOM      7  C   UNL     1     138.486 128.940 113.364  1.00  0.00     0.046 A 
BRANCH   5   8
ATOM      8  O   UNL     1     138.182 131.330 113.057  1.00  0.00    -0.508 OA
ATOM      9  H   UNL     1     138.440 131.810 112.203  1.00  0.00     0.293 HD
ENDBRANCH   5   8
ENDBRANCH   1   2
BRANCH   1  10
ATOM     10  C   UNL     1     141.948 127.381 116.385  1.00  0.00     0.040 C 
BRANCH  10  11
ATOM     11  C   UNL     1     143.443 127.301 116.234  1.00  0.00    -0.040 A 
ATOM     12  C   UNL     1     144.260 127.138 117.365  1.00  0.00     0.050 A 
ATOM     13  C   UNL     1     144.030 127.332 114.959  1.00  0.00     0.050 A 
ATOM     14  C   UNL     1     145.651 127.031 117.224  1.00  0.00     0.119 A 
ATOM     15  C   UNL     1     145.417 127.226 114.815  1.00  0.00     0.119 A 
ATOM     16  C   UNL     1     146.226 127.078 115.950  1.00  0.00     0.092 A 
BRANCH  14  17
ATOM     17  O   UNL     1     146.468 126.875 118.341  1.00  0.00    -0.508 OA
ATOM     18  H   UNL     1     147.258 126.241 118.335  1.00  0.00     0.293 HD
ENDBRANCH  14  17
BRANCH  15  19
ATOM     19  O   UNL     1     145.981 127.266 113.541  1.00  0.00    -0.508 OA
ATOM     20  H   UNL     1     145.944 126.466 112.920  1.00  0.00     0.293 HD
ENDBRANCH  15  19
ENDBRANCH  10  11
ENDBRANCH   1  10
TORSDOF 6
ENDMDL
MODEL 3
REMARK VINA RESULT:    -5.333      3.925      5.439
REMARK INTER + INTRA:          -7.266
REMARK INTER:                  -6.535
REMARK INTRA:                  -0.731
REMARK UNBOUND:                -0.530
REMARK SMILES Oc1ccc(CCc2cc(O)cc(O)c2)cc1
REMARK SMILES IDX 6 1 5 2 4 3 3 4 2 5 16 6 17 7 1 8 7 10 8 11 15 12 9 13 13 14
REMARK SMILES IDX 10 15 12 16 14 17 11 19
REMARK H PARENT 1 9 14 18 11 20
REMARK Flexibility Score: inf
ROOT
ATOM      1  C   UNL     1     144.353 128.919 114.508  1.00  0.00     0.040 C 
ENDROOT
BRANCH   1   2
ATOM      2  C   UNL     1     144.979 130.129 115.147  1.00  0.00    -0.047 A 
ATOM      3  C   UNL     1     146.376 130.268 115.185  1.00  0.00     0.007 A 
ATOM      4  C   UNL     1     146.958 131.376 115.808  1.00  0.00     0.046 A 
ATOM      5  C   UNL     1     146.151 132.350 116.407  1.00  0.00     0.115 A 
ATOM      6  C   UNL     1     144.173 131.103 115.761  1.00  0.00     0.007 A 
ATOM      7  C   UNL     1     144.757 132.210 116.383  1.00  0.00     0.046 A 
BRANCH   5   8
ATOM      8  O   UNL     1     146.745 133.449 117.024  1.00  0.00    -0.508 OA
ATOM      9  H   UNL     1     147.071 133.406 117.982  1.00  0.00     0.293 HD
ENDBRANCH   5   8
ENDBRANCH   1   2
BRANCH   1  10
ATOM     10  C   UNL     1     144.959 127.634 115.079  1.00  0.00     0.040 C 
BRANCH  10  11
ATOM     11  C   UNL     1     144.620 127.493 116.538  1.00  0.00    -0.040 A 
ATOM     12  C   UNL     1     145.625 127.608 117.513  1.00  0.00     0.050 A 
ATOM     13  C   UNL     1     143.289 127.301 116.941  1.00  0.00     0.050 A 
ATOM     14  C   UNL     1     145.305 127.509 118.874  1.00  0.00     0.119 A 
ATOM     15  C   UNL     1     142.966 127.202 118.298  1.00  0.00     0.119 A 
ATOM     16  C   UNL     1     143.978 127.303 119.264  1.00  0.00     0.092 A 
BRANCH  14  17
ATOM     17  O   UNL     1     146.298 127.616 119.846  1.00  0.00    -0.508 OA
ATOM     18  H   UNL     1     147.031 128.312 119.779  1.00  0.00     0.293 HD
ENDBRANCH  14  17
BRANCH  15  19
ATOM     19  O   UNL     1     141.641 127.005 118.677  1.00  0.00    -0.508 OA
ATOM     20  H   UNL     1     141.090 126.240 118.303  1.00  0.00     0.293 HD
ENDBRANCH  15  19
ENDBRANCH  10  11
ENDBRANCH   1  10
TORSDOF 6
ENDMDL
MODEL 4
REMARK VINA RESULT:    -5.320      2.042      3.264
REMARK INTER + INTRA:          -7.250
REMARK INTER:                  -6.854
REMARK INTRA:                  -0.396
REMARK UNBOUND:                -0.530
REMARK SMILES Oc1ccc(CCc2cc(O)cc(O)c2)cc1
REMARK SMILES IDX 6 1 5 2 4 3 3 4 2 5 16 6 17 7 1 8 7 10 8 11 15 12 9 13 13 14
REMARK SMILES IDX 10 15 12 16 14 17 11 19
REMARK H PARENT 1 9 14 18 11 20
REMARK Flexibility Score: inf
ROOT
ATOM      1  C   UNL     1     141.235 127.109 115.157  1.00  0.00     0.040 C 
ENDROOT
BRANCH   1   2
ATOM      2  C   UNL     1     139.758 127.124 115.447  1.00  0.00    -0.047 A 
ATOM      3  C   UNL     1     138.833 127.277 114.401  1.00  0.00     0.007 A 
ATOM      4  C   UNL     1     137.462 127.324 114.675  1.00  0.00     0.046 A 
ATOM      5  C   UNL     1     137.004 127.229 115.993  1.00  0.00     0.115 A 
ATOM      6  C   UNL     1     139.294 127.042 116.770  1.00  0.00     0.007 A 
ATOM      7  C   UNL     1     137.924 127.089 117.041  1.00  0.00     0.046 A 
BRANCH   5   8
ATOM      8  O   UNL     1     135.635 127.276 116.250  1.00  0.00    -0.508 OA
ATOM      9  H   UNL     1     134.996 126.608 115.837  1.00  0.00     0.293 HD
ENDBRANCH   5   8
ENDBRANCH   1   2
BRANCH   1  10
ATOM     10  C   UNL     1     142.008 127.832 116.265  1.00  0.00     0.040 C 
BRANCH  10  11
ATOM     11  C   UNL     1     143.485 127.583 116.127  1.00  0.00    -0.040 A 
ATOM     12  C   UNL     1     144.274 127.358 117.267  1.00  0.00     0.050 A 
ATOM     13  C   UNL     1     144.077 127.516 114.855  1.00  0.00     0.050 A 
ATOM     14  C   UNL     1     145.645 127.094 117.138  1.00  0.00     0.119 A 
ATOM     15  C   UNL     1     145.444 127.252 114.724  1.00  0.00     0.119 A 
ATOM     16  C   UNL     1     146.227 127.044 115.868  1.00  0.00     0.092 A 
BRANCH  14  17
ATOM     17  O   UNL     1     146.435 126.877 118.265  1.00  0.00    -0.508 OA
ATOM     18  H   UNL     1     147.210 126.224 118.251  1.00  0.00     0.293 HD
ENDBRANCH  14  17
BRANCH  15  19
ATOM     19  O   UNL     1     146.015 127.196 113.454  1.00  0.00    -0.508 OA
ATOM     20  H   UNL     1     147.017 127.111 113.326  1.00  0.00     0.293 HD
ENDBRANCH  15  19
ENDBRANCH  10  11
ENDBRANCH   1  10
TORSDOF 6
ENDMDL
MODEL 5
REMARK VINA RESULT:    -5.278      3.985      5.353
REMARK INTER + INTRA:          -7.197
REMARK INTER:                  -6.486
REMARK INTRA:                  -0.711
REMARK UNBOUND:                -0.530
REMARK SMILES Oc1ccc(CCc2cc(O)cc(O)c2)cc1
REMARK SMILES IDX 6 1 5 2 4 3 3 4 2 5 16 6 17 7 1 8 7 10 8 11 15 12 9 13 13 14
REMARK SMILES IDX 10 15 12 16 14 17 11 19
REMARK H PARENT 1 9 14 18 11 20
REMARK Flexibility Score: inf
ROOT
ATOM      1  C   UNL     1     144.384 128.875 114.578  1.00  0.00     0.040 C 
ENDROOT
BRANCH   1   2
ATOM      2  C   UNL     1     145.003 130.103 115.189  1.00  0.00    -0.047 A 
ATOM      3  C   UNL     1     146.400 130.245 115.234  1.00  0.00     0.007 A 
ATOM      4  C   UNL     1     146.975 131.371 115.832  1.00  0.00     0.046 A 
ATOM      5  C   UNL     1     146.162 132.359 116.397  1.00  0.00     0.115 A 
ATOM      6  C   UNL     1     144.191 131.092 115.769  1.00  0.00     0.007 A 
ATOM      7  C   UNL     1     144.768 132.216 116.365  1.00  0.00     0.046 A 
BRANCH   5   8
ATOM      8  O   UNL     1     146.748 133.476 116.988  1.00  0.00    -0.508 OA
ATOM      9  H   UNL     1     146.509 133.764 117.930  1.00  0.00     0.293 HD
ENDBRANCH   5   8
ENDBRANCH   1   2
BRANCH   1  10
ATOM     10  C   UNL     1     144.952 127.608 115.224  1.00  0.00     0.040 C 
BRANCH  10  11
ATOM     11  C   UNL     1     144.587 127.548 116.682  1.00  0.00    -0.040 A 
ATOM     12  C   UNL     1     143.264 127.279 117.070  1.00  0.00     0.050 A 
ATOM     13  C   UNL     1     145.575 127.706 117.668  1.00  0.00     0.050 A 
ATOM     14  C   UNL     1     142.928 127.191 118.429  1.00  0.00     0.119 A 
ATOM     15  C   UNL     1     145.243 127.619 119.024  1.00  0.00     0.119 A 
ATOM     16  C   UNL     1     143.917 127.364 119.402  1.00  0.00     0.092 A 
BRANCH  14  17
ATOM     17  O   UNL     1     141.617 126.931 118.820  1.00  0.00    -0.508 OA
ATOM     18  H   UNL     1     141.209 127.375 119.634  1.00  0.00     0.293 HD
ENDBRANCH  14  17
BRANCH  15  19
ATOM     19  O   UNL     1     146.236 127.784 119.986  1.00  0.00    -0.508 OA
ATOM     20  H   UNL     1     146.059 127.602 120.968  1.00  0.00     0.293 HD
ENDBRANCH  15  19
ENDBRANCH  10  11
ENDBRANCH   1  10
TORSDOF 6
ENDMDL
MODEL 6
REMARK VINA RESULT:    -5.226      3.908      4.687
REMARK INTER + INTRA:          -7.131
REMARK INTER:                  -6.405
REMARK INTRA:                  -0.726
REMARK UNBOUND:                -0.530
REMARK SMILES Oc1ccc(CCc2cc(O)cc(O)c2)cc1
REMARK SMILES IDX 6 1 5 2 4 3 3 4 2 5 16 6 17 7 1 8 7 10 8 11 15 12 9 13 13 14
REMARK SMILES IDX 10 15 12 16 14 17 11 19
REMARK H PARENT 1 9 14 18 11 20
REMARK Flexibility Score: inf
ROOT
ATOM      1  C   UNL     1     145.281 129.114 114.501  1.00  0.00     0.040 C 
ENDROOT
BRANCH   1   2
ATOM      2  C   UNL     1     143.811 128.865 114.704  1.00  0.00    -0.047 A 
ATOM      3  C   UNL     1     143.350 127.583 115.045  1.00  0.00     0.007 A 
ATOM      4  C   UNL     1     141.981 127.345 115.201  1.00  0.00     0.046 A 
ATOM      5  C   UNL     1     141.060 128.380 115.009  1.00  0.00     0.115 A 
ATOM      6  C   UNL     1     142.883 129.899 114.500  1.00  0.00     0.007 A 
ATOM      7  C   UNL     1     141.515 129.659 114.657  1.00  0.00     0.046 A 
BRANCH   5   8
ATOM      8  O   UNL     1     139.700 128.129 115.169  1.00  0.00    -0.508 OA
ATOM      9  H   UNL     1     139.260 128.155 116.082  1.00  0.00     0.293 HD
ENDBRANCH   5   8
ENDBRANCH   1   2
BRANCH   1  10
ATOM     10  C   UNL     1     146.007 129.180 115.848  1.00  0.00     0.040 C 
BRANCH  10  11
ATOM     11  C   UNL     1     145.815 130.528 116.487  1.00  0.00    -0.040 A 
ATOM     12  C   UNL     1     146.353 131.679 115.887  1.00  0.00     0.050 A 
ATOM     13  C   UNL     1     145.048 130.655 117.657  1.00  0.00     0.050 A 
ATOM     14  C   UNL     1     146.146 132.940 116.464  1.00  0.00     0.119 A 
ATOM     15  C   UNL     1     144.840 131.911 118.234  1.00  0.00     0.119 A 
ATOM     16  C   UNL     1     145.393 133.053 117.637  1.00  0.00     0.092 A 
BRANCH  14  17
ATOM     17  O   UNL     1     146.682 134.085 115.878  1.00  0.00    -0.508 OA
ATOM     18  H   UNL     1     146.337 134.438 114.994  1.00  0.00     0.293 HD
ENDBRANCH  14  17
BRANCH  15  19
ATOM     19  O   UNL     1     144.083 132.016 119.399  1.00  0.00    -0.508 OA
ATOM     20  H   UNL     1     144.128 131.312 120.126  1.00  0.00     0.293 HD
ENDBRANCH  15  19
ENDBRANCH  10  11
ENDBRANCH   1  10
TORSDOF 6
ENDMDL
MODEL 7
REMARK VINA RESULT:    -5.114      2.843      6.528
REMARK INTER + INTRA:          -6.989
REMARK INTER:                  -6.532
REMARK INTRA:                  -0.457
REMARK UNBOUND:                -0.530
REMARK SMILES Oc1ccc(CCc2cc(O)cc(O)c2)cc1
REMARK SMILES IDX 6 1 5 2 4 3 3 4 2 5 16 6 17 7 1 8 7 10 8 11 15 12 9 13 13 14
REMARK SMILES IDX 10 15 12 16 14 17 11 19
REMARK H PARENT 1 9 14 18 11 20
REMARK Flexibility Score: inf
ROOT
ATOM      1  C   UNL     1     142.807 127.388 115.146  1.00  0.00     0.040 C 
ENDROOT
BRANCH   1   2
ATOM      2  C   UNL     1     143.909 128.377 115.415  1.00  0.00    -0.047 A 
ATOM      3  C   UNL     1     144.988 128.026 116.243  1.00  0.00     0.007 A 
ATOM      4  C   UNL     1     145.995 128.956 116.520  1.00  0.00     0.046 A 
ATOM      5  C   UNL     1     145.928 130.246 115.982  1.00  0.00     0.115 A 
ATOM      6  C   UNL     1     143.839 129.676 114.887  1.00  0.00     0.007 A 
ATOM      7  C   UNL     1     144.847 130.604 115.165  1.00  0.00     0.046 A 
BRANCH   5   8
ATOM      8  O   UNL     1     146.939 131.162 116.265  1.00  0.00    -0.508 OA
ATOM      9  H   UNL     1     146.766 131.980 116.838  1.00  0.00     0.293 HD
ENDBRANCH   5   8
ENDBRANCH   1   2
BRANCH   1  10
ATOM     10  C   UNL     1     141.905 127.238 116.375  1.00  0.00     0.040 C 
BRANCH  10  11
ATOM     11  C   UNL     1     140.457 127.212 115.967  1.00  0.00    -0.040 A 
ATOM     12  C   UNL     1     139.447 127.228 116.944  1.00  0.00     0.050 A 
ATOM     13  C   UNL     1     140.102 127.227 114.609  1.00  0.00     0.050 A 
ATOM     14  C   UNL     1     138.096 127.236 116.565  1.00  0.00     0.119 A 
ATOM     15  C   UNL     1     138.756 127.235 114.228  1.00  0.00     0.119 A 
ATOM     16  C   UNL     1     137.755 127.237 115.209  1.00  0.00     0.092 A 
BRANCH  14  17
ATOM     17  O   UNL     1     137.090 127.246 117.528  1.00  0.00    -0.508 OA
ATOM     18  H   UNL     1     136.159 126.901 117.324  1.00  0.00     0.293 HD
ENDBRANCH  14  17
BRANCH  15  19
ATOM     19  O   UNL     1     138.425 127.244 112.875  1.00  0.00    -0.508 OA
ATOM     20  H   UNL     1     138.351 128.109 112.353  1.00  0.00     0.293 HD
ENDBRANCH  15  19
ENDBRANCH  10  11
ENDBRANCH   1  10
TORSDOF 6
ENDMDL
MODEL 8
REMARK VINA RESULT:    -5.090      2.465      2.852
REMARK INTER + INTRA:          -6.959
REMARK INTER:                  -6.445
REMARK INTRA:                  -0.514
REMARK UNBOUND:                -0.530
REMARK SMILES Oc1ccc(CCc2cc(O)cc(O)c2)cc1
REMARK SMILES IDX 6 1 5 2 4 3 3 4 2 5 16 6 17 7 1 8 7 10 8 11 15 12 9 13 13 14
REMARK SMILES IDX 10 15 12 16 14 17 11 19
REMARK H PARENT 1 9 14 18 11 20
REMARK Flexibility Score: inf
ROOT
ATOM      1  C   UNL     1     140.800 127.057 114.817  1.00  0.00     0.040 C 
ENDROOT
BRANCH   1   2
ATOM      2  C   UNL     1     139.504 127.145 115.577  1.00  0.00    -0.047 A 
ATOM      3  C   UNL     1     139.498 127.054 116.979  1.00  0.00     0.007 A 
ATOM      4  C   UNL     1     138.291 127.103 117.683  1.00  0.00     0.046 A 
ATOM      5  C   UNL     1     137.080 127.233 116.995  1.00  0.00     0.115 A 
ATOM      6  C   UNL     1     138.285 127.263 114.889  1.00  0.00     0.007 A 
ATOM      7  C   UNL     1     137.080 127.312 115.595  1.00  0.00     0.046 A 
BRANCH   5   8
ATOM      8  O   UNL     1     135.885 127.281 117.709  1.00  0.00    -0.508 OA
ATOM      9  H   UNL     1     135.091 127.817 117.377  1.00  0.00     0.293 HD
ENDBRANCH   5   8
ENDBRANCH   1   2
BRANCH   1  10
ATOM     10  C   UNL     1     141.690 128.263 115.130  1.00  0.00     0.040 C 
BRANCH  10  11
ATOM     11  C   UNL     1     143.033 127.811 115.636  1.00  0.00    -0.040 A 
ATOM     12  C   UNL     1     144.076 127.541 114.734  1.00  0.00     0.050 A 
ATOM     13  C   UNL     1     143.273 127.711 117.016  1.00  0.00     0.050 A 
ATOM     14  C   UNL     1     145.337 127.151 115.207  1.00  0.00     0.119 A 
ATOM     15  C   UNL     1     144.530 127.323 117.491  1.00  0.00     0.119 A 
ATOM     16  C   UNL     1     145.561 127.041 116.583  1.00  0.00     0.092 A 
BRANCH  14  17
ATOM     17  O   UNL     1     146.374 126.875 114.318  1.00  0.00    -0.508 OA
ATOM     18  H   UNL     1     147.079 127.567 114.096  1.00  0.00     0.293 HD
ENDBRANCH  14  17
BRANCH  15  19
ATOM     19  O   UNL     1     144.747 127.223 118.863  1.00  0.00    -0.508 OA
ATOM     20  H   UNL     1     144.519 126.379 119.376  1.00  0.00     0.293 HD
ENDBRANCH  15  19
ENDBRANCH  10  11
ENDBRANCH   1  10
TORSDOF 6
ENDMDL
MODEL 9
REMARK VINA RESULT:    -5.082      1.665      2.997
REMARK INTER + INTRA:          -6.949
REMARK INTER:                  -6.222
REMARK INTRA:                  -0.727
REMARK UNBOUND:                -0.530
REMARK SMILES Oc1ccc(CCc2cc(O)cc(O)c2)cc1
REMARK SMILES IDX 6 1 5 2 4 3 3 4 2 5 16 6 17 7 1 8 7 10 8 11 15 12 9 13 13 14
REMARK SMILES IDX 10 15 12 16 14 17 11 19
REMARK H PARENT 1 9 14 18 11 20
REMARK Flexibility Score: inf
ROOT
ATOM      1  C   UNL     1     142.043 130.091 116.250  1.00  0.00     0.040 C 
ENDROOT
BRANCH   1   2
ATOM      2  C   UNL     1     141.135 129.236 115.408  1.00  0.00    -0.047 A 
ATOM      3  C   UNL     1     140.349 129.817 114.399  1.00  0.00     0.007 A 
ATOM      4  C   UNL     1     139.481 129.027 113.639  1.00  0.00     0.046 A 
ATOM      5  C   UNL     1     139.383 127.653 113.885  1.00  0.00     0.115 A 
ATOM      6  C   UNL     1     141.024 127.858 115.660  1.00  0.00     0.007 A 
ATOM      7  C   UNL     1     140.157 127.071 114.899  1.00  0.00     0.046 A 
BRANCH   5   8
ATOM      8  O   UNL     1     138.515 126.878 113.119  1.00  0.00    -0.508 OA
ATOM      9  H   UNL     1     138.824 126.420 112.270  1.00  0.00     0.293 HD
ENDBRANCH   5   8
ENDBRANCH   1   2
BRANCH   1  10
ATOM     10  C   UNL     1     143.337 130.409 115.494  1.00  0.00     0.040 C 
BRANCH  10  11
ATOM     11  C   UNL     1     144.280 129.238 115.544  1.00  0.00    -0.040 A 
ATOM     12  C   UNL     1     144.627 128.660 116.776  1.00  0.00     0.050 A 
ATOM     13  C   UNL     1     144.776 128.676 114.356  1.00  0.00     0.050 A 
ATOM     14  C   UNL     1     145.480 127.548 116.822  1.00  0.00     0.119 A 
ATOM     15  C   UNL     1     145.627 127.568 114.398  1.00  0.00     0.119 A 
ATOM     16  C   UNL     1     145.980 127.006 115.633  1.00  0.00     0.092 A 
BRANCH  14  17
ATOM     17  O   UNL     1     145.833 126.974 118.041  1.00  0.00    -0.508 OA
ATOM     18  H   UNL     1     146.713 126.485 118.161  1.00  0.00     0.293 HD
ENDBRANCH  14  17
BRANCH  15  19
ATOM     19  O   UNL     1     146.114 127.029 113.209  1.00  0.00    -0.508 OA
ATOM     20  H   UNL     1     146.496 126.091 113.169  1.00  0.00     0.293 HD
ENDBRANCH  15  19
ENDBRANCH  10  11
ENDBRANCH   1  10
TORSDOF 6
ENDMDL
