MODEL 1
REMARK VINA RESULT:    -4.404      0.000      0.000
REMARK INTER + INTRA:          -5.835
REMARK INTER:                  -5.691
REMARK INTRA:                  -0.144
REMARK UNBOUND:                -0.144
REMARK SMILES CCCCCCC(=O)[O-]
REMARK SMILES IDX 5 1 6 2 7 3 8 4 9 5 4 6 3 7 2 8 1 9
REMARK H PARENT
REMARK Flexibility Score: inf
ROOT
ATOM      1  C   UNL     1      -1.201  -0.810   6.671  1.00  0.00     0.006 C 
ENDROOT
BRANCH   1   2
ATOM      2  C   UNL     1      -1.264   0.071   7.927  1.00  0.00     0.053 C 
BRANCH   2   3
ATOM      3  C   UNL     1      -0.221  -0.309   8.931  1.00  0.00     0.041 C 
ATOM      4  O   UNL     1       0.722   0.481   9.198  1.00  0.00    -0.550 OA
ATOM      5  O   UNL     1      -0.272  -1.552   9.549  1.00  0.00    -0.550 OA
ENDBRANCH   2   3
ENDBRANCH   1   2
BRANCH   1   6
ATOM      6  C   UNL     1      -1.252  -0.033   5.339  1.00  0.00     0.000 C 
BRANCH   6   7
ATOM      7  C   UNL     1      -1.602  -0.880   4.103  1.00  0.00    -0.000 C 
BRANCH   7   8
ATOM      8  C   UNL     1      -1.522  -2.389   4.370  1.00  0.00    -0.003 C 
ATOM      9  C   UNL     1      -1.321  -3.168   3.073  1.00  0.00     0.004 C 
ENDBRANCH   7   8
ENDBRANCH   6   7
ENDBRANCH   1   6
TORSDOF 5
ENDMDL
MODEL 2
REMARK VINA RESULT:    -3.904      6.138      7.326
REMARK INTER + INTRA:          -5.189
REMARK INTER:                  -4.997
REMARK INTRA:                  -0.192
REMARK UNBOUND:                -0.144
REMARK SMILES CCCCCCC(=O)[O-]
REMARK SMILES IDX 5 1 6 2 7 3 8 4 9 5 4 6 3 7 2 8 1 9
REMARK H PARENT
REMARK Flexibility Score: inf
ROOT
ATOM      1  C   UNL     1      -0.721  -7.053   7.056  1.00  0.00     0.006 C 
ENDROOT
BRANCH   1   2
ATOM      2  C   UNL     1      -1.644  -7.054   8.283  1.00  0.00     0.053 C 
BRANCH   2   3
ATOM      3  C   UNL     1      -2.812  -7.973   8.106  1.00  0.00     0.041 C 
ATOM      4  O   UNL     1      -2.652  -9.221   8.165  1.00  0.00    -0.550 OA
ATOM      5  O   UNL     1      -4.072  -7.453   7.841  1.00  0.00    -0.550 OA
ENDBRANCH   2   3
ENDBRANCH   1   2
BRANCH   1   6
ATOM      6  C   UNL     1       0.292  -5.890   7.016  1.00  0.00     0.000 C 
BRANCH   6   7
ATOM      7  C   UNL     1       0.340  -5.024   8.288  1.00  0.00    -0.000 C 
BRANCH   7   8
ATOM      8  C   UNL     1       1.588  -5.287   9.143  1.00  0.00    -0.003 C 
ATOM      9  C   UNL     1       2.860  -5.181   8.307  1.00  0.00     0.004 C 
ENDBRANCH   7   8
ENDBRANCH   6   7
ENDBRANCH   1   6
TORSDOF 5
ENDMDL
MODEL 3
REMARK VINA RESULT:    -3.863      4.280      5.519
REMARK INTER + INTRA:          -5.136
REMARK INTER:                  -5.035
REMARK INTRA:                  -0.101
REMARK UNBOUND:                -0.144
REMARK SMILES CCCCCCC(=O)[O-]
REMARK SMILES IDX 5 1 6 2 7 3 8 4 9 5 4 6 3 7 2 8 1 9
REMARK H PARENT
REMARK Flexibility Score: inf
ROOT
ATOM      1  C   UNL     1      -0.777  -3.798   6.443  1.00  0.00     0.006 C 
ENDROOT
BRANCH   1   2
ATOM      2  C   UNL     1      -1.561  -3.508   5.155  1.00  0.00     0.053 C 
BRANCH   2   3
ATOM      3  C   UNL     1      -1.442  -2.075   4.737  1.00  0.00     0.041 C 
ATOM      4  O   UNL     1      -1.494  -1.763   3.519  1.00  0.00    -0.550 OA
ATOM      5  O   UNL     1      -1.240  -1.087   5.692  1.00  0.00    -0.550 OA
ENDBRANCH   2   3
ENDBRANCH   1   2
BRANCH   1   6
ATOM      6  C   UNL     1      -0.407  -5.282   6.647  1.00  0.00     0.000 C 
BRANCH   6   7
ATOM      7  C   UNL     1       0.138  -5.632   8.043  1.00  0.00    -0.000 C 
BRANCH   7   8
ATOM      8  C   UNL     1       1.632  -5.315   8.198  1.00  0.00    -0.003 C 
ATOM      9  C   UNL     1       2.057  -5.372   9.663  1.00  0.00     0.004 C 
ENDBRANCH   7   8
ENDBRANCH   6   7
ENDBRANCH   1   6
TORSDOF 5
ENDMDL
MODEL 4
REMARK VINA RESULT:    -3.827      4.376      5.294
REMARK INTER + INTRA:          -5.089
REMARK INTER:                  -4.962
REMARK INTRA:                  -0.127
REMARK UNBOUND:                -0.144
REMARK SMILES CCCCCCC(=O)[O-]
REMARK SMILES IDX 5 1 6 2 7 3 8 4 9 5 4 6 3 7 2 8 1 9
REMARK H PARENT
REMARK Flexibility Score: inf
ROOT
ATOM      1  C   UNL     1      -1.047  -3.939   6.359  1.00  0.00     0.006 C 
ENDROOT
BRANCH   1   2
ATOM      2  C   UNL     1      -1.525  -3.343   5.026  1.00  0.00     0.053 C 
BRANCH   2   3
ATOM      3  C   UNL     1      -1.411  -1.850   5.007  1.00  0.00     0.041 C 
ATOM      4  O   UNL     1      -1.186  -1.217   6.072  1.00  0.00    -0.550 OA
ATOM      5  O   UNL     1      -1.588  -1.155   3.818  1.00  0.00    -0.550 OA
ENDBRANCH   2   3
ENDBRANCH   1   2
BRANCH   1   6
ATOM      6  C   UNL     1      -0.337  -5.303   6.232  1.00  0.00     0.000 C 
BRANCH   6   7
ATOM      7  C   UNL     1      -0.361  -6.170   7.504  1.00  0.00    -0.000 C 
BRANCH   7   8
ATOM      8  C   UNL     1      -1.071  -7.515   7.297  1.00  0.00    -0.003 C 
ATOM      9  C   UNL     1      -2.339  -7.604   8.141  1.00  0.00     0.004 C 
ENDBRANCH   7   8
ENDBRANCH   6   7
ENDBRANCH   1   6
TORSDOF 5
ENDMDL
MODEL 5
REMARK VINA RESULT:    -3.780      5.774      6.411
REMARK INTER + INTRA:          -5.029
REMARK INTER:                  -4.815
REMARK INTRA:                  -0.214
REMARK UNBOUND:                -0.144
REMARK SMILES CCCCCCC(=O)[O-]
REMARK SMILES IDX 5 1 6 2 7 3 8 4 9 5 4 6 3 7 2 8 1 9
REMARK H PARENT
REMARK Flexibility Score: inf
ROOT
ATOM      1  C   UNL     1      -0.236  -5.753   6.846  1.00  0.00     0.006 C 
ENDROOT
BRANCH   1   2
ATOM      2  C   UNL     1       0.012  -4.962   8.140  1.00  0.00     0.053 C 
BRANCH   2   3
ATOM      3  C   UNL     1       1.327  -5.310   8.765  1.00  0.00     0.041 C 
ATOM      4  O   UNL     1       2.377  -5.321   8.071  1.00  0.00    -0.550 OA
ATOM      5  O   UNL     1       1.387  -5.657  10.109  1.00  0.00    -0.550 OA
ENDBRANCH   2   3
ENDBRANCH   1   2
BRANCH   1   6
ATOM      6  C   UNL     1      -0.648  -7.224   7.064  1.00  0.00     0.000 C 
BRANCH   6   7
ATOM      7  C   UNL     1      -1.874  -7.431   7.971  1.00  0.00    -0.000 C 
BRANCH   7   8
ATOM      8  C   UNL     1      -2.322  -8.897   8.044  1.00  0.00    -0.003 C 
ATOM      9  C   UNL     1      -1.295  -9.820   7.395  1.00  0.00     0.004 C 
ENDBRANCH   7   8
ENDBRANCH   6   7
ENDBRANCH   1   6
TORSDOF 5
ENDMDL
MODEL 6
REMARK VINA RESULT:    -3.728     11.782     12.796
REMARK INTER + INTRA:          -4.962
REMARK INTER:                  -4.701
REMARK INTRA:                  -0.261
REMARK UNBOUND:                -0.144
REMARK SMILES CCCCCCC(=O)[O-]
REMARK SMILES IDX 5 1 6 2 7 3 8 4 9 5 4 6 3 7 2 8 1 9
REMARK H PARENT
REMARK Flexibility Score: inf
ROOT
ATOM      1  C   UNL     1       6.322   8.678   7.318  1.00  0.00     0.006 C 
ENDROOT
BRANCH   1   2
ATOM      2  C   UNL     1       7.389   9.575   7.965  1.00  0.00     0.053 C 
BRANCH   2   3
ATOM      3  C   UNL     1       8.580   9.758   7.078  1.00  0.00     0.041 C 
ATOM      4  O   UNL     1       9.743   9.611   7.538  1.00  0.00    -0.550 OA
ATOM      5  O   UNL     1       8.408  10.124   5.749  1.00  0.00    -0.550 OA
ENDBRANCH   2   3
ENDBRANCH   1   2
BRANCH   1   6
ATOM      6  C   UNL     1       4.991   9.392   7.004  1.00  0.00     0.000 C 
BRANCH   6   7
ATOM      7  C   UNL     1       4.368   9.038   5.642  1.00  0.00    -0.000 C 
BRANCH   7   8
ATOM      8  C   UNL     1       5.406   8.569   4.613  1.00  0.00    -0.003 C 
ATOM      9  C   UNL     1       4.884   7.385   3.804  1.00  0.00     0.004 C 
ENDBRANCH   7   8
ENDBRANCH   6   7
ENDBRANCH   1   6
TORSDOF 5
ENDMDL
MODEL 7
REMARK VINA RESULT:    -3.622      6.872      8.535
REMARK INTER + INTRA:          -4.824
REMARK INTER:                  -4.611
REMARK INTRA:                  -0.213
REMARK UNBOUND:                -0.144
REMARK SMILES CCCCCCC(=O)[O-]
REMARK SMILES IDX 5 1 6 2 7 3 8 4 9 5 4 6 3 7 2 8 1 9
REMARK H PARENT
REMARK Flexibility Score: inf
ROOT
ATOM      1  C   UNL     1       5.576  -0.115   7.778  1.00  0.00     0.006 C 
ENDROOT
BRANCH   1   2
ATOM      2  C   UNL     1       4.732   0.226   9.015  1.00  0.00     0.053 C 
BRANCH   2   3
ATOM      3  C   UNL     1       4.524   1.701   9.163  1.00  0.00     0.041 C 
ATOM      4  O   UNL     1       3.423   2.222   8.845  1.00  0.00    -0.550 OA
ATOM      5  O   UNL     1       5.559   2.507   9.620  1.00  0.00    -0.550 OA
ENDBRANCH   2   3
ENDBRANCH   1   2
BRANCH   1   6
ATOM      6  C   UNL     1       7.099  -0.139   8.028  1.00  0.00     0.000 C 
BRANCH   6   7
ATOM      7  C   UNL     1       7.521  -0.602   9.433  1.00  0.00    -0.000 C 
BRANCH   7   8
ATOM      8  C   UNL     1       9.029  -0.870   9.546  1.00  0.00    -0.003 C 
ATOM      9  C   UNL     1       9.720  -0.700   8.196  1.00  0.00     0.004 C 
ENDBRANCH   7   8
ENDBRANCH   6   7
ENDBRANCH   1   6
TORSDOF 5
ENDMDL
MODEL 8
REMARK VINA RESULT:    -3.447      6.943      7.984
REMARK INTER + INTRA:          -4.599
REMARK INTER:                  -4.360
REMARK INTRA:                  -0.239
REMARK UNBOUND:                -0.144
REMARK SMILES CCCCCCC(=O)[O-]
REMARK SMILES IDX 5 1 6 2 7 3 8 4 9 5 4 6 3 7 2 8 1 9
REMARK H PARENT
REMARK Flexibility Score: inf
ROOT
ATOM      1  C   UNL     1      -2.339  -7.794   9.376  1.00  0.00     0.006 C 
ENDROOT
BRANCH   1   2
ATOM      2  C   UNL     1      -2.921  -8.767   8.339  1.00  0.00     0.053 C 
BRANCH   2   3
ATOM      3  C   UNL     1      -4.373  -8.510   8.083  1.00  0.00     0.041 C 
ATOM      4  O   UNL     1      -5.222  -9.419   8.277  1.00  0.00    -0.550 OA
ATOM      5  O   UNL     1      -4.786  -7.276   7.596  1.00  0.00    -0.550 OA
ENDBRANCH   2   3
ENDBRANCH   1   2
BRANCH   1   6
ATOM      6  C   UNL     1      -1.384  -6.732   8.793  1.00  0.00     0.000 C 
BRANCH   6   7
ATOM      7  C   UNL     1      -1.026  -6.922   7.309  1.00  0.00    -0.000 C 
BRANCH   7   8
ATOM      8  C   UNL     1       0.036  -5.928   6.818  1.00  0.00    -0.003 C 
ATOM      9  C   UNL     1       0.891  -5.421   7.975  1.00  0.00     0.004 C 
ENDBRANCH   7   8
ENDBRANCH   6   7
ENDBRANCH   1   6
TORSDOF 5
ENDMDL
MODEL 9
REMARK VINA RESULT:    -3.428     13.941     15.195
REMARK INTER + INTRA:          -4.573
REMARK INTER:                  -4.270
REMARK INTRA:                  -0.303
REMARK UNBOUND:                -0.144
REMARK SMILES CCCCCCC(=O)[O-]
REMARK SMILES IDX 5 1 6 2 7 3 8 4 9 5 4 6 3 7 2 8 1 9
REMARK H PARENT
REMARK Flexibility Score: inf
ROOT
ATOM      1  C   UNL     1       4.899   5.635  -5.982  1.00  0.00     0.006 C 
ENDROOT
BRANCH   1   2
ATOM      2  C   UNL     1       4.210   4.342  -6.443  1.00  0.00     0.053 C 
BRANCH   2   3
ATOM      3  C   UNL     1       4.402   3.225  -5.465  1.00  0.00     0.041 C 
ATOM      4  O   UNL     1       4.586   2.049  -5.873  1.00  0.00    -0.550 OA
ATOM      5  O   UNL     1       4.345   3.478  -4.101  1.00  0.00    -0.550 OA
ENDBRANCH   2   3
ENDBRANCH   1   2
BRANCH   1   6
ATOM      6  C   UNL     1       6.397   5.725  -6.339  1.00  0.00     0.000 C 
BRANCH   6   7
ATOM      7  C   UNL     1       7.325   6.095  -5.168  1.00  0.00    -0.000 C 
BRANCH   7   8
ATOM      8  C   UNL     1       6.593   6.146  -3.819  1.00  0.00    -0.003 C 
ATOM      9  C   UNL     1       6.621   7.554  -3.231  1.00  0.00     0.004 C 
ENDBRANCH   7   8
ENDBRANCH   6   7
ENDBRANCH   1   6
TORSDOF 5
ENDMDL
