MODEL 1
REMARK VINA RESULT:    -6.028      0.000      0.000
REMARK INTER + INTRA:          -9.533
REMARK INTER:                  -8.142
REMARK INTRA:                  -1.391
REMARK UNBOUND:                -1.391
REMARK SMILES O=c1c(-c2ccc(O)cc2)coc2c([C@H]3O[C@@H](CO)[C@@H](O)[C@H](O)[C@H]3O)c(O)ccc12
REMARK SMILES IDX 3 1 11 2 12 3 13 4 30 5 2 6 1 7 29 8 28 9 26 10 14 11 4 12
REMARK SMILES IDX 5 13 6 14 7 15 10 16 9 17 8 18 15 20 24 21 16 22 22 23 17 24
REMARK SMILES IDX 20 25 25 26 23 28 18 30 19 31 21 33 27 35
REMARK H PARENT 8 19 25 27 23 29 19 32 21 34 27 36
REMARK Flexibility Score: inf
ROOT
ATOM      1  C   UNL     1      27.259  35.986  34.232  1.00  0.00     0.065 A 
ATOM      2  C   UNL     1      26.496  36.897  34.978  1.00  0.00     0.208 A 
ATOM      3  O   UNL     1      25.842  37.902  34.376  1.00  0.00    -0.463 OA
ATOM      4  C   UNL     1      25.909  38.103  33.067  1.00  0.00     0.147 A 
ATOM      5  C   UNL     1      26.645  37.202  32.262  1.00  0.00     0.066 A 
ATOM      6  C   UNL     1      27.077  36.023  32.835  1.00  0.00     0.200 A 
ATOM      7  O   UNL     1      27.216  34.995  32.142  1.00  0.00    -0.288 OA
ATOM      8  C   UNL     1      27.034  37.553  30.958  1.00  0.00     0.020 A 
ATOM      9  C   UNL     1      26.737  38.844  30.485  1.00  0.00     0.047 A 
ATOM     10  C   UNL     1      25.832  39.663  31.205  1.00  0.00     0.125 A 
ATOM     11  C   UNL     1      25.296  39.236  32.441  1.00  0.00     0.069 A 
ENDROOT
BRANCH   1  12
ATOM     12  C   UNL     1      28.540  35.378  34.806  1.00  0.00    -0.011 A 
ATOM     13  C   UNL     1      29.818  35.970  34.655  1.00  0.00     0.013 A 
ATOM     14  C   UNL     1      30.999  35.187  34.630  1.00  0.00     0.047 A 
ATOM     15  C   UNL     1      30.903  33.814  34.672  1.00  0.00     0.115 A 
ATOM     16  C   UNL     1      28.550  34.015  35.191  1.00  0.00     0.013 A 
ATOM     17  C   UNL     1      29.668  33.216  34.929  1.00  0.00     0.047 A 
BRANCH  15  18
ATOM     18  O   UNL     1      32.030  33.021  34.386  1.00  0.00    -0.508 OA
ATOM     19  H   UNL     1      32.938  33.440  34.188  1.00  0.00     0.293 HD
ENDBRANCH  15  18
ENDBRANCH   1  12
BRANCH  11  20
ATOM     20  C   UNL     1      23.846  39.668  32.716  1.00  0.00     0.188 C 
ATOM     21  C   UNL     1      23.597  40.690  33.870  1.00  0.00     0.179 C 
ATOM     22  O   UNL     1      23.113  38.479  32.962  1.00  0.00    -0.362 OA
ATOM     23  C   UNL     1      22.057  40.927  34.042  1.00  0.00     0.177 C 
ATOM     24  C   UNL     1      21.718  38.697  32.954  1.00  0.00     0.176 C 
ATOM     25  C   UNL     1      21.297  39.570  34.160  1.00  0.00     0.177 C 
BRANCH  21  26
ATOM     26  O   UNL     1      24.115  40.243  35.105  1.00  0.00    -0.387 OA
ATOM     27  H   UNL     1      24.728  40.946  35.463  1.00  0.00     0.211 HD
ENDBRANCH  21  26
BRANCH  23  28
ATOM     28  O   UNL     1      21.490  41.624  32.947  1.00  0.00    -0.387 OA
ATOM     29  H   UNL     1      22.227  41.917  32.337  1.00  0.00     0.211 HD
ENDBRANCH  23  28
BRANCH  24  30
ATOM     30  C   UNL     1      21.006  37.319  32.912  1.00  0.00     0.191 C 
BRANCH  30  31
ATOM     31  O   UNL     1      21.647  36.392  33.761  1.00  0.00    -0.394 OA
ATOM     32  H   UNL     1      21.823  36.869  34.618  1.00  0.00     0.210 HD
ENDBRANCH  30  31
ENDBRANCH  24  30
BRANCH  25  33
ATOM     33  O   UNL     1      21.567  38.881  35.373  1.00  0.00    -0.388 OA
ATOM     34  H   UNL     1      22.544  38.996  35.598  1.00  0.00     0.211 HD
ENDBRANCH  25  33
ENDBRANCH  11  20
BRANCH  10  35
ATOM     35  O   UNL     1      25.407  40.865  30.649  1.00  0.00    -0.507 OA
ATOM     36  H   UNL     1      25.068  41.640  31.255  1.00  0.00     0.293 HD
ENDBRANCH  10  35
TORSDOF 9
ENDMDL
MODEL 2
REMARK VINA RESULT:    -5.942      6.361      9.135
REMARK INTER + INTRA:          -9.417
REMARK INTER:                  -8.018
REMARK INTRA:                  -1.399
REMARK UNBOUND:                -1.391
REMARK SMILES O=c1c(-c2ccc(O)cc2)coc2c([C@H]3O[C@@H](CO)[C@@H](O)[C@H](O)[C@H]3O)c(O)ccc12
REMARK SMILES IDX 3 1 11 2 12 3 13 4 30 5 2 6 1 7 29 8 28 9 26 10 14 11 4 12
REMARK SMILES IDX 5 13 6 14 7 15 10 16 9 17 8 18 15 20 24 21 16 22 22 23 17 24
REMARK SMILES IDX 20 25 25 26 23 28 18 30 19 31 21 33 27 35
REMARK H PARENT 8 19 25 27 23 29 19 32 21 34 27 36
REMARK Flexibility Score: inf
ROOT
ATOM      1  C   UNL     1      30.214  38.350  31.385  1.00  0.00     0.065 A 
ATOM      2  C   UNL     1      31.512  38.814  31.647  1.00  0.00     0.208 A 
ATOM      3  O   UNL     1      32.241  39.403  30.687  1.00  0.00    -0.463 OA
ATOM      4  C   UNL     1      31.790  39.544  29.447  1.00  0.00     0.147 A 
ATOM      5  C   UNL     1      30.479  39.115  29.130  1.00  0.00     0.066 A 
ATOM      6  C   UNL     1      29.639  38.774  30.171  1.00  0.00     0.200 A 
ATOM      7  O   UNL     1      28.405  38.925  30.064  1.00  0.00    -0.288 OA
ATOM      8  C   UNL     1      30.088  38.920  27.795  1.00  0.00     0.020 A 
ATOM      9  C   UNL     1      31.040  39.093  26.776  1.00  0.00     0.047 A 
ATOM     10  C   UNL     1      32.279  39.714  27.073  1.00  0.00     0.125 A 
ATOM     11  C   UNL     1      32.607  40.077  28.399  1.00  0.00     0.069 A 
ENDROOT
BRANCH   1  12
ATOM     12  C   UNL     1      29.674  37.096  32.075  1.00  0.00    -0.011 A 
ATOM     13  C   UNL     1      29.537  35.847  31.421  1.00  0.00     0.013 A 
ATOM     14  C   UNL     1      28.543  34.913  31.809  1.00  0.00     0.047 A 
ATOM     15  C   UNL     1      27.636  35.255  32.786  1.00  0.00     0.115 A 
ATOM     16  C   UNL     1      28.944  37.227  33.281  1.00  0.00     0.013 A 
ATOM     17  C   UNL     1      27.817  36.432  33.515  1.00  0.00     0.047 A 
BRANCH  15  18
ATOM     18  O   UNL     1      26.495  34.458  32.997  1.00  0.00    -0.508 OA
ATOM     19  H   UNL     1      26.527  33.634  33.596  1.00  0.00     0.293 HD
ENDBRANCH  15  18
ENDBRANCH   1  12
BRANCH  11  20
ATOM     20  C   UNL     1      33.430  41.368  28.546  1.00  0.00     0.188 C 
ATOM     21  C   UNL     1      34.897  41.242  29.064  1.00  0.00     0.179 C 
ATOM     22  O   UNL     1      32.689  42.220  29.406  1.00  0.00    -0.362 OA
ATOM     23  C   UNL     1      35.525  42.670  29.226  1.00  0.00     0.177 C 
ATOM     24  C   UNL     1      33.184  43.542  29.408  1.00  0.00     0.176 C 
ATOM     25  C   UNL     1      34.586  43.597  30.059  1.00  0.00     0.177 C 
BRANCH  21  26
ATOM     26  O   UNL     1      34.972  40.584  30.310  1.00  0.00    -0.387 OA
ATOM     27  H   UNL     1      34.044  40.474  30.665  1.00  0.00     0.211 HD
ENDBRANCH  21  26
BRANCH  23  28
ATOM     28  O   UNL     1      35.739  43.311  27.982  1.00  0.00    -0.387 OA
ATOM     29  H   UNL     1      35.195  44.151  27.955  1.00  0.00     0.211 HD
ENDBRANCH  23  28
BRANCH  24  30
ATOM     30  C   UNL     1      32.143  44.455  30.108  1.00  0.00     0.191 C 
BRANCH  30  31
ATOM     31  O   UNL     1      31.583  43.812  31.234  1.00  0.00    -0.394 OA
ATOM     32  H   UNL     1      31.076  43.027  30.887  1.00  0.00     0.210 HD
ENDBRANCH  30  31
ENDBRANCH  24  30
BRANCH  25  33
ATOM     33  O   UNL     1      34.499  43.220  31.426  1.00  0.00    -0.388 OA
ATOM     34  H   UNL     1      35.029  43.879  31.976  1.00  0.00     0.211 HD
ENDBRANCH  25  33
ENDBRANCH  11  20
BRANCH  10  35
ATOM     35  O   UNL     1      33.146  40.041  26.035  1.00  0.00    -0.507 OA
ATOM     36  H   UNL     1      33.140  39.498  25.147  1.00  0.00     0.293 HD
ENDBRANCH  10  35
TORSDOF 9
ENDMDL
MODEL 3
REMARK VINA RESULT:    -5.888      2.192      7.578
REMARK INTER + INTRA:          -9.344
REMARK INTER:                  -8.005
REMARK INTRA:                  -1.339
REMARK UNBOUND:                -1.391
REMARK SMILES O=c1c(-c2ccc(O)cc2)coc2c([C@H]3O[C@@H](CO)[C@@H](O)[C@H](O)[C@H]3O)c(O)ccc12
REMARK SMILES IDX 3 1 11 2 12 3 13 4 30 5 2 6 1 7 29 8 28 9 26 10 14 11 4 12
REMARK SMILES IDX 5 13 6 14 7 15 10 16 9 17 8 18 15 20 24 21 16 22 22 23 17 24
REMARK SMILES IDX 20 25 25 26 23 28 18 30 19 31 21 33 27 35
REMARK H PARENT 8 19 25 27 23 29 19 32 21 34 27 36
REMARK Flexibility Score: inf
ROOT
ATOM      1  C   UNL     1      22.755  36.693  33.532  1.00  0.00     0.065 A 
ATOM      2  C   UNL     1      23.593  35.641  33.134  1.00  0.00     0.208 A 
ATOM      3  O   UNL     1      24.786  35.886  32.571  1.00  0.00    -0.463 OA
ATOM      4  C   UNL     1      25.215  37.119  32.335  1.00  0.00     0.147 A 
ATOM      5  C   UNL     1      24.421  38.220  32.737  1.00  0.00     0.066 A 
ATOM      6  C   UNL     1      23.340  37.975  33.559  1.00  0.00     0.200 A 
ATOM      7  O   UNL     1      22.951  38.841  34.368  1.00  0.00    -0.288 OA
ATOM      8  C   UNL     1      24.649  39.502  32.211  1.00  0.00     0.020 A 
ATOM      9  C   UNL     1      25.639  39.666  31.226  1.00  0.00     0.047 A 
ATOM     10  C   UNL     1      26.561  38.618  30.978  1.00  0.00     0.125 A 
ATOM     11  C   UNL     1      26.440  37.377  31.641  1.00  0.00     0.069 A 
ENDROOT
BRANCH   1  12
ATOM     12  C   UNL     1      21.233  36.564  33.438  1.00  0.00    -0.011 A 
ATOM     13  C   UNL     1      20.493  35.567  34.121  1.00  0.00     0.013 A 
ATOM     14  C   UNL     1      19.269  35.071  33.607  1.00  0.00     0.047 A 
ATOM     15  C   UNL     1      18.825  35.503  32.378  1.00  0.00     0.115 A 
ATOM     16  C   UNL     1      20.546  37.201  32.376  1.00  0.00     0.013 A 
ATOM     17  C   UNL     1      19.479  36.559  31.740  1.00  0.00     0.047 A 
BRANCH  15  18
ATOM     18  O   UNL     1      17.763  34.836  31.739  1.00  0.00    -0.508 OA
ATOM     19  H   UNL     1      16.808  34.904  32.087  1.00  0.00     0.293 HD
ENDBRANCH  15  18
ENDBRANCH   1  12
BRANCH  11  20
ATOM     20  C   UNL     1      27.767  36.682  31.988  1.00  0.00     0.188 C 
ATOM     21  C   UNL     1      28.010  35.248  31.420  1.00  0.00     0.179 C 
ATOM     22  O   UNL     1      27.847  36.656  33.405  1.00  0.00    -0.362 OA
ATOM     23  C   UNL     1      29.371  34.688  31.961  1.00  0.00     0.177 C 
ATOM     24  C   UNL     1      29.135  36.301  33.863  1.00  0.00     0.176 C 
ATOM     25  C   UNL     1      29.449  34.827  33.514  1.00  0.00     0.177 C 
BRANCH  21  26
ATOM     26  O   UNL     1      26.987  34.346  31.783  1.00  0.00    -0.387 OA
ATOM     27  H   UNL     1      26.108  34.743  31.522  1.00  0.00     0.211 HD
ENDBRANCH  21  26
BRANCH  23  28
ATOM     28  O   UNL     1      30.489  35.375  31.429  1.00  0.00    -0.387 OA
ATOM     29  H   UNL     1      30.744  34.949  30.559  1.00  0.00     0.211 HD
ENDBRANCH  23  28
BRANCH  24  30
ATOM     30  C   UNL     1      29.216  36.605  35.383  1.00  0.00     0.191 C 
BRANCH  30  31
ATOM     31  O   UNL     1      28.235  35.882  36.096  1.00  0.00    -0.394 OA
ATOM     32  H   UNL     1      28.673  35.563  36.933  1.00  0.00     0.210 HD
ENDBRANCH  30  31
ENDBRANCH  24  30
BRANCH  25  33
ATOM     33  O   UNL     1      28.551  33.966  34.197  1.00  0.00    -0.388 OA
ATOM     34  H   UNL     1      29.084  33.353  34.796  1.00  0.00     0.211 HD
ENDBRANCH  25  33
ENDBRANCH  11  20
BRANCH  10  35
ATOM     35  O   UNL     1      27.642  38.845  30.131  1.00  0.00    -0.507 OA
ATOM     36  H   UNL     1      28.184  39.732  30.189  1.00  0.00     0.293 HD
ENDBRANCH  10  35
TORSDOF 9
ENDMDL
MODEL 4
REMARK VINA RESULT:    -5.805      3.212      5.138
REMARK INTER + INTRA:          -9.232
REMARK INTER:                  -8.369
REMARK INTRA:                  -0.863
REMARK UNBOUND:                -1.391
REMARK SMILES O=c1c(-c2ccc(O)cc2)coc2c([C@H]3O[C@@H](CO)[C@@H](O)[C@H](O)[C@H]3O)c(O)ccc12
REMARK SMILES IDX 3 1 11 2 12 3 13 4 30 5 2 6 1 7 29 8 28 9 26 10 14 11 4 12
REMARK SMILES IDX 5 13 6 14 7 15 10 16 9 17 8 18 15 20 24 21 16 22 22 23 17 24
REMARK SMILES IDX 20 25 25 26 23 28 18 30 19 31 21 33 27 35
REMARK H PARENT 8 19 25 27 23 29 19 32 21 34 27 36
REMARK Flexibility Score: inf
ROOT
ATOM      1  C   UNL     1      29.444  38.619  30.310  1.00  0.00     0.065 A 
ATOM      2  C   UNL     1      28.258  39.314  30.031  1.00  0.00     0.208 A 
ATOM      3  O   UNL     1      27.097  38.951  30.598  1.00  0.00    -0.463 OA
ATOM      4  C   UNL     1      27.007  37.909  31.415  1.00  0.00     0.147 A 
ATOM      5  C   UNL     1      28.176  37.184  31.749  1.00  0.00     0.066 A 
ATOM      6  C   UNL     1      29.397  37.722  31.396  1.00  0.00     0.200 A 
ATOM      7  O   UNL     1      30.413  37.489  32.080  1.00  0.00    -0.288 OA
ATOM      8  C   UNL     1      28.090  35.898  32.307  1.00  0.00     0.020 A 
ATOM      9  C   UNL     1      26.824  35.310  32.469  1.00  0.00     0.047 A 
ATOM     10  C   UNL     1      25.659  36.106  32.328  1.00  0.00     0.125 A 
ATOM     11  C   UNL     1      25.751  37.460  31.935  1.00  0.00     0.069 A 
ENDROOT
BRANCH   1  12
ATOM     12  C   UNL     1      30.522  38.443  29.238  1.00  0.00    -0.011 A 
ATOM     13  C   UNL     1      30.375  38.898  27.905  1.00  0.00     0.013 A 
ATOM     14  C   UNL     1      31.029  38.254  26.825  1.00  0.00     0.047 A 
ATOM     15  C   UNL     1      31.758  37.110  27.060  1.00  0.00     0.115 A 
ATOM     16  C   UNL     1      31.552  37.492  29.438  1.00  0.00     0.013 A 
ATOM     17  C   UNL     1      32.004  36.706  28.374  1.00  0.00     0.047 A 
BRANCH  15  18
ATOM     18  O   UNL     1      32.190  36.317  25.981  1.00  0.00    -0.508 OA
ATOM     19  H   UNL     1      32.479  36.735  25.097  1.00  0.00     0.293 HD
ENDBRANCH  15  18
ENDBRANCH   1  12
BRANCH  11  20
ATOM     20  C   UNL     1      24.718  38.404  32.572  1.00  0.00     0.188 C 
ATOM     21  C   UNL     1      23.819  39.252  31.617  1.00  0.00     0.179 C 
ATOM     22  O   UNL     1      25.440  39.263  33.439  1.00  0.00    -0.362 OA
ATOM     23  C   UNL     1      22.904  40.205  32.461  1.00  0.00     0.177 C 
ATOM     24  C   UNL     1      24.592  39.994  34.299  1.00  0.00     0.176 C 
ATOM     25  C   UNL     1      23.749  41.013  33.495  1.00  0.00     0.177 C 
BRANCH  21  26
ATOM     26  O   UNL     1      24.578  40.042  30.727  1.00  0.00    -0.387 OA
ATOM     27  H   UNL     1      24.233  39.895  29.801  1.00  0.00     0.211 HD
ENDBRANCH  21  26
BRANCH  23  28
ATOM     28  O   UNL     1      21.918  39.501  33.193  1.00  0.00    -0.387 OA
ATOM     29  H   UNL     1      21.261  40.161  33.564  1.00  0.00     0.211 HD
ENDBRANCH  23  28
BRANCH  24  30
ATOM     30  C   UNL     1      25.461  40.651  35.405  1.00  0.00     0.191 C 
BRANCH  30  31
ATOM     31  O   UNL     1      25.164  42.025  35.532  1.00  0.00    -0.394 OA
ATOM     32  H   UNL     1      24.503  42.238  34.817  1.00  0.00     0.210 HD
ENDBRANCH  30  31
ENDBRANCH  24  30
BRANCH  25  33
ATOM     33  O   UNL     1      24.601  41.975  32.891  1.00  0.00    -0.388 OA
ATOM     34  H   UNL     1      24.082  42.831  32.764  1.00  0.00     0.211 HD
ENDBRANCH  25  33
ENDBRANCH  11  20
BRANCH  10  35
ATOM     35  O   UNL     1      24.419  35.567  32.658  1.00  0.00    -0.507 OA
ATOM     36  H   UNL     1      23.757  35.265  31.913  1.00  0.00     0.293 HD
ENDBRANCH  10  35
TORSDOF 9
ENDMDL
MODEL 5
REMARK VINA RESULT:    -5.735      1.787      3.142
REMARK INTER + INTRA:          -9.138
REMARK INTER:                  -7.908
REMARK INTRA:                  -1.229
REMARK UNBOUND:                -1.391
REMARK SMILES O=c1c(-c2ccc(O)cc2)coc2c([C@H]3O[C@@H](CO)[C@@H](O)[C@H](O)[C@H]3O)c(O)ccc12
REMARK SMILES IDX 3 1 11 2 12 3 13 4 30 5 2 6 1 7 29 8 28 9 26 10 14 11 4 12
REMARK SMILES IDX 5 13 6 14 7 15 10 16 9 17 8 18 15 20 24 21 16 22 22 23 17 24
REMARK SMILES IDX 20 25 25 26 23 28 18 30 19 31 21 33 27 35
REMARK H PARENT 8 19 25 27 23 29 19 32 21 34 27 36
REMARK Flexibility Score: inf
ROOT
ATOM      1  C   UNL     1      26.331  37.210  32.886  1.00  0.00     0.065 A 
ATOM      2  C   UNL     1      25.339  36.847  33.810  1.00  0.00     0.208 A 
ATOM      3  O   UNL     1      24.166  37.498  33.852  1.00  0.00    -0.463 OA
ATOM      4  C   UNL     1      23.901  38.525  33.055  1.00  0.00     0.147 A 
ATOM      5  C   UNL     1      24.855  38.920  32.088  1.00  0.00     0.066 A 
ATOM      6  C   UNL     1      25.929  38.084  31.857  1.00  0.00     0.200 A 
ATOM      7  O   UNL     1      26.469  38.044  30.733  1.00  0.00    -0.288 OA
ATOM      8  C   UNL     1      24.781  40.183  31.477  1.00  0.00     0.020 A 
ATOM      9  C   UNL     1      23.779  41.078  31.888  1.00  0.00     0.047 A 
ATOM     10  C   UNL     1      22.712  40.613  32.697  1.00  0.00     0.125 A 
ATOM     11  C   UNL     1      22.692  39.282  33.172  1.00  0.00     0.069 A 
ENDROOT
BRANCH   1  12
ATOM     12  C   UNL     1      27.814  37.103  33.244  1.00  0.00    -0.011 A 
ATOM     13  C   UNL     1      28.742  36.335  32.497  1.00  0.00     0.013 A 
ATOM     14  C   UNL     1      29.885  35.758  33.104  1.00  0.00     0.047 A 
ATOM     15  C   UNL     1      30.061  35.873  34.465  1.00  0.00     0.115 A 
ATOM     16  C   UNL     1      28.243  37.465  34.544  1.00  0.00     0.013 A 
ATOM     17  C   UNL     1      29.221  36.712  35.201  1.00  0.00     0.047 A 
BRANCH  15  18
ATOM     18  O   UNL     1      31.035  35.094  35.117  1.00  0.00    -0.508 OA
ATOM     19  H   UNL     1      31.356  34.210  34.726  1.00  0.00     0.293 HD
ENDBRANCH  15  18
ENDBRANCH   1  12
BRANCH  11  20
ATOM     20  C   UNL     1      21.299  38.638  33.270  1.00  0.00     0.188 C 
ATOM     21  C   UNL     1      20.826  38.135  34.671  1.00  0.00     0.179 C 
ATOM     22  O   UNL     1      21.290  37.561  32.346  1.00  0.00    -0.362 OA
ATOM     23  C   UNL     1      19.429  37.435  34.536  1.00  0.00     0.177 C 
ATOM     24  C   UNL     1      19.991  37.055  32.125  1.00  0.00     0.176 C 
ATOM     25  C   UNL     1      19.452  36.364  33.401  1.00  0.00     0.177 C 
BRANCH  21  26
ATOM     26  O   UNL     1      21.727  37.212  35.243  1.00  0.00    -0.387 OA
ATOM     27  H   UNL     1      22.645  37.606  35.211  1.00  0.00     0.211 HD
ENDBRANCH  21  26
BRANCH  23  28
ATOM     28  O   UNL     1      18.394  38.348  34.221  1.00  0.00    -0.387 OA
ATOM     29  H   UNL     1      18.622  39.240  34.614  1.00  0.00     0.211 HD
ENDBRANCH  23  28
BRANCH  24  30
ATOM     30  C   UNL     1      20.033  36.118  30.889  1.00  0.00     0.191 C 
BRANCH  30  31
ATOM     31  O   UNL     1      20.911  35.033  31.106  1.00  0.00    -0.394 OA
ATOM     32  H   UNL     1      21.546  35.027  30.338  1.00  0.00     0.210 HD
ENDBRANCH  30  31
ENDBRANCH  24  30
BRANCH  25  33
ATOM     33  O   UNL     1      20.253  35.235  33.714  1.00  0.00    -0.388 OA
ATOM     34  H   UNL     1      21.221  35.471  33.554  1.00  0.00     0.211 HD
ENDBRANCH  25  33
ENDBRANCH  11  20
BRANCH  10  35
ATOM     35  O   UNL     1      21.635  41.454  32.958  1.00  0.00    -0.507 OA
ATOM     36  H   UNL     1      20.674  41.197  32.650  1.00  0.00     0.293 HD
ENDBRANCH  10  35
TORSDOF 9
ENDMDL
MODEL 6
REMARK VINA RESULT:    -5.702      4.403      8.835
REMARK INTER + INTRA:          -9.092
REMARK INTER:                  -8.353
REMARK INTRA:                  -0.739
REMARK UNBOUND:                -1.391
REMARK SMILES O=c1c(-c2ccc(O)cc2)coc2c([C@H]3O[C@@H](CO)[C@@H](O)[C@H](O)[C@H]3O)c(O)ccc12
REMARK SMILES IDX 3 1 11 2 12 3 13 4 30 5 2 6 1 7 29 8 28 9 26 10 14 11 4 12
REMARK SMILES IDX 5 13 6 14 7 15 10 16 9 17 8 18 15 20 24 21 16 22 22 23 17 24
REMARK SMILES IDX 20 25 25 26 23 28 18 30 19 31 21 33 27 35
REMARK H PARENT 8 19 25 27 23 29 19 32 21 34 27 36
REMARK Flexibility Score: inf
ROOT
ATOM      1  C   UNL     1      26.741  38.733  30.726  1.00  0.00     0.065 A 
ATOM      2  C   UNL     1      27.754  39.551  30.204  1.00  0.00     0.208 A 
ATOM      3  O   UNL     1      29.035  39.152  30.216  1.00  0.00    -0.463 OA
ATOM      4  C   UNL     1      29.408  37.994  30.745  1.00  0.00     0.147 A 
ATOM      5  C   UNL     1      28.426  37.119  31.266  1.00  0.00     0.066 A 
ATOM      6  C   UNL     1      27.101  37.399  31.001  1.00  0.00     0.200 A 
ATOM      7  O   UNL     1      26.263  36.479  30.920  1.00  0.00    -0.288 OA
ATOM      8  C   UNL     1      28.781  36.072  32.133  1.00  0.00     0.020 A 
ATOM      9  C   UNL     1      30.123  35.944  32.530  1.00  0.00     0.047 A 
ATOM     10  C   UNL     1      31.127  36.683  31.855  1.00  0.00     0.125 A 
ATOM     11  C   UNL     1      30.785  37.617  30.850  1.00  0.00     0.069 A 
ENDROOT
BRANCH   1  12
ATOM     12  C   UNL     1      25.523  39.341  31.425  1.00  0.00    -0.011 A 
ATOM     13  C   UNL     1      24.976  40.602  31.079  1.00  0.00     0.013 A 
ATOM     14  C   UNL     1      24.302  41.405  32.033  1.00  0.00     0.047 A 
ATOM     15  C   UNL     1      24.246  40.994  33.345  1.00  0.00     0.115 A 
ATOM     16  C   UNL     1      25.123  38.839  32.687  1.00  0.00     0.013 A 
ATOM     17  C   UNL     1      24.681  39.712  33.687  1.00  0.00     0.047 A 
BRANCH  15  18
ATOM     18  O   UNL     1      23.819  41.888  34.345  1.00  0.00    -0.508 OA
ATOM     19  H   UNL     1      24.308  42.765  34.517  1.00  0.00     0.293 HD
ENDBRANCH  15  18
ENDBRANCH   1  12
BRANCH  11  20
ATOM     20  C   UNL     1      31.780  37.723  29.683  1.00  0.00     0.188 C 
ATOM     21  C   UNL     1      32.935  38.767  29.802  1.00  0.00     0.179 C 
ATOM     22  O   UNL     1      31.008  37.992  28.522  1.00  0.00    -0.362 OA
ATOM     23  C   UNL     1      33.775  38.778  28.478  1.00  0.00     0.177 C 
ATOM     24  C   UNL     1      31.755  37.839  27.334  1.00  0.00     0.176 C 
ATOM     25  C   UNL     1      32.847  38.930  27.233  1.00  0.00     0.177 C 
BRANCH  21  26
ATOM     26  O   UNL     1      32.456  40.075  30.030  1.00  0.00    -0.387 OA
ATOM     27  H   UNL     1      32.296  40.511  29.146  1.00  0.00     0.211 HD
ENDBRANCH  21  26
BRANCH  23  28
ATOM     28  O   UNL     1      34.516  37.585  28.296  1.00  0.00    -0.387 OA
ATOM     29  H   UNL     1      35.241  37.755  27.626  1.00  0.00     0.211 HD
ENDBRANCH  23  28
BRANCH  24  30
ATOM     30  C   UNL     1      30.772  37.838  26.133  1.00  0.00     0.191 C 
BRANCH  30  31
ATOM     31  O   UNL     1      30.002  39.021  26.109  1.00  0.00    -0.394 OA
ATOM     32  H   UNL     1      29.844  39.235  25.149  1.00  0.00     0.210 HD
ENDBRANCH  30  31
ENDBRANCH  24  30
BRANCH  25  33
ATOM     33  O   UNL     1      32.242  40.212  27.140  1.00  0.00    -0.388 OA
ATOM     34  H   UNL     1      32.262  40.644  28.052  1.00  0.00     0.211 HD
ENDBRANCH  25  33
ENDBRANCH  11  20
BRANCH  10  35
ATOM     35  O   UNL     1      32.467  36.427  32.131  1.00  0.00    -0.507 OA
ATOM     36  H   UNL     1      33.174  36.420  31.367  1.00  0.00     0.293 HD
ENDBRANCH  10  35
TORSDOF 9
ENDMDL
MODEL 7
REMARK VINA RESULT:    -5.640      1.927      8.057
REMARK INTER + INTRA:          -9.009
REMARK INTER:                  -8.074
REMARK INTRA:                  -0.935
REMARK UNBOUND:                -1.391
REMARK SMILES O=c1c(-c2ccc(O)cc2)coc2c([C@H]3O[C@@H](CO)[C@@H](O)[C@H](O)[C@H]3O)c(O)ccc12
REMARK SMILES IDX 3 1 11 2 12 3 13 4 30 5 2 6 1 7 29 8 28 9 26 10 14 11 4 12
REMARK SMILES IDX 5 13 6 14 7 15 10 16 9 17 8 18 15 20 24 21 16 22 22 23 17 24
REMARK SMILES IDX 20 25 25 26 23 28 18 30 19 31 21 33 27 35
REMARK H PARENT 8 19 25 27 23 29 19 32 21 34 27 36
REMARK Flexibility Score: inf
ROOT
ATOM      1  C   UNL     1      23.463  40.416  34.444  1.00  0.00     0.065 A 
ATOM      2  C   UNL     1      23.651  39.231  35.172  1.00  0.00     0.208 A 
ATOM      3  O   UNL     1      24.542  38.312  34.772  1.00  0.00    -0.463 OA
ATOM      4  C   UNL     1      25.259  38.459  33.665  1.00  0.00     0.147 A 
ATOM      5  C   UNL     1      25.127  39.644  32.904  1.00  0.00     0.066 A 
ATOM      6  C   UNL     1      24.429  40.698  33.458  1.00  0.00     0.200 A 
ATOM      7  O   UNL     1      24.714  41.874  33.157  1.00  0.00    -0.288 OA
ATOM      8  C   UNL     1      25.580  39.701  31.575  1.00  0.00     0.020 A 
ATOM      9  C   UNL     1      26.109  38.538  30.988  1.00  0.00     0.047 A 
ATOM     10  C   UNL     1      26.427  37.424  31.803  1.00  0.00     0.125 A 
ATOM     11  C   UNL     1      26.133  37.431  33.185  1.00  0.00     0.069 A 
ENDROOT
BRANCH   1  12
ATOM     12  C   UNL     1      22.083  41.070  34.350  1.00  0.00    -0.011 A 
ATOM     13  C   UNL     1      21.436  41.350  33.121  1.00  0.00     0.013 A 
ATOM     14  C   UNL     1      20.523  42.427  32.992  1.00  0.00     0.047 A 
ATOM     15  C   UNL     1      20.320  43.273  34.058  1.00  0.00     0.115 A 
ATOM     16  C   UNL     1      21.562  41.757  35.473  1.00  0.00     0.013 A 
ATOM     17  C   UNL     1      20.861  42.956  35.306  1.00  0.00     0.047 A 
BRANCH  15  18
ATOM     18  O   UNL     1      19.630  44.486  33.872  1.00  0.00    -0.508 OA
ATOM     19  H   UNL     1      18.627  44.505  33.694  1.00  0.00     0.293 HD
ENDBRANCH  15  18
ENDBRANCH   1  12
BRANCH  11  20
ATOM     20  C   UNL     1      27.149  36.703  34.081  1.00  0.00     0.188 C 
ATOM     21  C   UNL     1      28.540  37.376  34.301  1.00  0.00     0.179 C 
ATOM     22  O   UNL     1      27.324  35.411  33.520  1.00  0.00    -0.362 OA
ATOM     23  C   UNL     1      29.451  36.435  35.164  1.00  0.00     0.177 C 
ATOM     24  C   UNL     1      28.012  34.537  34.390  1.00  0.00     0.176 C 
ATOM     25  C   UNL     1      29.479  34.993  34.569  1.00  0.00     0.177 C 
BRANCH  21  26
ATOM     26  O   UNL     1      29.207  37.641  33.086  1.00  0.00    -0.387 OA
ATOM     27  H   UNL     1      29.743  38.477  33.196  1.00  0.00     0.211 HD
ENDBRANCH  21  26
BRANCH  23  28
ATOM     28  O   UNL     1      28.999  36.321  36.501  1.00  0.00    -0.387 OA
ATOM     29  H   UNL     1      28.807  37.239  36.854  1.00  0.00     0.211 HD
ENDBRANCH  23  28
BRANCH  24  30
ATOM     30  C   UNL     1      27.878  33.092  33.841  1.00  0.00     0.191 C 
BRANCH  30  31
ATOM     31  O   UNL     1      27.881  33.086  32.429  1.00  0.00    -0.394 OA
ATOM     32  H   UNL     1      27.555  33.983  32.142  1.00  0.00     0.210 HD
ENDBRANCH  30  31
ENDBRANCH  24  30
BRANCH  25  33
ATOM     33  O   UNL     1      30.165  34.913  33.329  1.00  0.00    -0.388 OA
ATOM     34  H   UNL     1      29.484  34.849  32.587  1.00  0.00     0.211 HD
ENDBRANCH  25  33
ENDBRANCH  11  20
BRANCH  10  35
ATOM     35  O   UNL     1      27.109  36.344  31.250  1.00  0.00    -0.507 OA
ATOM     36  H   UNL     1      26.630  35.430  31.109  1.00  0.00     0.293 HD
ENDBRANCH  10  35
TORSDOF 9
ENDMDL
MODEL 8
REMARK VINA RESULT:    -5.623      6.203      9.218
REMARK INTER + INTRA:          -8.986
REMARK INTER:                  -8.027
REMARK INTRA:                  -0.960
REMARK UNBOUND:                -1.391
REMARK SMILES O=c1c(-c2ccc(O)cc2)coc2c([C@H]3O[C@@H](CO)[C@@H](O)[C@H](O)[C@H]3O)c(O)ccc12
REMARK SMILES IDX 3 1 11 2 12 3 13 4 30 5 2 6 1 7 29 8 28 9 26 10 14 11 4 12
REMARK SMILES IDX 5 13 6 14 7 15 10 16 9 17 8 18 15 20 24 21 16 22 22 23 17 24
REMARK SMILES IDX 20 25 25 26 23 28 18 30 19 31 21 33 27 35
REMARK H PARENT 8 19 25 27 23 29 19 32 21 34 27 36
REMARK Flexibility Score: inf
ROOT
ATOM      1  C   UNL     1      29.271  38.141  31.444  1.00  0.00     0.065 A 
ATOM      2  C   UNL     1      30.521  38.392  32.031  1.00  0.00     0.208 A 
ATOM      3  O   UNL     1      31.543  38.864  31.301  1.00  0.00    -0.463 OA
ATOM      4  C   UNL     1      31.436  39.083  29.997  1.00  0.00     0.147 A 
ATOM      5  C   UNL     1      30.193  38.869  29.356  1.00  0.00     0.066 A 
ATOM      6  C   UNL     1      29.082  38.659  30.147  1.00  0.00     0.200 A 
ATOM      7  O   UNL     1      27.949  39.004  29.753  1.00  0.00    -0.288 OA
ATOM      8  C   UNL     1      30.115  38.747  27.958  1.00  0.00     0.020 A 
ATOM      9  C   UNL     1      31.303  38.773  27.207  1.00  0.00     0.047 A 
ATOM     10  C   UNL     1      32.511  39.189  27.821  1.00  0.00     0.125 A 
ATOM     11  C   UNL     1      32.555  39.487  29.201  1.00  0.00     0.069 A 
ENDROOT
BRANCH   1  12
ATOM     12  C   UNL     1      28.394  36.984  31.926  1.00  0.00    -0.011 A 
ATOM     13  C   UNL     1      28.458  35.679  31.379  1.00  0.00     0.013 A 
ATOM     14  C   UNL     1      27.327  34.824  31.368  1.00  0.00     0.047 A 
ATOM     15  C   UNL     1      26.117  35.296  31.822  1.00  0.00     0.115 A 
ATOM     16  C   UNL     1      27.229  37.264  32.680  1.00  0.00     0.013 A 
ATOM     17  C   UNL     1      26.055  36.536  32.462  1.00  0.00     0.047 A 
BRANCH  15  18
ATOM     18  O   UNL     1      24.940  34.564  31.578  1.00  0.00    -0.508 OA
ATOM     19  H   UNL     1      24.932  33.767  30.944  1.00  0.00     0.293 HD
ENDBRANCH  15  18
ENDBRANCH   1  12
BRANCH  11  20
ATOM     20  C   UNL     1      33.504  40.629  29.600  1.00  0.00     0.188 C 
ATOM     21  C   UNL     1      33.200  41.402  30.922  1.00  0.00     0.179 C 
ATOM     22  O   UNL     1      33.521  41.535  28.508  1.00  0.00    -0.362 OA
ATOM     23  C   UNL     1      34.225  42.576  31.096  1.00  0.00     0.177 C 
ATOM     24  C   UNL     1      34.559  42.486  28.615  1.00  0.00     0.176 C 
ATOM     25  C   UNL     1      34.298  43.444  29.801  1.00  0.00     0.177 C 
BRANCH  21  26
ATOM     26  O   UNL     1      31.898  41.948  30.937  1.00  0.00    -0.387 OA
ATOM     27  H   UNL     1      31.599  42.022  31.888  1.00  0.00     0.211 HD
ENDBRANCH  21  26
BRANCH  23  28
ATOM     28  O   UNL     1      35.538  42.114  31.357  1.00  0.00    -0.387 OA
ATOM     29  H   UNL     1      35.594  41.831  32.316  1.00  0.00     0.211 HD
ENDBRANCH  23  28
BRANCH  24  30
ATOM     30  C   UNL     1      34.699  43.216  27.253  1.00  0.00     0.191 C 
BRANCH  30  31
ATOM     31  O   UNL     1      34.738  44.616  27.431  1.00  0.00    -0.394 OA
ATOM     32  H   UNL     1      35.227  44.778  28.284  1.00  0.00     0.210 HD
ENDBRANCH  30  31
ENDBRANCH  24  30
BRANCH  25  33
ATOM     33  O   UNL     1      33.117  44.196  29.565  1.00  0.00    -0.388 OA
ATOM     34  H   UNL     1      32.560  44.194  30.407  1.00  0.00     0.211 HD
ENDBRANCH  25  33
ENDBRANCH  11  20
BRANCH  10  35
ATOM     35  O   UNL     1      33.645  39.381  27.037  1.00  0.00    -0.507 OA
ATOM     36  H   UNL     1      33.568  39.458  26.002  1.00  0.00     0.293 HD
ENDBRANCH  10  35
TORSDOF 9
ENDMDL
MODEL 9
REMARK VINA RESULT:    -5.553      2.676      8.092
REMARK INTER + INTRA:          -8.892
REMARK INTER:                  -7.622
REMARK INTRA:                  -1.270
REMARK UNBOUND:                -1.391
REMARK SMILES O=c1c(-c2ccc(O)cc2)coc2c([C@H]3O[C@@H](CO)[C@@H](O)[C@H](O)[C@H]3O)c(O)ccc12
REMARK SMILES IDX 3 1 11 2 12 3 13 4 30 5 2 6 1 7 29 8 28 9 26 10 14 11 4 12
REMARK SMILES IDX 5 13 6 14 7 15 10 16 9 17 8 18 15 20 24 21 16 22 22 23 17 24
REMARK SMILES IDX 20 25 25 26 23 28 18 30 19 31 21 33 27 35
REMARK H PARENT 8 19 25 27 23 29 19 32 21 34 27 36
REMARK Flexibility Score: inf
ROOT
ATOM      1  C   UNL     1      26.426  38.434  33.896  1.00  0.00     0.065 A 
ATOM      2  C   UNL     1      27.416  37.755  34.622  1.00  0.00     0.208 A 
ATOM      3  O   UNL     1      28.009  36.661  34.120  1.00  0.00    -0.463 OA
ATOM      4  C   UNL     1      27.671  36.153  32.942  1.00  0.00     0.147 A 
ATOM      5  C   UNL     1      26.695  36.810  32.156  1.00  0.00     0.066 A 
ATOM      6  C   UNL     1      26.294  38.073  32.541  1.00  0.00     0.200 A 
ATOM      7  O   UNL     1      25.911  38.902  31.691  1.00  0.00    -0.288 OA
ATOM      8  C   UNL     1      26.059  36.145  31.094  1.00  0.00     0.020 A 
ATOM      9  C   UNL     1      26.360  34.792  30.862  1.00  0.00     0.047 A 
ATOM     10  C   UNL     1      27.475  34.201  31.509  1.00  0.00     0.125 A 
ATOM     11  C   UNL     1      28.231  34.929  32.455  1.00  0.00     0.069 A 
ENDROOT
BRANCH   1  12
ATOM     12  C   UNL     1      25.254  39.111  34.610  1.00  0.00    -0.011 A 
ATOM     13  C   UNL     1      25.255  40.478  34.981  1.00  0.00     0.013 A 
ATOM     14  C   UNL     1      24.519  40.943  36.100  1.00  0.00     0.047 A 
ATOM     15  C   UNL     1      23.854  40.039  36.897  1.00  0.00     0.115 A 
ATOM     16  C   UNL     1      24.281  38.313  35.258  1.00  0.00     0.013 A 
ATOM     17  C   UNL     1      23.751  38.707  36.491  1.00  0.00     0.047 A 
BRANCH  15  18
ATOM     18  O   UNL     1      23.344  40.442  38.145  1.00  0.00    -0.508 OA
ATOM     19  H   UNL     1      23.342  41.422  38.426  1.00  0.00     0.293 HD
ENDBRANCH  15  18
ENDBRANCH   1  12
BRANCH  11  20
ATOM     20  C   UNL     1      29.739  34.629  32.466  1.00  0.00     0.188 C 
ATOM     21  C   UNL     1      30.302  33.767  33.640  1.00  0.00     0.179 C 
ATOM     22  O   UNL     1      30.398  35.885  32.434  1.00  0.00    -0.362 OA
ATOM     23  C   UNL     1      31.861  33.655  33.512  1.00  0.00     0.177 C 
ATOM     24  C   UNL     1      31.777  35.760  32.159  1.00  0.00     0.176 C 
ATOM     25  C   UNL     1      32.506  35.065  33.333  1.00  0.00     0.177 C 
BRANCH  21  26
ATOM     26  O   UNL     1      30.002  34.320  34.904  1.00  0.00    -0.387 OA
ATOM     27  H   UNL     1      29.081  34.705  34.869  1.00  0.00     0.211 HD
ENDBRANCH  21  26
BRANCH  23  28
ATOM     28  O   UNL     1      32.259  32.875  32.400  1.00  0.00    -0.387 OA
ATOM     29  H   UNL     1      33.223  32.628  32.509  1.00  0.00     0.211 HD
ENDBRANCH  23  28
BRANCH  24  30
ATOM     30  C   UNL     1      32.341  37.169  31.831  1.00  0.00     0.191 C 
BRANCH  30  31
ATOM     31  O   UNL     1      33.635  37.334  32.372  1.00  0.00    -0.394 OA
ATOM     32  H   UNL     1      33.511  37.597  33.325  1.00  0.00     0.210 HD
ENDBRANCH  30  31
ENDBRANCH  24  30
BRANCH  25  33
ATOM     33  O   UNL     1      32.421  35.870  34.500  1.00  0.00    -0.388 OA
ATOM     34  H   UNL     1      32.247  36.824  34.221  1.00  0.00     0.211 HD
ENDBRANCH  25  33
ENDBRANCH  11  20
BRANCH  10  35
ATOM     35  O   UNL     1      27.874  32.918  31.148  1.00  0.00    -0.507 OA
ATOM     36  H   UNL     1      28.162  32.707  30.170  1.00  0.00     0.293 HD
ENDBRANCH  10  35
TORSDOF 9
ENDMDL
