MODEL 1
REMARK VINA RESULT:    -4.670      0.000      0.000
REMARK INTER + INTRA:          -7.356
REMARK INTER:                  -7.127
REMARK INTRA:                  -0.229
REMARK UNBOUND:                -0.229
REMARK SMILES CCCCCCCCCCC(=O)[O-]
REMARK SMILES IDX 7 1 8 2 9 3 10 4 11 5 12 6 13 7 6 8 5 9 4 10 3 11 2 12 1 13
REMARK H PARENT
REMARK Flexibility Score: inf
ROOT
ATOM      1  C   UNL     1      40.251 117.584  11.903  1.00  0.00     0.000 C 
ENDROOT
BRANCH   1   2
ATOM      2  C   UNL     1      41.079 117.905  10.650  1.00  0.00     0.000 C 
BRANCH   2   3
ATOM      3  C   UNL     1      42.410 117.138  10.660  1.00  0.00     0.006 C 
BRANCH   3   4
ATOM      4  C   UNL     1      42.963 116.913   9.247  1.00  0.00     0.053 C 
BRANCH   4   5
ATOM      5  C   UNL     1      44.087 115.924   9.240  1.00  0.00     0.041 C 
ATOM      6  O   UNL     1      43.998 114.865   8.564  1.00  0.00    -0.550 OA
ATOM      7  O   UNL     1      45.221 116.155  10.009  1.00  0.00    -0.550 OA
ENDBRANCH   4   5
ENDBRANCH   3   4
ENDBRANCH   2   3
ENDBRANCH   1   2
BRANCH   1   8
ATOM      8  C   UNL     1      39.931 118.833  12.740  1.00  0.00     0.000 C 
BRANCH   8   9
ATOM      9  C   UNL     1      38.562 118.742  13.437  1.00  0.00    -0.000 C 
BRANCH   9  10
ATOM     10  C   UNL     1      37.760 120.049  13.333  1.00  0.00    -0.000 C 
BRANCH  10  11
ATOM     11  C   UNL     1      36.579 120.101  14.320  1.00  0.00    -0.000 C 
BRANCH  11  12
ATOM     12  C   UNL     1      35.620 118.914  14.151  1.00  0.00    -0.003 C 
ATOM     13  C   UNL     1      35.012 118.841  12.749  1.00  0.00     0.004 C 
ENDBRANCH  11  12
ENDBRANCH  10  11
ENDBRANCH   9  10
ENDBRANCH   8   9
ENDBRANCH   1   8
TORSDOF 9
ENDMDL
MODEL 2
REMARK VINA RESULT:    -4.636      5.330      9.937
REMARK INTER + INTRA:          -7.304
REMARK INTER:                  -6.743
REMARK INTRA:                  -0.561
REMARK UNBOUND:                -0.229
REMARK SMILES CCCCCCCCCCC(=O)[O-]
REMARK SMILES IDX 7 1 8 2 9 3 10 4 11 5 12 6 13 7 6 8 5 9 4 10 3 11 2 12 1 13
REMARK H PARENT
REMARK Flexibility Score: inf
ROOT
ATOM      1  C   UNL     1      45.550 113.344   8.584  1.00  0.00     0.000 C 
ENDROOT
BRANCH   1   2
ATOM      2  C   UNL     1      44.887 114.697   8.284  1.00  0.00     0.000 C 
BRANCH   2   3
ATOM      3  C   UNL     1      43.786 115.007   9.310  1.00  0.00     0.006 C 
BRANCH   3   4
ATOM      4  C   UNL     1      43.784 116.483   9.730  1.00  0.00     0.053 C 
BRANCH   4   5
ATOM      5  C   UNL     1      42.582 117.207   9.206  1.00  0.00     0.041 C 
ATOM      6  O   UNL     1      41.913 117.959   9.963  1.00  0.00    -0.550 OA
ATOM      7  O   UNL     1      42.182 117.027   7.888  1.00  0.00    -0.550 OA
ENDBRANCH   4   5
ENDBRANCH   3   4
ENDBRANCH   2   3
ENDBRANCH   1   2
BRANCH   1   8
ATOM      8  C   UNL     1      45.701 112.465   7.331  1.00  0.00     0.000 C 
BRANCH   8   9
ATOM      9  C   UNL     1      46.050 113.282   6.075  1.00  0.00    -0.000 C 
BRANCH   9  10
ATOM     10  C   UNL     1      47.562 113.320   5.797  1.00  0.00    -0.000 C 
BRANCH  10  11
ATOM     11  C   UNL     1      47.965 114.467   4.854  1.00  0.00    -0.000 C 
BRANCH  11  12
ATOM     12  C   UNL     1      46.832 115.484   4.649  1.00  0.00    -0.003 C 
ATOM     13  C   UNL     1      46.447 115.650   3.179  1.00  0.00     0.004 C 
ENDBRANCH  11  12
ENDBRANCH  10  11
ENDBRANCH   9  10
ENDBRANCH   8   9
ENDBRANCH   1   8
TORSDOF 9
ENDMDL
MODEL 3
REMARK VINA RESULT:    -4.623      0.844      1.493
REMARK INTER + INTRA:          -7.285
REMARK INTER:                  -7.067
REMARK INTRA:                  -0.218
REMARK UNBOUND:                -0.229
REMARK SMILES CCCCCCCCCCC(=O)[O-]
REMARK SMILES IDX 7 1 8 2 9 3 10 4 11 5 12 6 13 7 6 8 5 9 4 10 3 11 2 12 1 13
REMARK H PARENT
REMARK Flexibility Score: inf
ROOT
ATOM      1  C   UNL     1      40.368 117.698  11.892  1.00  0.00     0.000 C 
ENDROOT
BRANCH   1   2
ATOM      2  C   UNL     1      41.265 117.933  10.667  1.00  0.00     0.000 C 
BRANCH   2   3
ATOM      3  C   UNL     1      42.431 116.932  10.641  1.00  0.00     0.006 C 
BRANCH   3   4
ATOM      4  C   UNL     1      43.082 116.836   9.255  1.00  0.00     0.053 C 
BRANCH   4   5
ATOM      5  C   UNL     1      44.468 116.274   9.330  1.00  0.00     0.041 C 
ATOM      6  O   UNL     1      44.912 115.550   8.400  1.00  0.00    -0.550 OA
ATOM      7  O   UNL     1      45.260 116.524  10.444  1.00  0.00    -0.550 OA
ENDBRANCH   4   5
ENDBRANCH   3   4
ENDBRANCH   2   3
ENDBRANCH   1   2
BRANCH   1   8
ATOM      8  C   UNL     1      39.981 119.004  12.605  1.00  0.00     0.000 C 
BRANCH   8   9
ATOM      9  C   UNL     1      38.731 118.846  13.488  1.00  0.00    -0.000 C 
BRANCH   9  10
ATOM     10  C   UNL     1      37.817 120.082  13.442  1.00  0.00    -0.000 C 
BRANCH  10  11
ATOM     11  C   UNL     1      36.492 119.868  14.196  1.00  0.00    -0.000 C 
BRANCH  11  12
ATOM     12  C   UNL     1      36.483 120.549  15.573  1.00  0.00    -0.003 C 
ATOM     13  C   UNL     1      36.909 122.017  15.508  1.00  0.00     0.004 C 
ENDBRANCH  11  12
ENDBRANCH  10  11
ENDBRANCH   9  10
ENDBRANCH   8   9
ENDBRANCH   1   8
TORSDOF 9
ENDMDL
MODEL 4
REMARK VINA RESULT:    -4.498      1.401      2.299
REMARK INTER + INTRA:          -7.093
REMARK INTER:                  -6.295
REMARK INTRA:                  -0.798
REMARK UNBOUND:                -0.229
REMARK SMILES CCCCCCCCCCC(=O)[O-]
REMARK SMILES IDX 7 1 8 2 9 3 10 4 11 5 12 6 13 7 6 8 5 9 4 10 3 11 2 12 1 13
REMARK H PARENT
REMARK Flexibility Score: inf
ROOT
ATOM      1  C   UNL     1      39.784 118.480  13.778  1.00  0.00     0.000 C 
ENDROOT
BRANCH   1   2
ATOM      2  C   UNL     1      40.027 118.827  12.301  1.00  0.00     0.000 C 
BRANCH   2   3
ATOM      3  C   UNL     1      40.491 117.590  11.516  1.00  0.00     0.006 C 
BRANCH   3   4
ATOM      4  C   UNL     1      41.564 117.932  10.475  1.00  0.00     0.053 C 
BRANCH   4   5
ATOM      5  C   UNL     1      42.684 116.938  10.485  1.00  0.00     0.041 C 
ATOM      6  O   UNL     1      42.897 116.230  11.505  1.00  0.00    -0.550 OA
ATOM      7  O   UNL     1      43.517 116.816   9.379  1.00  0.00    -0.550 OA
ENDBRANCH   4   5
ENDBRANCH   3   4
ENDBRANCH   2   3
ENDBRANCH   1   2
BRANCH   1   8
ATOM      8  C   UNL     1      39.104 117.113  13.963  1.00  0.00     0.000 C 
BRANCH   8   9
ATOM      9  C   UNL     1      37.633 117.240  14.396  1.00  0.00    -0.000 C 
BRANCH   9  10
ATOM     10  C   UNL     1      36.732 117.778  13.272  1.00  0.00    -0.000 C 
BRANCH  10  11
ATOM     11  C   UNL     1      35.695 118.797  13.778  1.00  0.00    -0.000 C 
BRANCH  11  12
ATOM     12  C   UNL     1      36.278 119.757  14.826  1.00  0.00    -0.003 C 
ATOM     13  C   UNL     1      37.075 120.902  14.200  1.00  0.00     0.004 C 
ENDBRANCH  11  12
ENDBRANCH  10  11
ENDBRANCH   9  10
ENDBRANCH   8   9
ENDBRANCH   1   8
TORSDOF 9
ENDMDL
MODEL 5
REMARK VINA RESULT:    -4.468      2.935      5.205
REMARK INTER + INTRA:          -7.048
REMARK INTER:                  -6.382
REMARK INTRA:                  -0.666
REMARK UNBOUND:                -0.229
REMARK SMILES CCCCCCCCCCC(=O)[O-]
REMARK SMILES IDX 7 1 8 2 9 3 10 4 11 5 12 6 13 7 6 8 5 9 4 10 3 11 2 12 1 13
REMARK H PARENT
REMARK Flexibility Score: inf
ROOT
ATOM      1  C   UNL     1      44.410 116.033   8.810  1.00  0.00     0.000 C 
ENDROOT
BRANCH   1   2
ATOM      2  C   UNL     1      44.497 114.515   8.594  1.00  0.00     0.000 C 
BRANCH   2   3
ATOM      3  C   UNL     1      45.299 113.846   9.721  1.00  0.00     0.006 C 
BRANCH   3   4
ATOM      4  C   UNL     1      44.461 113.646  10.990  1.00  0.00     0.053 C 
BRANCH   4   5
ATOM      5  C   UNL     1      45.203 112.862  12.029  1.00  0.00     0.041 C 
ATOM      6  O   UNL     1      45.104 111.607  12.070  1.00  0.00    -0.550 OA
ATOM      7  O   UNL     1      45.980 113.522  12.974  1.00  0.00    -0.550 OA
ENDBRANCH   4   5
ENDBRANCH   3   4
ENDBRANCH   2   3
ENDBRANCH   1   2
BRANCH   1   8
ATOM      8  C   UNL     1      43.025 116.604   8.463  1.00  0.00     0.000 C 
BRANCH   8   9
ATOM      9  C   UNL     1      42.415 117.418   9.617  1.00  0.00    -0.000 C 
BRANCH   9  10
ATOM     10  C   UNL     1      42.849 116.898  10.998  1.00  0.00    -0.000 C 
BRANCH  10  11
ATOM     11  C   UNL     1      41.665 116.720  11.965  1.00  0.00    -0.000 C 
BRANCH  11  12
ATOM     12  C   UNL     1      40.417 117.495  11.514  1.00  0.00    -0.003 C 
ATOM     13  C   UNL     1      39.376 117.634  12.625  1.00  0.00     0.004 C 
ENDBRANCH  11  12
ENDBRANCH  10  11
ENDBRANCH   9  10
ENDBRANCH   8   9
ENDBRANCH   1   8
TORSDOF 9
ENDMDL
MODEL 6
REMARK VINA RESULT:    -4.438      3.649      8.278
REMARK INTER + INTRA:          -7.002
REMARK INTER:                  -6.672
REMARK INTRA:                  -0.329
REMARK UNBOUND:                -0.229
REMARK SMILES CCCCCCCCCCC(=O)[O-]
REMARK SMILES IDX 7 1 8 2 9 3 10 4 11 5 12 6 13 7 6 8 5 9 4 10 3 11 2 12 1 13
REMARK H PARENT
REMARK Flexibility Score: inf
ROOT
ATOM      1  C   UNL     1      42.692 116.906  10.394  1.00  0.00     0.000 C 
ENDROOT
BRANCH   1   2
ATOM      2  C   UNL     1      41.463 117.767  10.723  1.00  0.00     0.000 C 
BRANCH   2   3
ATOM      3  C   UNL     1      40.678 117.175  11.904  1.00  0.00     0.006 C 
BRANCH   3   4
ATOM      4  C   UNL     1      39.785 118.217  12.589  1.00  0.00     0.053 C 
BRANCH   4   5
ATOM      5  C   UNL     1      38.543 117.599  13.155  1.00  0.00     0.041 C 
ATOM      6  O   UNL     1      37.599 117.258  12.393  1.00  0.00    -0.550 OA
ATOM      7  O   UNL     1      38.415 117.430  14.528  1.00  0.00    -0.550 OA
ENDBRANCH   4   5
ENDBRANCH   3   4
ENDBRANCH   2   3
ENDBRANCH   1   2
BRANCH   1   8
ATOM      8  C   UNL     1      43.005 116.868   8.889  1.00  0.00     0.000 C 
BRANCH   8   9
ATOM      9  C   UNL     1      44.146 115.893   8.548  1.00  0.00    -0.000 C 
BRANCH   9  10
ATOM     10  C   UNL     1      44.039 114.568   9.320  1.00  0.00    -0.000 C 
BRANCH  10  11
ATOM     11  C   UNL     1      45.220 113.621   9.040  1.00  0.00    -0.000 C 
BRANCH  11  12
ATOM     12  C   UNL     1      45.608 113.590   7.554  1.00  0.00    -0.003 C 
ATOM     13  C   UNL     1      45.257 112.264   6.879  1.00  0.00     0.004 C 
ENDBRANCH  11  12
ENDBRANCH  10  11
ENDBRANCH   9  10
ENDBRANCH   8   9
ENDBRANCH   1   8
TORSDOF 9
ENDMDL
MODEL 7
REMARK VINA RESULT:    -4.420      4.004      7.549
REMARK INTER + INTRA:          -6.975
REMARK INTER:                  -6.540
REMARK INTRA:                  -0.435
REMARK UNBOUND:                -0.229
REMARK SMILES CCCCCCCCCCC(=O)[O-]
REMARK SMILES IDX 7 1 8 2 9 3 10 4 11 5 12 6 13 7 6 8 5 9 4 10 3 11 2 12 1 13
REMARK H PARENT
REMARK Flexibility Score: inf
ROOT
ATOM      1  C   UNL     1      40.110 117.498  12.789  1.00  0.00     0.000 C 
ENDROOT
BRANCH   1   2
ATOM      2  C   UNL     1      39.583 118.932  12.947  1.00  0.00     0.000 C 
BRANCH   2   3
ATOM      3  C   UNL     1      38.486 118.997  14.021  1.00  0.00     0.006 C 
BRANCH   3   4
ATOM      4  C   UNL     1      37.179 119.593  13.482  1.00  0.00     0.053 C 
BRANCH   4   5
ATOM      5  C   UNL     1      36.195 118.527  13.109  1.00  0.00     0.041 C 
ATOM      6  O   UNL     1      36.548 117.318  13.082  1.00  0.00    -0.550 OA
ATOM      7  O   UNL     1      34.896 118.872  12.758  1.00  0.00    -0.550 OA
ENDBRANCH   4   5
ENDBRANCH   3   4
ENDBRANCH   2   3
ENDBRANCH   1   2
BRANCH   1   8
ATOM      8  C   UNL     1      41.038 117.337  11.573  1.00  0.00     0.000 C 
BRANCH   8   9
ATOM      9  C   UNL     1      42.246 116.431  11.869  1.00  0.00    -0.000 C 
BRANCH   9  10
ATOM     10  C   UNL     1      43.399 116.642  10.873  1.00  0.00    -0.000 C 
BRANCH  10  11
ATOM     11  C   UNL     1      42.928 117.252   9.541  1.00  0.00    -0.000 C 
BRANCH  11  12
ATOM     12  C   UNL     1      43.201 116.330   8.343  1.00  0.00    -0.003 C 
ATOM     13  C   UNL     1      43.951 115.057   8.738  1.00  0.00     0.004 C 
ENDBRANCH  11  12
ENDBRANCH  10  11
ENDBRANCH   9  10
ENDBRANCH   8   9
ENDBRANCH   1   8
TORSDOF 9
ENDMDL
MODEL 8
REMARK VINA RESULT:    -4.413      1.348      2.428
REMARK INTER + INTRA:          -6.964
REMARK INTER:                  -6.479
REMARK INTRA:                  -0.484
REMARK UNBOUND:                -0.229
REMARK SMILES CCCCCCCCCCC(=O)[O-]
REMARK SMILES IDX 7 1 8 2 9 3 10 4 11 5 12 6 13 7 6 8 5 9 4 10 3 11 2 12 1 13
REMARK H PARENT
REMARK Flexibility Score: inf
ROOT
ATOM      1  C   UNL     1      41.462 117.778  10.520  1.00  0.00     0.000 C 
ENDROOT
BRANCH   1   2
ATOM      2  C   UNL     1      42.334 117.499   9.287  1.00  0.00     0.000 C 
BRANCH   2   3
ATOM      3  C   UNL     1      43.632 116.779   9.684  1.00  0.00     0.006 C 
BRANCH   3   4
ATOM      4  C   UNL     1      44.175 115.894   8.554  1.00  0.00     0.053 C 
BRANCH   4   5
ATOM      5  C   UNL     1      44.391 114.483   9.009  1.00  0.00     0.041 C 
ATOM      6  O   UNL     1      43.827 114.059  10.053  1.00  0.00    -0.550 OA
ATOM      7  O   UNL     1      45.242 113.646   8.298  1.00  0.00    -0.550 OA
ENDBRANCH   4   5
ENDBRANCH   3   4
ENDBRANCH   2   3
ENDBRANCH   1   2
BRANCH   1   8
ATOM      8  C   UNL     1      41.823 116.883  11.717  1.00  0.00     0.000 C 
BRANCH   8   9
ATOM      9  C   UNL     1      40.654 116.718  12.705  1.00  0.00    -0.000 C 
BRANCH   9  10
ATOM     10  C   UNL     1      39.549 117.765  12.490  1.00  0.00    -0.000 C 
BRANCH  10  11
ATOM     11  C   UNL     1      39.484 118.801  13.627  1.00  0.00    -0.000 C 
BRANCH  11  12
ATOM     12  C   UNL     1      38.290 119.756  13.484  1.00  0.00    -0.003 C 
ATOM     13  C   UNL     1      36.949 119.022  13.449  1.00  0.00     0.004 C 
ENDBRANCH  11  12
ENDBRANCH  10  11
ENDBRANCH   9  10
ENDBRANCH   8   9
ENDBRANCH   1   8
TORSDOF 9
ENDMDL
MODEL 9
REMARK VINA RESULT:    -4.346      3.688      7.487
REMARK INTER + INTRA:          -6.862
REMARK INTER:                  -6.273
REMARK INTRA:                  -0.589
REMARK UNBOUND:                -0.229
REMARK SMILES CCCCCCCCCCC(=O)[O-]
REMARK SMILES IDX 7 1 8 2 9 3 10 4 11 5 12 6 13 7 6 8 5 9 4 10 3 11 2 12 1 13
REMARK H PARENT
REMARK Flexibility Score: inf
ROOT
ATOM      1  C   UNL     1      40.893 117.576  10.868  1.00  0.00     0.000 C 
ENDROOT
BRANCH   1   2
ATOM      2  C   UNL     1      41.167 116.818  12.175  1.00  0.00     0.000 C 
BRANCH   2   3
ATOM      3  C   UNL     1      40.326 117.389  13.327  1.00  0.00     0.006 C 
BRANCH   3   4
ATOM      4  C   UNL     1      39.824 118.809  13.031  1.00  0.00     0.053 C 
BRANCH   4   5
ATOM      5  C   UNL     1      38.369 118.962  13.352  1.00  0.00     0.041 C 
ATOM      6  O   UNL     1      37.612 117.955  13.364  1.00  0.00    -0.550 OA
ATOM      7  O   UNL     1      37.841 120.222  13.605  1.00  0.00    -0.550 OA
ENDBRANCH   4   5
ENDBRANCH   3   4
ENDBRANCH   2   3
ENDBRANCH   1   2
BRANCH   1   8
ATOM      8  C   UNL     1      42.177 117.883  10.079  1.00  0.00     0.000 C 
BRANCH   8   9
ATOM      9  C   UNL     1      42.190 117.217   8.692  1.00  0.00    -0.000 C 
BRANCH   9  10
ATOM     10  C   UNL     1      43.398 116.285   8.497  1.00  0.00    -0.000 C 
BRANCH  10  11
ATOM     11  C   UNL     1      44.008 115.818   9.830  1.00  0.00    -0.000 C 
BRANCH  11  12
ATOM     12  C   UNL     1      44.083 114.287   9.937  1.00  0.00    -0.003 C 
ATOM     13  C   UNL     1      45.164 113.685   9.039  1.00  0.00     0.004 C 
ENDBRANCH  11  12
ENDBRANCH  10  11
ENDBRANCH   9  10
ENDBRANCH   8   9
ENDBRANCH   1   8
TORSDOF 9
ENDMDL
