MODEL 1
REMARK VINA RESULT:    -5.692      0.000      0.000
REMARK INTER + INTRA:          -6.311
REMARK INTER:                  -8.021
REMARK INTRA:                   1.710
REMARK UNBOUND:                 1.710
REMARK SMILES COc1c(O[C@H]2O[C@H](C(=O)[O-])[C@H](O)[C@@H](O)[C@H]2O)cc(O)c2c(=O)cc(-c3ccccc3)oc12
REMARK SMILES IDX 5 1 6 2 8 3 12 4 7 5 14 6 16 7 9 8 10 9 11 10 13 11 15 13
REMARK SMILES IDX 17 15 4 17 3 18 18 19 33 20 19 21 21 22 32 23 22 24 25 25
REMARK SMILES IDX 24 26 23 27 2 28 1 29 20 30 26 32 27 33 31 34 28 35 30 36
REMARK SMILES IDX 29 37
REMARK H PARENT 13 12 15 14 17 16 20 31
REMARK Flexibility Score: inf
ROOT
ATOM      1  O   UNL     1     -38.144  76.845 -27.439  1.00  0.00    -0.458 OA
ENDROOT
BRANCH   1   2
ATOM      2  C   UNL     1     -37.037  75.968 -27.652  1.00  0.00     0.339 C 
ATOM      3  C   UNL     1     -35.284  74.851 -26.537  1.00  0.00     0.199 C 
ATOM      4  C   UNL     1     -35.599  73.514 -27.263  1.00  0.00     0.180 C 
ATOM      5  O   UNL     1     -36.439  75.666 -26.399  1.00  0.00    -0.328 OA
ATOM      6  C   UNL     1     -36.363  73.738 -28.584  1.00  0.00     0.181 C 
ATOM      7  C   UNL     1     -37.545  74.694 -28.343  1.00  0.00     0.214 C 
BRANCH   3   8
ATOM      8  C   UNL     1     -34.113  75.636 -27.085  1.00  0.00     0.073 C 
ATOM      9  O   UNL     1     -33.418  76.382 -26.346  1.00  0.00    -0.547 OA
ATOM     10  O   UNL     1     -33.755  75.486 -28.420  1.00  0.00    -0.547 OA
ENDBRANCH   3   8
BRANCH   4  11
ATOM     11  O   UNL     1     -34.440  72.738 -27.446  1.00  0.00    -0.387 OA
ATOM     12  H   UNL     1     -33.936  72.722 -26.593  1.00  0.00     0.211 HD
ENDBRANCH   4  11
BRANCH   6  13
ATOM     13  O   UNL     1     -36.819  72.506 -29.076  1.00  0.00    -0.387 OA
ATOM     14  H   UNL     1     -37.811  72.547 -29.070  1.00  0.00     0.211 HD
ENDBRANCH   6  13
BRANCH   7  15
ATOM     15  O   UNL     1     -38.523  74.082 -27.538  1.00  0.00    -0.384 OA
ATOM     16  H   UNL     1     -39.394  74.492 -27.780  1.00  0.00     0.211 HD
ENDBRANCH   7  15
ENDBRANCH   1   2
BRANCH   1  17
ATOM     17  C   UNL     1     -39.212  76.596 -26.560  1.00  0.00     0.172 A 
ATOM     18  C   UNL     1     -38.979  76.712 -25.188  1.00  0.00     0.205 A 
ATOM     19  C   UNL     1     -40.490  76.232 -27.012  1.00  0.00     0.097 A 
ATOM     20  C   UNL     1     -40.012  76.472 -24.268  1.00  0.00     0.188 A 
ATOM     21  C   UNL     1     -41.538  75.994 -26.118  1.00  0.00     0.134 A 
ATOM     22  C   UNL     1     -41.298  76.074 -24.716  1.00  0.00     0.111 A 
ATOM     23  O   UNL     1     -39.767  76.629 -22.969  1.00  0.00    -0.452 OA
ATOM     24  C   UNL     1     -42.252  75.758 -23.720  1.00  0.00     0.197 A 
ATOM     25  C   UNL     1     -40.663  76.403 -22.015  1.00  0.00     0.138 A 
ATOM     26  C   UNL     1     -41.936  75.936 -22.374  1.00  0.00     0.100 A 
ATOM     27  O   UNL     1     -43.383  75.285 -24.006  1.00  0.00    -0.289 OA
BRANCH  18  28
ATOM     28  O   UNL     1     -37.704  77.080 -24.748  1.00  0.00    -0.490 OA
ATOM     29  C   UNL     1     -36.992  76.315 -23.782  1.00  0.00     0.278 C 
ENDBRANCH  18  28
BRANCH  21  30
ATOM     30  O   UNL     1     -42.786  75.714 -26.684  1.00  0.00    -0.507 OA
ATOM     31  H   UNL     1     -43.385  76.390 -27.133  1.00  0.00     0.293 HD
ENDBRANCH  21  30
BRANCH  25  32
ATOM     32  C   UNL     1     -40.275  76.633 -20.596  1.00  0.00     0.017 A 
ATOM     33  C   UNL     1     -41.272  76.908 -19.640  1.00  0.00     0.012 A 
ATOM     34  C   UNL     1     -38.932  76.553 -20.166  1.00  0.00     0.012 A 
ATOM     35  C   UNL     1     -40.936  77.123 -18.300  1.00  0.00     0.001 A 
ATOM     36  C   UNL     1     -38.602  76.768 -18.823  1.00  0.00     0.001 A 
ATOM     37  C   UNL     1     -39.602  77.059 -17.893  1.00  0.00     0.000 A 
ENDBRANCH  25  32
ENDBRANCH   1  17
TORSDOF 9
ENDMDL
MODEL 2
REMARK VINA RESULT:    -2.816      2.736      7.565
REMARK INTER + INTRA:          -2.258
REMARK INTER:                  -3.443
REMARK INTRA:                   1.185
REMARK UNBOUND:                 1.710
REMARK SMILES COc1c(O[C@H]2O[C@H](C(=O)[O-])[C@H](O)[C@@H](O)[C@H]2O)cc(O)c2c(=O)cc(-c3ccccc3)oc12
REMARK SMILES IDX 5 1 6 2 8 3 12 4 7 5 14 6 16 7 9 8 10 9 11 10 13 11 15 13
REMARK SMILES IDX 17 15 4 17 3 18 18 19 33 20 19 21 21 22 32 23 22 24 25 25
REMARK SMILES IDX 24 26 23 27 2 28 1 29 20 30 26 32 27 33 31 34 28 35 30 36
REMARK SMILES IDX 29 37
REMARK H PARENT 13 12 15 14 17 16 20 31
REMARK Flexibility Score: inf
ROOT
ATOM      1  O   UNL     1     -40.320  76.356 -20.889  1.00  0.00    -0.458 OA
ENDROOT
BRANCH   1   2
ATOM      2  C   UNL     1     -39.676  75.417 -20.027  1.00  0.00     0.339 C 
ATOM      3  C   UNL     1     -38.050  73.709 -19.990  1.00  0.00     0.199 C 
ATOM      4  C   UNL     1     -37.379  74.297 -18.718  1.00  0.00     0.180 C 
ATOM      5  O   UNL     1     -38.689  74.713 -20.766  1.00  0.00    -0.328 OA
ATOM      6  C   UNL     1     -38.349  75.185 -17.910  1.00  0.00     0.181 C 
ATOM      7  C   UNL     1     -39.045  76.182 -18.852  1.00  0.00     0.214 C 
BRANCH   3   8
ATOM      8  C   UNL     1     -38.958  72.520 -19.765  1.00  0.00     0.073 C 
ATOM      9  O   UNL     1     -40.164  72.536 -20.125  1.00  0.00    -0.547 OA
ATOM     10  O   UNL     1     -38.435  71.360 -19.204  1.00  0.00    -0.547 OA
ENDBRANCH   3   8
BRANCH   4  11
ATOM     11  O   UNL     1     -36.798  73.291 -17.925  1.00  0.00    -0.387 OA
ATOM     12  H   UNL     1     -35.884  73.579 -17.674  1.00  0.00     0.211 HD
ENDBRANCH   4  11
BRANCH   6  13
ATOM     13  O   UNL     1     -37.637  75.867 -16.911  1.00  0.00    -0.387 OA
ATOM     14  H   UNL     1     -36.784  75.374 -16.783  1.00  0.00     0.211 HD
ENDBRANCH   6  13
BRANCH   7  15
ATOM     15  O   UNL     1     -38.126  77.125 -19.348  1.00  0.00    -0.384 OA
ATOM     16  H   UNL     1     -37.498  76.633 -19.939  1.00  0.00     0.211 HD
ENDBRANCH   7  15
ENDBRANCH   1   2
BRANCH   1  17
ATOM     17  C   UNL     1     -40.675  76.110 -22.227  1.00  0.00     0.172 A 
ATOM     18  C   UNL     1     -39.651  75.903 -23.154  1.00  0.00     0.205 A 
ATOM     19  C   UNL     1     -42.010  76.073 -22.657  1.00  0.00     0.097 A 
ATOM     20  C   UNL     1     -39.952  75.657 -24.503  1.00  0.00     0.188 A 
ATOM     21  C   UNL     1     -42.338  75.822 -23.993  1.00  0.00     0.134 A 
ATOM     22  C   UNL     1     -41.298  75.647 -24.952  1.00  0.00     0.111 A 
ATOM     23  O   UNL     1     -38.954  75.426 -25.353  1.00  0.00    -0.452 OA
ATOM     24  C   UNL     1     -41.507  75.488 -26.342  1.00  0.00     0.197 A 
ATOM     25  C   UNL     1     -39.126  75.207 -26.652  1.00  0.00     0.138 A 
ATOM     26  C   UNL     1     -40.422  75.256 -27.185  1.00  0.00     0.100 A 
ATOM     27  O   UNL     1     -42.651  75.581 -26.859  1.00  0.00    -0.289 OA
BRANCH  18  28
ATOM     28  O   UNL     1     -38.325  75.938 -22.714  1.00  0.00    -0.490 OA
ATOM     29  C   UNL     1     -37.302  76.590 -23.459  1.00  0.00     0.278 C 
ENDBRANCH  18  28
BRANCH  21  30
ATOM     30  O   UNL     1     -43.701  75.731 -24.292  1.00  0.00    -0.507 OA
ATOM     31  H   UNL     1     -44.149  74.936 -24.721  1.00  0.00     0.293 HD
ENDBRANCH  21  30
BRANCH  25  32
ATOM     32  C   UNL     1     -37.930  74.941 -27.500  1.00  0.00     0.017 A 
ATOM     33  C   UNL     1     -37.352  73.657 -27.498  1.00  0.00     0.012 A 
ATOM     34  C   UNL     1     -37.370  75.932 -28.336  1.00  0.00     0.012 A 
ATOM     35  C   UNL     1     -36.232  73.378 -28.288  1.00  0.00     0.001 A 
ATOM     36  C   UNL     1     -36.251  75.646 -29.125  1.00  0.00     0.001 A 
ATOM     37  C   UNL     1     -35.679  74.373 -29.096  1.00  0.00     0.000 A 
ENDBRANCH  25  32
ENDBRANCH   1  17
TORSDOF 9
ENDMDL
