MODEL 1
REMARK VINA RESULT:    -4.480      0.000      0.000
REMARK INTER + INTRA:          -4.977
REMARK INTER:                  -6.313
REMARK INTRA:                   1.336
REMARK UNBOUND:                 1.336
REMARK SMILES CC1=CCC(=C(C)C)C(=O)CC(C)=CCC1
REMARK SMILES IDX 12 1 14 2 13 3 15 4 16 5 2 6 1 7 3 8 11 10 9 11 10 12 5 13
REMARK SMILES IDX 6 14 7 15 8 16 4 17
REMARK H PARENT
REMARK Flexibility Score: 60.00
ROOT
ATOM      1  C   UNL     1      11.991  15.214  25.452  1.00  0.00    -0.070 C 
ATOM      2  C   UNL     1      11.619  14.794  26.682  1.00  0.00    -0.027 C 
ATOM      3  C   UNL     1      10.938  15.253  24.372  1.00  0.00     0.039 C 
ENDROOT
BRANCH   2   4
ATOM      4  C   UNL     1      12.501  14.777  27.912  1.00  0.00     0.032 C 
BRANCH   4   5
ATOM      5  C   UNL     1      13.382  13.519  28.061  1.00  0.00     0.034 C 
BRANCH   5   6
ATOM      6  C   UNL     1      14.864  13.805  27.900  1.00  0.00    -0.077 C 
ATOM      7  C   UNL     1      15.787  12.630  27.698  1.00  0.00     0.039 C 
ATOM      8  C   UNL     1      15.402  15.049  27.857  1.00  0.00    -0.023 CG0
ATOM      9  G   UNL     1      14.677  16.366  28.054  1.00  0.00     0.000 G0
ENDBRANCH   5   6
ENDBRANCH   4   5
ENDBRANCH   2   4
BRANCH   1  10
ATOM     10  C   UNL     1      13.379  15.730  25.134  1.00  0.00     0.111 C 
BRANCH  10  11
ATOM     11  C   UNL     1      13.645  17.056  25.796  1.00  0.00     0.163 C 
ATOM     12  O   UNL     1      12.879  18.020  25.523  1.00  0.00    -0.294 OA
BRANCH  11  13
ATOM     13  C   UNL     1      14.735  17.247  26.799  1.00  0.00    -0.002 C 
ATOM     14  C   UNL     1      15.679  18.221  26.628  1.00  0.00    -0.069 C 
ATOM     15  C   UNL     1      15.750  19.029  25.351  1.00  0.00     0.039 C 
ATOM     16  C   UNL     1      16.698  18.544  27.698  1.00  0.00     0.039 C 
BRANCH  13  17
ATOM     17  C   UNL     1      14.688  16.384  28.049  1.00  0.00     0.066 CG0
ATOM     18  G   UNL     1      15.387  15.053  27.857  1.00  0.00     0.000 G0
ENDBRANCH  13  17
ENDBRANCH  11  13
ENDBRANCH  10  11
ENDBRANCH   1  10
TORSDOF 0
ENDMDL
MODEL 2
REMARK VINA RESULT:    -3.871      1.662      4.466
REMARK INTER + INTRA:          -4.118
REMARK INTER:                  -5.052
REMARK INTRA:                   0.934
REMARK UNBOUND:                 1.336
REMARK SMILES CC1=CCC(=C(C)C)C(=O)CC(C)=CCC1
REMARK SMILES IDX 12 1 14 2 13 3 15 4 16 5 2 6 1 7 3 8 11 10 9 11 10 12 5 13
REMARK SMILES IDX 6 14 7 15 8 16 4 17
REMARK H PARENT
REMARK Flexibility Score: 60.00
ROOT
ATOM      1  C   UNL     1      15.553  17.403  25.466  1.00  0.00    -0.070 C 
ATOM      2  C   UNL     1      14.622  17.386  24.487  1.00  0.00    -0.027 C 
ATOM      3  C   UNL     1      16.355  18.667  25.654  1.00  0.00     0.039 C 
ENDROOT
BRANCH   2   4
ATOM      4  C   UNL     1      13.657  16.253  24.207  1.00  0.00     0.032 C 
BRANCH   4   5
ATOM      5  C   UNL     1      12.283  16.388  24.897  1.00  0.00     0.034 C 
BRANCH   5   6
ATOM      6  C   UNL     1      11.613  15.051  25.159  1.00  0.00    -0.077 C 
ATOM      7  C   UNL     1      10.876  14.399  24.016  1.00  0.00     0.039 C 
ATOM      8  C   UNL     1      11.692  14.374  26.332  1.00  0.00    -0.023 CG0
ATOM      9  G   UNL     1      12.357  14.837  27.613  1.00  0.00     0.000 G0
ENDBRANCH   5   6
ENDBRANCH   4   5
ENDBRANCH   2   4
BRANCH   1  10
ATOM     10  C   UNL     1      15.764  16.258  26.434  1.00  0.00     0.111 C 
BRANCH  10  11
ATOM     11  C   UNL     1      14.589  16.090  27.361  1.00  0.00     0.163 C 
ATOM     12  O   UNL     1      14.164  17.107  27.972  1.00  0.00    -0.294 OA
BRANCH  11  13
ATOM     13  C   UNL     1      13.882  14.785  27.531  1.00  0.00    -0.002 C 
ATOM     14  C   UNL     1      14.585  13.624  27.689  1.00  0.00    -0.069 C 
ATOM     15  C   UNL     1      16.090  13.593  27.540  1.00  0.00     0.039 C 
ATOM     16  C   UNL     1      13.904  12.314  28.021  1.00  0.00     0.039 C 
BRANCH  13  17
ATOM     17  C   UNL     1      12.364  14.823  27.616  1.00  0.00     0.066 CG0
ATOM     18  G   UNL     1      11.704  14.376  26.328  1.00  0.00     0.000 G0
ENDBRANCH  13  17
ENDBRANCH  11  13
ENDBRANCH  10  11
ENDBRANCH   1  10
TORSDOF 0
ENDMDL
MODEL 3
REMARK VINA RESULT:    -3.718      1.161      3.855
REMARK INTER + INTRA:          -3.903
REMARK INTER:                  -5.459
REMARK INTRA:                   1.556
REMARK UNBOUND:                 1.336
REMARK SMILES CC1=CCC(=C(C)C)C(=O)CC(C)=CCC1
REMARK SMILES IDX 12 1 14 2 13 3 15 4 16 5 2 6 1 7 3 8 11 10 9 11 10 12 5 13
REMARK SMILES IDX 6 14 7 15 8 16 4 17
REMARK H PARENT
REMARK Flexibility Score: 60.00
ROOT
ATOM      1  C   UNL     1      15.159  18.249  25.815  1.00  0.00    -0.070 C 
ATOM      2  C   UNL     1      15.943  17.722  26.781  1.00  0.00    -0.027 C 
ATOM      3  C   UNL     1      15.809  19.145  24.790  1.00  0.00     0.039 C 
ENDROOT
BRANCH   2   4
ATOM      4  C   UNL     1      15.498  16.729  27.834  1.00  0.00     0.032 C 
BRANCH   4   5
ATOM      5  C   UNL     1      16.377  15.466  27.946  1.00  0.00     0.034 C 
BRANCH   5   6
ATOM      6  C   UNL     1      15.599  14.178  27.745  1.00  0.00    -0.077 C 
ATOM      7  C   UNL     1      16.372  12.883  27.752  1.00  0.00     0.039 C 
ATOM      8  C   UNL     1      14.249  14.110  27.631  1.00  0.00    -0.023 CG0
ATOM      9  G   UNL     1      13.276  15.271  27.580  1.00  0.00     0.000 G0
ENDBRANCH   5   6
ENDBRANCH   4   5
ENDBRANCH   2   4
BRANCH   1  10
ATOM     10  C   UNL     1      13.690  17.912  25.659  1.00  0.00     0.111 C 
BRANCH  10  11
ATOM     11  C   UNL     1      13.486  16.458  25.323  1.00  0.00     0.163 C 
ATOM     12  O   UNL     1      14.035  16.006  24.282  1.00  0.00    -0.294 OA
BRANCH  11  13
ATOM     13  C   UNL     1      12.713  15.533  26.204  1.00  0.00    -0.002 C 
ATOM     14  C   UNL     1      11.603  14.886  25.737  1.00  0.00    -0.069 C 
ATOM     15  C   UNL     1      11.027  15.202  24.374  1.00  0.00     0.039 C 
ATOM     16  C   UNL     1      10.894  13.825  26.549  1.00  0.00     0.039 C 
BRANCH  13  17
ATOM     17  C   UNL     1      13.269  15.272  27.595  1.00  0.00     0.066 CG0
ATOM     18  G   UNL     1      14.238  14.107  27.619  1.00  0.00     0.000 G0
ENDBRANCH  13  17
ENDBRANCH  11  13
ENDBRANCH  10  11
ENDBRANCH   1  10
TORSDOF 0
ENDMDL
MODEL 4
REMARK VINA RESULT:    -3.424      1.866      3.475
REMARK INTER + INTRA:          -3.489
REMARK INTER:                  -4.624
REMARK INTRA:                   1.135
REMARK UNBOUND:                 1.336
REMARK SMILES CC1=CCC(=C(C)C)C(=O)CC(C)=CCC1
REMARK SMILES IDX 12 1 14 2 13 3 15 4 16 5 2 6 1 7 3 8 11 10 9 11 10 12 5 13
REMARK SMILES IDX 6 14 7 15 8 16 4 17
REMARK H PARENT
REMARK Flexibility Score: 60.00
ROOT
ATOM      1  C   UNL     1      14.401  15.000  27.518  1.00  0.00    -0.070 C 
ATOM      2  C   UNL     1      13.349  14.165  27.372  1.00  0.00    -0.027 C 
ATOM      3  C   UNL     1      15.733  14.561  26.964  1.00  0.00     0.039 C 
ENDROOT
BRANCH   2   4
ATOM      4  C   UNL     1      11.920  14.467  27.772  1.00  0.00     0.032 C 
BRANCH   4   5
ATOM      5  C   UNL     1      11.145  15.358  26.780  1.00  0.00     0.034 C 
BRANCH   5   6
ATOM      6  C   UNL     1      11.788  15.424  25.407  1.00  0.00    -0.077 C 
ATOM      7  C   UNL     1      11.525  14.287  24.452  1.00  0.00     0.039 C 
ATOM      8  C   UNL     1      12.526  16.471  24.958  1.00  0.00    -0.023 CG0
ATOM      9  G   UNL     1      12.933  17.704  25.740  1.00  0.00     0.000 G0
ENDBRANCH   5   6
ENDBRANCH   4   5
ENDBRANCH   2   4
BRANCH   1  10
ATOM     10  C   UNL     1      14.286  16.384  28.125  1.00  0.00     0.111 C 
BRANCH  10  11
ATOM     11  C   UNL     1      14.967  17.423  27.272  1.00  0.00     0.163 C 
ATOM     12  O   UNL     1      16.064  17.895  27.675  1.00  0.00    -0.294 OA
BRANCH  11  13
ATOM     13  C   UNL     1      14.420  17.860  25.954  1.00  0.00    -0.002 C 
ATOM     14  C   UNL     1      15.254  18.282  24.956  1.00  0.00    -0.069 C 
ATOM     15  C   UNL     1      16.735  18.472  25.200  1.00  0.00     0.039 C 
ATOM     16  C   UNL     1      14.748  18.580  23.562  1.00  0.00     0.039 C 
BRANCH  13  17
ATOM     17  C   UNL     1      12.921  17.724  25.743  1.00  0.00     0.066 CG0
ATOM     18  G   UNL     1      12.561  16.477  24.960  1.00  0.00     0.000 G0
ENDBRANCH  13  17
ENDBRANCH  11  13
ENDBRANCH  10  11
ENDBRANCH   1  10
TORSDOF 0
ENDMDL
MODEL 5
REMARK VINA RESULT:    -3.226      2.021      4.979
REMARK INTER + INTRA:          -3.210
REMARK INTER:                  -4.235
REMARK INTRA:                   1.025
REMARK UNBOUND:                 1.336
REMARK SMILES CC1=CCC(=C(C)C)C(=O)CC(C)=CCC1
REMARK SMILES IDX 12 1 14 2 13 3 15 4 16 5 2 6 1 7 3 8 11 10 9 11 10 12 5 13
REMARK SMILES IDX 6 14 7 15 8 16 4 17
REMARK H PARENT
REMARK Flexibility Score: 60.00
ROOT
ATOM      1  C   UNL     1      14.566  17.623  27.774  1.00  0.00    -0.070 C 
ATOM      2  C   UNL     1      15.231  18.585  27.097  1.00  0.00    -0.027 C 
ATOM      3  C   UNL     1      13.121  17.878  28.125  1.00  0.00     0.039 C 
ENDROOT
BRANCH   2   4
ATOM      4  C   UNL     1      16.647  18.477  26.573  1.00  0.00     0.032 C 
BRANCH   4   5
ATOM      5  C   UNL     1      16.764  18.363  25.039  1.00  0.00     0.034 C 
BRANCH   5   6
ATOM      6  C   UNL     1      15.418  18.313  24.339  1.00  0.00    -0.077 C 
ATOM      7  C   UNL     1      14.935  19.568  23.657  1.00  0.00     0.039 C 
ATOM      8  C   UNL     1      14.654  17.197  24.229  1.00  0.00    -0.023 CG0
ATOM      9  G   UNL     1      14.926  15.839  24.844  1.00  0.00     0.000 G0
ENDBRANCH   5   6
ENDBRANCH   4   5
ENDBRANCH   2   4
BRANCH   1  10
ATOM     10  C   UNL     1      15.170  16.277  28.114  1.00  0.00     0.111 C 
BRANCH  10  11
ATOM     11  C   UNL     1      14.574  15.173  27.280  1.00  0.00     0.163 C 
ATOM     12  O   UNL     1      14.535  14.013  27.770  1.00  0.00    -0.294 OA
BRANCH  11  13
ATOM     13  C   UNL     1      13.980  15.419  25.932  1.00  0.00    -0.002 C 
ATOM     14  C   UNL     1      12.627  15.365  25.744  1.00  0.00    -0.069 C 
ATOM     15  C   UNL     1      11.700  14.903  26.846  1.00  0.00     0.039 C 
ATOM     16  C   UNL     1      11.985  15.764  24.433  1.00  0.00     0.039 C 
BRANCH  13  17
ATOM     17  C   UNL     1      14.931  15.823  24.816  1.00  0.00     0.066 CG0
ATOM     18  G   UNL     1      14.620  17.200  24.265  1.00  0.00     0.000 G0
ENDBRANCH  13  17
ENDBRANCH  11  13
ENDBRANCH  10  11
ENDBRANCH   1  10
TORSDOF 0
ENDMDL
MODEL 6
REMARK VINA RESULT:    -3.014      1.450      4.071
REMARK INTER + INTRA:          -2.911
REMARK INTER:                  -3.407
REMARK INTRA:                   0.496
REMARK UNBOUND:                 1.336
REMARK SMILES CC1=CCC(=C(C)C)C(=O)CC(C)=CCC1
REMARK SMILES IDX 12 1 14 2 13 3 15 4 16 5 2 6 1 7 3 8 11 10 9 11 10 12 5 13
REMARK SMILES IDX 6 14 7 15 8 16 4 17
REMARK H PARENT
REMARK Flexibility Score: 60.00
ROOT
ATOM      1  C   UNL     1      12.428  15.861  25.029  1.00  0.00    -0.070 C 
ATOM      2  C   UNL     1      13.258  16.853  24.636  1.00  0.00    -0.027 C 
ATOM      3  C   UNL     1      10.942  16.113  24.953  1.00  0.00     0.039 C 
ENDROOT
BRANCH   2   4
ATOM      4  C   UNL     1      14.766  16.758  24.546  1.00  0.00     0.032 C 
BRANCH   4   5
ATOM      5  C   UNL     1      15.531  17.825  25.356  1.00  0.00     0.034 C 
BRANCH   5   6
ATOM      6  C   UNL     1      15.271  17.743  26.849  1.00  0.00    -0.077 C 
ATOM      7  C   UNL     1      14.833  19.002  27.555  1.00  0.00     0.039 C 
ATOM      8  C   UNL     1      15.338  16.599  27.575  1.00  0.00    -0.023 CG0
ATOM      9  G   UNL     1      15.771  15.231  27.087  1.00  0.00     0.000 G0
ENDBRANCH   5   6
ENDBRANCH   4   5
ENDBRANCH   2   4
BRANCH   1  10
ATOM     10  C   UNL     1      12.913  14.489  25.450  1.00  0.00     0.111 C 
BRANCH  10  11
ATOM     11  C   UNL     1      13.328  14.466  26.897  1.00  0.00     0.163 C 
ATOM     12  O   UNL     1      12.443  14.669  27.772  1.00  0.00    -0.294 OA
BRANCH  11  13
ATOM     13  C   UNL     1      14.724  14.154  27.326  1.00  0.00    -0.002 C 
ATOM     14  C   UNL     1      15.044  12.922  27.823  1.00  0.00    -0.069 C 
ATOM     15  C   UNL     1      13.975  11.888  28.105  1.00  0.00     0.039 C 
ATOM     16  C   UNL     1      16.473  12.523  28.116  1.00  0.00     0.039 C 
BRANCH  13  17
ATOM     17  C   UNL     1      15.777  15.225  27.095  1.00  0.00     0.066 CG0
ATOM     18  G   UNL     1      15.327  16.589  27.579  1.00  0.00     0.000 G0
ENDBRANCH  13  17
ENDBRANCH  11  13
ENDBRANCH  10  11
ENDBRANCH   1  10
TORSDOF 0
ENDMDL
MODEL 7
REMARK VINA RESULT:    -2.610      2.160      4.112
REMARK INTER + INTRA:          -2.343
REMARK INTER:                  -2.964
REMARK INTRA:                   0.621
REMARK UNBOUND:                 1.336
REMARK SMILES CC1=CCC(=C(C)C)C(=O)CC(C)=CCC1
REMARK SMILES IDX 12 1 14 2 13 3 15 4 16 5 2 6 1 7 3 8 11 10 9 11 10 12 5 13
REMARK SMILES IDX 6 14 7 15 8 16 4 17
REMARK H PARENT
REMARK Flexibility Score: 60.00
ROOT
ATOM      1  C   UNL     1      15.286  17.193  27.752  1.00  0.00    -0.070 C 
ATOM      2  C   UNL     1      14.674  16.029  28.063  1.00  0.00    -0.027 C 
ATOM      3  C   UNL     1      16.740  17.347  28.123  1.00  0.00     0.039 C 
ENDROOT
BRANCH   2   4
ATOM      4  C   UNL     1      13.257  15.649  27.690  1.00  0.00     0.032 C 
BRANCH   4   5
ATOM      5  C   UNL     1      13.129  14.820  26.395  1.00  0.00     0.034 C 
BRANCH   5   6
ATOM      6  C   UNL     1      12.457  15.578  25.264  1.00  0.00    -0.077 C 
ATOM      7  C   UNL     1      10.957  15.478  25.146  1.00  0.00     0.039 C 
ATOM      8  C   UNL     1      13.109  16.393  24.398  1.00  0.00    -0.023 CG0
ATOM      9  G   UNL     1      14.603  16.632  24.315  1.00  0.00     0.000 G0
ENDBRANCH   5   6
ENDBRANCH   4   5
ENDBRANCH   2   4
BRANCH   1  10
ATOM     10  C   UNL     1      14.613  18.304  26.973  1.00  0.00     0.111 C 
BRANCH  10  11
ATOM     11  C   UNL     1      15.375  18.644  25.719  1.00  0.00     0.163 C 
ATOM     12  O   UNL     1      16.399  19.372  25.826  1.00  0.00    -0.294 OA
BRANCH  11  13
ATOM     13  C   UNL     1      14.996  18.104  24.379  1.00  0.00    -0.002 C 
ATOM     14  C   UNL     1      15.070  18.889  23.263  1.00  0.00    -0.069 C 
ATOM     15  C   UNL     1      15.383  20.366  23.361  1.00  0.00     0.039 C 
ATOM     16  C   UNL     1      14.847  18.330  21.875  1.00  0.00     0.039 C 
BRANCH  13  17
ATOM     17  C   UNL     1      14.622  16.633  24.304  1.00  0.00     0.066 CG0
ATOM     18  G   UNL     1      13.125  16.414  24.389  1.00  0.00     0.000 G0
ENDBRANCH  13  17
ENDBRANCH  11  13
ENDBRANCH  10  11
ENDBRANCH   1  10
TORSDOF 0
ENDMDL
MODEL 8
REMARK VINA RESULT:    -2.580      1.327      2.143
REMARK INTER + INTRA:          -2.299
REMARK INTER:                  -3.593
REMARK INTRA:                   1.293
REMARK UNBOUND:                 1.336
REMARK SMILES CC1=CCC(=C(C)C)C(=O)CC(C)=CCC1
REMARK SMILES IDX 12 1 14 2 13 3 15 4 16 5 2 6 1 7 3 8 11 10 9 11 10 12 5 13
REMARK SMILES IDX 6 14 7 15 8 16 4 17
REMARK H PARENT
REMARK Flexibility Score: 60.00
ROOT
ATOM      1  C   UNL     1      12.355  15.675  25.316  1.00  0.00    -0.070 C 
ATOM      2  C   UNL     1      12.166  15.122  26.534  1.00  0.00    -0.027 C 
ATOM      3  C   UNL     1      11.158  15.803  24.406  1.00  0.00     0.039 C 
ENDROOT
BRANCH   2   4
ATOM      4  C   UNL     1      13.215  14.997  27.619  1.00  0.00     0.032 C 
BRANCH   4   5
ATOM      5  C   UNL     1      13.975  16.301  27.937  1.00  0.00     0.034 C 
BRANCH   5   6
ATOM      6  C   UNL     1      15.472  16.191  27.709  1.00  0.00    -0.077 C 
ATOM      7  C   UNL     1      16.153  14.912  28.124  1.00  0.00     0.039 C 
ATOM      8  C   UNL     1      16.223  17.139  27.093  1.00  0.00    -0.023 CG0
ATOM      9  G   UNL     1      15.762  18.500  26.611  1.00  0.00     0.000 G0
ENDBRANCH   5   6
ENDBRANCH   4   5
ENDBRANCH   2   4
BRANCH   1  10
ATOM     10  C   UNL     1      13.679  16.252  24.860  1.00  0.00     0.111 C 
BRANCH  10  11
ATOM     11  C   UNL     1      13.788  17.719  25.185  1.00  0.00     0.163 C 
ATOM     12  O   UNL     1      12.732  18.342  25.477  1.00  0.00    -0.294 OA
BRANCH  11  13
ATOM     13  C   UNL     1      15.098  18.435  25.231  1.00  0.00    -0.002 C 
ATOM     14  C   UNL     1      15.588  19.067  24.123  1.00  0.00    -0.069 C 
ATOM     15  C   UNL     1      14.907  18.934  22.778  1.00  0.00     0.039 C 
ATOM     16  C   UNL     1      16.829  19.932  24.178  1.00  0.00     0.039 C 
BRANCH  13  17
ATOM     17  C   UNL     1      15.803  18.507  26.576  1.00  0.00     0.066 CG0
ATOM     18  G   UNL     1      16.229  17.141  27.077  1.00  0.00     0.000 G0
ENDBRANCH  13  17
ENDBRANCH  11  13
ENDBRANCH  10  11
ENDBRANCH   1  10
TORSDOF 0
ENDMDL
MODEL 9
REMARK VINA RESULT:    -2.473      1.426      4.066
REMARK INTER + INTRA:          -2.149
REMARK INTER:                  -2.737
REMARK INTRA:                   0.588
REMARK UNBOUND:                 1.336
REMARK SMILES CC1=CCC(=C(C)C)C(=O)CC(C)=CCC1
REMARK SMILES IDX 12 1 14 2 13 3 15 4 16 5 2 6 1 7 3 8 11 10 9 11 10 12 5 13
REMARK SMILES IDX 6 14 7 15 8 16 4 17
REMARK H PARENT
REMARK Flexibility Score: 60.00
ROOT
ATOM      1  C   UNL     1      15.242  18.572  24.279  1.00  0.00    -0.070 C 
ATOM      2  C   UNL     1      16.280  18.989  25.038  1.00  0.00    -0.027 C 
ATOM      3  C   UNL     1      14.877  19.396  23.069  1.00  0.00     0.039 C 
ENDROOT
BRANCH   2   4
ATOM      4  C   UNL     1      16.856  18.251  26.228  1.00  0.00     0.032 C 
BRANCH   4   5
ATOM      5  C   UNL     1      15.873  18.043  27.399  1.00  0.00     0.034 C 
BRANCH   5   6
ATOM      6  C   UNL     1      15.755  16.592  27.829  1.00  0.00    -0.077 C 
ATOM      7  C   UNL     1      17.029  15.841  28.121  1.00  0.00     0.039 C 
ATOM      8  C   UNL     1      14.578  15.949  28.034  1.00  0.00    -0.023 CG0
ATOM      9  G   UNL     1      13.184  16.492  27.790  1.00  0.00     0.000 G0
ENDBRANCH   5   6
ENDBRANCH   4   5
ENDBRANCH   2   4
BRANCH   1  10
ATOM     10  C   UNL     1      14.494  17.280  24.531  1.00  0.00     0.111 C 
BRANCH  10  11
ATOM     11  C   UNL     1      13.300  17.493  25.424  1.00  0.00     0.163 C 
ATOM     12  O   UNL     1      12.700  18.600  25.358  1.00  0.00    -0.294 OA
BRANCH  11  13
ATOM     13  C   UNL     1      12.774  16.427  26.328  1.00  0.00    -0.002 C 
ATOM     14  C   UNL     1      12.026  15.396  25.832  1.00  0.00    -0.069 C 
ATOM     15  C   UNL     1      11.573  15.379  24.389  1.00  0.00     0.039 C 
ATOM     16  C   UNL     1      11.615  14.220  26.691  1.00  0.00     0.039 C 
BRANCH  13  17
ATOM     17  C   UNL     1      13.186  16.490  27.790  1.00  0.00     0.066 CG0
ATOM     18  G   UNL     1      14.583  15.948  28.018  1.00  0.00     0.000 G0
ENDBRANCH  13  17
ENDBRANCH  11  13
ENDBRANCH  10  11
ENDBRANCH   1  10
TORSDOF 0
ENDMDL
