MODEL 1
REMARK VINA RESULT:    -5.102      0.000      0.000
REMARK INTER + INTRA:          -5.639
REMARK INTER:                  -5.549
REMARK INTRA:                  -0.090
REMARK UNBOUND:                -0.090
REMARK SMILES C=C(C)[C@@H]1CC=C(C)[C@@H](O)C1
REMARK SMILES IDX 8 1 7 2 6 3 5 4 4 5 11 6 9 7 10 8 2 10 1 11 3 12
REMARK H PARENT 10 9
REMARK Flexibility Score: inf
ROOT
ATOM      1  C   UNL     1     111.523 120.005 121.993  1.00  0.00     0.042 C 
ATOM      2  C   UNL     1     112.211 119.684 123.292  1.00  0.00    -0.049 C 
ATOM      3  C   UNL     1     111.615 118.828 124.152  1.00  0.00    -0.025 C 
ATOM      4  C   UNL     1     112.248 118.387 125.448  1.00  0.00     0.035 C 
ATOM      5  C   UNL     1     113.314 119.378 125.943  1.00  0.00     0.021 C 
ATOM      6  C   UNL     1     114.265 119.742 124.791  1.00  0.00     0.044 C 
ATOM      7  C   UNL     1     113.490 120.423 123.648  1.00  0.00     0.140 C 
ENDROOT
BRANCH   7   8
ATOM      8  O   UNL     1     113.161 121.739 124.006  1.00  0.00    -0.389 OA
ATOM      9  H   UNL     1     114.006 122.261 123.996  1.00  0.00     0.211 HD
ENDBRANCH   7   8
BRANCH   5  10
ATOM     10  C   UNL     1     114.068 118.838 127.149  1.00  0.00    -0.077 C 
ATOM     11  C   UNL     1     113.494 118.768 128.363  1.00  0.00     0.008 C 
ATOM     12  C   UNL     1     115.483 118.359 126.958  1.00  0.00     0.039 C 
ENDBRANCH   5  10
TORSDOF 2
ENDMDL
MODEL 2
REMARK VINA RESULT:    -4.920      1.757      2.621
REMARK INTER + INTRA:          -5.441
REMARK INTER:                  -5.351
REMARK INTRA:                  -0.091
REMARK UNBOUND:                -0.090
REMARK SMILES C=C(C)[C@@H]1CC=C(C)[C@@H](O)C1
REMARK SMILES IDX 8 1 7 2 6 3 5 4 4 5 11 6 9 7 10 8 2 10 1 11 3 12
REMARK H PARENT 10 9
REMARK Flexibility Score: inf
ROOT
ATOM      1  C   UNL     1     111.964 120.277 123.697  1.00  0.00     0.042 C 
ATOM      2  C   UNL     1     112.897 119.744 124.750  1.00  0.00    -0.049 C 
ATOM      3  C   UNL     1     114.226 119.932 124.598  1.00  0.00    -0.025 C 
ATOM      4  C   UNL     1     115.243 119.498 125.625  1.00  0.00     0.035 C 
ATOM      5  C   UNL     1     114.708 118.381 126.538  1.00  0.00     0.021 C 
ATOM      6  C   UNL     1     113.309 118.753 127.055  1.00  0.00     0.044 C 
ATOM      7  C   UNL     1     112.325 118.907 125.882  1.00  0.00     0.140 C 
ENDROOT
BRANCH   7   8
ATOM      8  O   UNL     1     111.978 117.645 125.374  1.00  0.00    -0.389 OA
ATOM      9  H   UNL     1     112.401 117.569 124.479  1.00  0.00     0.211 HD
ENDBRANCH   7   8
BRANCH   5  10
ATOM     10  C   UNL     1     115.670 118.078 127.677  1.00  0.00    -0.077 C 
ATOM     11  C   UNL     1     115.727 118.854 128.774  1.00  0.00     0.008 C 
ATOM     12  C   UNL     1     116.561 116.869 127.565  1.00  0.00     0.039 C 
ENDBRANCH   5  10
TORSDOF 2
ENDMDL
MODEL 3
REMARK VINA RESULT:    -4.904     15.862     16.787
REMARK INTER + INTRA:          -5.424
REMARK INTER:                  -5.325
REMARK INTRA:                  -0.099
REMARK UNBOUND:                -0.090
REMARK SMILES C=C(C)[C@@H]1CC=C(C)[C@@H](O)C1
REMARK SMILES IDX 8 1 7 2 6 3 5 4 4 5 11 6 9 7 10 8 2 10 1 11 3 12
REMARK H PARENT 10 9
REMARK Flexibility Score: inf
ROOT
ATOM      1  C   UNL     1     122.512 120.252 111.609  1.00  0.00     0.042 C 
ATOM      2  C   UNL     1     123.627 120.656 112.535  1.00  0.00    -0.049 C 
ATOM      3  C   UNL     1     124.350 121.760 112.241  1.00  0.00    -0.025 C 
ATOM      4  C   UNL     1     125.444 122.290 113.134  1.00  0.00     0.035 C 
ATOM      5  C   UNL     1     126.012 121.207 114.066  1.00  0.00     0.021 C 
ATOM      6  C   UNL     1     124.862 120.449 114.748  1.00  0.00     0.044 C 
ATOM      7  C   UNL     1     123.983 119.746 113.698  1.00  0.00     0.140 C 
ENDROOT
BRANCH   7   8
ATOM      8  O   UNL     1     124.645 118.615 113.194  1.00  0.00    -0.389 OA
ATOM      9  H   UNL     1     125.478 118.509 113.724  1.00  0.00     0.211 HD
ENDBRANCH   7   8
BRANCH   5  10
ATOM     10  C   UNL     1     126.983 121.792 115.081  1.00  0.00    -0.077 C 
ATOM     11  C   UNL     1     127.516 121.038 116.059  1.00  0.00     0.008 C 
ATOM     12  C   UNL     1     127.358 123.246 114.964  1.00  0.00     0.039 C 
ENDBRANCH   5  10
TORSDOF 2
ENDMDL
MODEL 4
REMARK VINA RESULT:    -4.834      1.346      4.406
REMARK INTER + INTRA:          -5.348
REMARK INTER:                  -5.253
REMARK INTRA:                  -0.096
REMARK UNBOUND:                -0.090
REMARK SMILES C=C(C)[C@@H]1CC=C(C)[C@@H](O)C1
REMARK SMILES IDX 8 1 7 2 6 3 5 4 4 5 11 6 9 7 10 8 2 10 1 11 3 12
REMARK H PARENT 10 9
REMARK Flexibility Score: inf
ROOT
ATOM      1  C   UNL     1     113.499 118.499 127.132  1.00  0.00     0.042 C 
ATOM      2  C   UNL     1     113.168 119.073 125.781  1.00  0.00    -0.049 C 
ATOM      3  C   UNL     1     112.100 118.587 125.110  1.00  0.00    -0.025 C 
ATOM      4  C   UNL     1     111.641 119.137 123.782  1.00  0.00     0.035 C 
ATOM      5  C   UNL     1     112.767 119.873 123.036  1.00  0.00     0.021 C 
ATOM      6  C   UNL     1     113.473 120.851 123.989  1.00  0.00     0.044 C 
ATOM      7  C   UNL     1     114.113 120.090 125.164  1.00  0.00     0.140 C 
ENDROOT
BRANCH   7   8
ATOM      8  O   UNL     1     115.270 119.421 124.734  1.00  0.00    -0.389 OA
ATOM      9  H   UNL     1     116.031 120.042 124.877  1.00  0.00     0.211 HD
ENDBRANCH   7   8
BRANCH   5  10
ATOM     10  C   UNL     1     112.250 120.573 121.789  1.00  0.00    -0.077 C 
ATOM     11  C   UNL     1     111.060 120.257 121.247  1.00  0.00     0.008 C 
ATOM     12  C   UNL     1     113.094 121.654 121.167  1.00  0.00     0.039 C 
ENDBRANCH   5  10
TORSDOF 2
ENDMDL
MODEL 5
REMARK VINA RESULT:    -4.743     15.449     16.937
REMARK INTER + INTRA:          -5.249
REMARK INTER:                  -5.154
REMARK INTRA:                  -0.094
REMARK UNBOUND:                -0.090
REMARK SMILES C=C(C)[C@@H]1CC=C(C)[C@@H](O)C1
REMARK SMILES IDX 8 1 7 2 6 3 5 4 4 5 11 6 9 7 10 8 2 10 1 11 3 12
REMARK H PARENT 10 9
REMARK Flexibility Score: inf
ROOT
ATOM      1  C   UNL     1     127.636 121.326 115.195  1.00  0.00     0.042 C 
ATOM      2  C   UNL     1     126.349 120.989 114.492  1.00  0.00    -0.049 C 
ATOM      3  C   UNL     1     125.324 120.485 115.215  1.00  0.00    -0.025 C 
ATOM      4  C   UNL     1     123.971 120.177 114.623  1.00  0.00     0.035 C 
ATOM      5  C   UNL     1     124.035 119.964 113.101  1.00  0.00     0.021 C 
ATOM      6  C   UNL     1     124.840 121.099 112.448  1.00  0.00     0.044 C 
ATOM      7  C   UNL     1     126.285 121.109 112.979  1.00  0.00     0.140 C 
ENDROOT
BRANCH   7   8
ATOM      8  O   UNL     1     127.014 120.051 112.415  1.00  0.00    -0.389 OA
ATOM      9  H   UNL     1     126.542 119.788 111.582  1.00  0.00     0.211 HD
ENDBRANCH   7   8
BRANCH   5  10
ATOM     10  C   UNL     1     122.647 119.832 112.493  1.00  0.00    -0.077 C 
ATOM     11  C   UNL     1     122.240 120.631 111.491  1.00  0.00     0.008 C 
ATOM     12  C   UNL     1     121.726 118.766 113.026  1.00  0.00     0.039 C 
ENDBRANCH   5  10
TORSDOF 2
ENDMDL
MODEL 6
REMARK VINA RESULT:    -4.738     15.955     16.846
REMARK INTER + INTRA:          -5.244
REMARK INTER:                  -5.148
REMARK INTRA:                  -0.096
REMARK UNBOUND:                -0.090
REMARK SMILES C=C(C)[C@@H]1CC=C(C)[C@@H](O)C1
REMARK SMILES IDX 8 1 7 2 6 3 5 4 4 5 11 6 9 7 10 8 2 10 1 11 3 12
REMARK H PARENT 10 9
REMARK Flexibility Score: inf
ROOT
ATOM      1  C   UNL     1     127.653 122.080 115.397  1.00  0.00     0.042 C 
ATOM      2  C   UNL     1     126.506 121.487 114.625  1.00  0.00    -0.049 C 
ATOM      3  C   UNL     1     125.814 122.279 113.776  1.00  0.00    -0.025 C 
ATOM      4  C   UNL     1     124.691 121.771 112.905  1.00  0.00     0.035 C 
ATOM      5  C   UNL     1     124.067 120.477 113.455  1.00  0.00     0.021 C 
ATOM      6  C   UNL     1     125.175 119.476 113.819  1.00  0.00     0.044 C 
ATOM      7  C   UNL     1     126.086 120.056 114.915  1.00  0.00     0.140 C 
ENDROOT
BRANCH   7   8
ATOM      8  O   UNL     1     125.429 120.026 116.155  1.00  0.00    -0.389 OA
ATOM      9  H   UNL     1     124.465 120.186 115.974  1.00  0.00     0.211 HD
ENDBRANCH   7   8
BRANCH   5  10
ATOM     10  C   UNL     1     123.063 119.880 112.481  1.00  0.00    -0.077 C 
ATOM     11  C   UNL     1     122.421 120.642 111.578  1.00  0.00     0.008 C 
ATOM     12  C   UNL     1     122.803 118.397 112.533  1.00  0.00     0.039 C 
ENDBRANCH   5  10
TORSDOF 2
ENDMDL
MODEL 7
REMARK VINA RESULT:    -4.736      2.278      4.861
REMARK INTER + INTRA:          -5.241
REMARK INTER:                  -5.152
REMARK INTRA:                  -0.090
REMARK UNBOUND:                -0.090
REMARK SMILES C=C(C)[C@@H]1CC=C(C)[C@@H](O)C1
REMARK SMILES IDX 8 1 7 2 6 3 5 4 4 5 11 6 9 7 10 8 2 10 1 11 3 12
REMARK H PARENT 10 9
REMARK Flexibility Score: inf
ROOT
ATOM      1  C   UNL     1     117.356 118.703 129.123  1.00  0.00     0.042 C 
ATOM      2  C   UNL     1     116.229 118.867 128.140  1.00  0.00    -0.049 C 
ATOM      3  C   UNL     1     114.957 118.818 128.593  1.00  0.00    -0.025 C 
ATOM      4  C   UNL     1     113.756 119.037 127.706  1.00  0.00     0.035 C 
ATOM      5  C   UNL     1     114.071 118.771 126.224  1.00  0.00     0.021 C 
ATOM      6  C   UNL     1     115.371 119.489 125.829  1.00  0.00     0.044 C 
ATOM      7  C   UNL     1     116.554 118.958 126.659  1.00  0.00     0.140 C 
ENDROOT
BRANCH   7   8
ATOM      8  O   UNL     1     116.929 117.684 126.204  1.00  0.00    -0.389 OA
ATOM      9  H   UNL     1     116.502 117.558 125.316  1.00  0.00     0.211 HD
ENDBRANCH   7   8
BRANCH   5  10
ATOM     10  C   UNL     1     112.910 119.166 125.324  1.00  0.00    -0.077 C 
ATOM     11  C   UNL     1     111.906 118.312 125.056  1.00  0.00     0.008 C 
ATOM     12  C   UNL     1     112.892 120.553 124.738  1.00  0.00     0.039 C 
ENDBRANCH   5  10
TORSDOF 2
ENDMDL
MODEL 8
REMARK VINA RESULT:    -4.707      1.577      4.506
REMARK INTER + INTRA:          -5.210
REMARK INTER:                  -5.114
REMARK INTRA:                  -0.095
REMARK UNBOUND:                -0.090
REMARK SMILES C=C(C)[C@@H]1CC=C(C)[C@@H](O)C1
REMARK SMILES IDX 8 1 7 2 6 3 5 4 4 5 11 6 9 7 10 8 2 10 1 11 3 12
REMARK H PARENT 10 9
REMARK Flexibility Score: inf
ROOT
ATOM      1  C   UNL     1     114.760 118.154 128.024  1.00  0.00     0.042 C 
ATOM      2  C   UNL     1     114.226 118.677 126.719  1.00  0.00    -0.049 C 
ATOM      3  C   UNL     1     115.067 119.331 125.886  1.00  0.00    -0.025 C 
ATOM      4  C   UNL     1     114.652 119.837 124.526  1.00  0.00     0.035 C 
ATOM      5  C   UNL     1     113.131 120.032 124.417  1.00  0.00     0.021 C 
ATOM      6  C   UNL     1     112.404 118.787 124.949  1.00  0.00     0.044 C 
ATOM      7  C   UNL     1     112.739 118.562 126.435  1.00  0.00     0.140 C 
ENDROOT
BRANCH   7   8
ATOM      8  O   UNL     1     112.058 119.498 127.230  1.00  0.00    -0.389 OA
ATOM      9  H   UNL     1     111.762 119.019 128.048  1.00  0.00     0.211 HD
ENDBRANCH   7   8
BRANCH   5  10
ATOM     10  C   UNL     1     112.708 120.369 122.994  1.00  0.00    -0.077 C 
ATOM     11  C   UNL     1     111.649 119.775 122.417  1.00  0.00     0.008 C 
ATOM     12  C   UNL     1     113.497 121.403 122.234  1.00  0.00     0.039 C 
ENDBRANCH   5  10
TORSDOF 2
ENDMDL
MODEL 9
REMARK VINA RESULT:    -4.681      1.731      2.909
REMARK INTER + INTRA:          -5.182
REMARK INTER:                  -5.084
REMARK INTRA:                  -0.098
REMARK UNBOUND:                -0.090
REMARK SMILES C=C(C)[C@@H]1CC=C(C)[C@@H](O)C1
REMARK SMILES IDX 8 1 7 2 6 3 5 4 4 5 11 6 9 7 10 8 2 10 1 11 3 12
REMARK H PARENT 10 9
REMARK Flexibility Score: inf
ROOT
ATOM      1  C   UNL     1     111.505 121.555 119.465  1.00  0.00     0.042 C 
ATOM      2  C   UNL     1     111.992 121.012 120.781  1.00  0.00    -0.049 C 
ATOM      3  C   UNL     1     111.197 120.161 121.468  1.00  0.00    -0.025 C 
ATOM      4  C   UNL     1     111.615 119.507 122.762  1.00  0.00     0.035 C 
ATOM      5  C   UNL     1     112.730 120.288 123.477  1.00  0.00     0.021 C 
ATOM      6  C   UNL     1     113.846 120.637 122.480  1.00  0.00     0.044 C 
ATOM      7  C   UNL     1     113.301 121.530 121.351  1.00  0.00     0.140 C 
ENDROOT
BRANCH   7   8
ATOM      8  O   UNL     1     113.095 122.836 121.825  1.00  0.00    -0.389 OA
ATOM      9  H   UNL     1     113.537 123.449 121.181  1.00  0.00     0.211 HD
ENDBRANCH   7   8
BRANCH   5  10
ATOM     10  C   UNL     1     113.264 119.529 124.682  1.00  0.00    -0.077 C 
ATOM     11  C   UNL     1     114.528 119.693 125.111  1.00  0.00     0.008 C 
ATOM     12  C   UNL     1     112.340 118.588 125.409  1.00  0.00     0.039 C 
ENDBRANCH   5  10
TORSDOF 2
ENDMDL
