MODEL 1
REMARK VINA RESULT:    -4.732      0.000      0.000
REMARK INTER + INTRA:         -12.880
REMARK INTER:                 -10.264
REMARK INTRA:                  -2.616
REMARK UNBOUND:                -2.616
REMARK SMILES CCCCCCCCCCCCCCCCCCCCCC(=O)[O-]
REMARK SMILES IDX 12 1 11 2 10 3 9 4 8 5 7 6 6 7 5 8 4 9 3 10 2 11 1 12 13 13
REMARK SMILES IDX 14 14 15 15 16 16 17 17 18 18 19 19 20 20 21 21 22 22 23 23
REMARK SMILES IDX 24 24
REMARK H PARENT
REMARK Flexibility Score: inf
ROOT
ATOM      1  C   UNL     1     -26.506 -15.498  17.399  1.00  0.00     0.000 C 
ENDROOT
BRANCH   1   2
ATOM      2  C   UNL     1     -27.881 -16.043  16.975  1.00  0.00     0.000 C 
BRANCH   2   3
ATOM      3  C   UNL     1     -27.916 -17.579  16.901  1.00  0.00     0.000 C 
BRANCH   3   4
ATOM      4  C   UNL     1     -26.807 -18.216  16.040  1.00  0.00    -0.000 C 
BRANCH   4   5
ATOM      5  C   UNL     1     -27.189 -19.546  15.358  1.00  0.00    -0.000 C 
BRANCH   5   6
ATOM      6  C   UNL     1     -26.598 -19.747  13.952  1.00  0.00    -0.000 C 
BRANCH   6   7
ATOM      7  C   UNL     1     -27.629 -19.531  12.834  1.00  0.00    -0.000 C 
BRANCH   7   8
ATOM      8  C   UNL     1     -27.483 -18.133  12.215  1.00  0.00    -0.000 C 
BRANCH   8   9
ATOM      9  C   UNL     1     -28.823 -17.385  12.098  1.00  0.00    -0.000 C 
BRANCH   9  10
ATOM     10  C   UNL     1     -29.432 -16.926  13.438  1.00  0.00    -0.000 C 
BRANCH  10  11
ATOM     11  C   UNL     1     -30.807 -17.534  13.768  1.00  0.00    -0.003 C 
ATOM     12  C   UNL     1     -30.737 -18.615  14.846  1.00  0.00     0.004 C 
ENDBRANCH  10  11
ENDBRANCH   9  10
ENDBRANCH   8   9
ENDBRANCH   7   8
ENDBRANCH   6   7
ENDBRANCH   5   6
ENDBRANCH   4   5
ENDBRANCH   3   4
ENDBRANCH   2   3
ENDBRANCH   1   2
BRANCH   1  13
ATOM     13  C   UNL     1     -26.593 -14.084  17.997  1.00  0.00     0.000 C 
BRANCH  13  14
ATOM     14  C   UNL     1     -25.286 -13.294  17.822  1.00  0.00     0.000 C 
BRANCH  14  15
ATOM     15  C   UNL     1     -25.519 -11.847  17.352  1.00  0.00     0.000 C 
BRANCH  15  16
ATOM     16  C   UNL     1     -26.886 -11.587  16.688  1.00  0.00     0.000 C 
BRANCH  16  17
ATOM     17  C   UNL     1     -27.776 -10.553  17.405  1.00  0.00     0.000 C 
BRANCH  17  18
ATOM     18  C   UNL     1     -29.249 -10.974  17.587  1.00  0.00     0.000 C 
BRANCH  18  19
ATOM     19  C   UNL     1     -29.697 -12.165  16.722  1.00  0.00     0.000 C 
BRANCH  19  20
ATOM     20  C   UNL     1     -30.097 -13.391  17.555  1.00  0.00     0.006 C 
BRANCH  20  21
ATOM     21  C   UNL     1     -31.616 -13.456  17.739  1.00  0.00     0.053 C 
BRANCH  21  22
ATOM     22  C   UNL     1     -32.232 -14.350  16.709  1.00  0.00     0.041 C 
ATOM     23  O   UNL     1     -31.513 -14.895  15.830  1.00  0.00    -0.550 OA
ATOM     24  O   UNL     1     -33.593 -14.621  16.748  1.00  0.00    -0.550 OA
ENDBRANCH  21  22
ENDBRANCH  20  21
ENDBRANCH  19  20
ENDBRANCH  18  19
ENDBRANCH  17  18
ENDBRANCH  16  17
ENDBRANCH  15  16
ENDBRANCH  14  15
ENDBRANCH  13  14
ENDBRANCH   1  13
TORSDOF 20
ENDMDL
MODEL 2
REMARK VINA RESULT:    -4.697      2.672      6.988
REMARK INTER + INTRA:         -12.805
REMARK INTER:                 -10.206
REMARK INTRA:                  -2.599
REMARK UNBOUND:                -2.616
REMARK SMILES CCCCCCCCCCCCCCCCCCCCCC(=O)[O-]
REMARK SMILES IDX 12 1 11 2 10 3 9 4 8 5 7 6 6 7 5 8 4 9 3 10 2 11 1 12 13 13
REMARK SMILES IDX 14 14 15 15 16 16 17 17 18 18 19 19 20 20 21 21 22 22 23 23
REMARK SMILES IDX 24 24
REMARK H PARENT
REMARK Flexibility Score: inf
ROOT
ATOM      1  C   UNL     1     -26.670 -14.080  18.112  1.00  0.00     0.000 C 
ENDROOT
BRANCH   1   2
ATOM      2  C   UNL     1     -25.349 -13.292  18.057  1.00  0.00     0.000 C 
BRANCH   2   3
ATOM      3  C   UNL     1     -25.494 -11.937  17.344  1.00  0.00     0.000 C 
BRANCH   3   4
ATOM      4  C   UNL     1     -26.865 -11.691  16.682  1.00  0.00    -0.000 C 
BRANCH   4   5
ATOM      5  C   UNL     1     -27.719 -10.586  17.335  1.00  0.00    -0.000 C 
BRANCH   5   6
ATOM      6  C   UNL     1     -29.190 -10.965  17.584  1.00  0.00    -0.000 C 
BRANCH   6   7
ATOM      7  C   UNL     1     -29.643 -12.177  16.756  1.00  0.00    -0.000 C 
BRANCH   7   8
ATOM      8  C   UNL     1     -30.099 -13.325  17.668  1.00  0.00    -0.000 C 
BRANCH   8   9
ATOM      9  C   UNL     1     -31.619 -13.567  17.614  1.00  0.00    -0.000 C 
BRANCH   9  10
ATOM     10  C   UNL     1     -32.040 -15.044  17.477  1.00  0.00    -0.000 C 
BRANCH  10  11
ATOM     11  C   UNL     1     -32.399 -15.487  16.049  1.00  0.00    -0.003 C 
ATOM     12  C   UNL     1     -31.319 -15.132  15.026  1.00  0.00     0.004 C 
ENDBRANCH  10  11
ENDBRANCH   9  10
ENDBRANCH   8   9
ENDBRANCH   7   8
ENDBRANCH   6   7
ENDBRANCH   5   6
ENDBRANCH   4   5
ENDBRANCH   3   4
ENDBRANCH   2   3
ENDBRANCH   1   2
BRANCH   1  13
ATOM     13  C   UNL     1     -26.497 -15.548  17.691  1.00  0.00     0.000 C 
BRANCH  13  14
ATOM     14  C   UNL     1     -27.655 -16.045  16.809  1.00  0.00     0.000 C 
BRANCH  14  15
ATOM     15  C   UNL     1     -28.729 -16.807  17.605  1.00  0.00     0.000 C 
BRANCH  15  16
ATOM     16  C   UNL     1     -29.493 -17.884  16.808  1.00  0.00     0.000 C 
BRANCH  16  17
ATOM     17  C   UNL     1     -28.611 -18.800  15.935  1.00  0.00     0.000 C 
BRANCH  17  18
ATOM     18  C   UNL     1     -29.161 -19.079  14.521  1.00  0.00     0.000 C 
BRANCH  18  19
ATOM     19  C   UNL     1     -29.469 -17.825  13.683  1.00  0.00     0.000 C 
BRANCH  19  20
ATOM     20  C   UNL     1     -28.438 -17.582  12.571  1.00  0.00     0.006 C 
BRANCH  20  21
ATOM     21  C   UNL     1     -27.807 -18.900  12.112  1.00  0.00     0.053 C 
BRANCH  21  22
ATOM     22  C   UNL     1     -27.346 -18.794  10.692  1.00  0.00     0.041 C 
ATOM     23  O   UNL     1     -26.383 -19.494  10.284  1.00  0.00    -0.550 OA
ATOM     24  O   UNL     1     -28.011 -17.955   9.806  1.00  0.00    -0.550 OA
ENDBRANCH  21  22
ENDBRANCH  20  21
ENDBRANCH  19  20
ENDBRANCH  18  19
ENDBRANCH  17  18
ENDBRANCH  16  17
ENDBRANCH  15  16
ENDBRANCH  14  15
ENDBRANCH  13  14
ENDBRANCH   1  13
TORSDOF 20
ENDMDL
MODEL 3
REMARK VINA RESULT:    -4.695      1.520      3.377
REMARK INTER + INTRA:         -12.801
REMARK INTER:                 -10.133
REMARK INTRA:                  -2.668
REMARK UNBOUND:                -2.616
REMARK SMILES CCCCCCCCCCCCCCCCCCCCCC(=O)[O-]
REMARK SMILES IDX 12 1 11 2 10 3 9 4 8 5 7 6 6 7 5 8 4 9 3 10 2 11 1 12 13 13
REMARK SMILES IDX 14 14 15 15 16 16 17 17 18 18 19 19 20 20 21 21 22 22 23 23
REMARK SMILES IDX 24 24
REMARK H PARENT
REMARK Flexibility Score: inf
ROOT
ATOM      1  C   UNL     1     -25.442 -12.376  17.303  1.00  0.00     0.000 C 
ENDROOT
BRANCH   1   2
ATOM      2  C   UNL     1     -25.593 -13.718  18.041  1.00  0.00     0.000 C 
BRANCH   2   3
ATOM      3  C   UNL     1     -27.032 -14.261  17.999  1.00  0.00     0.000 C 
BRANCH   3   4
ATOM      4  C   UNL     1     -27.147 -15.796  17.900  1.00  0.00    -0.000 C 
BRANCH   4   5
ATOM      5  C   UNL     1     -26.024 -16.487  17.101  1.00  0.00    -0.000 C 
BRANCH   5   6
ATOM      6  C   UNL     1     -26.458 -17.743  16.325  1.00  0.00    -0.000 C 
BRANCH   6   7
ATOM      7  C   UNL     1     -27.840 -17.594  15.672  1.00  0.00    -0.000 C 
BRANCH   7   8
ATOM      8  C   UNL     1     -28.155 -18.798  14.771  1.00  0.00    -0.000 C 
BRANCH   8   9
ATOM      9  C   UNL     1     -28.864 -18.400  13.464  1.00  0.00    -0.000 C 
BRANCH   9  10
ATOM     10  C   UNL     1     -27.940 -18.262  12.237  1.00  0.00    -0.000 C 
BRANCH  10  11
ATOM     11  C   UNL     1     -26.564 -18.933  12.382  1.00  0.00    -0.003 C 
ATOM     12  C   UNL     1     -26.599 -20.433  12.089  1.00  0.00     0.004 C 
ENDBRANCH  10  11
ENDBRANCH   9  10
ENDBRANCH   8   9
ENDBRANCH   7   8
ENDBRANCH   6   7
ENDBRANCH   5   6
ENDBRANCH   4   5
ENDBRANCH   3   4
ENDBRANCH   2   3
ENDBRANCH   1   2
BRANCH   1  13
ATOM     13  C   UNL     1     -26.759 -11.907  16.663  1.00  0.00     0.000 C 
BRANCH  13  14
ATOM     14  C   UNL     1     -27.381 -10.715  17.410  1.00  0.00     0.000 C 
BRANCH  14  15
ATOM     15  C   UNL     1     -28.912 -10.816  17.530  1.00  0.00     0.000 C 
BRANCH  15  16
ATOM     16  C   UNL     1     -29.554 -11.976  16.743  1.00  0.00     0.000 C 
BRANCH  16  17
ATOM     17  C   UNL     1     -30.544 -12.843  17.547  1.00  0.00     0.000 C 
BRANCH  17  18
ATOM     18  C   UNL     1     -30.682 -14.300  17.058  1.00  0.00     0.000 C 
BRANCH  18  19
ATOM     19  C   UNL     1     -30.128 -14.567  15.647  1.00  0.00     0.000 C 
BRANCH  19  20
ATOM     20  C   UNL     1     -31.091 -15.385  14.774  1.00  0.00     0.006 C 
BRANCH  20  21
ATOM     21  C   UNL     1     -31.420 -16.728  15.432  1.00  0.00     0.053 C 
BRANCH  21  22
ATOM     22  C   UNL     1     -32.902 -16.915  15.529  1.00  0.00     0.041 C 
ATOM     23  O   UNL     1     -33.681 -15.971  15.232  1.00  0.00    -0.550 OA
ATOM     24  O   UNL     1     -33.424 -18.146  15.903  1.00  0.00    -0.550 OA
ENDBRANCH  21  22
ENDBRANCH  20  21
ENDBRANCH  19  20
ENDBRANCH  18  19
ENDBRANCH  17  18
ENDBRANCH  16  17
ENDBRANCH  15  16
ENDBRANCH  14  15
ENDBRANCH  13  14
ENDBRANCH   1  13
TORSDOF 20
ENDMDL
MODEL 4
REMARK VINA RESULT:    -4.619      1.151      2.513
REMARK INTER + INTRA:         -12.635
REMARK INTER:                  -9.751
REMARK INTRA:                  -2.885
REMARK UNBOUND:                -2.616
REMARK SMILES CCCCCCCCCCCCCCCCCCCCCC(=O)[O-]
REMARK SMILES IDX 12 1 11 2 10 3 9 4 8 5 7 6 6 7 5 8 4 9 3 10 2 11 1 12 13 13
REMARK SMILES IDX 14 14 15 15 16 16 17 17 18 18 19 19 20 20 21 21 22 22 23 23
REMARK SMILES IDX 24 24
REMARK H PARENT
REMARK Flexibility Score: inf
ROOT
ATOM      1  C   UNL     1     -26.339 -14.991  17.381  1.00  0.00     0.000 C 
ENDROOT
BRANCH   1   2
ATOM      2  C   UNL     1     -27.734 -15.619  17.549  1.00  0.00     0.000 C 
BRANCH   2   3
ATOM      3  C   UNL     1     -27.961 -16.821  16.616  1.00  0.00     0.000 C 
BRANCH   3   4
ATOM      4  C   UNL     1     -29.408 -16.990  16.111  1.00  0.00    -0.000 C 
BRANCH   4   5
ATOM      5  C   UNL     1     -29.697 -16.370  14.729  1.00  0.00    -0.000 C 
BRANCH   5   6
ATOM      6  C   UNL     1     -29.942 -17.386  13.600  1.00  0.00    -0.000 C 
BRANCH   6   7
ATOM      7  C   UNL     1     -28.836 -17.374  12.534  1.00  0.00    -0.000 C 
BRANCH   7   8
ATOM      8  C   UNL     1     -28.106 -18.724  12.483  1.00  0.00    -0.000 C 
BRANCH   8   9
ATOM      9  C   UNL     1     -26.675 -18.654  13.045  1.00  0.00    -0.000 C 
BRANCH   9  10
ATOM     10  C   UNL     1     -26.423 -19.518  14.297  1.00  0.00    -0.000 C 
BRANCH  10  11
ATOM     11  C   UNL     1     -27.685 -20.133  14.926  1.00  0.00    -0.003 C 
ATOM     12  C   UNL     1     -27.724 -21.657  14.814  1.00  0.00     0.004 C 
ENDBRANCH  10  11
ENDBRANCH   9  10
ENDBRANCH   8   9
ENDBRANCH   7   8
ENDBRANCH   6   7
ENDBRANCH   5   6
ENDBRANCH   4   5
ENDBRANCH   3   4
ENDBRANCH   2   3
ENDBRANCH   1   2
BRANCH   1  13
ATOM     13  C   UNL     1     -26.208 -13.647  18.117  1.00  0.00     0.000 C 
BRANCH  13  14
ATOM     14  C   UNL     1     -25.615 -12.546  17.221  1.00  0.00     0.000 C 
BRANCH  14  15
ATOM     15  C   UNL     1     -26.601 -11.394  16.957  1.00  0.00     0.000 C 
BRANCH  15  16
ATOM     16  C   UNL     1     -27.926 -11.473  17.741  1.00  0.00     0.000 C 
BRANCH  16  17
ATOM     17  C   UNL     1     -29.202 -11.374  16.882  1.00  0.00     0.000 C 
BRANCH  17  18
ATOM     18  C   UNL     1     -29.894 -12.720  16.583  1.00  0.00     0.000 C 
BRANCH  18  19
ATOM     19  C   UNL     1     -30.720 -13.299  17.745  1.00  0.00     0.000 C 
BRANCH  19  20
ATOM     20  C   UNL     1     -31.627 -14.460  17.312  1.00  0.00     0.006 C 
BRANCH  20  21
ATOM     21  C   UNL     1     -32.347 -14.132  16.001  1.00  0.00     0.053 C 
BRANCH  21  22
ATOM     22  C   UNL     1     -33.822 -14.020  16.226  1.00  0.00     0.041 C 
ATOM     23  O   UNL     1     -34.270 -13.266  17.130  1.00  0.00    -0.550 OA
ATOM     24  O   UNL     1     -34.705 -14.712  15.407  1.00  0.00    -0.550 OA
ENDBRANCH  21  22
ENDBRANCH  20  21
ENDBRANCH  19  20
ENDBRANCH  18  19
ENDBRANCH  17  18
ENDBRANCH  16  17
ENDBRANCH  15  16
ENDBRANCH  14  15
ENDBRANCH  13  14
ENDBRANCH   1  13
TORSDOF 20
ENDMDL
MODEL 5
REMARK VINA RESULT:    -4.604      2.925      7.062
REMARK INTER + INTRA:         -12.603
REMARK INTER:                  -9.298
REMARK INTRA:                  -3.306
REMARK UNBOUND:                -2.616
REMARK SMILES CCCCCCCCCCCCCCCCCCCCCC(=O)[O-]
REMARK SMILES IDX 12 1 11 2 10 3 9 4 8 5 7 6 6 7 5 8 4 9 3 10 2 11 1 12 13 13
REMARK SMILES IDX 14 14 15 15 16 16 17 17 18 18 19 19 20 20 21 21 22 22 23 23
REMARK SMILES IDX 24 24
REMARK H PARENT
REMARK Flexibility Score: inf
ROOT
ATOM      1  C   UNL     1     -28.373 -16.128  17.011  1.00  0.00     0.000 C 
ENDROOT
BRANCH   1   2
ATOM      2  C   UNL     1     -27.625 -15.225  18.006  1.00  0.00     0.000 C 
BRANCH   2   3
ATOM      3  C   UNL     1     -26.277 -14.724  17.459  1.00  0.00     0.000 C 
BRANCH   3   4
ATOM      4  C   UNL     1     -25.970 -13.239  17.738  1.00  0.00    -0.000 C 
BRANCH   4   5
ATOM      5  C   UNL     1     -26.684 -12.237  16.809  1.00  0.00    -0.000 C 
BRANCH   5   6
ATOM      6  C   UNL     1     -27.359 -11.054  17.526  1.00  0.00    -0.000 C 
BRANCH   6   7
ATOM      7  C   UNL     1     -28.893 -11.130  17.491  1.00  0.00    -0.000 C 
BRANCH   7   8
ATOM      8  C   UNL     1     -29.366 -12.267  16.574  1.00  0.00    -0.000 C 
BRANCH   8   9
ATOM      9  C   UNL     1     -30.515 -13.090  17.182  1.00  0.00    -0.000 C 
BRANCH   9  10
ATOM     10  C   UNL     1     -31.276 -13.985  16.184  1.00  0.00    -0.000 C 
BRANCH  10  11
ATOM     11  C   UNL     1     -31.990 -15.196  16.810  1.00  0.00    -0.003 C 
ATOM     12  C   UNL     1     -33.324 -15.515  16.136  1.00  0.00     0.004 C 
ENDBRANCH  10  11
ENDBRANCH   9  10
ENDBRANCH   8   9
ENDBRANCH   7   8
ENDBRANCH   6   7
ENDBRANCH   5   6
ENDBRANCH   4   5
ENDBRANCH   3   4
ENDBRANCH   2   3
ENDBRANCH   1   2
BRANCH   1  13
ATOM     13  C   UNL     1     -27.498 -17.282  16.493  1.00  0.00     0.000 C 
BRANCH  13  14
ATOM     14  C   UNL     1     -28.280 -18.602  16.378  1.00  0.00     0.000 C 
BRANCH  14  15
ATOM     15  C   UNL     1     -29.804 -18.402  16.428  1.00  0.00     0.000 C 
BRANCH  15  16
ATOM     16  C   UNL     1     -30.567 -18.869  15.172  1.00  0.00     0.000 C 
BRANCH  16  17
ATOM     17  C   UNL     1     -31.079 -17.738  14.258  1.00  0.00     0.000 C 
BRANCH  17  18
ATOM     18  C   UNL     1     -29.979 -16.843  13.650  1.00  0.00     0.000 C 
BRANCH  18  19
ATOM     19  C   UNL     1     -29.308 -17.407  12.385  1.00  0.00     0.000 C 
BRANCH  19  20
ATOM     20  C   UNL     1     -27.861 -17.859  12.630  1.00  0.00     0.006 C 
BRANCH  20  21
ATOM     21  C   UNL     1     -27.770 -19.386  12.705  1.00  0.00     0.053 C 
BRANCH  21  22
ATOM     22  C   UNL     1     -26.836 -19.908  11.659  1.00  0.00     0.041 C 
ATOM     23  O   UNL     1     -27.226 -20.780  10.838  1.00  0.00    -0.550 OA
ATOM     24  O   UNL     1     -25.548 -19.398  11.560  1.00  0.00    -0.550 OA
ENDBRANCH  21  22
ENDBRANCH  20  21
ENDBRANCH  19  20
ENDBRANCH  18  19
ENDBRANCH  17  18
ENDBRANCH  16  17
ENDBRANCH  15  16
ENDBRANCH  14  15
ENDBRANCH  13  14
ENDBRANCH   1  13
TORSDOF 20
ENDMDL
MODEL 6
REMARK VINA RESULT:    -4.597      1.326      2.566
REMARK INTER + INTRA:         -12.589
REMARK INTER:                 -10.201
REMARK INTRA:                  -2.388
REMARK UNBOUND:                -2.616
REMARK SMILES CCCCCCCCCCCCCCCCCCCCCC(=O)[O-]
REMARK SMILES IDX 12 1 11 2 10 3 9 4 8 5 7 6 6 7 5 8 4 9 3 10 2 11 1 12 13 13
REMARK SMILES IDX 14 14 15 15 16 16 17 17 18 18 19 19 20 20 21 21 22 22 23 23
REMARK SMILES IDX 24 24
REMARK H PARENT
REMARK Flexibility Score: inf
ROOT
ATOM      1  C   UNL     1     -26.497 -14.539  18.092  1.00  0.00     0.000 C 
ENDROOT
BRANCH   1   2
ATOM      2  C   UNL     1     -25.922 -15.745  17.329  1.00  0.00     0.000 C 
BRANCH   2   3
ATOM      3  C   UNL     1     -26.778 -17.013  17.488  1.00  0.00     0.000 C 
BRANCH   3   4
ATOM      4  C   UNL     1     -28.266 -16.760  17.803  1.00  0.00    -0.000 C 
BRANCH   4   5
ATOM      5  C   UNL     1     -29.263 -17.436  16.840  1.00  0.00    -0.000 C 
BRANCH   5   6
ATOM      6  C   UNL     1     -28.797 -17.519  15.376  1.00  0.00    -0.000 C 
BRANCH   6   7
ATOM      7  C   UNL     1     -29.691 -16.719  14.417  1.00  0.00    -0.000 C 
BRANCH   7   8
ATOM      8  C   UNL     1     -29.528 -17.213  12.972  1.00  0.00    -0.000 C 
BRANCH   8   9
ATOM      9  C   UNL     1     -28.281 -18.095  12.777  1.00  0.00    -0.000 C 
BRANCH   9  10
ATOM     10  C   UNL     1     -27.686 -18.077  11.355  1.00  0.00    -0.000 C 
BRANCH  10  11
ATOM     11  C   UNL     1     -26.926 -19.353  10.953  1.00  0.00    -0.003 C 
ATOM     12  C   UNL     1     -27.454 -19.980   9.663  1.00  0.00     0.004 C 
ENDBRANCH  10  11
ENDBRANCH   9  10
ENDBRANCH   8   9
ENDBRANCH   7   8
ENDBRANCH   6   7
ENDBRANCH   5   6
ENDBRANCH   4   5
ENDBRANCH   3   4
ENDBRANCH   2   3
ENDBRANCH   1   2
BRANCH   1  13
ATOM     13  C   UNL     1     -25.596 -13.297  17.993  1.00  0.00     0.000 C 
BRANCH  13  14
ATOM     14  C   UNL     1     -26.011 -12.364  16.842  1.00  0.00     0.000 C 
BRANCH  14  15
ATOM     15  C   UNL     1     -26.275 -10.921  17.307  1.00  0.00     0.000 C 
BRANCH  15  16
ATOM     16  C   UNL     1     -27.755 -10.488  17.286  1.00  0.00     0.000 C 
BRANCH  16  17
ATOM     17  C   UNL     1     -28.764 -11.584  17.684  1.00  0.00     0.000 C 
BRANCH  17  18
ATOM     18  C   UNL     1     -29.629 -12.126  16.528  1.00  0.00     0.000 C 
BRANCH  18  19
ATOM     19  C   UNL     1     -29.837 -13.650  16.530  1.00  0.00     0.000 C 
BRANCH  19  20
ATOM     20  C   UNL     1     -30.748 -14.127  17.670  1.00  0.00     0.006 C 
BRANCH  20  21
ATOM     21  C   UNL     1     -32.196 -13.684  17.435  1.00  0.00     0.053 C 
BRANCH  21  22
ATOM     22  C   UNL     1     -32.761 -14.362  16.227  1.00  0.00     0.041 C 
ATOM     23  O   UNL     1     -33.356 -13.690  15.343  1.00  0.00    -0.550 OA
ATOM     24  O   UNL     1     -32.591 -15.729  16.053  1.00  0.00    -0.550 OA
ENDBRANCH  21  22
ENDBRANCH  20  21
ENDBRANCH  19  20
ENDBRANCH  18  19
ENDBRANCH  17  18
ENDBRANCH  16  17
ENDBRANCH  15  16
ENDBRANCH  14  15
ENDBRANCH  13  14
ENDBRANCH   1  13
TORSDOF 20
ENDMDL
MODEL 7
REMARK VINA RESULT:    -4.580      2.771      6.760
REMARK INTER + INTRA:         -12.551
REMARK INTER:                  -9.474
REMARK INTRA:                  -3.077
REMARK UNBOUND:                -2.616
REMARK SMILES CCCCCCCCCCCCCCCCCCCCCC(=O)[O-]
REMARK SMILES IDX 12 1 11 2 10 3 9 4 8 5 7 6 6 7 5 8 4 9 3 10 2 11 1 12 13 13
REMARK SMILES IDX 14 14 15 15 16 16 17 17 18 18 19 19 20 20 21 21 22 22 23 23
REMARK SMILES IDX 24 24
REMARK H PARENT
REMARK Flexibility Score: inf
ROOT
ATOM      1  C   UNL     1     -30.915 -18.490  15.086  1.00  0.00     0.000 C 
ENDROOT
BRANCH   1   2
ATOM      2  C   UNL     1     -30.770 -17.445  13.966  1.00  0.00     0.000 C 
BRANCH   2   3
ATOM      3  C   UNL     1     -30.092 -16.150  14.444  1.00  0.00     0.000 C 
BRANCH   3   4
ATOM      4  C   UNL     1     -29.281 -16.282  15.749  1.00  0.00    -0.000 C 
BRANCH   4   5
ATOM      5  C   UNL     1     -29.588 -15.218  16.822  1.00  0.00    -0.000 C 
BRANCH   5   6
ATOM      6  C   UNL     1     -30.012 -13.845  16.271  1.00  0.00    -0.000 C 
BRANCH   6   7
ATOM      7  C   UNL     1     -30.175 -12.785  17.372  1.00  0.00    -0.000 C 
BRANCH   7   8
ATOM      8  C   UNL     1     -29.362 -11.523  17.044  1.00  0.00    -0.000 C 
BRANCH   8   9
ATOM      9  C   UNL     1     -27.989 -11.496  17.738  1.00  0.00    -0.000 C 
BRANCH   9  10
ATOM     10  C   UNL     1     -26.777 -11.504  16.786  1.00  0.00    -0.000 C 
BRANCH  10  11
ATOM     11  C   UNL     1     -25.664 -12.498  17.159  1.00  0.00    -0.003 C 
ATOM     12  C   UNL     1     -26.204 -13.820  17.704  1.00  0.00     0.004 C 
ENDBRANCH  10  11
ENDBRANCH   9  10
ENDBRANCH   8   9
ENDBRANCH   7   8
ENDBRANCH   6   7
ENDBRANCH   5   6
ENDBRANCH   4   5
ENDBRANCH   3   4
ENDBRANCH   2   3
ENDBRANCH   1   2
BRANCH   1  13
ATOM     13  C   UNL     1     -32.320 -18.490  15.711  1.00  0.00     0.000 C 
BRANCH  13  14
ATOM     14  C   UNL     1     -32.352 -17.782  17.076  1.00  0.00     0.000 C 
BRANCH  14  15
ATOM     15  C   UNL     1     -33.183 -16.487  17.060  1.00  0.00     0.000 C 
BRANCH  15  16
ATOM     16  C   UNL     1     -33.560 -15.970  15.657  1.00  0.00     0.000 C 
BRANCH  16  17
ATOM     17  C   UNL     1     -33.570 -14.435  15.506  1.00  0.00     0.000 C 
BRANCH  17  18
ATOM     18  C   UNL     1     -33.916 -13.656  16.792  1.00  0.00     0.000 C 
BRANCH  18  19
ATOM     19  C   UNL     1     -35.283 -12.948  16.775  1.00  0.00     0.000 C 
BRANCH  19  20
ATOM     20  C   UNL     1     -35.982 -13.033  15.410  1.00  0.00     0.006 C 
BRANCH  20  21
ATOM     21  C   UNL     1     -37.462 -13.392  15.575  1.00  0.00     0.053 C 
BRANCH  21  22
ATOM     22  C   UNL     1     -37.763 -14.694  14.902  1.00  0.00     0.041 C 
ATOM     23  O   UNL     1     -38.740 -14.789  14.113  1.00  0.00    -0.550 OA
ATOM     24  O   UNL     1     -36.938 -15.791  15.110  1.00  0.00    -0.550 OA
ENDBRANCH  21  22
ENDBRANCH  20  21
ENDBRANCH  19  20
ENDBRANCH  18  19
ENDBRANCH  17  18
ENDBRANCH  16  17
ENDBRANCH  15  16
ENDBRANCH  14  15
ENDBRANCH  13  14
ENDBRANCH   1  13
TORSDOF 20
ENDMDL
MODEL 8
REMARK VINA RESULT:    -4.419      2.492      6.420
REMARK INTER + INTRA:         -12.202
REMARK INTER:                  -9.595
REMARK INTRA:                  -2.607
REMARK UNBOUND:                -2.616
REMARK SMILES CCCCCCCCCCCCCCCCCCCCCC(=O)[O-]
REMARK SMILES IDX 12 1 11 2 10 3 9 4 8 5 7 6 6 7 5 8 4 9 3 10 2 11 1 12 13 13
REMARK SMILES IDX 14 14 15 15 16 16 17 17 18 18 19 19 20 20 21 21 22 22 23 23
REMARK SMILES IDX 24 24
REMARK H PARENT
REMARK Flexibility Score: inf
ROOT
ATOM      1  C   UNL     1     -29.487 -12.708  16.399  1.00  0.00     0.000 C 
ENDROOT
BRANCH   1   2
ATOM      2  C   UNL     1     -29.241 -11.369  17.115  1.00  0.00     0.000 C 
BRANCH   2   3
ATOM      3  C   UNL     1     -27.855 -11.295  17.779  1.00  0.00     0.000 C 
BRANCH   3   4
ATOM      4  C   UNL     1     -26.663 -11.523  16.828  1.00  0.00    -0.000 C 
BRANCH   4   5
ATOM      5  C   UNL     1     -25.645 -12.583  17.295  1.00  0.00    -0.000 C 
BRANCH   5   6
ATOM      6  C   UNL     1     -26.253 -13.775  18.056  1.00  0.00    -0.000 C 
BRANCH   6   7
ATOM      7  C   UNL     1     -25.933 -15.127  17.401  1.00  0.00    -0.000 C 
BRANCH   7   8
ATOM      8  C   UNL     1     -27.138 -16.076  17.482  1.00  0.00    -0.000 C 
BRANCH   8   9
ATOM      9  C   UNL     1     -26.990 -17.312  16.578  1.00  0.00    -0.000 C 
BRANCH   9  10
ATOM     10  C   UNL     1     -26.528 -18.595  17.298  1.00  0.00    -0.000 C 
BRANCH  10  11
ATOM     11  C   UNL     1     -25.688 -19.555  16.438  1.00  0.00    -0.003 C 
ATOM     12  C   UNL     1     -24.292 -19.802  17.011  1.00  0.00     0.004 C 
ENDBRANCH  10  11
ENDBRANCH   9  10
ENDBRANCH   8   9
ENDBRANCH   7   8
ENDBRANCH   6   7
ENDBRANCH   5   6
ENDBRANCH   4   5
ENDBRANCH   3   4
ENDBRANCH   2   3
ENDBRANCH   1   2
BRANCH   1  13
ATOM     13  C   UNL     1     -29.925 -13.820  17.367  1.00  0.00     0.000 C 
BRANCH  13  14
ATOM     14  C   UNL     1     -31.371 -13.631  17.857  1.00  0.00     0.000 C 
BRANCH  14  15
ATOM     15  C   UNL     1     -32.177 -14.942  17.863  1.00  0.00     0.000 C 
BRANCH  15  16
ATOM     16  C   UNL     1     -32.027 -15.807  16.595  1.00  0.00     0.000 C 
BRANCH  16  17
ATOM     17  C   UNL     1     -30.999 -16.951  16.701  1.00  0.00     0.000 C 
BRANCH  17  18
ATOM     18  C   UNL     1     -30.462 -17.473  15.352  1.00  0.00     0.000 C 
BRANCH  18  19
ATOM     19  C   UNL     1     -29.977 -16.383  14.380  1.00  0.00     0.000 C 
BRANCH  19  20
ATOM     20  C   UNL     1     -29.223 -16.955  13.171  1.00  0.00     0.006 C 
BRANCH  20  21
ATOM     21  C   UNL     1     -28.833 -18.417  13.410  1.00  0.00     0.053 C 
BRANCH  21  22
ATOM     22  C   UNL     1     -27.593 -18.761  12.646  1.00  0.00     0.041 C 
ATOM     23  O   UNL     1     -27.677 -19.298  11.510  1.00  0.00    -0.550 OA
ATOM     24  O   UNL     1     -26.345 -18.446  13.168  1.00  0.00    -0.550 OA
ENDBRANCH  21  22
ENDBRANCH  20  21
ENDBRANCH  19  20
ENDBRANCH  18  19
ENDBRANCH  17  18
ENDBRANCH  16  17
ENDBRANCH  15  16
ENDBRANCH  14  15
ENDBRANCH  13  14
ENDBRANCH   1  13
TORSDOF 20
ENDMDL
MODEL 9
REMARK VINA RESULT:    -4.411      2.377      5.495
REMARK INTER + INTRA:         -12.185
REMARK INTER:                  -9.034
REMARK INTRA:                  -3.150
REMARK UNBOUND:                -2.616
REMARK SMILES CCCCCCCCCCCCCCCCCCCCCC(=O)[O-]
REMARK SMILES IDX 12 1 11 2 10 3 9 4 8 5 7 6 6 7 5 8 4 9 3 10 2 11 1 12 13 13
REMARK SMILES IDX 14 14 15 15 16 16 17 17 18 18 19 19 20 20 21 21 22 22 23 23
REMARK SMILES IDX 24 24
REMARK H PARENT
REMARK Flexibility Score: inf
ROOT
ATOM      1  C   UNL     1     -29.234 -12.481  16.279  1.00  0.00     0.000 C 
ENDROOT
BRANCH   1   2
ATOM      2  C   UNL     1     -30.484 -13.375  16.347  1.00  0.00     0.000 C 
BRANCH   2   3
ATOM      3  C   UNL     1     -30.775 -13.883  17.770  1.00  0.00     0.000 C 
BRANCH   3   4
ATOM      4  C   UNL     1     -32.183 -14.477  17.976  1.00  0.00    -0.000 C 
BRANCH   4   5
ATOM      5  C   UNL     1     -33.341 -13.623  17.424  1.00  0.00    -0.000 C 
BRANCH   5   6
ATOM      6  C   UNL     1     -34.138 -14.272  16.279  1.00  0.00    -0.000 C 
BRANCH   6   7
ATOM      7  C   UNL     1     -34.205 -15.803  16.390  1.00  0.00    -0.000 C 
BRANCH   7   8
ATOM      8  C   UNL     1     -33.577 -16.471  15.158  1.00  0.00    -0.000 C 
BRANCH   8   9
ATOM      9  C   UNL     1     -32.573 -17.578  15.522  1.00  0.00    -0.000 C 
BRANCH   9  10
ATOM     10  C   UNL     1     -31.106 -17.116  15.637  1.00  0.00    -0.000 C 
BRANCH  10  11
ATOM     11  C   UNL     1     -30.533 -16.453  14.373  1.00  0.00    -0.003 C 
ATOM     12  C   UNL     1     -30.291 -17.446  13.237  1.00  0.00     0.004 C 
ENDBRANCH  10  11
ENDBRANCH   9  10
ENDBRANCH   8   9
ENDBRANCH   7   8
ENDBRANCH   6   7
ENDBRANCH   5   6
ENDBRANCH   4   5
ENDBRANCH   3   4
ENDBRANCH   2   3
ENDBRANCH   1   2
BRANCH   1  13
ATOM     13  C   UNL     1     -29.233 -11.388  17.360  1.00  0.00     0.000 C 
BRANCH  13  14
ATOM     14  C   UNL     1     -27.821 -10.849  17.646  1.00  0.00     0.000 C 
BRANCH  14  15
ATOM     15  C   UNL     1     -26.776 -11.337  16.627  1.00  0.00     0.000 C 
BRANCH  15  16
ATOM     16  C   UNL     1     -25.606 -12.143  17.227  1.00  0.00     0.000 C 
BRANCH  16  17
ATOM     17  C   UNL     1     -26.018 -13.337  18.110  1.00  0.00     0.000 C 
BRANCH  17  18
ATOM     18  C   UNL     1     -26.049 -14.701  17.391  1.00  0.00     0.000 C 
BRANCH  18  19
ATOM     19  C   UNL     1     -26.903 -15.781  18.079  1.00  0.00     0.000 C 
BRANCH  19  20
ATOM     20  C   UNL     1     -27.925 -16.427  17.133  1.00  0.00     0.006 C 
BRANCH  20  21
ATOM     21  C   UNL     1     -27.708 -17.940  17.044  1.00  0.00     0.053 C 
BRANCH  21  22
ATOM     22  C   UNL     1     -26.845 -18.278  15.869  1.00  0.00     0.041 C 
ATOM     23  O   UNL     1     -27.364 -18.696  14.800  1.00  0.00    -0.550 OA
ATOM     24  O   UNL     1     -25.471 -18.087  15.937  1.00  0.00    -0.550 OA
ENDBRANCH  21  22
ENDBRANCH  20  21
ENDBRANCH  19  20
ENDBRANCH  18  19
ENDBRANCH  17  18
ENDBRANCH  16  17
ENDBRANCH  15  16
ENDBRANCH  14  15
ENDBRANCH  13  14
ENDBRANCH   1  13
TORSDOF 20
ENDMDL
