MODEL 1
REMARK VINA RESULT:    -4.694      0.000      0.000
REMARK INTER + INTRA:          -4.831
REMARK INTER:                  -4.831
REMARK INTRA:                   0.000
REMARK UNBOUND:                 0.000
REMARK SMILES Cc1ccccc1O
REMARK SMILES IDX 1 1 2 2 3 3 4 4 5 5 6 6 7 7 8 8
REMARK H PARENT 8 9
REMARK Flexibility Score: inf
ROOT
ATOM      1  C   UNL     1      38.988  14.378  53.107  1.00  0.00     0.048 C 
ATOM      2  C   UNL     1      40.096  14.800  52.180  1.00  0.00    -0.009 A 
ATOM      3  C   UNL     1      40.266  16.162  51.876  1.00  0.00     0.007 A 
ATOM      4  C   UNL     1      41.288  16.574  51.017  1.00  0.00     0.001 A 
ATOM      5  C   UNL     1      42.150  15.633  50.454  1.00  0.00     0.004 A 
ATOM      6  C   UNL     1      41.993  14.277  50.747  1.00  0.00     0.046 A 
ATOM      7  C   UNL     1      40.973  13.850  51.607  1.00  0.00     0.118 A 
ENDROOT
BRANCH   7   8
ATOM      8  O   UNL     1      40.857  12.483  51.868  1.00  0.00    -0.508 OA
ATOM      9  H   UNL     1      41.458  11.994  52.520  1.00  0.00     0.293 HD
ENDBRANCH   7   8
TORSDOF 1
ENDMDL
MODEL 2
REMARK VINA RESULT:    -4.530      0.757      2.593
REMARK INTER + INTRA:          -4.663
REMARK INTER:                  -4.663
REMARK INTRA:                   0.000
REMARK UNBOUND:                 0.000
REMARK SMILES Cc1ccccc1O
REMARK SMILES IDX 1 1 2 2 3 3 4 4 5 5 6 6 7 7 8 8
REMARK H PARENT 8 9
REMARK Flexibility Score: inf
ROOT
ATOM      1  C   UNL     1      42.366  14.734  50.454  1.00  0.00     0.048 C 
ATOM      2  C   UNL     1      41.172  14.928  51.348  1.00  0.00    -0.009 A 
ATOM      3  C   UNL     1      40.748  16.231  51.668  1.00  0.00     0.007 A 
ATOM      4  C   UNL     1      39.642  16.432  52.496  1.00  0.00     0.001 A 
ATOM      5  C   UNL     1      38.945  15.339  53.013  1.00  0.00     0.004 A 
ATOM      6  C   UNL     1      39.355  14.040  52.703  1.00  0.00     0.046 A 
ATOM      7  C   UNL     1      40.463  13.823  51.873  1.00  0.00     0.118 A 
ENDROOT
BRANCH   7   8
ATOM      8  O   UNL     1      40.832  12.506  51.593  1.00  0.00    -0.508 OA
ATOM      9  H   UNL     1      41.562  12.019  52.098  1.00  0.00     0.293 HD
ENDBRANCH   7   8
TORSDOF 1
ENDMDL
MODEL 3
REMARK VINA RESULT:    -4.371     13.383     14.111
REMARK INTER + INTRA:          -4.498
REMARK INTER:                  -4.498
REMARK INTRA:                   0.000
REMARK UNBOUND:                 0.000
REMARK SMILES Cc1ccccc1O
REMARK SMILES IDX 1 1 2 2 3 3 4 4 5 5 6 6 7 7 8 8
REMARK H PARENT 8 9
REMARK Flexibility Score: inf
ROOT
ATOM      1  C   UNL     1      39.318  23.405  62.148  1.00  0.00     0.048 C 
ATOM      2  C   UNL     1      40.566  22.704  62.612  1.00  0.00    -0.009 A 
ATOM      3  C   UNL     1      40.883  21.435  62.096  1.00  0.00     0.007 A 
ATOM      4  C   UNL     1      42.037  20.768  62.515  1.00  0.00     0.001 A 
ATOM      5  C   UNL     1      42.887  21.360  63.449  1.00  0.00     0.004 A 
ATOM      6  C   UNL     1      42.584  22.620  63.970  1.00  0.00     0.046 A 
ATOM      7  C   UNL     1      41.431  23.300  63.560  1.00  0.00     0.118 A 
ENDROOT
BRANCH   7   8
ATOM      8  O   UNL     1      41.173  24.557  64.109  1.00  0.00    -0.508 OA
ATOM      9  H   UNL     1      41.875  25.101  64.596  1.00  0.00     0.293 HD
ENDBRANCH   7   8
TORSDOF 1
ENDMDL
MODEL 4
REMARK VINA RESULT:    -4.326      1.660      2.766
REMARK INTER + INTRA:          -4.452
REMARK INTER:                  -4.452
REMARK INTRA:                   0.000
REMARK UNBOUND:                 0.000
REMARK SMILES Cc1ccccc1O
REMARK SMILES IDX 1 1 2 2 3 3 4 4 5 5 6 6 7 7 8 8
REMARK H PARENT 8 9
REMARK Flexibility Score: inf
ROOT
ATOM      1  C   UNL     1      40.916  17.576  51.508  1.00  0.00     0.048 C 
ATOM      2  C   UNL     1      40.798  16.077  51.563  1.00  0.00    -0.009 A 
ATOM      3  C   UNL     1      39.773  15.489  52.324  1.00  0.00     0.007 A 
ATOM      4  C   UNL     1      39.646  14.099  52.388  1.00  0.00     0.001 A 
ATOM      5  C   UNL     1      40.539  13.282  51.693  1.00  0.00     0.004 A 
ATOM      6  C   UNL     1      41.562  13.854  50.933  1.00  0.00     0.046 A 
ATOM      7  C   UNL     1      41.701  15.246  50.860  1.00  0.00     0.118 A 
ENDROOT
BRANCH   7   8
ATOM      8  O   UNL     1      42.739  15.768  50.086  1.00  0.00    -0.508 OA
ATOM      9  H   UNL     1      43.001  15.387  49.185  1.00  0.00     0.293 HD
ENDBRANCH   7   8
TORSDOF 1
ENDMDL
MODEL 5
REMARK VINA RESULT:    -4.299      1.757      2.820
REMARK INTER + INTRA:          -4.424
REMARK INTER:                  -4.424
REMARK INTRA:                   0.000
REMARK UNBOUND:                 0.000
REMARK SMILES Cc1ccccc1O
REMARK SMILES IDX 1 1 2 2 3 3 4 4 5 5 6 6 7 7 8 8
REMARK H PARENT 8 9
REMARK Flexibility Score: inf
ROOT
ATOM      1  C   UNL     1      40.698  18.333  51.413  1.00  0.00     0.048 C 
ATOM      2  C   UNL     1      41.091  16.891  51.245  1.00  0.00    -0.009 A 
ATOM      3  C   UNL     1      41.939  16.520  50.186  1.00  0.00     0.007 A 
ATOM      4  C   UNL     1      42.315  15.186  50.013  1.00  0.00     0.001 A 
ATOM      5  C   UNL     1      41.851  14.208  50.894  1.00  0.00     0.004 A 
ATOM      6  C   UNL     1      41.009  14.563  51.950  1.00  0.00     0.046 A 
ATOM      7  C   UNL     1      40.624  15.896  52.136  1.00  0.00     0.118 A 
ENDROOT
BRANCH   7   8
ATOM      8  O   UNL     1      39.780  16.199  53.207  1.00  0.00    -0.508 OA
ATOM      9  H   UNL     1      39.471  17.140  53.416  1.00  0.00     0.293 HD
ENDBRANCH   7   8
TORSDOF 1
ENDMDL
MODEL 6
REMARK VINA RESULT:    -4.296      2.002      3.013
REMARK INTER + INTRA:          -4.422
REMARK INTER:                  -4.422
REMARK INTRA:                   0.000
REMARK UNBOUND:                 0.000
REMARK SMILES Cc1ccccc1O
REMARK SMILES IDX 1 1 2 2 3 3 4 4 5 5 6 6 7 7 8 8
REMARK H PARENT 8 9
REMARK Flexibility Score: inf
ROOT
ATOM      1  C   UNL     1      41.604  13.986  51.152  1.00  0.00     0.048 C 
ATOM      2  C   UNL     1      41.234  15.423  51.399  1.00  0.00    -0.009 A 
ATOM      3  C   UNL     1      40.523  15.767  52.563  1.00  0.00     0.007 A 
ATOM      4  C   UNL     1      40.169  17.096  52.810  1.00  0.00     0.001 A 
ATOM      5  C   UNL     1      40.522  18.095  51.902  1.00  0.00     0.004 A 
ATOM      6  C   UNL     1      41.228  17.767  50.743  1.00  0.00     0.046 A 
ATOM      7  C   UNL     1      41.589  16.439  50.482  1.00  0.00     0.118 A 
ENDROOT
BRANCH   7   8
ATOM      8  O   UNL     1      42.295  16.163  49.309  1.00  0.00    -0.508 OA
ATOM      9  H   UNL     1      43.262  16.430  49.172  1.00  0.00     0.293 HD
ENDBRANCH   7   8
TORSDOF 1
ENDMDL
MODEL 7
REMARK VINA RESULT:    -4.157      2.325      2.960
REMARK INTER + INTRA:          -4.279
REMARK INTER:                  -4.279
REMARK INTRA:                   0.000
REMARK UNBOUND:                 0.000
REMARK SMILES Cc1ccccc1O
REMARK SMILES IDX 1 1 2 2 3 3 4 4 5 5 6 6 7 7 8 8
REMARK H PARENT 8 9
REMARK Flexibility Score: inf
ROOT
ATOM      1  C   UNL     1      39.560  17.239  52.740  1.00  0.00     0.048 C 
ATOM      2  C   UNL     1      40.515  16.427  51.907  1.00  0.00    -0.009 A 
ATOM      3  C   UNL     1      40.764  15.085  52.246  1.00  0.00     0.007 A 
ATOM      4  C   UNL     1      41.647  14.314  51.486  1.00  0.00     0.001 A 
ATOM      5  C   UNL     1      42.288  14.872  50.379  1.00  0.00     0.004 A 
ATOM      6  C   UNL     1      42.049  16.204  50.032  1.00  0.00     0.046 A 
ATOM      7  C   UNL     1      41.167  16.988  50.785  1.00  0.00     0.118 A 
ENDROOT
BRANCH   7   8
ATOM      8  O   UNL     1      40.962  18.313  50.396  1.00  0.00    -0.508 OA
ATOM      9  H   UNL     1      41.459  18.745  49.627  1.00  0.00     0.293 HD
ENDBRANCH   7   8
TORSDOF 1
ENDMDL
MODEL 8
REMARK VINA RESULT:    -4.091     13.255     14.114
REMARK INTER + INTRA:          -4.210
REMARK INTER:                  -4.210
REMARK INTRA:                   0.000
REMARK UNBOUND:                 0.000
REMARK SMILES Cc1ccccc1O
REMARK SMILES IDX 1 1 2 2 3 3 4 4 5 5 6 6 7 7 8 8
REMARK H PARENT 8 9
REMARK Flexibility Score: inf
ROOT
ATOM      1  C   UNL     1      42.125  22.225  63.886  1.00  0.00     0.048 C 
ATOM      2  C   UNL     1      41.018  22.650  62.960  1.00  0.00    -0.009 A 
ATOM      3  C   UNL     1      40.561  21.762  61.970  1.00  0.00     0.007 A 
ATOM      4  C   UNL     1      39.534  22.138  61.100  1.00  0.00     0.001 A 
ATOM      5  C   UNL     1      38.953  23.401  61.209  1.00  0.00     0.004 A 
ATOM      6  C   UNL     1      39.397  24.293  62.187  1.00  0.00     0.046 A 
ATOM      7  C   UNL     1      40.425  23.930  63.066  1.00  0.00     0.118 A 
ENDROOT
BRANCH   7   8
ATOM      8  O   UNL     1      40.833  24.858  64.027  1.00  0.00    -0.508 OA
ATOM      9  H   UNL     1      41.173  24.589  64.942  1.00  0.00     0.293 HD
ENDBRANCH   7   8
TORSDOF 1
ENDMDL
MODEL 9
REMARK VINA RESULT:    -4.086     12.926     13.699
REMARK INTER + INTRA:          -4.206
REMARK INTER:                  -4.206
REMARK INTRA:                   0.000
REMARK UNBOUND:                 0.000
REMARK SMILES Cc1ccccc1O
REMARK SMILES IDX 1 1 2 2 3 3 4 4 5 5 6 6 7 7 8 8
REMARK H PARENT 8 9
REMARK Flexibility Score: inf
ROOT
ATOM      1  C   UNL     1      43.358  21.497  63.787  1.00  0.00     0.048 C 
ATOM      2  C   UNL     1      42.091  22.143  63.296  1.00  0.00    -0.009 A 
ATOM      3  C   UNL     1      41.668  23.360  63.859  1.00  0.00     0.007 A 
ATOM      4  C   UNL     1      40.494  23.976  63.417  1.00  0.00     0.001 A 
ATOM      5  C   UNL     1      39.732  23.385  62.409  1.00  0.00     0.004 A 
ATOM      6  C   UNL     1      40.140  22.176  61.841  1.00  0.00     0.046 A 
ATOM      7  C   UNL     1      41.314  21.548  62.274  1.00  0.00     0.118 A 
ENDROOT
BRANCH   7   8
ATOM      8  O   UNL     1      41.680  20.341  61.675  1.00  0.00    -0.508 OA
ATOM      9  H   UNL     1      41.519  20.141  60.695  1.00  0.00     0.293 HD
ENDBRANCH   7   8
TORSDOF 1
ENDMDL
