MODEL 1
REMARK VINA RESULT:    -4.362      0.000      0.000
REMARK INTER + INTRA:          -5.340
REMARK INTER:                  -4.999
REMARK INTRA:                  -0.341
REMARK UNBOUND:                -0.341
REMARK SMILES COc1ccc(C(C)=O)c(O)c1
REMARK SMILES IDX 6 1 10 2 12 3 3 4 4 5 5 6 7 7 8 8 9 9 11 10 2 12 1 13
REMARK H PARENT 11 11
REMARK Flexibility Score: inf
ROOT
ATOM      1  C   UNL     1      22.073  29.742  17.753  1.00  0.00     0.059 A 
ATOM      2  C   UNL     1      21.808  30.636  16.690  1.00  0.00     0.130 A 
ATOM      3  C   UNL     1      22.316  30.370  15.409  1.00  0.00     0.093 A 
ATOM      4  C   UNL     1      23.072  29.221  15.159  1.00  0.00     0.122 A 
ATOM      5  C   UNL     1      23.320  28.323  16.211  1.00  0.00     0.047 A 
ATOM      6  C   UNL     1      22.823  28.582  17.490  1.00  0.00     0.019 A 
ENDROOT
BRANCH   1   7
ATOM      7  C   UNL     1      21.579  29.976  19.137  1.00  0.00     0.163 C 
ATOM      8  C   UNL     1      22.492  29.996  20.326  1.00  0.00     0.093 C 
ATOM      9  O   UNL     1      20.346  30.164  19.329  1.00  0.00    -0.294 OA
ENDBRANCH   1   7
BRANCH   2  10
ATOM     10  O   UNL     1      21.027  31.773  16.889  1.00  0.00    -0.507 OA
ATOM     11  H   UNL     1      20.508  31.920  17.746  1.00  0.00     0.293 HD
ENDBRANCH   2  10
BRANCH   4  12
ATOM     12  O   UNL     1      23.551  29.008  13.858  1.00  0.00    -0.497 OA
ATOM     13  C   UNL     1      23.661  30.024  12.867  1.00  0.00     0.278 C 
ENDBRANCH   4  12
TORSDOF 3
ENDMDL
MODEL 2
REMARK VINA RESULT:    -4.314      1.865      4.942
REMARK INTER + INTRA:          -5.284
REMARK INTER:                  -5.025
REMARK INTRA:                  -0.259
REMARK UNBOUND:                -0.341
REMARK SMILES COc1ccc(C(C)=O)c(O)c1
REMARK SMILES IDX 6 1 10 2 12 3 3 4 4 5 5 6 7 7 8 8 9 9 11 10 2 12 1 13
REMARK H PARENT 11 11
REMARK Flexibility Score: inf
ROOT
ATOM      1  C   UNL     1      22.445  29.586  17.846  1.00  0.00     0.059 A 
ATOM      2  C   UNL     1      21.322  29.953  18.622  1.00  0.00     0.130 A 
ATOM      3  C   UNL     1      21.491  30.334  19.962  1.00  0.00     0.093 A 
ATOM      4  C   UNL     1      22.761  30.373  20.544  1.00  0.00     0.122 A 
ATOM      5  C   UNL     1      23.880  30.026  19.769  1.00  0.00     0.047 A 
ATOM      6  C   UNL     1      23.721  29.640  18.436  1.00  0.00     0.019 A 
ENDROOT
BRANCH   1   7
ATOM      7  C   UNL     1      22.331  29.155  16.427  1.00  0.00     0.163 C 
ATOM      8  C   UNL     1      22.774  30.020  15.285  1.00  0.00     0.093 C 
ATOM      9  O   UNL     1      21.842  28.023  16.162  1.00  0.00    -0.294 OA
ENDBRANCH   1   7
BRANCH   2  10
ATOM     10  O   UNL     1      20.043  29.964  18.069  1.00  0.00    -0.507 OA
ATOM     11  H   UNL     1      19.390  29.204  18.218  1.00  0.00     0.293 HD
ENDBRANCH   2  10
BRANCH   4  12
ATOM     12  O   UNL     1      22.867  30.764  21.887  1.00  0.00    -0.497 OA
ATOM     13  C   UNL     1      23.867  31.644  22.391  1.00  0.00     0.278 C 
ENDBRANCH   4  12
TORSDOF 3
ENDMDL
MODEL 3
REMARK VINA RESULT:    -4.171      1.088      1.973
REMARK INTER + INTRA:          -5.121
REMARK INTER:                  -4.968
REMARK INTRA:                  -0.153
REMARK UNBOUND:                -0.341
REMARK SMILES COc1ccc(C(C)=O)c(O)c1
REMARK SMILES IDX 6 1 10 2 12 3 3 4 4 5 5 6 7 7 8 8 9 9 11 10 2 12 1 13
REMARK H PARENT 11 11
REMARK Flexibility Score: inf
ROOT
ATOM      1  C   UNL     1      21.984  29.811  17.847  1.00  0.00     0.059 A 
ATOM      2  C   UNL     1      22.500  28.557  17.443  1.00  0.00     0.130 A 
ATOM      3  C   UNL     1      22.916  28.366  16.117  1.00  0.00     0.093 A 
ATOM      4  C   UNL     1      22.845  29.405  15.184  1.00  0.00     0.122 A 
ATOM      5  C   UNL     1      22.351  30.655  15.589  1.00  0.00     0.047 A 
ATOM      6  C   UNL     1      21.929  30.854  16.906  1.00  0.00     0.019 A 
ENDROOT
BRANCH   1   7
ATOM      7  C   UNL     1      21.510  30.071  19.233  1.00  0.00     0.163 C 
ATOM      8  C   UNL     1      22.450  30.357  20.365  1.00  0.00     0.093 C 
ATOM      9  O   UNL     1      20.273  30.052  19.477  1.00  0.00    -0.294 OA
ENDBRANCH   1   7
BRANCH   2  10
ATOM     10  O   UNL     1      22.622  27.508  18.352  1.00  0.00    -0.507 OA
ATOM     11  H   UNL     1      21.862  27.242  18.967  1.00  0.00     0.293 HD
ENDBRANCH   2  10
BRANCH   4  12
ATOM     12  O   UNL     1      23.278  29.154  13.874  1.00  0.00    -0.497 OA
ATOM     13  C   UNL     1      23.922  30.114  13.043  1.00  0.00     0.278 C 
ENDBRANCH   4  12
TORSDOF 3
ENDMDL
MODEL 4
REMARK VINA RESULT:    -4.082      1.246      1.371
REMARK INTER + INTRA:          -5.019
REMARK INTER:                  -4.709
REMARK INTRA:                  -0.310
REMARK UNBOUND:                -0.341
REMARK SMILES COc1ccc(C(C)=O)c(O)c1
REMARK SMILES IDX 6 1 10 2 12 3 3 4 4 5 5 6 7 7 8 8 9 9 11 10 2 12 1 13
REMARK H PARENT 11 11
REMARK Flexibility Score: inf
ROOT
ATOM      1  C   UNL     1      22.587  29.759  18.252  1.00  0.00     0.059 A 
ATOM      2  C   UNL     1      21.471  30.055  17.435  1.00  0.00     0.130 A 
ATOM      3  C   UNL     1      21.648  30.282  16.062  1.00  0.00     0.093 A 
ATOM      4  C   UNL     1      22.916  30.204  15.478  1.00  0.00     0.122 A 
ATOM      5  C   UNL     1      24.022  29.892  16.284  1.00  0.00     0.047 A 
ATOM      6  C   UNL     1      23.857  29.669  17.653  1.00  0.00     0.019 A 
ENDROOT
BRANCH   1   7
ATOM      7  C   UNL     1      22.468  29.526  19.716  1.00  0.00     0.163 C 
ATOM      8  C   UNL     1      23.420  28.649  20.472  1.00  0.00     0.093 C 
ATOM      9  O   UNL     1      21.533  30.081  20.356  1.00  0.00    -0.294 OA
ENDBRANCH   1   7
BRANCH   2  10
ATOM     10  O   UNL     1      20.186  30.104  17.972  1.00  0.00    -0.507 OA
ATOM     11  H   UNL     1      19.634  29.266  18.114  1.00  0.00     0.293 HD
ENDBRANCH   2  10
BRANCH   4  12
ATOM     12  O   UNL     1      23.030  30.439  14.100  1.00  0.00    -0.497 OA
ATOM     13  C   UNL     1      23.906  29.725  13.233  1.00  0.00     0.278 C 
ENDBRANCH   4  12
TORSDOF 3
ENDMDL
MODEL 5
REMARK VINA RESULT:    -4.059      1.159      5.000
REMARK INTER + INTRA:          -4.993
REMARK INTER:                  -4.693
REMARK INTRA:                  -0.300
REMARK UNBOUND:                -0.341
REMARK SMILES COc1ccc(C(C)=O)c(O)c1
REMARK SMILES IDX 6 1 10 2 12 3 3 4 4 5 5 6 7 7 8 8 9 9 11 10 2 12 1 13
REMARK H PARENT 11 11
REMARK Flexibility Score: inf
ROOT
ATOM      1  C   UNL     1      22.875  29.745  15.581  1.00  0.00     0.059 A 
ATOM      2  C   UNL     1      23.155  28.902  16.681  1.00  0.00     0.130 A 
ATOM      3  C   UNL     1      22.446  29.059  17.881  1.00  0.00     0.093 A 
ATOM      4  C   UNL     1      21.447  30.029  18.006  1.00  0.00     0.122 A 
ATOM      5  C   UNL     1      21.155  30.854  16.907  1.00  0.00     0.047 A 
ATOM      6  C   UNL     1      21.859  30.710  15.710  1.00  0.00     0.019 A 
ENDROOT
BRANCH   1   7
ATOM      7  C   UNL     1      23.603  29.642  14.288  1.00  0.00     0.163 C 
ATOM      8  C   UNL     1      23.744  30.801  13.348  1.00  0.00     0.093 C 
ATOM      9  O   UNL     1      24.125  28.541  13.959  1.00  0.00    -0.294 OA
ENDBRANCH   1   7
BRANCH   2  10
ATOM     10  O   UNL     1      24.116  27.898  16.586  1.00  0.00    -0.507 OA
ATOM     11  H   UNL     1      25.107  28.108  16.542  1.00  0.00     0.293 HD
ENDBRANCH   2  10
BRANCH   4  12
ATOM     12  O   UNL     1      20.771  30.137  19.230  1.00  0.00    -0.497 OA
ATOM     13  C   UNL     1      21.397  30.035  20.505  1.00  0.00     0.278 C 
ENDBRANCH   4  12
TORSDOF 3
ENDMDL
MODEL 6
REMARK VINA RESULT:    -3.933      2.318      5.253
REMARK INTER + INTRA:          -4.848
REMARK INTER:                  -4.545
REMARK INTRA:                  -0.303
REMARK UNBOUND:                -0.341
REMARK SMILES COc1ccc(C(C)=O)c(O)c1
REMARK SMILES IDX 6 1 10 2 12 3 3 4 4 5 5 6 7 7 8 8 9 9 11 10 2 12 1 13
REMARK H PARENT 11 11
REMARK Flexibility Score: inf
ROOT
ATOM      1  C   UNL     1      22.117  29.940  18.118  1.00  0.00     0.059 A 
ATOM      2  C   UNL     1      23.320  29.245  18.385  1.00  0.00     0.130 A 
ATOM      3  C   UNL     1      23.704  28.994  19.711  1.00  0.00     0.093 A 
ATOM      4  C   UNL     1      22.906  29.407  20.782  1.00  0.00     0.122 A 
ATOM      5  C   UNL     1      21.702  30.081  20.517  1.00  0.00     0.047 A 
ATOM      6  C   UNL     1      21.314  30.340  19.201  1.00  0.00     0.019 A 
ENDROOT
BRANCH   1   7
ATOM      7  C   UNL     1      21.664  30.252  16.737  1.00  0.00     0.163 C 
ATOM      8  C   UNL     1      20.787  31.427  16.423  1.00  0.00     0.093 C 
ATOM      9  O   UNL     1      22.023  29.506  15.785  1.00  0.00    -0.294 OA
ENDBRANCH   1   7
BRANCH   2  10
ATOM     10  O   UNL     1      24.125  28.783  17.345  1.00  0.00    -0.507 OA
ATOM     11  H   UNL     1      23.739  28.278  16.556  1.00  0.00     0.293 HD
ENDBRANCH   2  10
BRANCH   4  12
ATOM     12  O   UNL     1      23.341  29.126  22.085  1.00  0.00    -0.497 OA
ATOM     13  C   UNL     1      22.479  28.776  23.163  1.00  0.00     0.278 C 
ENDBRANCH   4  12
TORSDOF 3
ENDMDL
MODEL 7
REMARK VINA RESULT:    -3.913      6.354      9.926
REMARK INTER + INTRA:          -4.825
REMARK INTER:                  -4.507
REMARK INTRA:                  -0.319
REMARK UNBOUND:                -0.341
REMARK SMILES COc1ccc(C(C)=O)c(O)c1
REMARK SMILES IDX 6 1 10 2 12 3 3 4 4 5 5 6 7 7 8 8 9 9 11 10 2 12 1 13
REMARK H PARENT 11 11
REMARK Flexibility Score: inf
ROOT
ATOM      1  C   UNL     1      21.577  29.339  24.503  1.00  0.00     0.059 A 
ATOM      2  C   UNL     1      20.285  28.843  24.792  1.00  0.00     0.130 A 
ATOM      3  C   UNL     1      19.663  29.177  26.005  1.00  0.00     0.093 A 
ATOM      4  C   UNL     1      20.295  30.010  26.933  1.00  0.00     0.122 A 
ATOM      5  C   UNL     1      21.571  30.517  26.638  1.00  0.00     0.047 A 
ATOM      6  C   UNL     1      22.201  30.186  25.436  1.00  0.00     0.019 A 
ENDROOT
BRANCH   1   7
ATOM      7  C   UNL     1      22.297  29.008  23.244  1.00  0.00     0.163 C 
ATOM      8  C   UNL     1      22.703  30.053  22.249  1.00  0.00     0.093 C 
ATOM      9  O   UNL     1      22.581  27.804  22.992  1.00  0.00    -0.294 OA
ENDBRANCH   1   7
BRANCH   2  10
ATOM     10  O   UNL     1      19.604  28.042  23.877  1.00  0.00    -0.507 OA
ATOM     11  H   UNL     1      19.747  27.039  23.836  1.00  0.00     0.293 HD
ENDBRANCH   2  10
BRANCH   4  12
ATOM     12  O   UNL     1      19.622  30.309  28.126  1.00  0.00    -0.497 OA
ATOM     13  C   UNL     1      20.267  30.685  29.339  1.00  0.00     0.278 C 
ENDBRANCH   4  12
TORSDOF 3
ENDMDL
MODEL 8
REMARK VINA RESULT:    -3.852      8.350     10.496
REMARK INTER + INTRA:          -4.755
REMARK INTER:                  -4.414
REMARK INTRA:                  -0.342
REMARK UNBOUND:                -0.341
REMARK SMILES COc1ccc(C(C)=O)c(O)c1
REMARK SMILES IDX 6 1 10 2 12 3 3 4 4 5 5 6 7 7 8 8 9 9 11 10 2 12 1 13
REMARK H PARENT 11 11
REMARK Flexibility Score: inf
ROOT
ATOM      1  C   UNL     1      21.630  27.831  25.441  1.00  0.00     0.059 A 
ATOM      2  C   UNL     1      20.332  28.325  25.179  1.00  0.00     0.130 A 
ATOM      3  C   UNL     1      19.703  29.167  26.109  1.00  0.00     0.093 A 
ATOM      4  C   UNL     1      20.347  29.542  27.291  1.00  0.00     0.122 A 
ATOM      5  C   UNL     1      21.644  29.066  27.544  1.00  0.00     0.047 A 
ATOM      6  C   UNL     1      22.277  28.224  26.627  1.00  0.00     0.019 A 
ENDROOT
BRANCH   1   7
ATOM      7  C   UNL     1      22.344  26.921  24.505  1.00  0.00     0.163 C 
ATOM      8  C   UNL     1      22.970  25.635  24.953  1.00  0.00     0.093 C 
ATOM      9  O   UNL     1      22.433  27.235  23.286  1.00  0.00    -0.294 OA
ENDBRANCH   1   7
BRANCH   2  10
ATOM     10  O   UNL     1      19.670  28.006  23.995  1.00  0.00    -0.507 OA
ATOM     11  H   UNL     1      18.780  28.424  23.751  1.00  0.00     0.293 HD
ENDBRANCH   2  10
BRANCH   4  12
ATOM     12  O   UNL     1      19.668  30.387  28.181  1.00  0.00    -0.497 OA
ATOM     13  C   UNL     1      20.113  30.690  29.500  1.00  0.00     0.278 C 
ENDBRANCH   4  12
TORSDOF 3
ENDMDL
MODEL 9
REMARK VINA RESULT:    -3.744      2.176      3.512
REMARK INTER + INTRA:          -4.632
REMARK INTER:                  -4.320
REMARK INTRA:                  -0.312
REMARK UNBOUND:                -0.341
REMARK SMILES COc1ccc(C(C)=O)c(O)c1
REMARK SMILES IDX 6 1 10 2 12 3 3 4 4 5 5 6 7 7 8 8 9 9 11 10 2 12 1 13
REMARK H PARENT 11 11
REMARK Flexibility Score: inf
ROOT
ATOM      1  C   UNL     1      22.460  29.677  20.421  1.00  0.00     0.059 A 
ATOM      2  C   UNL     1      23.170  28.772  19.599  1.00  0.00     0.130 A 
ATOM      3  C   UNL     1      22.933  28.749  18.216  1.00  0.00     0.093 A 
ATOM      4  C   UNL     1      22.012  29.621  17.630  1.00  0.00     0.122 A 
ATOM      5  C   UNL     1      21.319  30.532  18.443  1.00  0.00     0.047 A 
ATOM      6  C   UNL     1      21.544  30.560  19.821  1.00  0.00     0.019 A 
ENDROOT
BRANCH   1   7
ATOM      7  C   UNL     1      22.653  29.739  21.895  1.00  0.00     0.163 C 
ATOM      8  C   UNL     1      23.200  30.952  22.585  1.00  0.00     0.093 C 
ATOM      9  O   UNL     1      22.350  28.738  22.601  1.00  0.00    -0.294 OA
ENDBRANCH   1   7
BRANCH   2  10
ATOM     10  O   UNL     1      24.125  27.913  20.139  1.00  0.00    -0.507 OA
ATOM     11  H   UNL     1      24.469  27.108  19.629  1.00  0.00     0.293 HD
ENDBRANCH   2  10
BRANCH   4  12
ATOM     12  O   UNL     1      21.818  29.551  16.242  1.00  0.00    -0.497 OA
ATOM     13  C   UNL     1      22.790  29.069  15.319  1.00  0.00     0.278 C 
ENDBRANCH   4  12
TORSDOF 3
ENDMDL
