MODEL 1
REMARK VINA RESULT:    -4.046      0.000      0.000
REMARK INTER + INTRA:          -4.462
REMARK INTER:                  -4.400
REMARK INTRA:                  -0.061
REMARK UNBOUND:                -0.061
REMARK SMILES COc1cc2ccc(=O)oc2cc1O
REMARK SMILES IDX 3 1 13 2 12 3 11 4 5 5 4 6 6 7 7 8 8 9 9 10 10 11 2 12 1 13
REMARK SMILES IDX 14 14
REMARK H PARENT 14 15
REMARK Flexibility Score: inf
ROOT
ATOM      1  C   UNL     1      -4.408 -17.579  -6.541  1.00  0.00     0.161 A 
ATOM      2  C   UNL     1      -5.602 -16.842  -6.489  1.00  0.00     0.161 A 
ATOM      3  C   UNL     1      -6.557 -16.970  -7.507  1.00  0.00     0.098 A 
ATOM      4  C   UNL     1      -6.331 -17.832  -8.582  1.00  0.00     0.142 A 
ATOM      5  C   UNL     1      -5.134 -18.576  -8.642  1.00  0.00     0.022 A 
ATOM      6  C   UNL     1      -4.178 -18.449  -7.626  1.00  0.00     0.062 A 
ATOM      7  C   UNL     1      -4.936 -19.432  -9.731  1.00  0.00     0.019 A 
ATOM      8  C   UNL     1      -5.917 -19.524 -10.718  1.00  0.00     0.094 A 
ATOM      9  C   UNL     1      -7.079 -18.755 -10.591  1.00  0.00     0.336 A 
ATOM     10  O   UNL     1      -7.977 -18.823 -11.471  1.00  0.00    -0.246 OA
ATOM     11  O   UNL     1      -7.243 -17.949  -9.545  1.00  0.00    -0.423 OA
ENDROOT
BRANCH   1  12
ATOM     12  O   UNL     1      -3.479 -17.419  -5.501  1.00  0.00    -0.493 OA
ATOM     13  C   UNL     1      -3.082 -18.455  -4.608  1.00  0.00     0.278 C 
ENDBRANCH   1  12
BRANCH   2  14
ATOM     14  O   UNL     1      -5.831 -15.981  -5.417  1.00  0.00    -0.504 OA
ATOM     15  H   UNL     1      -6.340 -15.112  -5.533  1.00  0.00     0.293 HD
ENDBRANCH   2  14
TORSDOF 2
ENDMDL
MODEL 2
REMARK VINA RESULT:    -3.976      1.232      2.431
REMARK INTER + INTRA:          -4.386
REMARK INTER:                  -4.341
REMARK INTRA:                  -0.045
REMARK UNBOUND:                -0.061
REMARK SMILES COc1cc2ccc(=O)oc2cc1O
REMARK SMILES IDX 3 1 13 2 12 3 11 4 5 5 4 6 6 7 7 8 8 9 9 10 10 11 2 12 1 13
REMARK SMILES IDX 14 14
REMARK H PARENT 14 15
REMARK Flexibility Score: inf
ROOT
ATOM      1  C   UNL     1      -5.420 -17.228  -6.453  1.00  0.00     0.161 A 
ATOM      2  C   UNL     1      -4.263 -17.917  -6.847  1.00  0.00     0.161 A 
ATOM      3  C   UNL     1      -4.244 -18.644  -8.046  1.00  0.00     0.098 A 
ATOM      4  C   UNL     1      -5.378 -18.688  -8.860  1.00  0.00     0.142 A 
ATOM      5  C   UNL     1      -6.546 -17.999  -8.472  1.00  0.00     0.022 A 
ATOM      6  C   UNL     1      -6.566 -17.273  -7.274  1.00  0.00     0.062 A 
ATOM      7  C   UNL     1      -7.665 -18.062  -9.309  1.00  0.00     0.019 A 
ATOM      8  C   UNL     1      -7.596 -18.797 -10.492  1.00  0.00     0.094 A 
ATOM      9  C   UNL     1      -6.404 -19.455 -10.811  1.00  0.00     0.336 A 
ATOM     10  O   UNL     1      -6.320 -20.125 -11.875  1.00  0.00    -0.246 OA
ATOM     11  O   UNL     1      -5.353 -19.379  -9.998  1.00  0.00    -0.423 OA
ENDROOT
BRANCH   1  12
ATOM     12  O   UNL     1      -5.395 -16.515  -5.245  1.00  0.00    -0.493 OA
ATOM     13  C   UNL     1      -6.515 -15.836  -4.684  1.00  0.00     0.278 C 
ENDBRANCH   1  12
BRANCH   2  14
ATOM     14  O   UNL     1      -3.129 -17.874  -6.036  1.00  0.00    -0.504 OA
ATOM     15  H   UNL     1      -3.000 -18.526  -5.270  1.00  0.00     0.293 HD
ENDBRANCH   2  14
TORSDOF 2
ENDMDL
MODEL 3
REMARK VINA RESULT:    -3.893      1.654      5.047
REMARK INTER + INTRA:          -4.296
REMARK INTER:                  -4.249
REMARK INTRA:                  -0.047
REMARK UNBOUND:                -0.061
REMARK SMILES COc1cc2ccc(=O)oc2cc1O
REMARK SMILES IDX 3 1 13 2 12 3 11 4 5 5 4 6 6 7 7 8 8 9 9 10 10 11 2 12 1 13
REMARK SMILES IDX 14 14
REMARK H PARENT 14 15
REMARK Flexibility Score: inf
ROOT
ATOM      1  C   UNL     1      -5.527 -18.572  -8.871  1.00  0.00     0.161 A 
ATOM      2  C   UNL     1      -4.297 -18.203  -8.304  1.00  0.00     0.161 A 
ATOM      3  C   UNL     1      -4.259 -17.379  -7.170  1.00  0.00     0.098 A 
ATOM      4  C   UNL     1      -5.444 -16.918  -6.594  1.00  0.00     0.142 A 
ATOM      5  C   UNL     1      -6.685 -17.285  -7.157  1.00  0.00     0.022 A 
ATOM      6  C   UNL     1      -6.725 -18.108  -8.290  1.00  0.00     0.062 A 
ATOM      7  C   UNL     1      -7.856 -16.809  -6.556  1.00  0.00     0.019 A 
ATOM      8  C   UNL     1      -7.765 -15.992  -5.430  1.00  0.00     0.094 A 
ATOM      9  C   UNL     1      -6.499 -15.671  -4.927  1.00  0.00     0.336 A 
ATOM     10  O   UNL     1      -6.395 -14.935  -3.910  1.00  0.00    -0.246 OA
ATOM     11  O   UNL     1      -5.401 -16.137  -5.516  1.00  0.00    -0.423 OA
ENDROOT
BRANCH   1  12
ATOM     12  O   UNL     1      -5.518 -19.398 -10.006  1.00  0.00    -0.493 OA
ATOM     13  C   UNL     1      -6.527 -19.398 -11.011  1.00  0.00     0.278 C 
ENDBRANCH   1  12
BRANCH   2  14
ATOM     14  O   UNL     1      -3.112 -18.661  -8.877  1.00  0.00    -0.504 OA
ATOM     15  H   UNL     1      -2.734 -18.243  -9.720  1.00  0.00     0.293 HD
ENDBRANCH   2  14
TORSDOF 2
ENDMDL
MODEL 4
REMARK VINA RESULT:    -3.875      2.451      4.086
REMARK INTER + INTRA:          -4.277
REMARK INTER:                  -4.229
REMARK INTRA:                  -0.047
REMARK UNBOUND:                -0.061
REMARK SMILES COc1cc2ccc(=O)oc2cc1O
REMARK SMILES IDX 3 1 13 2 12 3 11 4 5 5 4 6 6 7 7 8 8 9 9 10 10 11 2 12 1 13
REMARK SMILES IDX 14 14
REMARK H PARENT 14 15
REMARK Flexibility Score: inf
ROOT
ATOM      1  C   UNL     1      -6.037 -15.295  -4.223  1.00  0.00     0.161 A 
ATOM      2  C   UNL     1      -4.635 -15.309  -4.149  1.00  0.00     0.161 A 
ATOM      3  C   UNL     1      -3.881 -15.986  -5.118  1.00  0.00     0.098 A 
ATOM      4  C   UNL     1      -4.518 -16.653  -6.166  1.00  0.00     0.142 A 
ATOM      5  C   UNL     1      -5.926 -16.644  -6.249  1.00  0.00     0.022 A 
ATOM      6  C   UNL     1      -6.681 -15.968  -5.281  1.00  0.00     0.062 A 
ATOM      7  C   UNL     1      -6.535 -17.321  -7.311  1.00  0.00     0.019 A 
ATOM      8  C   UNL     1      -5.741 -17.979  -8.250  1.00  0.00     0.094 A 
ATOM      9  C   UNL     1      -4.350 -17.944  -8.104  1.00  0.00     0.336 A 
ATOM     10  O   UNL     1      -3.615 -18.531  -8.941  1.00  0.00    -0.246 OA
ATOM     11  O   UNL     1      -3.796 -17.292  -7.084  1.00  0.00    -0.423 OA
ENDROOT
BRANCH   1  12
ATOM     12  O   UNL     1      -6.752 -14.606  -3.231  1.00  0.00    -0.493 OA
ATOM     13  C   UNL     1      -8.042 -14.033  -3.417  1.00  0.00     0.278 C 
ENDBRANCH   1  12
BRANCH   2  14
ATOM     14  O   UNL     1      -3.997 -14.644  -3.103  1.00  0.00    -0.504 OA
ATOM     15  H   UNL     1      -4.003 -15.011  -2.158  1.00  0.00     0.293 HD
ENDBRANCH   2  14
TORSDOF 2
ENDMDL
MODEL 5
REMARK VINA RESULT:    -3.784      2.231      3.090
REMARK INTER + INTRA:          -4.177
REMARK INTER:                  -4.130
REMARK INTRA:                  -0.047
REMARK UNBOUND:                -0.061
REMARK SMILES COc1cc2ccc(=O)oc2cc1O
REMARK SMILES IDX 3 1 13 2 12 3 11 4 5 5 4 6 6 7 7 8 8 9 9 10 10 11 2 12 1 13
REMARK SMILES IDX 14 14
REMARK H PARENT 14 15
REMARK Flexibility Score: inf
ROOT
ATOM      1  C   UNL     1      -4.671 -15.497  -4.074  1.00  0.00     0.161 A 
ATOM      2  C   UNL     1      -6.066 -15.390  -4.180  1.00  0.00     0.161 A 
ATOM      3  C   UNL     1      -6.736 -15.942  -5.282  1.00  0.00     0.098 A 
ATOM      4  C   UNL     1      -6.022 -16.603  -6.282  1.00  0.00     0.142 A 
ATOM      5  C   UNL     1      -4.618 -16.715  -6.183  1.00  0.00     0.022 A 
ATOM      6  C   UNL     1      -3.947 -16.164  -5.084  1.00  0.00     0.062 A 
ATOM      7  C   UNL     1      -3.930 -17.383  -7.201  1.00  0.00     0.019 A 
ATOM      8  C   UNL     1      -4.643 -17.915  -8.276  1.00  0.00     0.094 A 
ATOM      9  C   UNL     1      -6.033 -17.765  -8.306  1.00  0.00     0.336 A 
ATOM     10  O   UNL     1      -6.696 -18.238  -9.268  1.00  0.00    -0.246 OA
ATOM     11  O   UNL     1      -6.664 -17.126  -7.325  1.00  0.00    -0.423 OA
ENDROOT
BRANCH   1  12
ATOM     12  O   UNL     1      -4.041 -14.929  -2.955  1.00  0.00    -0.493 OA
ATOM     13  C   UNL     1      -2.690 -14.478  -2.932  1.00  0.00     0.278 C 
ENDBRANCH   1  12
BRANCH   2  14
ATOM     14  O   UNL     1      -6.782 -14.731  -3.183  1.00  0.00    -0.504 OA
ATOM     15  H   UNL     1      -7.507 -14.058  -3.406  1.00  0.00     0.293 HD
ENDBRANCH   2  14
TORSDOF 2
ENDMDL
MODEL 6
REMARK VINA RESULT:    -3.754      2.185      5.702
REMARK INTER + INTRA:          -4.145
REMARK INTER:                  -4.088
REMARK INTRA:                  -0.057
REMARK UNBOUND:                -0.061
REMARK SMILES COc1cc2ccc(=O)oc2cc1O
REMARK SMILES IDX 3 1 13 2 12 3 11 4 5 5 4 6 6 7 7 8 8 9 9 10 10 11 2 12 1 13
REMARK SMILES IDX 14 14
REMARK H PARENT 14 15
REMARK Flexibility Score: inf
ROOT
ATOM      1  C   UNL     1      -4.712 -18.422  -6.960  1.00  0.00     0.161 A 
ATOM      2  C   UNL     1      -5.288 -17.167  -7.206  1.00  0.00     0.161 A 
ATOM      3  C   UNL     1      -4.963 -16.067  -6.399  1.00  0.00     0.098 A 
ATOM      4  C   UNL     1      -4.062 -16.211  -5.342  1.00  0.00     0.142 A 
ATOM      5  C   UNL     1      -3.477 -17.470  -5.087  1.00  0.00     0.022 A 
ATOM      6  C   UNL     1      -3.801 -18.569  -5.893  1.00  0.00     0.062 A 
ATOM      7  C   UNL     1      -2.577 -17.582  -4.023  1.00  0.00     0.019 A 
ATOM      8  C   UNL     1      -2.285 -16.459  -3.249  1.00  0.00     0.094 A 
ATOM      9  C   UNL     1      -2.904 -15.244  -3.561  1.00  0.00     0.336 A 
ATOM     10  O   UNL     1      -2.654 -14.217  -2.876  1.00  0.00    -0.246 OA
ATOM     11  O   UNL     1      -3.756 -15.163  -4.580  1.00  0.00    -0.423 OA
ENDROOT
BRANCH   1  12
ATOM     12  O   UNL     1      -5.067 -19.495  -7.792  1.00  0.00    -0.493 OA
ATOM     13  C   UNL     1      -4.322 -19.912  -8.932  1.00  0.00     0.278 C 
ENDBRANCH   1  12
BRANCH   2  14
ATOM     14  O   UNL     1      -6.189 -17.020  -8.259  1.00  0.00    -0.504 OA
ATOM     15  H   UNL     1      -5.958 -16.477  -9.084  1.00  0.00     0.293 HD
ENDBRANCH   2  14
TORSDOF 2
ENDMDL
MODEL 7
REMARK VINA RESULT:    -3.699      2.269      3.359
REMARK INTER + INTRA:          -4.084
REMARK INTER:                  -4.036
REMARK INTRA:                  -0.048
REMARK UNBOUND:                -0.061
REMARK SMILES COc1cc2ccc(=O)oc2cc1O
REMARK SMILES IDX 3 1 13 2 12 3 11 4 5 5 4 6 6 7 7 8 8 9 9 10 10 11 2 12 1 13
REMARK SMILES IDX 14 14
REMARK H PARENT 14 15
REMARK Flexibility Score: inf
ROOT
ATOM      1  C   UNL     1      -6.569 -16.321  -5.881  1.00  0.00     0.161 A 
ATOM      2  C   UNL     1      -5.211 -16.116  -5.590  1.00  0.00     0.161 A 
ATOM      3  C   UNL     1      -4.220 -16.747  -6.355  1.00  0.00     0.098 A 
ATOM      4  C   UNL     1      -4.574 -17.585  -7.414  1.00  0.00     0.142 A 
ATOM      5  C   UNL     1      -5.936 -17.797  -7.714  1.00  0.00     0.022 A 
ATOM      6  C   UNL     1      -6.928 -17.168  -6.949  1.00  0.00     0.062 A 
ATOM      7  C   UNL     1      -6.260 -18.642  -8.781  1.00  0.00     0.019 A 
ATOM      8  C   UNL     1      -5.237 -19.245  -9.512  1.00  0.00     0.094 A 
ATOM      9  C   UNL     1      -3.909 -18.988  -9.157  1.00  0.00     0.336 A 
ATOM     10  O   UNL     1      -2.970 -19.523  -9.805  1.00  0.00    -0.246 OA
ATOM     11  O   UNL     1      -3.628 -18.180  -8.138  1.00  0.00    -0.423 OA
ENDROOT
BRANCH   1  12
ATOM     12  O   UNL     1      -7.527 -15.671  -5.088  1.00  0.00    -0.493 OA
ATOM     13  C   UNL     1      -8.801 -15.239  -5.555  1.00  0.00     0.278 C 
ENDBRANCH   1  12
BRANCH   2  14
ATOM     14  O   UNL     1      -4.854 -15.280  -4.534  1.00  0.00    -0.504 OA
ATOM     15  H   UNL     1      -5.095 -15.503  -3.575  1.00  0.00     0.293 HD
ENDBRANCH   2  14
TORSDOF 2
ENDMDL
MODEL 8
REMARK VINA RESULT:    -3.668      1.949      5.085
REMARK INTER + INTRA:          -4.051
REMARK INTER:                  -4.002
REMARK INTRA:                  -0.049
REMARK UNBOUND:                -0.061
REMARK SMILES COc1cc2ccc(=O)oc2cc1O
REMARK SMILES IDX 3 1 13 2 12 3 11 4 5 5 4 6 6 7 7 8 8 9 9 10 10 11 2 12 1 13
REMARK SMILES IDX 14 14
REMARK H PARENT 14 15
REMARK Flexibility Score: inf
ROOT
ATOM      1  C   UNL     1      -5.210 -17.878  -8.156  1.00  0.00     0.161 A 
ATOM      2  C   UNL     1      -6.594 -17.791  -7.940  1.00  0.00     0.161 A 
ATOM      3  C   UNL     1      -7.096 -17.091  -6.833  1.00  0.00     0.098 A 
ATOM      4  C   UNL     1      -6.223 -16.473  -5.936  1.00  0.00     0.142 A 
ATOM      5  C   UNL     1      -4.830 -16.554  -6.146  1.00  0.00     0.022 A 
ATOM      6  C   UNL     1      -4.327 -17.253  -7.251  1.00  0.00     0.062 A 
ATOM      7  C   UNL     1      -3.981 -15.923  -5.231  1.00  0.00     0.019 A 
ATOM      8  C   UNL     1      -4.529 -15.238  -4.146  1.00  0.00     0.094 A 
ATOM      9  C   UNL     1      -5.920 -15.200  -4.003  1.00  0.00     0.336 A 
ATOM     10  O   UNL     1      -6.435 -14.587  -3.031  1.00  0.00    -0.246 OA
ATOM     11  O   UNL     1      -6.706 -15.808  -4.888  1.00  0.00    -0.423 OA
ENDROOT
BRANCH   1  12
ATOM     12  O   UNL     1      -4.752 -18.590  -9.276  1.00  0.00    -0.493 OA
ATOM     13  C   UNL     1      -3.540 -19.336  -9.316  1.00  0.00     0.278 C 
ENDBRANCH   1  12
BRANCH   2  14
ATOM     14  O   UNL     1      -7.468 -18.408  -8.833  1.00  0.00    -0.504 OA
ATOM     15  H   UNL     1      -8.364 -17.996  -9.070  1.00  0.00     0.293 HD
ENDBRANCH   2  14
TORSDOF 2
ENDMDL
