MODEL 1
REMARK VINA RESULT:    -1.992      0.000      0.000
REMARK INTER + INTRA:          -5.673
REMARK INTER:                  -3.506
REMARK INTRA:                  -2.167
REMARK UNBOUND:                -2.167
REMARK SMILES CCCCCCCCCCCCCCC(=O)[O-]
REMARK SMILES IDX 9 1 10 2 11 3 12 4 13 5 14 6 15 7 16 8 17 9 8 10 7 11 6 12
REMARK SMILES IDX 5 13 4 14 3 15 2 16 1 17
REMARK H PARENT
REMARK Flexibility Score: inf
ROOT
ATOM      1  C   UNL     1      20.791   3.327  20.648  1.00  0.00     0.000 C 
ENDROOT
BRANCH   1   2
ATOM      2  C   UNL     1      19.800   3.438  19.470  1.00  0.00     0.000 C 
BRANCH   2   3
ATOM      3  C   UNL     1      19.950   2.313  18.432  1.00  0.00     0.000 C 
BRANCH   3   4
ATOM      4  C   UNL     1      21.134   2.536  17.476  1.00  0.00     0.000 C 
BRANCH   4   5
ATOM      5  C   UNL     1      21.162   3.958  16.893  1.00  0.00     0.006 C 
BRANCH   5   6
ATOM      6  C   UNL     1      22.477   4.690  17.191  1.00  0.00     0.053 C 
BRANCH   6   7
ATOM      7  C   UNL     1      22.232   6.158  17.348  1.00  0.00     0.041 C 
ATOM      8  O   UNL     1      21.144   6.571  17.829  1.00  0.00    -0.550 OA
ATOM      9  O   UNL     1      23.224   7.069  17.008  1.00  0.00    -0.550 OA
ENDBRANCH   6   7
ENDBRANCH   5   6
ENDBRANCH   4   5
ENDBRANCH   3   4
ENDBRANCH   2   3
ENDBRANCH   1   2
BRANCH   1  10
ATOM     10  C   UNL     1      21.782   4.500  20.688  1.00  0.00     0.000 C 
BRANCH  10  11
ATOM     11  C   UNL     1      23.219   4.001  20.882  1.00  0.00    -0.000 C 
BRANCH  11  12
ATOM     12  C   UNL     1      23.328   2.503  20.561  1.00  0.00    -0.000 C 
BRANCH  12  13
ATOM     13  C   UNL     1      24.708   2.113  20.005  1.00  0.00    -0.000 C 
BRANCH  13  14
ATOM     14  C   UNL     1      24.761   2.163  18.469  1.00  0.00    -0.000 C 
BRANCH  14  15
ATOM     15  C   UNL     1      26.125   2.635  17.941  1.00  0.00    -0.000 C 
BRANCH  15  16
ATOM     16  C   UNL     1      26.086   4.070  17.395  1.00  0.00    -0.003 C 
ATOM     17  C   UNL     1      26.035   5.088  18.530  1.00  0.00     0.004 C 
ENDBRANCH  15  16
ENDBRANCH  14  15
ENDBRANCH  13  14
ENDBRANCH  12  13
ENDBRANCH  11  12
ENDBRANCH  10  11
ENDBRANCH   1  10
TORSDOF 13
ENDMDL
MODEL 2
REMARK VINA RESULT:    -1.945     21.867     23.893
REMARK INTER + INTRA:          -5.591
REMARK INTER:                  -5.491
REMARK INTRA:                  -0.100
REMARK UNBOUND:                -2.167
REMARK SMILES CCCCCCCCCCCCCCC(=O)[O-]
REMARK SMILES IDX 9 1 10 2 11 3 12 4 13 5 14 6 15 7 16 8 17 9 8 10 7 11 6 12
REMARK SMILES IDX 5 13 4 14 3 15 2 16 1 17
REMARK H PARENT
REMARK Flexibility Score: inf
ROOT
ATOM      1  C   UNL     1       7.094   9.484  34.755  1.00  0.00     0.000 C 
ENDROOT
BRANCH   1   2
ATOM      2  C   UNL     1       5.878  10.040  35.526  1.00  0.00     0.000 C 
BRANCH   2   3
ATOM      3  C   UNL     1       6.238  10.628  36.901  1.00  0.00     0.000 C 
BRANCH   3   4
ATOM      4  C   UNL     1       5.952  12.135  37.000  1.00  0.00     0.000 C 
BRANCH   4   5
ATOM      5  C   UNL     1       5.899  12.817  35.623  1.00  0.00     0.006 C 
BRANCH   5   6
ATOM      6  C   UNL     1       6.278  14.302  35.687  1.00  0.00     0.053 C 
BRANCH   6   7
ATOM      7  C   UNL     1       6.215  14.916  34.324  1.00  0.00     0.041 C 
ATOM      8  O   UNL     1       6.411  16.151  34.176  1.00  0.00    -0.550 OA
ATOM      9  O   UNL     1       5.988  14.117  33.210  1.00  0.00    -0.550 OA
ENDBRANCH   6   7
ENDBRANCH   5   6
ENDBRANCH   4   5
ENDBRANCH   3   4
ENDBRANCH   2   3
ENDBRANCH   1   2
BRANCH   1  10
ATOM     10  C   UNL     1       6.704   8.926  33.378  1.00  0.00     0.000 C 
BRANCH  10  11
ATOM     11  C   UNL     1       6.704   7.393  33.383  1.00  0.00    -0.000 C 
BRANCH  11  12
ATOM     12  C   UNL     1       6.315   6.849  34.766  1.00  0.00    -0.000 C 
BRANCH  12  13
ATOM     13  C   UNL     1       7.528   6.647  35.689  1.00  0.00    -0.000 C 
BRANCH  13  14
ATOM     14  C   UNL     1       8.047   5.200  35.673  1.00  0.00    -0.000 C 
BRANCH  14  15
ATOM     15  C   UNL     1       9.574   5.123  35.512  1.00  0.00    -0.000 C 
BRANCH  15  16
ATOM     16  C   UNL     1      10.169   3.831  36.091  1.00  0.00    -0.003 C 
ATOM     17  C   UNL     1       9.075   2.928  36.654  1.00  0.00     0.004 C 
ENDBRANCH  15  16
ENDBRANCH  14  15
ENDBRANCH  13  14
ENDBRANCH  12  13
ENDBRANCH  11  12
ENDBRANCH  10  11
ENDBRANCH   1  10
TORSDOF 13
ENDMDL
MODEL 3
REMARK VINA RESULT:    -1.838     14.269     16.391
REMARK INTER + INTRA:          -5.401
REMARK INTER:                  -4.243
REMARK INTRA:                  -1.158
REMARK UNBOUND:                -2.167
REMARK SMILES CCCCCCCCCCCCCCC(=O)[O-]
REMARK SMILES IDX 9 1 10 2 11 3 12 4 13 5 14 6 15 7 16 8 17 9 8 10 7 11 6 12
REMARK SMILES IDX 5 13 4 14 3 15 2 16 1 17
REMARK H PARENT
REMARK Flexibility Score: inf
ROOT
ATOM      1  C   UNL     1      20.257  21.716  19.081  1.00  0.00     0.000 C 
ENDROOT
BRANCH   1   2
ATOM      2  C   UNL     1      19.238  21.648  17.924  1.00  0.00     0.000 C 
BRANCH   2   3
ATOM      3  C   UNL     1      17.883  21.046  18.332  1.00  0.00     0.000 C 
BRANCH   3   4
ATOM      4  C   UNL     1      17.974  20.168  19.592  1.00  0.00     0.000 C 
BRANCH   4   5
ATOM      5  C   UNL     1      17.455  18.741  19.356  1.00  0.00     0.006 C 
BRANCH   5   6
ATOM      6  C   UNL     1      17.488  18.339  17.876  1.00  0.00     0.053 C 
BRANCH   6   7
ATOM      7  C   UNL     1      18.709  17.525  17.584  1.00  0.00     0.041 C 
ATOM      8  O   UNL     1      18.748  16.306  17.899  1.00  0.00    -0.550 OA
ATOM      9  O   UNL     1      19.787  18.099  16.922  1.00  0.00    -0.550 OA
ENDBRANCH   6   7
ENDBRANCH   5   6
ENDBRANCH   4   5
ENDBRANCH   3   4
ENDBRANCH   2   3
ENDBRANCH   1   2
BRANCH   1  10
ATOM     10  C   UNL     1      21.502  20.858  18.812  1.00  0.00     0.000 C 
BRANCH  10  11
ATOM     11  C   UNL     1      22.383  20.758  20.062  1.00  0.00    -0.000 C 
BRANCH  11  12
ATOM     12  C   UNL     1      23.336  21.959  20.162  1.00  0.00    -0.000 C 
BRANCH  12  13
ATOM     13  C   UNL     1      24.419  21.772  21.237  1.00  0.00    -0.000 C 
BRANCH  13  14
ATOM     14  C   UNL     1      25.660  21.038  20.702  1.00  0.00    -0.000 C 
BRANCH  14  15
ATOM     15  C   UNL     1      25.788  19.612  21.262  1.00  0.00    -0.000 C 
BRANCH  15  16
ATOM     16  C   UNL     1      25.379  18.535  20.246  1.00  0.00    -0.003 C 
ATOM     17  C   UNL     1      26.100  18.734  18.916  1.00  0.00     0.004 C 
ENDBRANCH  15  16
ENDBRANCH  14  15
ENDBRANCH  13  14
ENDBRANCH  12  13
ENDBRANCH  11  12
ENDBRANCH  10  11
ENDBRANCH   1  10
TORSDOF 13
ENDMDL
MODEL 4
REMARK VINA RESULT:    -1.805     14.912     16.728
REMARK INTER + INTRA:          -5.345
REMARK INTER:                  -3.857
REMARK INTRA:                  -1.488
REMARK UNBOUND:                -2.167
REMARK SMILES CCCCCCCCCCCCCCC(=O)[O-]
REMARK SMILES IDX 9 1 10 2 11 3 12 4 13 5 14 6 15 7 16 8 17 9 8 10 7 11 6 12
REMARK SMILES IDX 5 13 4 14 3 15 2 16 1 17
REMARK H PARENT
REMARK Flexibility Score: inf
ROOT
ATOM      1  C   UNL     1      20.268  21.187  20.153  1.00  0.00     0.000 C 
ENDROOT
BRANCH   1   2
ATOM      2  C   UNL     1      19.174  21.965  19.392  1.00  0.00     0.000 C 
BRANCH   2   3
ATOM      3  C   UNL     1      19.224  21.766  17.867  1.00  0.00     0.000 C 
BRANCH   3   4
ATOM      4  C   UNL     1      19.911  20.452  17.460  1.00  0.00     0.000 C 
BRANCH   4   5
ATOM      5  C   UNL     1      18.915  19.394  16.961  1.00  0.00     0.006 C 
BRANCH   5   6
ATOM      6  C   UNL     1      18.479  18.427  18.070  1.00  0.00     0.053 C 
BRANCH   6   7
ATOM      7  C   UNL     1      17.206  18.896  18.700  1.00  0.00     0.041 C 
ATOM      8  O   UNL     1      16.184  19.095  17.990  1.00  0.00    -0.550 OA
ATOM      9  O   UNL     1      17.132  19.067  20.077  1.00  0.00    -0.550 OA
ENDBRANCH   6   7
ENDBRANCH   5   6
ENDBRANCH   4   5
ENDBRANCH   3   4
ENDBRANCH   2   3
ENDBRANCH   1   2
BRANCH   1  10
ATOM     10  C   UNL     1      21.198  22.116  20.947  1.00  0.00     0.000 C 
BRANCH  10  11
ATOM     11  C   UNL     1      22.665  21.706  20.776  1.00  0.00    -0.000 C 
BRANCH  11  12
ATOM     12  C   UNL     1      22.845  20.812  19.539  1.00  0.00    -0.000 C 
BRANCH  12  13
ATOM     13  C   UNL     1      23.492  21.554  18.358  1.00  0.00    -0.000 C 
BRANCH  13  14
ATOM     14  C   UNL     1      24.885  21.003  18.008  1.00  0.00    -0.000 C 
BRANCH  14  15
ATOM     15  C   UNL     1      24.927  19.467  18.001  1.00  0.00    -0.000 C 
BRANCH  15  16
ATOM     16  C   UNL     1      26.108  18.901  18.803  1.00  0.00    -0.003 C 
ATOM     17  C   UNL     1      25.635  18.297  20.123  1.00  0.00     0.004 C 
ENDBRANCH  15  16
ENDBRANCH  14  15
ENDBRANCH  13  14
ENDBRANCH  12  13
ENDBRANCH  11  12
ENDBRANCH  10  11
ENDBRANCH   1  10
TORSDOF 13
ENDMDL
MODEL 5
REMARK VINA RESULT:    -1.801     14.324     16.342
REMARK INTER + INTRA:          -5.337
REMARK INTER:                  -3.877
REMARK INTRA:                  -1.460
REMARK UNBOUND:                -2.167
REMARK SMILES CCCCCCCCCCCCCCC(=O)[O-]
REMARK SMILES IDX 9 1 10 2 11 3 12 4 13 5 14 6 15 7 16 8 17 9 8 10 7 11 6 12
REMARK SMILES IDX 5 13 4 14 3 15 2 16 1 17
REMARK H PARENT
REMARK Flexibility Score: inf
ROOT
ATOM      1  C   UNL     1      20.620  20.563  20.645  1.00  0.00     0.000 C 
ENDROOT
BRANCH   1   2
ATOM      2  C   UNL     1      19.618  21.734  20.731  1.00  0.00     0.000 C 
BRANCH   2   3
ATOM      3  C   UNL     1      18.482  21.649  19.698  1.00  0.00     0.000 C 
BRANCH   3   4
ATOM      4  C   UNL     1      18.062  20.203  19.390  1.00  0.00     0.000 C 
BRANCH   4   5
ATOM      5  C   UNL     1      18.032  19.905  17.882  1.00  0.00     0.006 C 
BRANCH   5   6
ATOM      6  C   UNL     1      17.520  18.493  17.571  1.00  0.00     0.053 C 
BRANCH   6   7
ATOM      7  C   UNL     1      18.665  17.537  17.450  1.00  0.00     0.041 C 
ATOM      8  O   UNL     1      19.734  17.898  16.891  1.00  0.00    -0.550 OA
ATOM      9  O   UNL     1      18.570  16.264  17.998  1.00  0.00    -0.550 OA
ENDBRANCH   6   7
ENDBRANCH   5   6
ENDBRANCH   4   5
ENDBRANCH   3   4
ENDBRANCH   2   3
ENDBRANCH   1   2
BRANCH   1  10
ATOM     10  C   UNL     1      21.945  20.978  19.989  1.00  0.00     0.000 C 
BRANCH  10  11
ATOM     11  C   UNL     1      21.946  20.648  18.492  1.00  0.00    -0.000 C 
BRANCH  11  12
ATOM     12  C   UNL     1      22.713  21.715  17.695  1.00  0.00    -0.000 C 
BRANCH  12  13
ATOM     13  C   UNL     1      24.209  21.390  17.553  1.00  0.00    -0.000 C 
BRANCH  13  14
ATOM     14  C   UNL     1      24.465  19.898  17.280  1.00  0.00    -0.000 C 
BRANCH  14  15
ATOM     15  C   UNL     1      25.747  19.387  17.957  1.00  0.00    -0.000 C 
BRANCH  15  16
ATOM     16  C   UNL     1      25.758  19.634  19.473  1.00  0.00    -0.003 C 
ATOM     17  C   UNL     1      24.872  18.626  20.200  1.00  0.00     0.004 C 
ENDBRANCH  15  16
ENDBRANCH  14  15
ENDBRANCH  13  14
ENDBRANCH  12  13
ENDBRANCH  11  12
ENDBRANCH  10  11
ENDBRANCH   1  10
TORSDOF 13
ENDMDL
MODEL 6
REMARK VINA RESULT:    -1.719      1.835      4.327
REMARK INTER + INTRA:          -5.192
REMARK INTER:                  -3.624
REMARK INTRA:                  -1.568
REMARK UNBOUND:                -2.167
REMARK SMILES CCCCCCCCCCCCCCC(=O)[O-]
REMARK SMILES IDX 9 1 10 2 11 3 12 4 13 5 14 6 15 7 16 8 17 9 8 10 7 11 6 12
REMARK SMILES IDX 5 13 4 14 3 15 2 16 1 17
REMARK H PARENT
REMARK Flexibility Score: inf
ROOT
ATOM      1  C   UNL     1      21.686   3.349  20.864  1.00  0.00     0.000 C 
ENDROOT
BRANCH   1   2
ATOM      2  C   UNL     1      22.669   4.517  20.638  1.00  0.00     0.000 C 
BRANCH   2   3
ATOM      3  C   UNL     1      24.068   4.266  21.228  1.00  0.00     0.000 C 
BRANCH   3   4
ATOM      4  C   UNL     1      24.564   2.829  20.999  1.00  0.00     0.000 C 
BRANCH   4   5
ATOM      5  C   UNL     1      26.019   2.778  20.506  1.00  0.00     0.006 C 
BRANCH   5   6
ATOM      6  C   UNL     1      26.120   2.557  18.991  1.00  0.00     0.053 C 
BRANCH   6   7
ATOM      7  C   UNL     1      26.114   3.869  18.271  1.00  0.00     0.041 C 
ATOM      8  O   UNL     1      26.058   3.901  17.013  1.00  0.00    -0.550 OA
ATOM      9  O   UNL     1      26.124   5.058  18.990  1.00  0.00    -0.550 OA
ENDBRANCH   6   7
ENDBRANCH   5   6
ENDBRANCH   4   5
ENDBRANCH   3   4
ENDBRANCH   2   3
ENDBRANCH   1   2
BRANCH   1  10
ATOM     10  C   UNL     1      20.240   3.729  20.511  1.00  0.00     0.000 C 
BRANCH  10  11
ATOM     11  C   UNL     1      19.834   3.148  19.151  1.00  0.00    -0.000 C 
BRANCH  11  12
ATOM     12  C   UNL     1      20.803   2.038  18.717  1.00  0.00    -0.000 C 
BRANCH  12  13
ATOM     13  C   UNL     1      21.422   2.296  17.333  1.00  0.00    -0.000 C 
BRANCH  13  14
ATOM     14  C   UNL     1      21.343   3.775  16.919  1.00  0.00    -0.000 C 
BRANCH  14  15
ATOM     15  C   UNL     1      22.642   4.541  17.217  1.00  0.00    -0.000 C 
BRANCH  15  16
ATOM     16  C   UNL     1      22.435   6.062  17.273  1.00  0.00    -0.003 C 
ATOM     17  C   UNL     1      20.955   6.411  17.399  1.00  0.00     0.004 C 
ENDBRANCH  15  16
ENDBRANCH  14  15
ENDBRANCH  13  14
ENDBRANCH  12  13
ENDBRANCH  11  12
ENDBRANCH  10  11
ENDBRANCH   1  10
TORSDOF 13
ENDMDL
MODEL 7
REMARK VINA RESULT:    -1.679     13.476     15.645
REMARK INTER + INTRA:          -5.123
REMARK INTER:                  -4.245
REMARK INTRA:                  -0.878
REMARK UNBOUND:                -2.167
REMARK SMILES CCCCCCCCCCCCCCC(=O)[O-]
REMARK SMILES IDX 9 1 10 2 11 3 12 4 13 5 14 6 15 7 16 8 17 9 8 10 7 11 6 12
REMARK SMILES IDX 5 13 4 14 3 15 2 16 1 17
REMARK H PARENT
REMARK Flexibility Score: inf
ROOT
ATOM      1  C   UNL     1      18.698  20.045  19.911  1.00  0.00     0.000 C 
ENDROOT
BRANCH   1   2
ATOM      2  C   UNL     1      17.466  20.011  18.982  1.00  0.00     0.000 C 
BRANCH   2   3
ATOM      3  C   UNL     1      17.819  19.824  17.497  1.00  0.00     0.000 C 
BRANCH   3   4
ATOM      4  C   UNL     1      19.316  19.556  17.269  1.00  0.00     0.000 C 
BRANCH   4   5
ATOM      5  C   UNL     1      19.602  18.096  16.884  1.00  0.00     0.006 C 
BRANCH   5   6
ATOM      6  C   UNL     1      18.350  17.212  16.952  1.00  0.00     0.053 C 
BRANCH   6   7
ATOM      7  C   UNL     1      18.733  15.767  17.009  1.00  0.00     0.041 C 
ATOM      8  O   UNL     1      17.846  14.880  17.117  1.00  0.00    -0.550 OA
ATOM      9  O   UNL     1      20.067  15.396  16.896  1.00  0.00    -0.550 OA
ENDBRANCH   6   7
ENDBRANCH   5   6
ENDBRANCH   4   5
ENDBRANCH   3   4
ENDBRANCH   2   3
ENDBRANCH   1   2
BRANCH   1  10
ATOM     10  C   UNL     1      19.036  21.468  20.378  1.00  0.00     0.000 C 
BRANCH  10  11
ATOM     11  C   UNL     1      20.318  21.977  19.711  1.00  0.00    -0.000 C 
BRANCH  11  12
ATOM     12  C   UNL     1      21.563  21.469  20.454  1.00  0.00    -0.000 C 
BRANCH  12  13
ATOM     13  C   UNL     1      22.647  20.934  19.504  1.00  0.00    -0.000 C 
BRANCH  13  14
ATOM     14  C   UNL     1      23.640  19.995  20.210  1.00  0.00    -0.000 C 
BRANCH  14  15
ATOM     15  C   UNL     1      24.632  19.344  19.233  1.00  0.00    -0.000 C 
BRANCH  15  16
ATOM     16  C   UNL     1      26.012  19.100  19.861  1.00  0.00    -0.003 C 
ATOM     17  C   UNL     1      26.090  17.713  20.493  1.00  0.00     0.004 C 
ENDBRANCH  15  16
ENDBRANCH  14  15
ENDBRANCH  13  14
ENDBRANCH  12  13
ENDBRANCH  11  12
ENDBRANCH  10  11
ENDBRANCH   1  10
TORSDOF 13
ENDMDL
