MODEL 1
REMARK VINA RESULT:    -3.299      0.000      0.000
REMARK INTER + INTRA:          -4.186
REMARK INTER:                  -3.973
REMARK INTRA:                  -0.213
REMARK UNBOUND:                -0.213
REMARK SMILES OCC(O)CO
REMARK SMILES IDX 3 1 5 2 6 3 2 5 1 6 4 8
REMARK H PARENT 6 4 1 7 4 9
REMARK Flexibility Score: inf
ROOT
ATOM      1  C   UNL     1       7.946  24.764  20.872  1.00  0.00     0.165 C 
ENDROOT
BRANCH   1   2
ATOM      2  C   UNL     1       6.783  23.763  20.757  1.00  0.00     0.190 C 
BRANCH   2   3
ATOM      3  O   UNL     1       5.580  24.413  20.434  1.00  0.00    -0.394 OA
ATOM      4  H   UNL     1       5.556  24.498  19.445  1.00  0.00     0.210 HD
ENDBRANCH   2   3
ENDBRANCH   1   2
BRANCH   1   5
ATOM      5  C   UNL     1       7.724  26.009  19.999  1.00  0.00     0.190 C 
BRANCH   5   6
ATOM      6  O   UNL     1       7.124  27.019  20.761  1.00  0.00    -0.394 OA
ATOM      7  H   UNL     1       7.327  26.808  21.709  1.00  0.00     0.210 HD
ENDBRANCH   5   6
ENDBRANCH   1   5
BRANCH   1   8
ATOM      8  O   UNL     1       9.172  24.143  20.574  1.00  0.00    -0.388 OA
ATOM      9  H   UNL     1       9.812  24.850  20.300  1.00  0.00     0.211 HD
ENDBRANCH   1   8
TORSDOF 5
ENDMDL
MODEL 2
REMARK VINA RESULT:    -3.248      1.486      1.924
REMARK INTER + INTRA:          -4.126
REMARK INTER:                  -3.945
REMARK INTRA:                  -0.181
REMARK UNBOUND:                -0.213
REMARK SMILES OCC(O)CO
REMARK SMILES IDX 3 1 5 2 6 3 2 5 1 6 4 8
REMARK H PARENT 6 4 1 7 4 9
REMARK Flexibility Score: inf
ROOT
ATOM      1  C   UNL     1       8.586  25.209  21.179  1.00  0.00     0.165 C 
ENDROOT
BRANCH   1   2
ATOM      2  C   UNL     1       8.197  24.974  22.649  1.00  0.00     0.190 C 
BRANCH   2   3
ATOM      3  O   UNL     1       7.391  23.833  22.788  1.00  0.00    -0.394 OA
ATOM      4  H   UNL     1       7.716  23.348  23.591  1.00  0.00     0.210 HD
ENDBRANCH   2   3
ENDBRANCH   1   2
BRANCH   1   5
ATOM      5  C   UNL     1       7.405  25.735  20.347  1.00  0.00     0.190 C 
BRANCH   5   6
ATOM      6  O   UNL     1       6.265  24.964  20.607  1.00  0.00    -0.394 OA
ATOM      7  H   UNL     1       5.646  25.549  21.116  1.00  0.00     0.210 HD
ENDBRANCH   5   6
ENDBRANCH   1   5
BRANCH   1   8
ATOM      8  O   UNL     1       9.129  24.042  20.612  1.00  0.00    -0.388 OA
ATOM      9  H   UNL     1       8.381  23.507  20.239  1.00  0.00     0.211 HD
ENDBRANCH   1   8
TORSDOF 5
ENDMDL
MODEL 3
REMARK VINA RESULT:    -3.246      1.396      2.859
REMARK INTER + INTRA:          -4.123
REMARK INTER:                  -3.919
REMARK INTRA:                  -0.204
REMARK UNBOUND:                -0.213
REMARK SMILES OCC(O)CO
REMARK SMILES IDX 3 1 5 2 6 3 2 5 1 6 4 8
REMARK H PARENT 6 4 1 7 4 9
REMARK Flexibility Score: inf
ROOT
ATOM      1  C   UNL     1       7.116  25.076  20.320  1.00  0.00     0.165 C 
ENDROOT
BRANCH   1   2
ATOM      2  C   UNL     1       8.140  24.583  21.357  1.00  0.00     0.190 C 
BRANCH   2   3
ATOM      3  O   UNL     1       9.272  24.032  20.735  1.00  0.00    -0.394 OA
ATOM      4  H   UNL     1       9.063  23.961  19.768  1.00  0.00     0.210 HD
ENDBRANCH   2   3
ENDBRANCH   1   2
BRANCH   1   5
ATOM      5  C   UNL     1       6.036  24.021  20.030  1.00  0.00     0.190 C 
BRANCH   5   6
ATOM      6  O   UNL     1       6.457  22.772  20.505  1.00  0.00    -0.394 OA
ATOM      7  H   UNL     1       6.434  22.831  21.495  1.00  0.00     0.210 HD
ENDBRANCH   5   6
ENDBRANCH   1   5
BRANCH   1   8
ATOM      8  O   UNL     1       7.758  25.487  19.138  1.00  0.00    -0.388 OA
ATOM      9  H   UNL     1       7.129  26.068  18.636  1.00  0.00     0.211 HD
ENDBRANCH   1   8
TORSDOF 5
ENDMDL
MODEL 4
REMARK VINA RESULT:    -3.221      0.699      2.250
REMARK INTER + INTRA:          -4.093
REMARK INTER:                  -3.888
REMARK INTRA:                  -0.205
REMARK UNBOUND:                -0.213
REMARK SMILES OCC(O)CO
REMARK SMILES IDX 3 1 5 2 6 3 2 5 1 6 4 8
REMARK H PARENT 6 4 1 7 4 9
REMARK Flexibility Score: inf
ROOT
ATOM      1  C   UNL     1       7.125  24.722  20.027  1.00  0.00     0.165 C 
ENDROOT
BRANCH   1   2
ATOM      2  C   UNL     1       8.127  24.251  21.094  1.00  0.00     0.190 C 
BRANCH   2   3
ATOM      3  O   UNL     1       9.397  24.814  20.886  1.00  0.00    -0.394 OA
ATOM      4  H   UNL     1       9.913  24.167  20.339  1.00  0.00     0.210 HD
ENDBRANCH   2   3
ENDBRANCH   1   2
BRANCH   1   5
ATOM      5  C   UNL     1       7.403  26.164  19.571  1.00  0.00     0.190 C 
BRANCH   5   6
ATOM      6  O   UNL     1       7.270  27.036  20.659  1.00  0.00    -0.394 OA
ATOM      7  H   UNL     1       7.389  27.952  20.295  1.00  0.00     0.210 HD
ENDBRANCH   5   6
ENDBRANCH   1   5
BRANCH   1   8
ATOM      8  O   UNL     1       5.802  24.578  20.484  1.00  0.00    -0.388 OA
ATOM      9  H   UNL     1       5.230  24.369  19.700  1.00  0.00     0.211 HD
ENDBRANCH   1   8
TORSDOF 5
ENDMDL
MODEL 5
REMARK VINA RESULT:    -3.216      0.840      2.375
REMARK INTER + INTRA:          -4.087
REMARK INTER:                  -3.948
REMARK INTRA:                  -0.139
REMARK UNBOUND:                -0.213
REMARK SMILES OCC(O)CO
REMARK SMILES IDX 3 1 5 2 6 3 2 5 1 6 4 8
REMARK H PARENT 6 4 1 7 4 9
REMARK Flexibility Score: inf
ROOT
ATOM      1  C   UNL     1       7.789  25.994  20.166  1.00  0.00     0.165 C 
ENDROOT
BRANCH   1   2
ATOM      2  C   UNL     1       6.761  25.045  19.527  1.00  0.00     0.190 C 
BRANCH   2   3
ATOM      3  O   UNL     1       5.897  24.504  20.493  1.00  0.00    -0.394 OA
ATOM      4  H   UNL     1       6.460  23.984  21.123  1.00  0.00     0.210 HD
ENDBRANCH   2   3
ENDBRANCH   1   2
BRANCH   1   5
ATOM      5  C   UNL     1       8.703  25.266  21.165  1.00  0.00     0.190 C 
BRANCH   5   6
ATOM      6  O   UNL     1       9.112  24.041  20.622  1.00  0.00    -0.394 OA
ATOM      7  H   UNL     1       8.385  23.753  20.012  1.00  0.00     0.210 HD
ENDBRANCH   5   6
ENDBRANCH   1   5
BRANCH   1   8
ATOM      8  O   UNL     1       7.151  27.094  20.767  1.00  0.00    -0.388 OA
ATOM      9  H   UNL     1       7.831  27.594  21.288  1.00  0.00     0.211 HD
ENDBRANCH   1   8
TORSDOF 5
ENDMDL
MODEL 6
REMARK VINA RESULT:    -3.206      0.524      2.301
REMARK INTER + INTRA:          -4.075
REMARK INTER:                  -3.857
REMARK INTRA:                  -0.219
REMARK UNBOUND:                -0.213
REMARK SMILES OCC(O)CO
REMARK SMILES IDX 3 1 5 2 6 3 2 5 1 6 4 8
REMARK H PARENT 6 4 1 7 4 9
REMARK Flexibility Score: inf
ROOT
ATOM      1  C   UNL     1       8.075  24.890  20.123  1.00  0.00     0.165 C 
ENDROOT
BRANCH   1   2
ATOM      2  C   UNL     1       7.588  26.326  19.862  1.00  0.00     0.190 C 
BRANCH   2   3
ATOM      3  O   UNL     1       7.112  26.926  21.038  1.00  0.00    -0.394 OA
ATOM      4  H   UNL     1       7.835  26.852  21.713  1.00  0.00     0.210 HD
ENDBRANCH   2   3
ENDBRANCH   1   2
BRANCH   1   5
ATOM      5  C   UNL     1       7.026  24.055  20.876  1.00  0.00     0.190 C 
BRANCH   5   6
ATOM      6  O   UNL     1       5.740  24.479  20.518  1.00  0.00    -0.394 OA
ATOM      7  H   UNL     1       5.368  23.770  19.933  1.00  0.00     0.210 HD
ENDBRANCH   5   6
ENDBRANCH   1   5
BRANCH   1   8
ATOM      8  O   UNL     1       9.307  24.894  20.802  1.00  0.00    -0.388 OA
ATOM      9  H   UNL     1      10.017  25.110  20.143  1.00  0.00     0.211 HD
ENDBRANCH   1   8
TORSDOF 5
ENDMDL
MODEL 7
REMARK VINA RESULT:    -3.181      1.324      2.618
REMARK INTER + INTRA:          -4.044
REMARK INTER:                  -3.864
REMARK INTRA:                  -0.181
REMARK UNBOUND:                -0.213
REMARK SMILES OCC(O)CO
REMARK SMILES IDX 3 1 5 2 6 3 2 5 1 6 4 8
REMARK H PARENT 6 4 1 7 4 9
REMARK Flexibility Score: inf
ROOT
ATOM      1  C   UNL     1       6.929  24.321  20.653  1.00  0.00     0.165 C 
ENDROOT
BRANCH   1   2
ATOM      2  C   UNL     1       6.993  25.040  19.295  1.00  0.00     0.190 C 
BRANCH   2   3
ATOM      3  O   UNL     1       8.078  25.931  19.239  1.00  0.00    -0.394 OA
ATOM      4  H   UNL     1       7.736  26.818  19.521  1.00  0.00     0.210 HD
ENDBRANCH   2   3
ENDBRANCH   1   2
BRANCH   1   5
ATOM      5  C   UNL     1       8.216  24.519  21.472  1.00  0.00     0.190 C 
BRANCH   5   6
ATOM      6  O   UNL     1       9.317  24.058  20.738  1.00  0.00    -0.394 OA
ATOM      7  H   UNL     1      10.036  24.729  20.869  1.00  0.00     0.210 HD
ENDBRANCH   5   6
ENDBRANCH   1   5
BRANCH   1   8
ATOM      8  O   UNL     1       6.638  22.955  20.484  1.00  0.00    -0.388 OA
ATOM      9  H   UNL     1       6.976  22.470  21.281  1.00  0.00     0.211 HD
ENDBRANCH   1   8
TORSDOF 5
ENDMDL
MODEL 8
REMARK VINA RESULT:    -3.142      1.701      2.878
REMARK INTER + INTRA:          -3.999
REMARK INTER:                  -3.775
REMARK INTRA:                  -0.224
REMARK UNBOUND:                -0.213
REMARK SMILES OCC(O)CO
REMARK SMILES IDX 3 1 5 2 6 3 2 5 1 6 4 8
REMARK H PARENT 6 4 1 7 4 9
REMARK Flexibility Score: inf
ROOT
ATOM      1  C   UNL     1       5.886  23.540  20.182  1.00  0.00     0.165 C 
ENDROOT
BRANCH   1   2
ATOM      2  C   UNL     1       6.146  22.410  21.193  1.00  0.00     0.190 C 
BRANCH   2   3
ATOM      3  O   UNL     1       6.571  22.919  22.431  1.00  0.00    -0.394 OA
ATOM      4  H   UNL     1       6.250  22.289  23.127  1.00  0.00     0.210 HD
ENDBRANCH   2   3
ENDBRANCH   1   2
BRANCH   1   5
ATOM      5  C   UNL     1       6.965  24.633  20.249  1.00  0.00     0.190 C 
BRANCH   5   6
ATOM      6  O   UNL     1       8.235  24.041  20.267  1.00  0.00    -0.394 OA
ATOM      7  H   UNL     1       8.123  23.161  20.711  1.00  0.00     0.210 HD
ENDBRANCH   5   6
ENDBRANCH   1   5
BRANCH   1   8
ATOM      8  O   UNL     1       4.600  24.082  20.356  1.00  0.00    -0.388 OA
ATOM      9  H   UNL     1       4.041  23.793  19.588  1.00  0.00     0.211 HD
ENDBRANCH   1   8
TORSDOF 5
ENDMDL
MODEL 9
REMARK VINA RESULT:    -3.031      8.244      8.766
REMARK INTER + INTRA:          -3.864
REMARK INTER:                  -3.642
REMARK INTRA:                  -0.222
REMARK UNBOUND:                -0.213
REMARK SMILES OCC(O)CO
REMARK SMILES IDX 3 1 5 2 6 3 2 5 1 6 4 8
REMARK H PARENT 6 4 1 7 4 9
REMARK Flexibility Score: inf
ROOT
ATOM      1  C   UNL     1       1.535  18.784  21.053  1.00  0.00     0.165 C 
ENDROOT
BRANCH   1   2
ATOM      2  C   UNL     1       2.777  18.469  20.202  1.00  0.00     0.190 C 
BRANCH   2   3
ATOM      3  O   UNL     1       2.424  18.155  18.880  1.00  0.00    -0.394 OA
ATOM      4  H   UNL     1       3.209  18.374  18.313  1.00  0.00     0.210 HD
ENDBRANCH   2   3
ENDBRANCH   1   2
BRANCH   1   5
ATOM      5  C   UNL     1       0.614  19.808  20.371  1.00  0.00     0.190 C 
BRANCH   5   6
ATOM      6  O   UNL     1      -0.311  19.142  19.557  1.00  0.00    -0.394 OA
ATOM      7  H   UNL     1      -0.410  19.696  18.740  1.00  0.00     0.210 HD
ENDBRANCH   5   6
ENDBRANCH   1   5
BRANCH   1   8
ATOM      8  O   UNL     1       1.905  19.209  22.342  1.00  0.00    -0.388 OA
ATOM      9  H   UNL     1       2.812  18.853  22.531  1.00  0.00     0.211 HD
ENDBRANCH   1   8
TORSDOF 5
ENDMDL
