MODEL 1
REMARK VINA RESULT:     3.687      0.000      0.000
REMARK INTER + INTRA:           4.307
REMARK INTER:                   4.333
REMARK INTRA:                  -0.026
REMARK UNBOUND:                -0.026
REMARK SMILES CCCCC(=O)[O-]
REMARK SMILES IDX 4 1 5 2 6 3 7 4 3 5 2 6 1 7
REMARK H PARENT
REMARK Flexibility Score: inf
ROOT
ATOM      1  C   UNL     1      -0.531   9.504 -25.667  1.00  0.00     0.053 C 
ENDROOT
BRANCH   1   2
ATOM      2  C   UNL     1       0.635   8.887 -26.378  1.00  0.00     0.041 C 
ATOM      3  O   UNL     1       1.366   9.589 -27.124  1.00  0.00    -0.550 OA
ATOM      4  O   UNL     1       0.933   7.543 -26.190  1.00  0.00    -0.550 OA
ENDBRANCH   1   2
BRANCH   1   5
ATOM      5  C   UNL     1      -0.891   8.735 -24.390  1.00  0.00     0.006 C 
BRANCH   5   6
ATOM      6  C   UNL     1      -2.404   8.722 -24.126  1.00  0.00    -0.003 C 
ATOM      7  C   UNL     1      -2.777   7.644 -23.114  1.00  0.00     0.004 C 
ENDBRANCH   5   6
ENDBRANCH   1   5
TORSDOF 3
ENDMDL
MODEL 2
REMARK VINA RESULT:     4.473      9.928     10.555
REMARK INTER + INTRA:           5.232
REMARK INTER:                   5.308
REMARK INTRA:                  -0.077
REMARK UNBOUND:                -0.026
REMARK SMILES CCCCC(=O)[O-]
REMARK SMILES IDX 4 1 5 2 6 3 7 4 3 5 2 6 1 7
REMARK H PARENT
REMARK Flexibility Score: inf
ROOT
ATOM      1  C   UNL     1      -5.821  18.285 -25.665  1.00  0.00     0.053 C 
ENDROOT
BRANCH   1   2
ATOM      2  C   UNL     1      -5.811  18.421 -24.173  1.00  0.00     0.041 C 
ATOM      3  O   UNL     1      -6.685  19.118 -23.594  1.00  0.00    -0.550 OA
ATOM      4  O   UNL     1      -4.856  17.751 -23.419  1.00  0.00    -0.550 OA
ENDBRANCH   1   2
BRANCH   1   5
ATOM      5  C   UNL     1      -4.758  17.293 -26.154  1.00  0.00     0.006 C 
BRANCH   5   6
ATOM      6  C   UNL     1      -5.379  16.019 -26.744  1.00  0.00    -0.003 C 
ATOM      7  C   UNL     1      -4.828  14.771 -26.062  1.00  0.00     0.004 C 
ENDBRANCH   5   6
ENDBRANCH   1   5
TORSDOF 3
ENDMDL
MODEL 3
REMARK VINA RESULT:     6.395     13.071     13.928
REMARK INTER + INTRA:           7.490
REMARK INTER:                   7.510
REMARK INTRA:                  -0.020
REMARK UNBOUND:                -0.026
REMARK SMILES CCCCC(=O)[O-]
REMARK SMILES IDX 4 1 5 2 6 3 7 4 3 5 2 6 1 7
REMARK H PARENT
REMARK Flexibility Score: inf
ROOT
ATOM      1  C   UNL     1      -9.483  15.600 -17.369  1.00  0.00     0.053 C 
ENDROOT
BRANCH   1   2
ATOM      2  C   UNL     1      -9.263  14.266 -18.017  1.00  0.00     0.041 C 
ATOM      3  O   UNL     1      -8.456  14.154 -18.977  1.00  0.00    -0.550 OA
ATOM      4  O   UNL     1      -9.924  13.143 -17.538  1.00  0.00    -0.550 OA
ENDBRANCH   1   2
BRANCH   1   5
ATOM      5  C   UNL     1      -9.900  16.667 -18.388  1.00  0.00     0.006 C 
BRANCH   5   6
ATOM      6  C   UNL     1     -10.293  17.990 -17.716  1.00  0.00    -0.003 C 
ATOM      7  C   UNL     1      -9.099  18.627 -17.013  1.00  0.00     0.004 C 
ENDBRANCH   5   6
ENDBRANCH   1   5
TORSDOF 3
ENDMDL
