MODEL 1
REMARK VINA RESULT:    -3.870      0.000      0.000
REMARK INTER + INTRA:          -3.984
REMARK INTER:                  -3.984
REMARK INTRA:                   0.000
REMARK UNBOUND:                 0.000
REMARK SMILES Oc1ccc2[nH]ccc2c1
REMARK SMILES IDX 3 1 4 2 5 3 9 4 8 5 7 6 6 7 10 8 2 9 1 11
REMARK H PARENT 6 10 1 12
REMARK Flexibility Score: inf
ROOT
ATOM      1  C   UNL     1     -23.123  20.782   0.609  1.00  0.00     0.048 A 
ATOM      2  C   UNL     1     -23.124  21.908  -0.234  1.00  0.00     0.030 A 
ATOM      3  C   UNL     1     -23.123  23.168   0.361  1.00  0.00     0.046 A 
ATOM      4  C   UNL     1     -23.123  23.320   1.722  1.00  0.00     0.003 A 
ATOM      5  C   UNL     1     -23.123  24.673   1.985  1.00  0.00     0.028 A 
ATOM      6  C   UNL     1     -23.123  25.285   0.736  1.00  0.00     0.083 A 
ATOM      7  N   UNL     1     -23.124  24.362  -0.253  1.00  0.00    -0.361 N 
ATOM      8  C   UNL     1     -23.122  22.227   2.586  1.00  0.00     0.056 A 
ATOM      9  C   UNL     1     -23.122  20.938   2.018  1.00  0.00     0.116 A 
ATOM     10  H   UNL     1     -23.125  24.545  -1.281  1.00  0.00     0.166 HD
ENDROOT
BRANCH   9  11
ATOM     11  O   UNL     1     -23.121  19.824   2.853  1.00  0.00    -0.508 OA
ATOM     12  H   UNL     1     -22.377  19.138   2.817  1.00  0.00     0.293 HD
ENDBRANCH   9  11
TORSDOF 1
ENDMDL
MODEL 2
REMARK VINA RESULT:    -3.202      2.583      4.112
REMARK INTER + INTRA:          -3.296
REMARK INTER:                  -3.296
REMARK INTRA:                   0.000
REMARK UNBOUND:                 0.000
REMARK SMILES Oc1ccc2[nH]ccc2c1
REMARK SMILES IDX 3 1 4 2 5 3 9 4 8 5 7 6 6 7 10 8 2 9 1 11
REMARK H PARENT 6 10 1 12
REMARK Flexibility Score: inf
ROOT
ATOM      1  C   UNL     1     -23.125  24.005   1.962  1.00  0.00     0.048 A 
ATOM      2  C   UNL     1     -23.124  22.935   2.876  1.00  0.00     0.030 A 
ATOM      3  C   UNL     1     -23.119  21.640   2.363  1.00  0.00     0.046 A 
ATOM      4  C   UNL     1     -23.117  21.401   1.015  1.00  0.00     0.003 A 
ATOM      5  C   UNL     1     -23.113  20.034   0.839  1.00  0.00     0.028 A 
ATOM      6  C   UNL     1     -23.113  19.503   2.125  1.00  0.00     0.083 A 
ATOM      7  N   UNL     1     -23.117  20.488   3.052  1.00  0.00    -0.361 N 
ATOM      8  C   UNL     1     -23.119  22.436   0.083  1.00  0.00     0.056 A 
ATOM      9  C   UNL     1     -23.123  23.759   0.567  1.00  0.00     0.116 A 
ATOM     10  H   UNL     1     -23.118  20.371   4.090  1.00  0.00     0.166 HD
ENDROOT
BRANCH   9  11
ATOM     11  O   UNL     1     -23.124  24.818  -0.338  1.00  0.00    -0.508 OA
ATOM     12  H   UNL     1     -22.278  25.332  -0.550  1.00  0.00     0.293 HD
ENDBRANCH   9  11
TORSDOF 1
ENDMDL
MODEL 3
REMARK VINA RESULT:    -3.188      2.566      3.574
REMARK INTER + INTRA:          -3.281
REMARK INTER:                  -3.281
REMARK INTRA:                   0.000
REMARK UNBOUND:                 0.000
REMARK SMILES Oc1ccc2[nH]ccc2c1
REMARK SMILES IDX 3 1 4 2 5 3 9 4 8 5 7 6 6 7 10 8 2 9 1 11
REMARK H PARENT 6 10 1 12
REMARK Flexibility Score: inf
ROOT
ATOM      1  C   UNL     1     -23.101  23.431  -0.722  1.00  0.00     0.048 A 
ATOM      2  C   UNL     1     -23.097  22.043  -0.489  1.00  0.00     0.030 A 
ATOM      3  C   UNL     1     -23.107  21.604   0.833  1.00  0.00     0.046 A 
ATOM      4  C   UNL     1     -23.118  22.484   1.883  1.00  0.00     0.003 A 
ATOM      5  C   UNL     1     -23.125  21.740   3.043  1.00  0.00     0.028 A 
ATOM      6  C   UNL     1     -23.117  20.414   2.624  1.00  0.00     0.083 A 
ATOM      7  N   UNL     1     -23.105  20.336   1.274  1.00  0.00    -0.361 N 
ATOM      8  C   UNL     1     -23.121  23.863   1.688  1.00  0.00     0.056 A 
ATOM      9  C   UNL     1     -23.113  24.342   0.364  1.00  0.00     0.116 A 
ATOM     10  H   UNL     1     -23.097  19.466   0.696  1.00  0.00     0.166 HD
ENDROOT
BRANCH   9  11
ATOM     11  O   UNL     1     -23.116  25.716   0.133  1.00  0.00    -0.508 OA
ATOM     12  H   UNL     1     -22.308  26.189  -0.252  1.00  0.00     0.293 HD
ENDBRANCH   9  11
TORSDOF 1
ENDMDL
MODEL 4
REMARK VINA RESULT:    -3.099      0.975      1.980
REMARK INTER + INTRA:          -3.190
REMARK INTER:                  -3.190
REMARK INTRA:                   0.000
REMARK UNBOUND:                 0.000
REMARK SMILES Oc1ccc2[nH]ccc2c1
REMARK SMILES IDX 3 1 4 2 5 3 9 4 8 5 7 6 6 7 10 8 2 9 1 11
REMARK H PARENT 6 10 1 12
REMARK Flexibility Score: inf
ROOT
ATOM      1  C   UNL     1     -23.124  21.221   2.978  1.00  0.00     0.048 A 
ATOM      2  C   UNL     1     -23.124  22.627   2.929  1.00  0.00     0.030 A 
ATOM      3  C   UNL     1     -23.107  23.235   1.676  1.00  0.00     0.046 A 
ATOM      4  C   UNL     1     -23.090  22.500   0.520  1.00  0.00     0.003 A 
ATOM      5  C   UNL     1     -23.076  23.390  -0.533  1.00  0.00     0.028 A 
ATOM      6  C   UNL     1     -23.085  24.650   0.057  1.00  0.00     0.083 A 
ATOM      7  N   UNL     1     -23.103  24.550   1.405  1.00  0.00    -0.361 N 
ATOM      8  C   UNL     1     -23.090  21.108   0.532  1.00  0.00     0.056 A 
ATOM      9  C   UNL     1     -23.107  20.459   1.783  1.00  0.00     0.116 A 
ATOM     10  H   UNL     1     -23.114  25.337   2.092  1.00  0.00     0.166 HD
ENDROOT
BRANCH   9  11
ATOM     11  O   UNL     1     -23.108  19.068   1.831  1.00  0.00    -0.508 OA
ATOM     12  H   UNL     1     -23.468  18.567   2.635  1.00  0.00     0.293 HD
ENDBRANCH   9  11
TORSDOF 1
ENDMDL
MODEL 5
REMARK VINA RESULT:    -2.429     25.194     25.811
REMARK INTER + INTRA:          -2.500
REMARK INTER:                  -2.500
REMARK INTRA:                   0.000
REMARK UNBOUND:                 0.000
REMARK SMILES Oc1ccc2[nH]ccc2c1
REMARK SMILES IDX 3 1 4 2 5 3 9 4 8 5 7 6 6 7 10 8 2 9 1 11
REMARK H PARENT 6 10 1 12
REMARK Flexibility Score: inf
ROOT
ATOM      1  C   UNL     1      -6.152  26.947 -16.866  1.00  0.00     0.048 A 
ATOM      2  C   UNL     1      -5.627  28.227 -17.124  1.00  0.00     0.030 A 
ATOM      3  C   UNL     1      -4.522  28.639 -16.382  1.00  0.00     0.046 A 
ATOM      4  C   UNL     1      -3.956  27.835 -15.429  1.00  0.00     0.003 A 
ATOM      5  C   UNL     1      -2.896  28.528 -14.884  1.00  0.00     0.028 A 
ATOM      6  C   UNL     1      -2.876  29.747 -15.554  1.00  0.00     0.083 A 
ATOM      7  N   UNL     1      -3.871  29.810 -16.467  1.00  0.00    -0.361 N 
ATOM      8  C   UNL     1      -4.451  26.564 -15.148  1.00  0.00     0.056 A 
ATOM      9  C   UNL     1      -5.567  26.115 -15.880  1.00  0.00     0.116 A 
ATOM     10  H   UNL     1      -4.085  30.608 -17.106  1.00  0.00     0.166 HD
ENDROOT
BRANCH   9  11
ATOM     11  O   UNL     1      -6.087  24.848 -15.625  1.00  0.00    -0.508 OA
ATOM     12  H   UNL     1      -6.208  24.507 -14.679  1.00  0.00     0.293 HD
ENDBRANCH   9  11
TORSDOF 1
ENDMDL
MODEL 6
REMARK VINA RESULT:    -1.565      2.519      3.800
REMARK INTER + INTRA:          -1.611
REMARK INTER:                  -1.611
REMARK INTRA:                   0.000
REMARK UNBOUND:                 0.000
REMARK SMILES Oc1ccc2[nH]ccc2c1
REMARK SMILES IDX 3 1 4 2 5 3 9 4 8 5 7 6 6 7 10 8 2 9 1 11
REMARK H PARENT 6 10 1 12
REMARK Flexibility Score: inf
ROOT
ATOM      1  C   UNL     1     -23.119  23.963   2.521  1.00  0.00     0.048 A 
ATOM      2  C   UNL     1     -23.124  22.580   2.265  1.00  0.00     0.030 A 
ATOM      3  C   UNL     1     -23.116  22.163   0.936  1.00  0.00     0.046 A 
ATOM      4  C   UNL     1     -23.105  23.061  -0.099  1.00  0.00     0.003 A 
ATOM      5  C   UNL     1     -23.100  22.337  -1.272  1.00  0.00     0.028 A 
ATOM      6  C   UNL     1     -23.107  21.004  -0.875  1.00  0.00     0.083 A 
ATOM      7  N   UNL     1     -23.118  20.903   0.474  1.00  0.00    -0.361 N 
ATOM      8  C   UNL     1     -23.101  24.437   0.119  1.00  0.00     0.056 A 
ATOM      9  C   UNL     1     -23.108  24.893   1.452  1.00  0.00     0.116 A 
ATOM     10  H   UNL     1     -23.125  20.023   1.036  1.00  0.00     0.166 HD
ENDROOT
BRANCH   9  11
ATOM     11  O   UNL     1     -23.104  26.262   1.705  1.00  0.00    -0.508 OA
ATOM     12  H   UNL     1     -23.420  26.929   1.012  1.00  0.00     0.293 HD
ENDBRANCH   9  11
TORSDOF 1
ENDMDL
MODEL 7
REMARK VINA RESULT:    -1.332     25.367     26.105
REMARK INTER + INTRA:          -1.371
REMARK INTER:                  -1.371
REMARK INTRA:                   0.000
REMARK UNBOUND:                 0.000
REMARK SMILES Oc1ccc2[nH]ccc2c1
REMARK SMILES IDX 3 1 4 2 5 3 9 4 8 5 7 6 6 7 10 8 2 9 1 11
REMARK H PARENT 6 10 1 12
REMARK Flexibility Score: inf
ROOT
ATOM      1  C   UNL     1      -3.012  28.246 -15.375  1.00  0.00     0.048 A 
ATOM      2  C   UNL     1      -3.667  27.089 -14.915  1.00  0.00     0.030 A 
ATOM      3  C   UNL     1      -4.825  26.688 -15.577  1.00  0.00     0.046 A 
ATOM      4  C   UNL     1      -5.322  27.390 -16.644  1.00  0.00     0.003 A 
ATOM      5  C   UNL     1      -6.462  26.741 -17.067  1.00  0.00     0.028 A 
ATOM      6  C   UNL     1      -6.599  25.652 -16.212  1.00  0.00     0.083 A 
ATOM      7  N   UNL     1      -5.597  25.625 -15.304  1.00  0.00    -0.361 N 
ATOM      8  C   UNL     1      -4.700  28.539 -17.125  1.00  0.00     0.056 A 
ATOM      9  C   UNL     1      -3.526  28.972 -16.479  1.00  0.00     0.116 A 
ATOM     10  H   UNL     1      -5.456  24.919 -14.547  1.00  0.00     0.166 HD
ENDROOT
BRANCH   9  11
ATOM     11  O   UNL     1      -2.878  30.118 -16.935  1.00  0.00    -0.508 OA
ATOM     12  H   UNL     1      -2.349  30.711 -16.306  1.00  0.00     0.293 HD
ENDBRANCH   9  11
TORSDOF 1
ENDMDL
MODEL 8
REMARK VINA RESULT:    -1.265      2.334      3.534
REMARK INTER + INTRA:          -1.302
REMARK INTER:                  -1.302
REMARK INTRA:                   0.000
REMARK UNBOUND:                 0.000
REMARK SMILES Oc1ccc2[nH]ccc2c1
REMARK SMILES IDX 3 1 4 2 5 3 9 4 8 5 7 6 6 7 10 8 2 9 1 11
REMARK H PARENT 6 10 1 12
REMARK Flexibility Score: inf
ROOT
ATOM      1  C   UNL     1     -23.084  23.710  -0.915  1.00  0.00     0.048 A 
ATOM      2  C   UNL     1     -23.070  23.988   0.464  1.00  0.00     0.030 A 
ATOM      3  C   UNL     1     -23.082  22.910   1.347  1.00  0.00     0.046 A 
ATOM      4  C   UNL     1     -23.108  21.615   0.899  1.00  0.00     0.003 A 
ATOM      5  C   UNL     1     -23.115  20.797   2.009  1.00  0.00     0.028 A 
ATOM      6  C   UNL     1     -23.092  21.662   3.098  1.00  0.00     0.083 A 
ATOM      7  N   UNL     1     -23.073  22.951   2.688  1.00  0.00    -0.361 N 
ATOM      8  C   UNL     1     -23.123  21.304  -0.458  1.00  0.00     0.056 A 
ATOM      9  C   UNL     1     -23.111  22.371  -1.378  1.00  0.00     0.116 A 
ATOM     10  H   UNL     1     -23.054  23.801   3.295  1.00  0.00     0.166 HD
ENDROOT
BRANCH   9  11
ATOM     11  O   UNL     1     -23.125  22.096  -2.744  1.00  0.00    -0.508 OA
ATOM     12  H   UNL     1     -22.562  22.629  -3.396  1.00  0.00     0.293 HD
ENDBRANCH   9  11
TORSDOF 1
ENDMDL
