MODEL 1
REMARK VINA RESULT:    -4.280      0.000      0.000
REMARK INTER + INTRA:          -5.347
REMARK INTER:                  -5.030
REMARK INTRA:                  -0.316
REMARK UNBOUND:                -0.316
REMARK SMILES O=c1cc(-c2ccc(O)c(O)c2)oc2cc(O)cc(O)c12
REMARK SMILES IDX 4 1 3 2 2 3 1 4 21 5 19 6 18 7 16 8 15 9 14 10 13 11 5 12
REMARK SMILES IDX 6 13 7 14 8 15 12 16 10 17 9 18 11 20 20 22 17 24
REMARK H PARENT 9 19 11 21 20 23 17 25
REMARK Flexibility Score: inf
ROOT
ATOM      1  C   UNL     1      19.513  49.889  88.767  1.00  0.00     0.138 A 
ATOM      2  C   UNL     1      18.773  51.054  89.012  1.00  0.00     0.100 A 
ATOM      3  C   UNL     1      19.406  52.297  88.961  1.00  0.00     0.197 A 
ATOM      4  O   UNL     1      18.703  53.328  89.124  1.00  0.00    -0.289 OA
ATOM      5  C   UNL     1      20.794  52.369  88.696  1.00  0.00     0.107 A 
ATOM      6  C   UNL     1      21.552  53.577  88.661  1.00  0.00     0.134 A 
ATOM      7  C   UNL     1      22.898  53.536  88.272  1.00  0.00     0.093 A 
ATOM      8  C   UNL     1      23.526  52.327  87.977  1.00  0.00     0.123 A 
ATOM      9  C   UNL     1      22.808  51.133  88.061  1.00  0.00     0.094 A 
ATOM     10  C   UNL     1      21.456  51.145  88.411  1.00  0.00     0.146 A 
ATOM     11  O   UNL     1      20.803  49.988  88.466  1.00  0.00    -0.456 OA
ENDROOT
BRANCH   1  12
ATOM     12  C   UNL     1      18.890  48.542  88.809  1.00  0.00     0.021 A 
ATOM     13  C   UNL     1      17.490  48.430  88.863  1.00  0.00     0.016 A 
ATOM     14  C   UNL     1      16.878  47.174  88.896  1.00  0.00     0.051 A 
ATOM     15  C   UNL     1      17.654  46.009  88.865  1.00  0.00     0.157 A 
ATOM     16  C   UNL     1      19.664  47.366  88.765  1.00  0.00     0.062 A 
ATOM     17  C   UNL     1      19.053  46.106  88.796  1.00  0.00     0.158 A 
BRANCH  15  18
ATOM     18  O   UNL     1      17.040  44.758  88.899  1.00  0.00    -0.504 OA
ATOM     19  H   UNL     1      16.783  44.269  88.050  1.00  0.00     0.293 HD
ENDBRANCH  15  18
BRANCH  17  20
ATOM     20  O   UNL     1      19.853  44.965  88.753  1.00  0.00    -0.504 OA
ATOM     21  H   UNL     1      19.492  44.065  88.460  1.00  0.00     0.293 HD
ENDBRANCH  17  20
ENDBRANCH   1  12
BRANCH   6  22
ATOM     22  O   UNL     1      21.045  54.829  89.018  1.00  0.00    -0.507 OA
ATOM     23  H   UNL     1      20.427  55.385  88.447  1.00  0.00     0.293 HD
ENDBRANCH   6  22
BRANCH   8  24
ATOM     24  O   UNL     1      24.870  52.323  87.608  1.00  0.00    -0.508 OA
ATOM     25  H   UNL     1      25.435  51.485  87.675  1.00  0.00     0.293 HD
ENDBRANCH   8  24
TORSDOF 5
ENDMDL
MODEL 2
REMARK VINA RESULT:    -3.960      0.889      1.022
REMARK INTER + INTRA:          -4.971
REMARK INTER:                  -4.658
REMARK INTRA:                  -0.313
REMARK UNBOUND:                -0.316
REMARK SMILES O=c1cc(-c2ccc(O)c(O)c2)oc2cc(O)cc(O)c12
REMARK SMILES IDX 4 1 3 2 2 3 1 4 21 5 19 6 18 7 16 8 15 9 14 10 13 11 5 12
REMARK SMILES IDX 6 13 7 14 8 15 12 16 10 17 9 18 11 20 20 22 17 24
REMARK H PARENT 9 19 11 21 20 23 17 25
REMARK Flexibility Score: inf
ROOT
ATOM      1  C   UNL     1      20.270  49.869  88.579  1.00  0.00     0.138 A 
ATOM      2  C   UNL     1      19.771  51.126  88.949  1.00  0.00     0.100 A 
ATOM      3  C   UNL     1      20.589  52.252  88.840  1.00  0.00     0.197 A 
ATOM      4  O   UNL     1      20.094  53.375  89.121  1.00  0.00    -0.289 OA
ATOM      5  C   UNL     1      21.924  52.111  88.391  1.00  0.00     0.107 A 
ATOM      6  C   UNL     1      22.860  53.182  88.280  1.00  0.00     0.134 A 
ATOM      7  C   UNL     1      24.118  52.942  87.711  1.00  0.00     0.093 A 
ATOM      8  C   UNL     1      24.493  51.662  87.306  1.00  0.00     0.123 A 
ATOM      9  C   UNL     1      23.604  50.597  87.460  1.00  0.00     0.094 A 
ATOM     10  C   UNL     1      22.330  50.810  87.991  1.00  0.00     0.146 A 
ATOM     11  O   UNL     1      21.507  49.773  88.107  1.00  0.00    -0.456 OA
ENDROOT
BRANCH   1  12
ATOM     12  C   UNL     1      19.443  48.640  88.675  1.00  0.00     0.021 A 
ATOM     13  C   UNL     1      18.043  48.752  88.742  1.00  0.00     0.016 A 
ATOM     14  C   UNL     1      17.242  47.611  88.826  1.00  0.00     0.051 A 
ATOM     15  C   UNL     1      17.824  46.337  88.833  1.00  0.00     0.157 A 
ATOM     16  C   UNL     1      20.021  47.356  88.669  1.00  0.00     0.062 A 
ATOM     17  C   UNL     1      19.220  46.210  88.750  1.00  0.00     0.158 A 
BRANCH  15  18
ATOM     18  O   UNL     1      17.021  45.200  88.917  1.00  0.00    -0.504 OA
ATOM     19  H   UNL     1      16.181  45.184  89.483  1.00  0.00     0.293 HD
ENDBRANCH  15  18
BRANCH  17  20
ATOM     20  O   UNL     1      19.830  44.956  88.743  1.00  0.00    -0.504 OA
ATOM     21  H   UNL     1      19.299  44.100  88.634  1.00  0.00     0.293 HD
ENDBRANCH  17  20
ENDBRANCH   1  12
BRANCH   6  22
ATOM     22  O   UNL     1      22.618  54.482  88.731  1.00  0.00    -0.507 OA
ATOM     23  H   UNL     1      23.285  55.238  88.695  1.00  0.00     0.293 HD
ENDBRANCH   6  22
BRANCH   8  24
ATOM     24  O   UNL     1      25.758  51.458  86.758  1.00  0.00    -0.508 OA
ATOM     25  H   UNL     1      26.466  50.920  87.244  1.00  0.00     0.293 HD
ENDBRANCH   8  24
TORSDOF 5
ENDMDL
MODEL 3
REMARK VINA RESULT:    -3.909      2.281      6.959
REMARK INTER + INTRA:          -4.911
REMARK INTER:                  -4.624
REMARK INTRA:                  -0.286
REMARK UNBOUND:                -0.316
REMARK SMILES O=c1cc(-c2ccc(O)c(O)c2)oc2cc(O)cc(O)c12
REMARK SMILES IDX 4 1 3 2 2 3 1 4 21 5 19 6 18 7 16 8 15 9 14 10 13 11 5 12
REMARK SMILES IDX 6 13 7 14 8 15 12 16 10 17 9 18 11 20 20 22 17 24
REMARK H PARENT 9 19 11 21 20 23 17 25
REMARK Flexibility Score: inf
ROOT
ATOM      1  C   UNL     1      22.488  49.903  87.391  1.00  0.00     0.138 A 
ATOM      2  C   UNL     1      21.660  50.953  87.810  1.00  0.00     0.100 A 
ATOM      3  C   UNL     1      20.385  50.670  88.306  1.00  0.00     0.197 A 
ATOM      4  O   UNL     1      19.689  51.628  88.732  1.00  0.00    -0.289 OA
ATOM      5  C   UNL     1      19.929  49.331  88.350  1.00  0.00     0.107 A 
ATOM      6  C   UNL     1      18.635  48.929  88.796  1.00  0.00     0.134 A 
ATOM      7  C   UNL     1      18.336  47.565  88.906  1.00  0.00     0.093 A 
ATOM      8  C   UNL     1      19.261  46.592  88.529  1.00  0.00     0.123 A 
ATOM      9  C   UNL     1      20.511  46.976  88.040  1.00  0.00     0.094 A 
ATOM     10  C   UNL     1      20.851  48.327  87.952  1.00  0.00     0.146 A 
ATOM     11  O   UNL     1      22.057  48.651  87.495  1.00  0.00    -0.456 OA
ENDROOT
BRANCH   1  12
ATOM     12  C   UNL     1      23.852  50.148  86.855  1.00  0.00     0.021 A 
ATOM     13  C   UNL     1      24.370  49.292  85.868  1.00  0.00     0.016 A 
ATOM     14  C   UNL     1      25.646  49.504  85.342  1.00  0.00     0.051 A 
ATOM     15  C   UNL     1      26.423  50.581  85.786  1.00  0.00     0.157 A 
ATOM     16  C   UNL     1      24.633  51.237  87.287  1.00  0.00     0.062 A 
ATOM     17  C   UNL     1      25.912  51.453  86.760  1.00  0.00     0.158 A 
BRANCH  15  18
ATOM     18  O   UNL     1      27.697  50.790  85.259  1.00  0.00    -0.504 OA
ATOM     19  H   UNL     1      28.061  51.722  85.102  1.00  0.00     0.293 HD
ENDBRANCH  15  18
BRANCH  17  20
ATOM     20  O   UNL     1      26.656  52.542  87.214  1.00  0.00    -0.504 OA
ATOM     21  H   UNL     1      26.386  53.498  87.017  1.00  0.00     0.293 HD
ENDBRANCH  17  20
ENDBRANCH   1  12
BRANCH   6  22
ATOM     22  O   UNL     1      17.607  49.820  89.118  1.00  0.00    -0.507 OA
ATOM     23  H   UNL     1      17.743  50.776  89.409  1.00  0.00     0.293 HD
ENDBRANCH   6  22
BRANCH   8  24
ATOM     24  O   UNL     1      18.924  45.245  88.638  1.00  0.00    -0.508 OA
ATOM     25  H   UNL     1      18.048  44.949  89.054  1.00  0.00     0.293 HD
ENDBRANCH   8  24
TORSDOF 5
ENDMDL
MODEL 4
REMARK VINA RESULT:    -3.873      2.984      6.688
REMARK INTER + INTRA:          -4.868
REMARK INTER:                  -4.550
REMARK INTRA:                  -0.318
REMARK UNBOUND:                -0.316
REMARK SMILES O=c1cc(-c2ccc(O)c(O)c2)oc2cc(O)cc(O)c12
REMARK SMILES IDX 4 1 3 2 2 3 1 4 21 5 19 6 18 7 16 8 15 9 14 10 13 11 5 12
REMARK SMILES IDX 6 13 7 14 8 15 12 16 10 17 9 18 11 20 20 22 17 24
REMARK H PARENT 9 19 11 21 20 23 17 25
REMARK Flexibility Score: inf
ROOT
ATOM      1  C   UNL     1      22.616  49.313  87.258  1.00  0.00     0.138 A 
ATOM      2  C   UNL     1      22.044  50.524  87.671  1.00  0.00     0.100 A 
ATOM      3  C   UNL     1      20.755  50.530  88.208  1.00  0.00     0.197 A 
ATOM      4  O   UNL     1      20.292  51.623  88.627  1.00  0.00    -0.289 OA
ATOM      5  C   UNL     1      20.025  49.321  88.300  1.00  0.00     0.107 A 
ATOM      6  C   UNL     1      18.690  49.214  88.792  1.00  0.00     0.134 A 
ATOM      7  C   UNL     1      18.112  47.948  88.946  1.00  0.00     0.093 A 
ATOM      8  C   UNL     1      18.796  46.792  88.571  1.00  0.00     0.123 A 
ATOM      9  C   UNL     1      20.082  46.890  88.038  1.00  0.00     0.094 A 
ATOM     10  C   UNL     1      20.699  48.135  87.904  1.00  0.00     0.146 A 
ATOM     11  O   UNL     1      21.931  48.184  87.407  1.00  0.00    -0.456 OA
ENDROOT
BRANCH   1  12
ATOM     12  C   UNL     1      23.982  49.249  86.679  1.00  0.00     0.021 A 
ATOM     13  C   UNL     1      24.751  50.422  86.595  1.00  0.00     0.016 A 
ATOM     14  C   UNL     1      26.042  50.389  86.062  1.00  0.00     0.051 A 
ATOM     15  C   UNL     1      26.591  49.181  85.613  1.00  0.00     0.157 A 
ATOM     16  C   UNL     1      24.544  48.035  86.239  1.00  0.00     0.062 A 
ATOM     17  C   UNL     1      25.839  47.999  85.706  1.00  0.00     0.158 A 
BRANCH  15  18
ATOM     18  O   UNL     1      27.879  49.152  85.081  1.00  0.00    -0.504 OA
ATOM     19  H   UNL     1      28.066  48.764  84.164  1.00  0.00     0.293 HD
ENDBRANCH  15  18
BRANCH  17  20
ATOM     20  O   UNL     1      26.360  46.778  85.279  1.00  0.00    -0.504 OA
ATOM     21  H   UNL     1      25.769  46.034  84.928  1.00  0.00     0.293 HD
ENDBRANCH  17  20
ENDBRANCH   1  12
BRANCH   6  22
ATOM     22  O   UNL     1      17.887  50.310  89.117  1.00  0.00    -0.507 OA
ATOM     23  H   UNL     1      17.573  50.538  90.048  1.00  0.00     0.293 HD
ENDBRANCH   6  22
BRANCH   8  24
ATOM     24  O   UNL     1      18.182  45.550  88.725  1.00  0.00    -0.508 OA
ATOM     25  H   UNL     1      17.726  45.288  89.591  1.00  0.00     0.293 HD
ENDBRANCH   8  24
TORSDOF 5
ENDMDL
MODEL 5
REMARK VINA RESULT:    -3.830      1.117      2.707
REMARK INTER + INTRA:          -4.818
REMARK INTER:                  -4.522
REMARK INTRA:                  -0.295
REMARK UNBOUND:                -0.316
REMARK SMILES O=c1cc(-c2ccc(O)c(O)c2)oc2cc(O)cc(O)c12
REMARK SMILES IDX 4 1 3 2 2 3 1 4 21 5 19 6 18 7 16 8 15 9 14 10 13 11 5 12
REMARK SMILES IDX 6 13 7 14 8 15 12 16 10 17 9 18 11 20 20 22 17 24
REMARK H PARENT 9 19 11 21 20 23 17 25
REMARK Flexibility Score: inf
ROOT
ATOM      1  C   UNL     1      20.718  49.732  88.449  1.00  0.00     0.138 A 
ATOM      2  C   UNL     1      22.038  49.466  88.060  1.00  0.00     0.100 A 
ATOM      3  C   UNL     1      22.942  50.521  87.920  1.00  0.00     0.197 A 
ATOM      4  O   UNL     1      24.135  50.245  87.630  1.00  0.00    -0.289 OA
ATOM      5  C   UNL     1      22.510  51.851  88.138  1.00  0.00     0.107 A 
ATOM      6  C   UNL     1      23.333  53.007  87.984  1.00  0.00     0.134 A 
ATOM      7  C   UNL     1      22.828  54.264  88.342  1.00  0.00     0.093 A 
ATOM      8  C   UNL     1      21.517  54.414  88.790  1.00  0.00     0.123 A 
ATOM      9  C   UNL     1      20.687  53.296  88.892  1.00  0.00     0.094 A 
ATOM     10  C   UNL     1      21.171  52.025  88.577  1.00  0.00     0.146 A 
ATOM     11  O   UNL     1      20.353  50.984  88.702  1.00  0.00    -0.456 OA
ENDROOT
BRANCH   1  12
ATOM     12  C   UNL     1      19.716  48.648  88.612  1.00  0.00     0.021 A 
ATOM     13  C   UNL     1      18.357  48.978  88.746  1.00  0.00     0.016 A 
ATOM     14  C   UNL     1      17.393  47.978  88.894  1.00  0.00     0.051 A 
ATOM     15  C   UNL     1      17.770  46.629  88.900  1.00  0.00     0.157 A 
ATOM     16  C   UNL     1      20.088  47.290  88.606  1.00  0.00     0.062 A 
ATOM     17  C   UNL     1      19.123  46.284  88.751  1.00  0.00     0.158 A 
BRANCH  15  18
ATOM     18  O   UNL     1      16.806  45.633  89.048  1.00  0.00    -0.504 OA
ATOM     19  H   UNL     1      15.931  45.661  88.540  1.00  0.00     0.293 HD
ENDBRANCH  15  18
BRANCH  17  20
ATOM     20  O   UNL     1      19.530  44.951  88.742  1.00  0.00    -0.504 OA
ATOM     21  H   UNL     1      19.342  44.326  89.517  1.00  0.00     0.293 HD
ENDBRANCH  17  20
ENDBRANCH   1  12
BRANCH   6  22
ATOM     22  O   UNL     1      24.630  52.980  87.466  1.00  0.00    -0.507 OA
ATOM     23  H   UNL     1      25.243  53.778  87.407  1.00  0.00     0.293 HD
ENDBRANCH   6  22
BRANCH   8  24
ATOM     24  O   UNL     1      21.045  55.682  89.123  1.00  0.00    -0.508 OA
ATOM     25  H   UNL     1      21.548  56.521  88.859  1.00  0.00     0.293 HD
ENDBRANCH   8  24
TORSDOF 5
ENDMDL
MODEL 6
REMARK VINA RESULT:    -3.794      2.368      6.827
REMARK INTER + INTRA:          -4.776
REMARK INTER:                  -4.474
REMARK INTRA:                  -0.302
REMARK UNBOUND:                -0.316
REMARK SMILES O=c1cc(-c2ccc(O)c(O)c2)oc2cc(O)cc(O)c12
REMARK SMILES IDX 4 1 3 2 2 3 1 4 21 5 19 6 18 7 16 8 15 9 14 10 13 11 5 12
REMARK SMILES IDX 6 13 7 14 8 15 12 16 10 17 9 18 11 20 20 22 17 24
REMARK H PARENT 9 19 11 21 20 23 17 25
REMARK Flexibility Score: inf
ROOT
ATOM      1  C   UNL     1      22.451  49.888  87.331  1.00  0.00     0.138 A 
ATOM      2  C   UNL     1      21.909  48.600  87.435  1.00  0.00     0.100 A 
ATOM      3  C   UNL     1      20.600  48.437  87.894  1.00  0.00     0.197 A 
ATOM      4  O   UNL     1      20.120  47.274  87.917  1.00  0.00    -0.289 OA
ATOM      5  C   UNL     1      19.844  49.570  88.281  1.00  0.00     0.107 A 
ATOM      6  C   UNL     1      18.517  49.520  88.802  1.00  0.00     0.134 A 
ATOM      7  C   UNL     1      17.826  50.715  89.041  1.00  0.00     0.093 A 
ATOM      8  C   UNL     1      18.433  51.953  88.836  1.00  0.00     0.123 A 
ATOM      9  C   UNL     1      19.750  52.012  88.378  1.00  0.00     0.094 A 
ATOM     10  C   UNL     1      20.454  50.839  88.097  1.00  0.00     0.146 A 
ATOM     11  O   UNL     1      21.702  50.938  87.648  1.00  0.00    -0.456 OA
ENDROOT
BRANCH   1  12
ATOM     12  C   UNL     1      23.837  50.118  86.850  1.00  0.00     0.021 A 
ATOM     13  C   UNL     1      24.372  49.278  85.858  1.00  0.00     0.016 A 
ATOM     14  C   UNL     1      25.670  49.477  85.383  1.00  0.00     0.051 A 
ATOM     15  C   UNL     1      26.454  50.525  85.883  1.00  0.00     0.157 A 
ATOM     16  C   UNL     1      24.625  51.178  87.339  1.00  0.00     0.062 A 
ATOM     17  C   UNL     1      25.926  51.381  86.863  1.00  0.00     0.158 A 
BRANCH  15  18
ATOM     18  O   UNL     1      27.749  50.720  85.407  1.00  0.00    -0.504 OA
ATOM     19  H   UNL     1      28.538  50.215  85.792  1.00  0.00     0.293 HD
ENDBRANCH  15  18
BRANCH  17  20
ATOM     20  O   UNL     1      26.676  52.440  87.373  1.00  0.00    -0.504 OA
ATOM     21  H   UNL     1      27.591  52.677  87.009  1.00  0.00     0.293 HD
ENDBRANCH  17  20
ENDBRANCH   1  12
BRANCH   6  22
ATOM     22  O   UNL     1      17.847  48.337  89.122  1.00  0.00    -0.507 OA
ATOM     23  H   UNL     1      17.557  47.640  88.454  1.00  0.00     0.293 HD
ENDBRANCH   6  22
BRANCH   8  24
ATOM     24  O   UNL     1      17.719  53.120  89.098  1.00  0.00    -0.508 OA
ATOM     25  H   UNL     1      17.232  53.257  89.977  1.00  0.00     0.293 HD
ENDBRANCH   8  24
TORSDOF 5
ENDMDL
MODEL 7
REMARK VINA RESULT:    -3.771      3.168      4.576
REMARK INTER + INTRA:          -4.748
REMARK INTER:                  -4.432
REMARK INTRA:                  -0.317
REMARK UNBOUND:                -0.316
REMARK SMILES O=c1cc(-c2ccc(O)c(O)c2)oc2cc(O)cc(O)c12
REMARK SMILES IDX 4 1 3 2 2 3 1 4 21 5 19 6 18 7 16 8 15 9 14 10 13 11 5 12
REMARK SMILES IDX 6 13 7 14 8 15 12 16 10 17 9 18 11 20 20 22 17 24
REMARK H PARENT 9 19 11 21 20 23 17 25
REMARK Flexibility Score: inf
ROOT
ATOM      1  C   UNL     1      22.307  49.056  87.528  1.00  0.00     0.138 A 
ATOM      2  C   UNL     1      22.776  50.371  87.651  1.00  0.00     0.100 A 
ATOM      3  C   UNL     1      24.074  50.682  87.241  1.00  0.00     0.197 A 
ATOM      4  O   UNL     1      24.445  51.882  87.306  1.00  0.00    -0.289 OA
ATOM      5  C   UNL     1      24.916  49.661  86.737  1.00  0.00     0.107 A 
ATOM      6  C   UNL     1      26.269  49.854  86.328  1.00  0.00     0.134 A 
ATOM      7  C   UNL     1      26.967  48.794  85.735  1.00  0.00     0.093 A 
ATOM      8  C   UNL     1      26.383  47.536  85.591  1.00  0.00     0.123 A 
ATOM      9  C   UNL     1      25.077  47.323  86.038  1.00  0.00     0.094 A 
ATOM     10  C   UNL     1      24.343  48.369  86.601  1.00  0.00     0.146 A 
ATOM     11  O   UNL     1      23.098  48.129  87.000  1.00  0.00    -0.456 OA
ENDROOT
BRANCH   1  12
ATOM     12  C   UNL     1      20.936  48.671  87.949  1.00  0.00     0.021 A 
ATOM     13  C   UNL     1      20.015  49.673  88.302  1.00  0.00     0.016 A 
ATOM     14  C   UNL     1      18.717  49.339  88.695  1.00  0.00     0.051 A 
ATOM     15  C   UNL     1      18.313  47.998  88.732  1.00  0.00     0.157 A 
ATOM     16  C   UNL     1      20.519  47.326  87.975  1.00  0.00     0.062 A 
ATOM     17  C   UNL     1      19.217  46.988  88.367  1.00  0.00     0.158 A 
BRANCH  15  18
ATOM     18  O   UNL     1      17.016  47.668  89.125  1.00  0.00    -0.504 OA
ATOM     19  H   UNL     1      16.569  48.120  89.913  1.00  0.00     0.293 HD
ENDBRANCH  15  18
BRANCH  17  20
ATOM     20  O   UNL     1      18.843  45.645  88.382  1.00  0.00    -0.504 OA
ATOM     21  H   UNL     1      17.904  45.352  88.621  1.00  0.00     0.293 HD
ENDBRANCH  17  20
ENDBRANCH   1  12
BRANCH   6  22
ATOM     22  O   UNL     1      26.976  51.046  86.502  1.00  0.00    -0.507 OA
ATOM     23  H   UNL     1      26.895  51.856  85.907  1.00  0.00     0.293 HD
ENDBRANCH   6  22
BRANCH   8  24
ATOM     24  O   UNL     1      27.113  46.501  85.010  1.00  0.00    -0.508 OA
ATOM     25  H   UNL     1      26.819  45.535  85.092  1.00  0.00     0.293 HD
ENDBRANCH   8  24
TORSDOF 5
ENDMDL
MODEL 8
REMARK VINA RESULT:    -3.731      3.998      6.466
REMARK INTER + INTRA:          -4.702
REMARK INTER:                  -4.429
REMARK INTRA:                  -0.274
REMARK UNBOUND:                -0.316
REMARK SMILES O=c1cc(-c2ccc(O)c(O)c2)oc2cc(O)cc(O)c12
REMARK SMILES IDX 4 1 3 2 2 3 1 4 21 5 19 6 18 7 16 8 15 9 14 10 13 11 5 12
REMARK SMILES IDX 6 13 7 14 8 15 12 16 10 17 9 18 11 20 20 22 17 24
REMARK H PARENT 9 19 11 21 20 23 17 25
REMARK Flexibility Score: inf
ROOT
ATOM      1  C   UNL     1      23.411  49.318  87.321  1.00  0.00     0.138 A 
ATOM      2  C   UNL     1      23.734  48.108  87.950  1.00  0.00     0.100 A 
ATOM      3  C   UNL     1      24.893  47.424  87.577  1.00  0.00     0.197 A 
ATOM      4  O   UNL     1      25.189  46.373  88.203  1.00  0.00    -0.289 OA
ATOM      5  C   UNL     1      25.713  47.940  86.546  1.00  0.00     0.107 A 
ATOM      6  C   UNL     1      26.894  47.308  86.055  1.00  0.00     0.134 A 
ATOM      7  C   UNL     1      27.689  47.971  85.111  1.00  0.00     0.093 A 
ATOM      8  C   UNL     1      27.316  49.212  84.598  1.00  0.00     0.123 A 
ATOM      9  C   UNL     1      26.134  49.815  85.032  1.00  0.00     0.094 A 
ATOM     10  C   UNL     1      25.337  49.195  85.997  1.00  0.00     0.146 A 
ATOM     11  O   UNL     1      24.227  49.808  86.395  1.00  0.00    -0.456 OA
ENDROOT
BRANCH   1  12
ATOM     12  C   UNL     1      22.191  50.085  87.679  1.00  0.00     0.021 A 
ATOM     13  C   UNL     1      22.302  51.449  87.998  1.00  0.00     0.016 A 
ATOM     14  C   UNL     1      21.169  52.196  88.331  1.00  0.00     0.051 A 
ATOM     15  C   UNL     1      19.904  51.594  88.340  1.00  0.00     0.157 A 
ATOM     16  C   UNL     1      20.915  49.489  87.677  1.00  0.00     0.062 A 
ATOM     17  C   UNL     1      19.777  50.236  88.008  1.00  0.00     0.158 A 
BRANCH  15  18
ATOM     18  O   UNL     1      18.775  52.342  88.673  1.00  0.00    -0.504 OA
ATOM     19  H   UNL     1      18.439  53.090  88.078  1.00  0.00     0.293 HD
ENDBRANCH  15  18
BRANCH  17  20
ATOM     20  O   UNL     1      18.531  49.611  87.997  1.00  0.00    -0.504 OA
ATOM     21  H   UNL     1      18.422  48.631  87.762  1.00  0.00     0.293 HD
ENDBRANCH  17  20
ENDBRANCH   1  12
BRANCH   6  22
ATOM     22  O   UNL     1      27.315  46.032  86.438  1.00  0.00    -0.507 OA
ATOM     23  H   UNL     1      28.277  45.748  86.538  1.00  0.00     0.293 HD
ENDBRANCH   6  22
BRANCH   8  24
ATOM     24  O   UNL     1      28.125  49.835  83.650  1.00  0.00    -0.508 OA
ATOM     25  H   UNL     1      28.980  49.404  83.317  1.00  0.00     0.293 HD
ENDBRANCH   8  24
TORSDOF 5
ENDMDL
