MODEL 1
REMARK VINA RESULT:    -3.361      0.000      0.000
REMARK INTER + INTRA:          -4.714
REMARK INTER:                  -4.540
REMARK INTRA:                  -0.174
REMARK UNBOUND:                -0.174
REMARK SMILES [NH3+]CCCC[C@H]([NH3+])C(=O)[O-]
REMARK SMILES IDX 4 1 3 2 2 3 1 4 5 8 6 9 7 10 8 14 9 15 10 16
REMARK H PARENT 1 5 1 6 1 7 7 11 7 12 7 13
REMARK Flexibility Score: inf
ROOT
ATOM      1  C   UNL     1     -40.437  31.197  14.503  1.00  0.00     0.012 C 
ENDROOT
BRANCH   1   2
ATOM      2  C   UNL     1     -41.105  31.992  13.373  1.00  0.00     0.061 C 
BRANCH   2   3
ATOM      3  C   UNL     1     -40.728  31.420  12.000  1.00  0.00     0.258 C 
BRANCH   3   4
ATOM      4  N   UNL     1     -41.923  31.030  11.251  1.00  0.00    -0.358 N 
ATOM      5  H   UNL     1     -42.389  31.877  10.853  1.00  0.00     0.344 HD
ATOM      6  H   UNL     1     -42.589  30.521  11.878  1.00  0.00     0.344 HD
ATOM      7  H   UNL     1     -41.644  30.396  10.468  1.00  0.00     0.344 HD
ENDBRANCH   3   4
ENDBRANCH   2   3
ENDBRANCH   1   2
BRANCH   1   8
ATOM      8  C   UNL     1     -39.698  29.968  13.949  1.00  0.00     0.072 C 
BRANCH   8   9
ATOM      9  C   UNL     1     -39.832  28.738  14.873  1.00  0.00     0.227 C 
BRANCH   9  10
ATOM     10  N   UNL     1     -40.775  29.015  15.963  1.00  0.00    -0.350 N 
ATOM     11  H   UNL     1     -41.651  28.460  15.825  1.00  0.00     0.345 HD
ATOM     12  H   UNL     1     -41.029  30.030  15.963  1.00  0.00     0.345 HD
ATOM     13  H   UNL     1     -40.354  28.769  16.888  1.00  0.00     0.345 HD
ENDBRANCH   9  10
BRANCH   9  14
ATOM     14  C   UNL     1     -38.495  28.330  15.435  1.00  0.00     0.099 C 
ATOM     15  O   UNL     1     -38.179  27.113  15.514  1.00  0.00    -0.544 OA
ATOM     16  O   UNL     1     -37.605  29.299  15.881  1.00  0.00    -0.544 OA
ENDBRANCH   9  14
ENDBRANCH   8   9
ENDBRANCH   1   8
TORSDOF 7
ENDMDL
MODEL 2
REMARK VINA RESULT:    -3.279      2.598      4.492
REMARK INTER + INTRA:          -4.604
REMARK INTER:                  -4.153
REMARK INTRA:                  -0.451
REMARK UNBOUND:                -0.174
REMARK SMILES [NH3+]CCCC[C@H]([NH3+])C(=O)[O-]
REMARK SMILES IDX 4 1 3 2 2 3 1 4 5 8 6 9 7 10 8 14 9 15 10 16
REMARK H PARENT 1 5 1 6 1 7 7 11 7 12 7 13
REMARK Flexibility Score: inf
ROOT
ATOM      1  C   UNL     1     -40.533  29.740  14.654  1.00  0.00     0.012 C 
ENDROOT
BRANCH   1   2
ATOM      2  C   UNL     1     -39.456  28.718  15.040  1.00  0.00     0.061 C 
BRANCH   2   3
ATOM      3  C   UNL     1     -38.312  29.388  15.812  1.00  0.00     0.258 C 
BRANCH   3   4
ATOM      4  N   UNL     1     -37.486  30.201  14.918  1.00  0.00    -0.358 N 
ATOM      5  H   UNL     1     -37.763  31.206  14.989  1.00  0.00     0.344 HD
ATOM      6  H   UNL     1     -37.594  29.872  13.931  1.00  0.00     0.344 HD
ATOM      7  H   UNL     1     -36.483  30.105  15.199  1.00  0.00     0.344 HD
ENDBRANCH   3   4
ENDBRANCH   2   3
ENDBRANCH   1   2
BRANCH   1   8
ATOM      8  C   UNL     1     -40.857  29.658  13.154  1.00  0.00     0.072 C 
BRANCH   8   9
ATOM      9  C   UNL     1     -40.836  31.044  12.474  1.00  0.00     0.227 C 
BRANCH   9  10
ATOM     10  N   UNL     1     -41.715  31.054  11.299  1.00  0.00    -0.350 N 
ATOM     11  H   UNL     1     -41.321  30.433  10.555  1.00  0.00     0.345 HD
ATOM     12  H   UNL     1     -41.780  32.024  10.913  1.00  0.00     0.345 HD
ATOM     13  H   UNL     1     -42.673  30.721  11.551  1.00  0.00     0.345 HD
ENDBRANCH   9  10
BRANCH   9  14
ATOM     14  C   UNL     1     -39.435  31.435  12.077  1.00  0.00     0.099 C 
ATOM     15  O   UNL     1     -39.158  32.634  11.809  1.00  0.00    -0.544 OA
ATOM     16  O   UNL     1     -38.442  30.467  11.995  1.00  0.00    -0.544 OA
ENDBRANCH   9  14
ENDBRANCH   8   9
ENDBRANCH   1   8
TORSDOF 7
ENDMDL
MODEL 3
REMARK VINA RESULT:    -3.274      3.821      4.520
REMARK INTER + INTRA:          -4.597
REMARK INTER:                  -4.091
REMARK INTRA:                  -0.506
REMARK UNBOUND:                -0.174
REMARK SMILES [NH3+]CCCC[C@H]([NH3+])C(=O)[O-]
REMARK SMILES IDX 4 1 3 2 2 3 1 4 5 8 6 9 7 10 8 14 9 15 10 16
REMARK H PARENT 1 5 1 6 1 7 7 11 7 12 7 13
REMARK Flexibility Score: inf
ROOT
ATOM      1  C   UNL     1     -40.575  30.614  14.548  1.00  0.00     0.012 C 
ENDROOT
BRANCH   1   2
ATOM      2  C   UNL     1     -40.831  29.868  13.233  1.00  0.00     0.061 C 
BRANCH   2   3
ATOM      3  C   UNL     1     -40.561  30.774  12.024  1.00  0.00     0.258 C 
BRANCH   3   4
ATOM      4  N   UNL     1     -41.796  31.038  11.285  1.00  0.00    -0.358 N 
ATOM      5  H   UNL     1     -42.625  30.781  11.867  1.00  0.00     0.344 HD
ATOM      6  H   UNL     1     -41.805  30.490  10.394  1.00  0.00     0.344 HD
ATOM      7  H   UNL     1     -41.845  32.057  11.056  1.00  0.00     0.344 HD
ENDBRANCH   3   4
ENDBRANCH   2   3
ENDBRANCH   1   2
BRANCH   1   8
ATOM      8  C   UNL     1     -39.986  32.009  14.284  1.00  0.00     0.072 C 
BRANCH   8   9
ATOM      9  C   UNL     1     -40.887  33.137  14.832  1.00  0.00     0.227 C 
BRANCH   9  10
ATOM     10  N   UNL     1     -41.870  32.597  15.777  1.00  0.00    -0.350 N 
ATOM     11  H   UNL     1     -42.796  32.486  15.303  1.00  0.00     0.345 HD
ATOM     12  H   UNL     1     -41.992  33.259  16.578  1.00  0.00     0.345 HD
ATOM     13  H   UNL     1     -41.559  31.669  16.146  1.00  0.00     0.345 HD
ENDBRANCH   9  10
BRANCH   9  14
ATOM     14  C   UNL     1     -41.587  33.866  13.715  1.00  0.00     0.099 C 
ATOM     15  O   UNL     1     -42.597  33.362  13.156  1.00  0.00    -0.544 OA
ATOM     16  O   UNL     1     -41.112  35.099  13.286  1.00  0.00    -0.544 OA
ENDBRANCH   9  14
ENDBRANCH   8   9
ENDBRANCH   1   8
TORSDOF 7
ENDMDL
MODEL 4
REMARK VINA RESULT:    -3.264      3.237      5.042
REMARK INTER + INTRA:          -4.582
REMARK INTER:                  -4.130
REMARK INTRA:                  -0.453
REMARK UNBOUND:                -0.174
REMARK SMILES [NH3+]CCCC[C@H]([NH3+])C(=O)[O-]
REMARK SMILES IDX 4 1 3 2 2 3 1 4 5 8 6 9 7 10 8 14 9 15 10 16
REMARK H PARENT 1 5 1 6 1 7 7 11 7 12 7 13
REMARK Flexibility Score: inf
ROOT
ATOM      1  C   UNL     1     -40.385  31.131  12.591  1.00  0.00     0.012 C 
ENDROOT
BRANCH   1   2
ATOM      2  C   UNL     1     -40.826  29.772  13.149  1.00  0.00     0.061 C 
BRANCH   2   3
ATOM      3  C   UNL     1     -40.262  29.545  14.557  1.00  0.00     0.258 C 
BRANCH   3   4
ATOM      4  N   UNL     1     -40.674  30.617  15.464  1.00  0.00    -0.358 N 
ATOM      5  H   UNL     1     -40.563  31.545  14.996  1.00  0.00     0.344 HD
ATOM      6  H   UNL     1     -40.098  30.590  16.337  1.00  0.00     0.344 HD
ATOM      7  H   UNL     1     -41.679  30.482  15.717  1.00  0.00     0.344 HD
ENDBRANCH   3   4
ENDBRANCH   2   3
ENDBRANCH   1   2
BRANCH   1   8
ATOM      8  C   UNL     1     -41.593  31.942  12.096  1.00  0.00     0.072 C 
BRANCH   8   9
ATOM      9  C   UNL     1     -42.186  32.843  13.200  1.00  0.00     0.227 C 
BRANCH   9  10
ATOM     10  N   UNL     1     -43.373  33.549  12.705  1.00  0.00    -0.350 N 
ATOM     11  H   UNL     1     -43.191  34.579  12.684  1.00  0.00     0.345 HD
ATOM     12  H   UNL     1     -44.182  33.375  13.345  1.00  0.00     0.345 HD
ATOM     13  H   UNL     1     -43.622  33.225  11.743  1.00  0.00     0.345 HD
ENDBRANCH   9  10
BRANCH   9  14
ATOM     14  C   UNL     1     -41.166  33.831  13.704  1.00  0.00     0.099 C 
ATOM     15  O   UNL     1     -40.775  34.776  12.970  1.00  0.00    -0.544 OA
ATOM     16  O   UNL     1     -40.643  33.696  14.984  1.00  0.00    -0.544 OA
ENDBRANCH   9  14
ENDBRANCH   8   9
ENDBRANCH   1   8
TORSDOF 7
ENDMDL
MODEL 5
REMARK VINA RESULT:    -3.259      2.757      4.847
REMARK INTER + INTRA:          -4.577
REMARK INTER:                  -4.405
REMARK INTRA:                  -0.172
REMARK UNBOUND:                -0.174
REMARK SMILES [NH3+]CCCC[C@H]([NH3+])C(=O)[O-]
REMARK SMILES IDX 4 1 3 2 2 3 1 4 5 8 6 9 7 10 8 14 9 15 10 16
REMARK H PARENT 1 5 1 6 1 7 7 11 7 12 7 13
REMARK Flexibility Score: inf
ROOT
ATOM      1  C   UNL     1     -38.014  27.922  15.360  1.00  0.00     0.012 C 
ENDROOT
BRANCH   1   2
ATOM      2  C   UNL     1     -37.125  26.933  16.125  1.00  0.00     0.061 C 
BRANCH   2   3
ATOM      3  C   UNL     1     -37.567  25.486  15.872  1.00  0.00     0.258 C 
BRANCH   3   4
ATOM      4  N   UNL     1     -38.779  25.445  15.052  1.00  0.00    -0.358 N 
ATOM      5  H   UNL     1     -39.416  24.690  15.392  1.00  0.00     0.344 HD
ATOM      6  H   UNL     1     -38.529  25.275  14.051  1.00  0.00     0.344 HD
ATOM      7  H   UNL     1     -39.272  26.364  15.127  1.00  0.00     0.344 HD
ENDBRANCH   3   4
ENDBRANCH   2   3
ENDBRANCH   1   2
BRANCH   1   8
ATOM      8  C   UNL     1     -38.146  29.249  16.124  1.00  0.00     0.072 C 
BRANCH   8   9
ATOM      9  C   UNL     1     -39.526  29.910  15.916  1.00  0.00     0.227 C 
BRANCH   9  10
ATOM     10  N   UNL     1     -40.599  28.924  16.089  1.00  0.00    -0.350 N 
ATOM     11  H   UNL     1     -40.381  28.061  15.540  1.00  0.00     0.345 HD
ATOM     12  H   UNL     1     -41.501  29.317  15.734  1.00  0.00     0.345 HD
ATOM     13  H   UNL     1     -40.710  28.671  17.098  1.00  0.00     0.345 HD
ENDBRANCH   9  10
BRANCH   9  14
ATOM     14  C   UNL     1     -39.624  30.550  14.556  1.00  0.00     0.099 C 
ATOM     15  O   UNL     1     -38.828  31.467  14.221  1.00  0.00    -0.544 OA
ATOM     16  O   UNL     1     -40.606  30.138  13.664  1.00  0.00    -0.544 OA
ENDBRANCH   9  14
ENDBRANCH   8   9
ENDBRANCH   1   8
TORSDOF 7
ENDMDL
MODEL 6
REMARK VINA RESULT:    -3.251      2.771      4.340
REMARK INTER + INTRA:          -4.566
REMARK INTER:                  -4.068
REMARK INTRA:                  -0.497
REMARK UNBOUND:                -0.174
REMARK SMILES [NH3+]CCCC[C@H]([NH3+])C(=O)[O-]
REMARK SMILES IDX 4 1 3 2 2 3 1 4 5 8 6 9 7 10 8 14 9 15 10 16
REMARK H PARENT 1 5 1 6 1 7 7 11 7 12 7 13
REMARK Flexibility Score: inf
ROOT
ATOM      1  C   UNL     1     -37.141  28.638  15.713  1.00  0.00     0.012 C 
ENDROOT
BRANCH   1   2
ATOM      2  C   UNL     1     -36.144  28.183  14.639  1.00  0.00     0.061 C 
BRANCH   2   3
ATOM      3  C   UNL     1     -35.447  29.386  13.990  1.00  0.00     0.258 C 
BRANCH   3   4
ATOM      4  N   UNL     1     -36.077  30.640  14.403  1.00  0.00    -0.358 N 
ATOM      5  H   UNL     1     -35.808  31.410  13.749  1.00  0.00     0.344 HD
ATOM      6  H   UNL     1     -35.785  30.886  15.377  1.00  0.00     0.344 HD
ATOM      7  H   UNL     1     -37.116  30.524  14.380  1.00  0.00     0.344 HD
ENDBRANCH   3   4
ENDBRANCH   2   3
ENDBRANCH   1   2
BRANCH   1   8
ATOM      8  C   UNL     1     -38.568  28.188  15.364  1.00  0.00     0.072 C 
BRANCH   8   9
ATOM      9  C   UNL     1     -39.549  29.377  15.261  1.00  0.00     0.227 C 
BRANCH   9  10
ATOM     10  N   UNL     1     -40.844  29.028  15.855  1.00  0.00    -0.350 N 
ATOM     11  H   UNL     1     -41.178  29.809  16.466  1.00  0.00     0.345 HD
ATOM     12  H   UNL     1     -40.744  28.171  16.447  1.00  0.00     0.345 HD
ATOM     13  H   UNL     1     -41.556  28.847  15.110  1.00  0.00     0.345 HD
ENDBRANCH   9  10
BRANCH   9  14
ATOM     14  C   UNL     1     -39.733  29.810  13.830  1.00  0.00     0.099 C 
ATOM     15  O   UNL     1     -38.820  30.437  13.229  1.00  0.00    -0.544 OA
ATOM     16  O   UNL     1     -40.920  29.527  13.167  1.00  0.00    -0.544 OA
ENDBRANCH   9  14
ENDBRANCH   8   9
ENDBRANCH   1   8
TORSDOF 7
ENDMDL
MODEL 7
REMARK VINA RESULT:    -3.204      1.538      1.941
REMARK INTER + INTRA:          -4.501
REMARK INTER:                  -4.030
REMARK INTRA:                  -0.472
REMARK UNBOUND:                -0.174
REMARK SMILES [NH3+]CCCC[C@H]([NH3+])C(=O)[O-]
REMARK SMILES IDX 4 1 3 2 2 3 1 4 5 8 6 9 7 10 8 14 9 15 10 16
REMARK H PARENT 1 5 1 6 1 7 7 11 7 12 7 13
REMARK Flexibility Score: inf
ROOT
ATOM      1  C   UNL     1     -41.420  32.546  14.735  1.00  0.00     0.012 C 
ENDROOT
BRANCH   1   2
ATOM      2  C   UNL     1     -41.071  32.919  13.289  1.00  0.00     0.061 C 
BRANCH   2   3
ATOM      3  C   UNL     1     -42.151  32.426  12.317  1.00  0.00     0.258 C 
BRANCH   3   4
ATOM      4  N   UNL     1     -41.621  31.392  11.428  1.00  0.00    -0.358 N 
ATOM      5  H   UNL     1     -41.624  30.466  11.913  1.00  0.00     0.344 HD
ATOM      6  H   UNL     1     -40.646  31.635  11.135  1.00  0.00     0.344 HD
ATOM      7  H   UNL     1     -42.225  31.331  10.577  1.00  0.00     0.344 HD
ENDBRANCH   3   4
ENDBRANCH   2   3
ENDBRANCH   1   2
BRANCH   1   8
ATOM      8  C   UNL     1     -40.377  31.581  15.322  1.00  0.00     0.072 C 
BRANCH   8   9
ATOM      9  C   UNL     1     -40.491  30.162  14.725  1.00  0.00     0.227 C 
BRANCH   9  10
ATOM     10  N   UNL     1     -40.771  29.181  15.780  1.00  0.00    -0.350 N 
ATOM     11  H   UNL     1     -40.353  29.502  16.683  1.00  0.00     0.345 HD
ATOM     12  H   UNL     1     -40.343  28.260  15.531  1.00  0.00     0.345 HD
ATOM     13  H   UNL     1     -41.802  29.056  15.904  1.00  0.00     0.345 HD
ENDBRANCH   9  10
BRANCH   9  14
ATOM     14  C   UNL     1     -39.237  29.780  13.981  1.00  0.00     0.099 C 
ATOM     15  O   UNL     1     -38.326  29.128  14.557  1.00  0.00    -0.544 OA
ATOM     16  O   UNL     1     -39.075  30.157  12.654  1.00  0.00    -0.544 OA
ENDBRANCH   9  14
ENDBRANCH   8   9
ENDBRANCH   1   8
TORSDOF 7
ENDMDL
MODEL 8
REMARK VINA RESULT:    -3.109      3.139      4.704
REMARK INTER + INTRA:          -4.373
REMARK INTER:                  -3.890
REMARK INTRA:                  -0.483
REMARK UNBOUND:                -0.174
REMARK SMILES [NH3+]CCCC[C@H]([NH3+])C(=O)[O-]
REMARK SMILES IDX 4 1 3 2 2 3 1 4 5 8 6 9 7 10 8 14 9 15 10 16
REMARK H PARENT 1 5 1 6 1 7 7 11 7 12 7 13
REMARK Flexibility Score: inf
ROOT
ATOM      1  C   UNL     1     -40.015  30.657  12.447  1.00  0.00     0.012 C 
ENDROOT
BRANCH   1   2
ATOM      2  C   UNL     1     -40.777  29.596  13.250  1.00  0.00     0.061 C 
BRANCH   2   3
ATOM      3  C   UNL     1     -40.001  29.199  14.513  1.00  0.00     0.258 C 
BRANCH   3   4
ATOM      4  N   UNL     1     -40.865  29.247  15.693  1.00  0.00    -0.358 N 
ATOM      5  H   UNL     1     -41.861  29.381  15.404  1.00  0.00     0.344 HD
ATOM      6  H   UNL     1     -40.571  30.029  16.323  1.00  0.00     0.344 HD
ATOM      7  H   UNL     1     -40.782  28.344  16.214  1.00  0.00     0.344 HD
ENDBRANCH   3   4
ENDBRANCH   2   3
ENDBRANCH   1   2
BRANCH   1   8
ATOM      8  C   UNL     1     -40.907  31.874  12.156  1.00  0.00     0.072 C 
BRANCH   8   9
ATOM      9  C   UNL     1     -40.671  33.025  13.158  1.00  0.00     0.227 C 
BRANCH   9  10
ATOM     10  N   UNL     1     -39.314  32.955  13.711  1.00  0.00    -0.350 N 
ATOM     11  H   UNL     1     -38.725  33.719  13.306  1.00  0.00     0.345 HD
ATOM     12  H   UNL     1     -38.877  32.038  13.461  1.00  0.00     0.345 HD
ATOM     13  H   UNL     1     -39.333  33.052  14.752  1.00  0.00     0.345 HD
ENDBRANCH   9  10
BRANCH   9  14
ATOM     14  C   UNL     1     -41.687  32.997  14.270  1.00  0.00     0.099 C 
ATOM     15  O   UNL     1     -41.447  32.379  15.340  1.00  0.00    -0.544 OA
ATOM     16  O   UNL     1     -42.905  33.648  14.114  1.00  0.00    -0.544 OA
ENDBRANCH   9  14
ENDBRANCH   8   9
ENDBRANCH   1   8
TORSDOF 7
ENDMDL
