MODEL 1
REMARK VINA RESULT:     8.115      0.000      0.000
REMARK INTER + INTRA:           9.969
REMARK INTER:                   9.301
REMARK INTRA:                   0.668
REMARK UNBOUND:                 0.668
REMARK SMILES C=C(C)[C@H]1CC[C@]2(C(=O)[O-])CC[C@@]3(C)[C@@H](CC[C@H]4[C@]5(C)CC[C@H](O)C(C)(C)[C@@H]5CC[C@]43C)[C@H]12
REMARK SMILES IDX 7 1 6 2 33 3 11 4 5 5 15 6 4 7 12 8 16 9 13 10 17 11 31 12
REMARK SMILES IDX 14 13 18 14 30 15 32 16 19 17 29 18 21 19 20 20 28 21 22 22
REMARK SMILES IDX 25 23 23 24 26 25 27 26 8 27 9 28 10 29 2 30 3 31 1 32 24 33
REMARK H PARENT 24 34
REMARK Flexibility Score: inf
ROOT
ATOM      1  C   UNL     1      42.475  21.915  -1.203  1.00  0.00     0.014 C 
ATOM      2  C   UNL     1      41.245  22.432  -0.420  1.00  0.00     0.014 C 
ATOM      3  C   UNL     1      43.116  23.179  -1.871  1.00  0.00     0.012 C 
ATOM      4  C   UNL     1      43.452  21.225  -0.210  1.00  0.00     0.014 C 
ATOM      5  C   UNL     1      40.870  23.758  -1.047  1.00  0.00     0.009 C 
ATOM      6  C   UNL     1      44.614  23.402  -1.465  1.00  0.00     0.000 C 
ATOM      7  C   UNL     1      42.197  24.369  -1.476  1.00  0.00     0.018 C 
ATOM      8  C   UNL     1      44.824  20.915  -0.828  1.00  0.00     0.008 C 
ATOM      9  C   UNL     1      45.226  24.571  -2.238  1.00  0.00     0.005 C 
ATOM     10  C   UNL     1      45.505  22.111  -1.613  1.00  0.00    -0.024 C 
ATOM     11  C   UNL     1      46.644  24.869  -1.781  1.00  0.00     0.005 C 
ATOM     12  C   UNL     1      47.020  22.392  -1.095  1.00  0.00    -0.024 C 
ATOM     13  C   UNL     1      45.537  21.679  -3.124  1.00  0.00     0.012 C 
ATOM     14  C   UNL     1      47.655  23.663  -1.826  1.00  0.00     0.002 C 
ATOM     15  C   UNL     1      47.071  22.698   0.436  1.00  0.00     0.008 C 
ATOM     16  C   UNL     1      47.844  21.088  -1.381  1.00  0.00     0.012 C 
ATOM     17  C   UNL     1      49.111  24.145  -1.313  1.00  0.00    -0.026 C 
ATOM     18  C   UNL     1      48.458  23.090   0.963  1.00  0.00     0.005 C 
ATOM     19  C   UNL     1      50.253  23.164  -1.734  1.00  0.00     0.010 C 
ATOM     20  C   UNL     1      49.421  25.498  -2.042  1.00  0.00     0.012 C 
ATOM     21  C   UNL     1      49.121  24.314   0.262  1.00  0.00     0.003 C 
ATOM     22  C   UNL     1      51.647  23.536  -1.190  1.00  0.00     0.033 C 
ATOM     23  C   UNL     1      50.556  24.643   0.888  1.00  0.00    -0.006 C 
ATOM     24  C   UNL     1      51.667  23.685   0.341  1.00  0.00     0.120 C 
ATOM     25  C   UNL     1      50.531  24.530   2.445  1.00  0.00     0.014 C 
ATOM     26  C   UNL     1      50.962  26.124   0.615  1.00  0.00     0.014 C 
ENDROOT
BRANCH   1  27
ATOM     27  C   UNL     1      41.988  20.940  -2.274  1.00  0.00     0.048 C 
ATOM     28  O   UNL     1      41.088  21.293  -3.084  1.00  0.00    -0.550 OA
ATOM     29  O   UNL     1      42.505  19.649  -2.371  1.00  0.00    -0.550 OA
ENDBRANCH   1  27
BRANCH   7  30
ATOM     30  C   UNL     1      41.996  25.410  -2.575  1.00  0.00    -0.077 C 
ATOM     31  C   UNL     1      40.623  25.762  -3.092  1.00  0.00     0.039 C 
ATOM     32  C   UNL     1      43.051  26.087  -3.060  1.00  0.00     0.008 C 
ENDBRANCH   7  30
BRANCH  24  33
ATOM     33  O   UNL     1      51.559  22.406   0.918  1.00  0.00    -0.393 OA
ATOM     34  H   UNL     1      51.111  21.818   0.257  1.00  0.00     0.210 HD
ENDBRANCH  24  33
TORSDOF 3
ENDMDL
