MODEL 1
REMARK VINA RESULT:    -7.246      0.000      0.000
REMARK INTER + INTRA:         -11.440
REMARK INTER:                  -9.999
REMARK INTRA:                  -1.441
REMARK UNBOUND:                -1.441
REMARK SMILES O=C([O-])[C@H]1O[C@H](Oc2cc3oc(-c4ccccc4)cc(=O)c3c(O)c2O)[C@@H](O)[C@@H](O)[C@@H]1O
REMARK SMILES IDX 7 1 6 2 4 3 31 4 5 5 29 6 27 7 2 8 1 9 3 10 32 11 30 13
REMARK SMILES IDX 28 15 8 17 25 18 9 19 23 20 10 21 22 22 11 23 20 24 12 25
REMARK SMILES IDX 19 26 21 27 26 28 24 30 13 32 14 33 18 34 15 35 17 36 16 37
REMARK H PARENT 32 12 30 14 28 16 26 29 24 31
REMARK Flexibility Score: inf
ROOT
ATOM      1  O   UNL     1     -59.245 -76.861 217.455  1.00  0.00    -0.458 OA
ENDROOT
BRANCH   1   2
ATOM      2  C   UNL     1     -58.501 -75.652 217.266  1.00  0.00     0.339 C 
ATOM      3  C   UNL     1     -57.008 -76.663 215.759  1.00  0.00     0.199 C 
ATOM      4  C   UNL     1     -57.516 -75.851 214.549  1.00  0.00     0.180 C 
ATOM      5  O   UNL     1     -57.140 -75.921 216.961  1.00  0.00    -0.328 OA
ATOM      6  C   UNL     1     -58.983 -75.437 214.780  1.00  0.00     0.181 C 
ATOM      7  C   UNL     1     -59.161 -74.793 216.167  1.00  0.00     0.214 C 
BRANCH   3   8
ATOM      8  C   UNL     1     -55.559 -77.003 215.573  1.00  0.00     0.073 C 
ATOM      9  O   UNL     1     -54.941 -76.607 214.549  1.00  0.00    -0.547 OA
ATOM     10  O   UNL     1     -54.881 -77.725 216.546  1.00  0.00    -0.547 OA
ENDBRANCH   3   8
BRANCH   4  11
ATOM     11  O   UNL     1     -57.425 -76.641 213.388  1.00  0.00    -0.387 OA
ATOM     12  H   UNL     1     -56.875 -77.433 213.620  1.00  0.00     0.211 HD
ENDBRANCH   4  11
BRANCH   6  13
ATOM     13  O   UNL     1     -59.398 -74.533 213.788  1.00  0.00    -0.387 OA
ATOM     14  H   UNL     1     -60.387 -74.468 213.851  1.00  0.00     0.211 HD
ENDBRANCH   6  13
BRANCH   7  15
ATOM     15  O   UNL     1     -58.667 -73.474 216.190  1.00  0.00    -0.384 OA
ATOM     16  H   UNL     1     -58.472 -73.200 215.257  1.00  0.00     0.211 HD
ENDBRANCH   7  15
ENDBRANCH   1   2
BRANCH   1  17
ATOM     17  C   UNL     1     -59.334 -77.630 218.631  1.00  0.00     0.172 A 
ATOM     18  C   UNL     1     -58.313 -78.486 219.105  1.00  0.00     0.201 A 
ATOM     19  C   UNL     1     -60.522 -77.525 219.351  1.00  0.00     0.098 A 
ATOM     20  C   UNL     1     -58.509 -79.243 220.282  1.00  0.00     0.176 A 
ATOM     21  C   UNL     1     -60.715 -78.227 220.539  1.00  0.00     0.146 A 
ATOM     22  C   UNL     1     -59.703 -79.080 221.041  1.00  0.00     0.111 A 
ATOM     23  O   UNL     1     -61.863 -78.069 221.190  1.00  0.00    -0.456 OA
ATOM     24  C   UNL     1     -59.949 -79.690 222.297  1.00  0.00     0.197 A 
ATOM     25  C   UNL     1     -62.136 -78.663 222.347  1.00  0.00     0.138 A 
ATOM     26  C   UNL     1     -61.175 -79.495 222.934  1.00  0.00     0.100 A 
ATOM     27  O   UNL     1     -59.080 -80.385 222.882  1.00  0.00    -0.289 OA
BRANCH  18  28
ATOM     28  O   UNL     1     -57.109 -78.599 218.410  1.00  0.00    -0.502 OA
ATOM     29  H   UNL     1     -56.749 -79.481 218.068  1.00  0.00     0.293 HD
ENDBRANCH  18  28
BRANCH  20  30
ATOM     30  O   UNL     1     -57.505 -80.152 220.630  1.00  0.00    -0.504 OA
ATOM     31  H   UNL     1     -56.627 -80.253 220.142  1.00  0.00     0.293 HD
ENDBRANCH  20  30
BRANCH  25  32
ATOM     32  C   UNL     1     -63.459 -78.422 222.977  1.00  0.00     0.017 A 
ATOM     33  C   UNL     1     -64.557 -77.936 222.238  1.00  0.00     0.012 A 
ATOM     34  C   UNL     1     -63.639 -78.715 224.342  1.00  0.00     0.012 A 
ATOM     35  C   UNL     1     -65.793 -77.730 222.858  1.00  0.00     0.001 A 
ATOM     36  C   UNL     1     -64.877 -78.505 224.957  1.00  0.00     0.001 A 
ATOM     37  C   UNL     1     -65.953 -78.011 224.216  1.00  0.00     0.000 A 
ENDBRANCH  25  32
ENDBRANCH   1  17
TORSDOF 9
ENDMDL
MODEL 2
REMARK VINA RESULT:    -7.104      1.865      3.953
REMARK INTER + INTRA:         -11.245
REMARK INTER:                 -10.190
REMARK INTRA:                  -1.054
REMARK UNBOUND:                -1.441
REMARK SMILES O=C([O-])[C@H]1O[C@H](Oc2cc3oc(-c4ccccc4)cc(=O)c3c(O)c2O)[C@@H](O)[C@@H](O)[C@@H]1O
REMARK SMILES IDX 7 1 6 2 4 3 31 4 5 5 29 6 27 7 2 8 1 9 3 10 32 11 30 13
REMARK SMILES IDX 28 15 8 17 25 18 9 19 23 20 10 21 22 22 11 23 20 24 12 25
REMARK SMILES IDX 19 26 21 27 26 28 24 30 13 32 14 33 18 34 15 35 17 36 16 37
REMARK H PARENT 32 12 30 14 28 16 26 29 24 31
REMARK Flexibility Score: inf
ROOT
ATOM      1  O   UNL     1     -59.538 -76.146 217.281  1.00  0.00    -0.458 OA
ENDROOT
BRANCH   1   2
ATOM      2  C   UNL     1     -58.427 -75.243 217.298  1.00  0.00     0.339 C 
ATOM      3  C   UNL     1     -57.158 -76.585 215.846  1.00  0.00     0.199 C 
ATOM      4  C   UNL     1     -57.218 -75.569 214.686  1.00  0.00     0.180 C 
ATOM      5  O   UNL     1     -57.198 -75.927 217.101  1.00  0.00    -0.328 OA
ATOM      6  C   UNL     1     -58.490 -74.709 214.814  1.00  0.00     0.181 C 
ATOM      7  C   UNL     1     -58.629 -74.139 216.238  1.00  0.00     0.214 C 
BRANCH   3   8
ATOM      8  C   UNL     1     -55.884 -77.373 215.768  1.00  0.00     0.073 C 
ATOM      9  O   UNL     1     -55.609 -78.034 214.732  1.00  0.00    -0.547 OA
ATOM     10  O   UNL     1     -54.983 -77.349 216.825  1.00  0.00    -0.547 OA
ENDBRANCH   3   8
BRANCH   4  11
ATOM     11  O   UNL     1     -57.237 -76.261 213.462  1.00  0.00    -0.387 OA
ATOM     12  H   UNL     1     -56.304 -76.540 213.272  1.00  0.00     0.211 HD
ENDBRANCH   4  11
BRANCH   6  13
ATOM     13  O   UNL     1     -58.461 -73.651 213.889  1.00  0.00    -0.387 OA
ATOM     14  H   UNL     1     -57.972 -72.903 214.320  1.00  0.00     0.211 HD
ENDBRANCH   6  13
BRANCH   7  15
ATOM     15  O   UNL     1     -57.744 -73.064 216.452  1.00  0.00    -0.384 OA
ATOM     16  H   UNL     1     -57.831 -72.435 215.690  1.00  0.00     0.211 HD
ENDBRANCH   7  15
ENDBRANCH   1   2
BRANCH   1  17
ATOM     17  C   UNL     1     -60.300 -76.579 218.383  1.00  0.00     0.172 A 
ATOM     18  C   UNL     1     -61.620 -76.150 218.659  1.00  0.00     0.201 A 
ATOM     19  C   UNL     1     -59.686 -77.483 219.246  1.00  0.00     0.098 A 
ATOM     20  C   UNL     1     -62.294 -76.617 219.809  1.00  0.00     0.176 A 
ATOM     21  C   UNL     1     -60.352 -77.991 220.359  1.00  0.00     0.146 A 
ATOM     22  C   UNL     1     -61.677 -77.589 220.649  1.00  0.00     0.111 A 
ATOM     23  O   UNL     1     -59.718 -78.867 221.132  1.00  0.00    -0.456 OA
ATOM     24  C   UNL     1     -62.308 -78.217 221.751  1.00  0.00     0.197 A 
ATOM     25  C   UNL     1     -60.271 -79.440 222.196  1.00  0.00     0.138 A 
ATOM     26  C   UNL     1     -61.593 -79.125 222.534  1.00  0.00     0.100 A 
ATOM     27  O   UNL     1     -63.514 -78.009 222.037  1.00  0.00    -0.289 OA
BRANCH  18  28
ATOM     28  O   UNL     1     -62.263 -75.255 217.803  1.00  0.00    -0.502 OA
ATOM     29  H   UNL     1     -63.212 -75.387 217.478  1.00  0.00     0.293 HD
ENDBRANCH  18  28
BRANCH  20  30
ATOM     30  O   UNL     1     -63.551 -76.066 220.080  1.00  0.00    -0.504 OA
ATOM     31  H   UNL     1     -64.208 -75.761 219.377  1.00  0.00     0.293 HD
ENDBRANCH  20  30
BRANCH  25  32
ATOM     32  C   UNL     1     -59.461 -80.394 222.995  1.00  0.00     0.017 A 
ATOM     33  C   UNL     1     -59.404 -80.325 224.402  1.00  0.00     0.012 A 
ATOM     34  C   UNL     1     -58.752 -81.418 222.339  1.00  0.00     0.012 A 
ATOM     35  C   UNL     1     -58.640 -81.244 225.126  1.00  0.00     0.001 A 
ATOM     36  C   UNL     1     -57.989 -82.334 223.068  1.00  0.00     0.001 A 
ATOM     37  C   UNL     1     -57.931 -82.247 224.461  1.00  0.00     0.000 A 
ENDBRANCH  25  32
ENDBRANCH   1  17
TORSDOF 9
ENDMDL
MODEL 3
REMARK VINA RESULT:    -6.889      3.309     10.059
REMARK INTER + INTRA:         -10.948
REMARK INTER:                  -9.506
REMARK INTRA:                  -1.441
REMARK UNBOUND:                -1.441
REMARK SMILES O=C([O-])[C@H]1O[C@H](Oc2cc3oc(-c4ccccc4)cc(=O)c3c(O)c2O)[C@@H](O)[C@@H](O)[C@@H]1O
REMARK SMILES IDX 7 1 6 2 4 3 31 4 5 5 29 6 27 7 2 8 1 9 3 10 32 11 30 13
REMARK SMILES IDX 28 15 8 17 25 18 9 19 23 20 10 21 22 22 11 23 20 24 12 25
REMARK SMILES IDX 19 26 21 27 26 28 24 30 13 32 14 33 18 34 15 35 17 36 16 37
REMARK H PARENT 32 12 30 14 28 16 26 29 24 31
REMARK Flexibility Score: inf
ROOT
ATOM      1  O   UNL     1     -63.494 -79.119 223.306  1.00  0.00    -0.458 OA
ENDROOT
BRANCH   1   2
ATOM      2  C   UNL     1     -63.567 -78.579 224.630  1.00  0.00     0.339 C 
ATOM      3  C   UNL     1     -65.883 -78.215 224.486  1.00  0.00     0.199 C 
ATOM      4  C   UNL     1     -66.224 -79.294 225.535  1.00  0.00     0.180 C 
ATOM      5  O   UNL     1     -64.618 -77.631 224.748  1.00  0.00    -0.328 OA
ATOM      6  C   UNL     1     -65.118 -80.367 225.555  1.00  0.00     0.181 C 
ATOM      7  C   UNL     1     -63.724 -79.720 225.658  1.00  0.00     0.214 C 
BRANCH   3   8
ATOM      8  C   UNL     1     -66.918 -77.129 224.515  1.00  0.00     0.073 C 
ATOM      9  O   UNL     1     -67.598 -76.930 225.557  1.00  0.00    -0.547 OA
ATOM     10  O   UNL     1     -67.105 -76.314 223.407  1.00  0.00    -0.547 OA
ENDBRANCH   3   8
BRANCH   4  11
ATOM     11  O   UNL     1     -67.455 -79.889 225.207  1.00  0.00    -0.387 OA
ATOM     12  H   UNL     1     -67.782 -80.348 226.024  1.00  0.00     0.211 HD
ENDBRANCH   4  11
BRANCH   6  13
ATOM     13  O   UNL     1     -65.307 -81.244 226.637  1.00  0.00    -0.387 OA
ATOM     14  H   UNL     1     -64.455 -81.737 226.762  1.00  0.00     0.211 HD
ENDBRANCH   6  13
BRANCH   7  15
ATOM     15  O   UNL     1     -63.463 -79.264 226.965  1.00  0.00    -0.384 OA
ATOM     16  H   UNL     1     -63.812 -79.937 227.604  1.00  0.00     0.211 HD
ENDBRANCH   7  15
ENDBRANCH   1   2
BRANCH   1  17
ATOM     17  C   UNL     1     -62.894 -78.529 222.177  1.00  0.00     0.172 A 
ATOM     18  C   UNL     1     -63.515 -77.556 221.360  1.00  0.00     0.201 A 
ATOM     19  C   UNL     1     -61.605 -78.957 221.866  1.00  0.00     0.098 A 
ATOM     20  C   UNL     1     -62.842 -77.044 220.228  1.00  0.00     0.176 A 
ATOM     21  C   UNL     1     -60.908 -78.429 220.781  1.00  0.00     0.146 A 
ATOM     22  C   UNL     1     -61.502 -77.444 219.956  1.00  0.00     0.111 A 
ATOM     23  O   UNL     1     -59.674 -78.864 220.548  1.00  0.00    -0.456 OA
ATOM     24  C   UNL     1     -60.693 -76.902 218.927  1.00  0.00     0.197 A 
ATOM     25  C   UNL     1     -58.909 -78.403 219.564  1.00  0.00     0.138 A 
ATOM     26  C   UNL     1     -59.406 -77.401 218.722  1.00  0.00     0.100 A 
ATOM     27  O   UNL     1     -61.085 -75.954 218.200  1.00  0.00    -0.289 OA
BRANCH  18  28
ATOM     28  O   UNL     1     -64.800 -77.101 221.658  1.00  0.00    -0.502 OA
ATOM     29  H   UNL     1     -65.076 -76.796 222.583  1.00  0.00     0.293 HD
ENDBRANCH  18  28
BRANCH  20  30
ATOM     30  O   UNL     1     -63.558 -76.171 219.402  1.00  0.00    -0.504 OA
ATOM     31  H   UNL     1     -64.564 -76.117 219.359  1.00  0.00     0.293 HD
ENDBRANCH  20  30
BRANCH  25  32
ATOM     32  C   UNL     1     -57.549 -78.974 219.390  1.00  0.00     0.017 A 
ATOM     33  C   UNL     1     -57.253 -80.307 219.742  1.00  0.00     0.012 A 
ATOM     34  C   UNL     1     -56.531 -78.179 218.831  1.00  0.00     0.012 A 
ATOM     35  C   UNL     1     -55.965 -80.818 219.556  1.00  0.00     0.001 A 
ATOM     36  C   UNL     1     -55.245 -78.696 218.649  1.00  0.00     0.001 A 
ATOM     37  C   UNL     1     -54.961 -80.014 219.014  1.00  0.00     0.000 A 
ENDBRANCH  25  32
ENDBRANCH   1  17
TORSDOF 9
ENDMDL
MODEL 4
REMARK VINA RESULT:    -6.877      2.223      8.965
REMARK INTER + INTRA:         -10.931
REMARK INTER:                  -9.608
REMARK INTRA:                  -1.322
REMARK UNBOUND:                -1.441
REMARK SMILES O=C([O-])[C@H]1O[C@H](Oc2cc3oc(-c4ccccc4)cc(=O)c3c(O)c2O)[C@@H](O)[C@@H](O)[C@@H]1O
REMARK SMILES IDX 7 1 6 2 4 3 31 4 5 5 29 6 27 7 2 8 1 9 3 10 32 11 30 13
REMARK SMILES IDX 28 15 8 17 25 18 9 19 23 20 10 21 22 22 11 23 20 24 12 25
REMARK SMILES IDX 19 26 21 27 26 28 24 30 13 32 14 33 18 34 15 35 17 36 16 37
REMARK H PARENT 32 12 30 14 28 16 26 29 24 31
REMARK Flexibility Score: inf
ROOT
ATOM      1  O   UNL     1     -62.420 -78.071 221.655  1.00  0.00    -0.458 OA
ENDROOT
BRANCH   1   2
ATOM      2  C   UNL     1     -63.515 -78.992 221.724  1.00  0.00     0.339 C 
ATOM      3  C   UNL     1     -63.355 -79.194 224.060  1.00  0.00     0.199 C 
ATOM      4  C   UNL     1     -64.699 -78.481 224.318  1.00  0.00     0.180 C 
ATOM      5  O   UNL     1     -63.376 -79.884 222.821  1.00  0.00    -0.328 OA
ATOM      6  C   UNL     1     -65.006 -77.514 223.157  1.00  0.00     0.181 C 
ATOM      7  C   UNL     1     -64.849 -78.220 221.797  1.00  0.00     0.214 C 
BRANCH   3   8
ATOM      8  C   UNL     1     -63.089 -80.191 225.148  1.00  0.00     0.073 C 
ATOM      9  O   UNL     1     -63.947 -80.390 226.050  1.00  0.00    -0.547 OA
ATOM     10  O   UNL     1     -61.911 -80.926 225.149  1.00  0.00    -0.547 OA
ENDBRANCH   3   8
BRANCH   4  11
ATOM     11  O   UNL     1     -64.619 -77.761 225.524  1.00  0.00    -0.387 OA
ATOM     12  H   UNL     1     -65.429 -77.985 226.050  1.00  0.00     0.211 HD
ENDBRANCH   4  11
BRANCH   6  13
ATOM     13  O   UNL     1     -66.312 -77.009 223.274  1.00  0.00    -0.387 OA
ATOM     14  H   UNL     1     -66.238 -76.107 223.682  1.00  0.00     0.211 HD
ENDBRANCH   6  13
BRANCH   7  15
ATOM     15  O   UNL     1     -65.941 -79.069 221.529  1.00  0.00    -0.384 OA
ATOM     16  H   UNL     1     -66.753 -78.667 221.932  1.00  0.00     0.211 HD
ENDBRANCH   7  15
ENDBRANCH   1   2
BRANCH   1  17
ATOM     17  C   UNL     1     -61.167 -78.282 221.048  1.00  0.00     0.172 A 
ATOM     18  C   UNL     1     -60.274 -79.320 221.401  1.00  0.00     0.201 A 
ATOM     19  C   UNL     1     -60.809 -77.389 220.040  1.00  0.00     0.098 A 
ATOM     20  C   UNL     1     -59.023 -79.432 220.754  1.00  0.00     0.176 A 
ATOM     21  C   UNL     1     -59.600 -77.513 219.359  1.00  0.00     0.146 A 
ATOM     22  C   UNL     1     -58.694 -78.551 219.684  1.00  0.00     0.111 A 
ATOM     23  O   UNL     1     -59.324 -76.641 218.394  1.00  0.00    -0.456 OA
ATOM     24  C   UNL     1     -57.528 -78.653 218.886  1.00  0.00     0.197 A 
ATOM     25  C   UNL     1     -58.218 -76.689 217.659  1.00  0.00     0.138 A 
ATOM     26  C   UNL     1     -57.284 -77.706 217.890  1.00  0.00     0.100 A 
ATOM     27  O   UNL     1     -56.707 -79.595 219.023  1.00  0.00    -0.289 OA
BRANCH  18  28
ATOM     28  O   UNL     1     -60.615 -80.235 222.397  1.00  0.00    -0.502 OA
ATOM     29  H   UNL     1     -60.476 -80.055 223.383  1.00  0.00     0.293 HD
ENDBRANCH  18  28
BRANCH  20  30
ATOM     30  O   UNL     1     -58.144 -80.411 221.231  1.00  0.00    -0.504 OA
ATOM     31  H   UNL     1     -58.302 -81.405 221.165  1.00  0.00     0.293 HD
ENDBRANCH  20  30
BRANCH  25  32
ATOM     32  C   UNL     1     -58.010 -75.652 216.616  1.00  0.00     0.017 A 
ATOM     33  C   UNL     1     -57.560 -75.981 215.321  1.00  0.00     0.012 A 
ATOM     34  C   UNL     1     -58.296 -74.306 216.912  1.00  0.00     0.012 A 
ATOM     35  C   UNL     1     -57.384 -74.983 214.358  1.00  0.00     0.001 A 
ATOM     36  C   UNL     1     -58.116 -73.312 215.945  1.00  0.00     0.001 A 
ATOM     37  C   UNL     1     -57.658 -73.650 214.669  1.00  0.00     0.000 A 
ENDBRANCH  25  32
ENDBRANCH   1  17
TORSDOF 9
ENDMDL
MODEL 5
REMARK VINA RESULT:    -6.577      2.330      8.493
REMARK INTER + INTRA:         -10.517
REMARK INTER:                  -9.399
REMARK INTRA:                  -1.119
REMARK UNBOUND:                -1.441
REMARK SMILES O=C([O-])[C@H]1O[C@H](Oc2cc3oc(-c4ccccc4)cc(=O)c3c(O)c2O)[C@@H](O)[C@@H](O)[C@@H]1O
REMARK SMILES IDX 7 1 6 2 4 3 31 4 5 5 29 6 27 7 2 8 1 9 3 10 32 11 30 13
REMARK SMILES IDX 28 15 8 17 25 18 9 19 23 20 10 21 22 22 11 23 20 24 12 25
REMARK SMILES IDX 19 26 21 27 26 28 24 30 13 32 14 33 18 34 15 35 17 36 16 37
REMARK H PARENT 32 12 30 14 28 16 26 29 24 31
REMARK Flexibility Score: inf
ROOT
ATOM      1  O   UNL     1     -61.154 -79.445 222.033  1.00  0.00    -0.458 OA
ENDROOT
BRANCH   1   2
ATOM      2  C   UNL     1     -61.333 -78.689 223.235  1.00  0.00     0.339 C 
ATOM      3  C   UNL     1     -62.996 -77.332 222.280  1.00  0.00     0.199 C 
ATOM      4  C   UNL     1     -64.121 -77.907 223.166  1.00  0.00     0.180 C 
ATOM      5  O   UNL     1     -61.750 -77.360 222.958  1.00  0.00    -0.328 OA
ATOM      6  C   UNL     1     -63.763 -79.343 223.594  1.00  0.00     0.181 C 
ATOM      7  C   UNL     1     -62.334 -79.407 224.166  1.00  0.00     0.214 C 
BRANCH   3   8
ATOM      8  C   UNL     1     -63.304 -75.908 221.923  1.00  0.00     0.073 C 
ATOM      9  O   UNL     1     -63.040 -75.472 220.771  1.00  0.00    -0.547 OA
ATOM     10  O   UNL     1     -63.916 -75.073 222.849  1.00  0.00    -0.547 OA
ENDBRANCH   3   8
BRANCH   4  11
ATOM     11  O   UNL     1     -65.325 -77.917 222.439  1.00  0.00    -0.387 OA
ATOM     12  H   UNL     1     -65.207 -77.296 221.675  1.00  0.00     0.211 HD
ENDBRANCH   4  11
BRANCH   6  13
ATOM     13  O   UNL     1     -64.673 -79.807 224.559  1.00  0.00    -0.387 OA
ATOM     14  H   UNL     1     -64.755 -80.788 224.431  1.00  0.00     0.211 HD
ENDBRANCH   6  13
BRANCH   7  15
ATOM     15  O   UNL     1     -62.277 -78.882 225.472  1.00  0.00    -0.384 OA
ATOM     16  H   UNL     1     -62.501 -77.917 225.428  1.00  0.00     0.211 HD
ENDBRANCH   7  15
ENDBRANCH   1   2
BRANCH   1  17
ATOM     17  C   UNL     1     -60.009 -79.486 221.215  1.00  0.00     0.172 A 
ATOM     18  C   UNL     1     -59.015 -80.490 221.281  1.00  0.00     0.201 A 
ATOM     19  C   UNL     1     -59.869 -78.451 220.293  1.00  0.00     0.098 A 
ATOM     20  C   UNL     1     -57.884 -80.429 220.438  1.00  0.00     0.176 A 
ATOM     21  C   UNL     1     -58.783 -78.399 219.421  1.00  0.00     0.146 A 
ATOM     22  C   UNL     1     -57.783 -79.400 219.458  1.00  0.00     0.111 A 
ATOM     23  O   UNL     1     -58.717 -77.397 218.551  1.00  0.00    -0.456 OA
ATOM     24  C   UNL     1     -56.760 -79.315 218.481  1.00  0.00     0.197 A 
ATOM     25  C   UNL     1     -57.746 -77.270 217.652  1.00  0.00     0.138 A 
ATOM     26  C   UNL     1     -56.735 -78.237 217.595  1.00  0.00     0.100 A 
ATOM     27  O   UNL     1     -55.879 -80.203 218.360  1.00  0.00    -0.289 OA
BRANCH  18  28
ATOM     28  O   UNL     1     -59.139 -81.545 222.187  1.00  0.00    -0.502 OA
ATOM     29  H   UNL     1     -60.006 -82.047 222.334  1.00  0.00     0.293 HD
ENDBRANCH  18  28
BRANCH  20  30
ATOM     30  O   UNL     1     -56.888 -81.391 220.635  1.00  0.00    -0.504 OA
ATOM     31  H   UNL     1     -57.061 -82.366 220.830  1.00  0.00     0.293 HD
ENDBRANCH  20  30
BRANCH  25  32
ATOM     32  C   UNL     1     -57.768 -76.100 216.738  1.00  0.00     0.017 A 
ATOM     33  C   UNL     1     -58.217 -74.833 217.164  1.00  0.00     0.012 A 
ATOM     34  C   UNL     1     -57.300 -76.243 215.418  1.00  0.00     0.012 A 
ATOM     35  C   UNL     1     -58.215 -73.748 216.283  1.00  0.00     0.001 A 
ATOM     36  C   UNL     1     -57.302 -75.155 214.541  1.00  0.00     0.001 A 
ATOM     37  C   UNL     1     -57.762 -73.908 214.972  1.00  0.00     0.000 A 
ENDBRANCH  25  32
ENDBRANCH   1  17
TORSDOF 9
ENDMDL
MODEL 6
REMARK VINA RESULT:    -6.472      3.008      9.326
REMARK INTER + INTRA:         -10.372
REMARK INTER:                  -9.183
REMARK INTRA:                  -1.189
REMARK UNBOUND:                -1.441
REMARK SMILES O=C([O-])[C@H]1O[C@H](Oc2cc3oc(-c4ccccc4)cc(=O)c3c(O)c2O)[C@@H](O)[C@@H](O)[C@@H]1O
REMARK SMILES IDX 7 1 6 2 4 3 31 4 5 5 29 6 27 7 2 8 1 9 3 10 32 11 30 13
REMARK SMILES IDX 28 15 8 17 25 18 9 19 23 20 10 21 22 22 11 23 20 24 12 25
REMARK SMILES IDX 19 26 21 27 26 28 24 30 13 32 14 33 18 34 15 35 17 36 16 37
REMARK H PARENT 32 12 30 14 28 16 26 29 24 31
REMARK Flexibility Score: inf
ROOT
ATOM      1  O   UNL     1     -62.458 -78.559 223.785  1.00  0.00    -0.458 OA
ENDROOT
BRANCH   1   2
ATOM      2  C   UNL     1     -63.847 -78.593 223.440  1.00  0.00     0.339 C 
ATOM      3  C   UNL     1     -64.221 -80.583 224.632  1.00  0.00     0.199 C 
ATOM      4  C   UNL     1     -65.102 -79.901 225.700  1.00  0.00     0.180 C 
ATOM      5  O   UNL     1     -64.337 -79.925 223.381  1.00  0.00    -0.328 OA
ATOM      6  C   UNL     1     -64.711 -78.415 225.824  1.00  0.00     0.181 C 
ATOM      7  C   UNL     1     -64.660 -77.742 224.439  1.00  0.00     0.214 C 
BRANCH   3   8
ATOM      8  C   UNL     1     -64.647 -82.010 224.454  1.00  0.00     0.073 C 
ATOM      9  O   UNL     1     -65.225 -82.371 223.394  1.00  0.00    -0.547 OA
ATOM     10  O   UNL     1     -64.375 -82.948 225.441  1.00  0.00    -0.547 OA
ENDBRANCH   3   8
BRANCH   4  11
ATOM     11  O   UNL     1     -64.913 -80.544 226.937  1.00  0.00    -0.387 OA
ATOM     12  H   UNL     1     -65.053 -79.860 227.643  1.00  0.00     0.211 HD
ENDBRANCH   4  11
BRANCH   6  13
ATOM     13  O   UNL     1     -65.630 -77.734 226.640  1.00  0.00    -0.387 OA
ATOM     14  H   UNL     1     -66.465 -77.632 226.113  1.00  0.00     0.211 HD
ENDBRANCH   6  13
BRANCH   7  15
ATOM     15  O   UNL     1     -65.953 -77.479 223.946  1.00  0.00    -0.384 OA
ATOM     16  H   UNL     1     -66.228 -78.242 223.376  1.00  0.00     0.211 HD
ENDBRANCH   7  15
ENDBRANCH   1   2
BRANCH   1  17
ATOM     17  C   UNL     1     -61.370 -78.941 222.977  1.00  0.00     0.172 A 
ATOM     18  C   UNL     1     -60.484 -80.001 223.279  1.00  0.00     0.201 A 
ATOM     19  C   UNL     1     -61.175 -78.203 221.812  1.00  0.00     0.098 A 
ATOM     20  C   UNL     1     -59.401 -80.289 222.419  1.00  0.00     0.176 A 
ATOM     21  C   UNL     1     -60.141 -78.503 220.928  1.00  0.00     0.146 A 
ATOM     22  C   UNL     1     -59.248 -79.567 221.201  1.00  0.00     0.111 A 
ATOM     23  O   UNL     1     -60.019 -77.774 219.823  1.00  0.00    -0.456 OA
ATOM     24  C   UNL     1     -58.278 -79.856 220.209  1.00  0.00     0.197 A 
ATOM     25  C   UNL     1     -59.092 -77.996 218.897  1.00  0.00     0.138 A 
ATOM     26  C   UNL     1     -58.191 -79.053 219.071  1.00  0.00     0.100 A 
ATOM     27  O   UNL     1     -57.502 -80.840 220.303  1.00  0.00    -0.289 OA
BRANCH  18  28
ATOM     28  O   UNL     1     -60.665 -80.764 224.433  1.00  0.00    -0.502 OA
ATOM     29  H   UNL     1     -60.935 -81.739 224.413  1.00  0.00     0.293 HD
ENDBRANCH  18  28
BRANCH  20  30
ATOM     30  O   UNL     1     -58.500 -81.275 222.837  1.00  0.00    -0.504 OA
ATOM     31  H   UNL     1     -58.141 -81.364 223.776  1.00  0.00     0.293 HD
ENDBRANCH  20  30
BRANCH  25  32
ATOM     32  C   UNL     1     -59.043 -77.107 217.709  1.00  0.00     0.017 A 
ATOM     33  C   UNL     1     -58.287 -77.436 216.565  1.00  0.00     0.012 A 
ATOM     34  C   UNL     1     -59.794 -75.917 217.704  1.00  0.00     0.012 A 
ATOM     35  C   UNL     1     -58.270 -76.584 215.458  1.00  0.00     0.001 A 
ATOM     36  C   UNL     1     -59.772 -75.067 216.594  1.00  0.00     0.001 A 
ATOM     37  C   UNL     1     -59.009 -75.398 215.472  1.00  0.00     0.000 A 
ENDBRANCH  25  32
ENDBRANCH   1  17
TORSDOF 9
ENDMDL
MODEL 7
REMARK VINA RESULT:    -6.468      2.833      9.248
REMARK INTER + INTRA:         -10.367
REMARK INTER:                  -9.163
REMARK INTRA:                  -1.204
REMARK UNBOUND:                -1.441
REMARK SMILES O=C([O-])[C@H]1O[C@H](Oc2cc3oc(-c4ccccc4)cc(=O)c3c(O)c2O)[C@@H](O)[C@@H](O)[C@@H]1O
REMARK SMILES IDX 7 1 6 2 4 3 31 4 5 5 29 6 27 7 2 8 1 9 3 10 32 11 30 13
REMARK SMILES IDX 28 15 8 17 25 18 9 19 23 20 10 21 22 22 11 23 20 24 12 25
REMARK SMILES IDX 19 26 21 27 26 28 24 30 13 32 14 33 18 34 15 35 17 36 16 37
REMARK H PARENT 32 12 30 14 28 16 26 29 24 31
REMARK Flexibility Score: inf
ROOT
ATOM      1  O   UNL     1     -63.136 -77.478 222.806  1.00  0.00    -0.458 OA
ENDROOT
BRANCH   1   2
ATOM      2  C   UNL     1     -64.219 -78.392 223.010  1.00  0.00     0.339 C 
ATOM      3  C   UNL     1     -62.918 -79.829 224.337  1.00  0.00     0.199 C 
ATOM      4  C   UNL     1     -63.705 -79.520 225.628  1.00  0.00     0.180 C 
ATOM      5  O   UNL     1     -63.752 -79.720 223.195  1.00  0.00    -0.328 OA
ATOM      6  C   UNL     1     -64.325 -78.112 225.534  1.00  0.00     0.181 C 
ATOM      7  C   UNL     1     -65.081 -77.931 224.204  1.00  0.00     0.214 C 
BRANCH   3   8
ATOM      8  C   UNL     1     -62.377 -81.227 224.393  1.00  0.00     0.073 C 
ATOM      9  O   UNL     1     -62.928 -82.147 223.732  1.00  0.00    -0.547 OA
ATOM     10  O   UNL     1     -61.242 -81.507 225.143  1.00  0.00    -0.547 OA
ENDBRANCH   3   8
BRANCH   4  11
ATOM     11  O   UNL     1     -62.833 -79.579 226.730  1.00  0.00    -0.387 OA
ATOM     12  H   UNL     1     -63.355 -79.933 227.495  1.00  0.00     0.211 HD
ENDBRANCH   4  11
BRANCH   6  13
ATOM     13  O   UNL     1     -65.206 -77.893 226.606  1.00  0.00    -0.387 OA
ATOM     14  H   UNL     1     -64.719 -77.342 227.273  1.00  0.00     0.211 HD
ENDBRANCH   6  13
BRANCH   7  15
ATOM     15  O   UNL     1     -66.321 -78.599 224.222  1.00  0.00    -0.384 OA
ATOM     16  H   UNL     1     -66.286 -79.300 224.923  1.00  0.00     0.211 HD
ENDBRANCH   7  15
ENDBRANCH   1   2
BRANCH   1  17
ATOM     17  C   UNL     1     -62.386 -77.296 221.629  1.00  0.00     0.172 A 
ATOM     18  C   UNL     1     -62.751 -76.424 220.577  1.00  0.00     0.201 A 
ATOM     19  C   UNL     1     -61.214 -78.041 221.519  1.00  0.00     0.098 A 
ATOM     20  C   UNL     1     -61.947 -76.332 219.419  1.00  0.00     0.176 A 
ATOM     21  C   UNL     1     -60.385 -77.928 220.406  1.00  0.00     0.146 A 
ATOM     22  C   UNL     1     -60.721 -77.053 219.345  1.00  0.00     0.111 A 
ATOM     23  O   UNL     1     -59.271 -78.652 220.369  1.00  0.00    -0.456 OA
ATOM     24  C   UNL     1     -59.780 -76.937 218.292  1.00  0.00     0.197 A 
ATOM     25  C   UNL     1     -58.392 -78.594 219.373  1.00  0.00     0.138 A 
ATOM     26  C   UNL     1     -58.629 -77.726 218.300  1.00  0.00     0.100 A 
ATOM     27  O   UNL     1     -59.930 -76.117 217.351  1.00  0.00    -0.289 OA
BRANCH  18  28
ATOM     28  O   UNL     1     -63.912 -75.656 220.668  1.00  0.00    -0.502 OA
ATOM     29  H   UNL     1     -63.931 -74.731 221.079  1.00  0.00     0.293 HD
ENDBRANCH  18  28
BRANCH  20  30
ATOM     30  O   UNL     1     -62.426 -75.537 218.372  1.00  0.00    -0.504 OA
ATOM     31  H   UNL     1     -62.909 -74.660 218.491  1.00  0.00     0.293 HD
ENDBRANCH  20  30
BRANCH  25  32
ATOM     32  C   UNL     1     -57.187 -79.460 219.434  1.00  0.00     0.017 A 
ATOM     33  C   UNL     1     -57.185 -80.682 220.137  1.00  0.00     0.012 A 
ATOM     34  C   UNL     1     -56.021 -79.073 218.747  1.00  0.00     0.012 A 
ATOM     35  C   UNL     1     -56.038 -81.480 220.166  1.00  0.00     0.001 A 
ATOM     36  C   UNL     1     -54.877 -79.874 218.781  1.00  0.00     0.001 A 
ATOM     37  C   UNL     1     -54.884 -81.076 219.492  1.00  0.00     0.000 A 
ENDBRANCH  25  32
ENDBRANCH   1  17
TORSDOF 9
ENDMDL
MODEL 8
REMARK VINA RESULT:    -6.396      2.175      8.384
REMARK INTER + INTRA:         -10.267
REMARK INTER:                  -9.682
REMARK INTRA:                  -0.585
REMARK UNBOUND:                -1.441
REMARK SMILES O=C([O-])[C@H]1O[C@H](Oc2cc3oc(-c4ccccc4)cc(=O)c3c(O)c2O)[C@@H](O)[C@@H](O)[C@@H]1O
REMARK SMILES IDX 7 1 6 2 4 3 31 4 5 5 29 6 27 7 2 8 1 9 3 10 32 11 30 13
REMARK SMILES IDX 28 15 8 17 25 18 9 19 23 20 10 21 22 22 11 23 20 24 12 25
REMARK SMILES IDX 19 26 21 27 26 28 24 30 13 32 14 33 18 34 15 35 17 36 16 37
REMARK H PARENT 32 12 30 14 28 16 26 29 24 31
REMARK Flexibility Score: inf
ROOT
ATOM      1  O   UNL     1     -61.297 -79.144 221.655  1.00  0.00    -0.458 OA
ENDROOT
BRANCH   1   2
ATOM      2  C   UNL     1     -62.633 -79.276 221.156  1.00  0.00     0.339 C 
ATOM      3  C   UNL     1     -63.563 -78.151 222.996  1.00  0.00     0.199 C 
ATOM      4  C   UNL     1     -63.995 -76.926 222.163  1.00  0.00     0.180 C 
ATOM      5  O   UNL     1     -63.581 -79.332 222.212  1.00  0.00    -0.328 OA
ATOM      6  C   UNL     1     -63.075 -76.783 220.935  1.00  0.00     0.181 C 
ATOM      7  C   UNL     1     -62.948 -78.120 220.182  1.00  0.00     0.214 C 
BRANCH   3   8
ATOM      8  C   UNL     1     -64.502 -78.339 224.151  1.00  0.00     0.073 C 
ATOM      9  O   UNL     1     -64.293 -77.743 225.242  1.00  0.00    -0.547 OA
ATOM     10  O   UNL     1     -65.625 -79.143 224.013  1.00  0.00    -0.547 OA
ENDBRANCH   3   8
BRANCH   4  11
ATOM     11  O   UNL     1     -63.907 -75.769 222.957  1.00  0.00    -0.387 OA
ATOM     12  H   UNL     1     -64.648 -75.812 223.616  1.00  0.00     0.211 HD
ENDBRANCH   4  11
BRANCH   6  13
ATOM     13  O   UNL     1     -63.573 -75.801 220.062  1.00  0.00    -0.387 OA
ATOM     14  H   UNL     1     -64.552 -75.744 220.219  1.00  0.00     0.211 HD
ENDBRANCH   6  13
BRANCH   7  15
ATOM     15  O   UNL     1     -64.104 -78.397 219.425  1.00  0.00    -0.384 OA
ATOM     16  H   UNL     1     -63.857 -78.382 218.465  1.00  0.00     0.211 HD
ENDBRANCH   7  15
ENDBRANCH   1   2
BRANCH   1  17
ATOM     17  C   UNL     1     -60.105 -79.143 220.906  1.00  0.00     0.172 A 
ATOM     18  C   UNL     1     -59.078 -80.107 221.039  1.00  0.00     0.201 A 
ATOM     19  C   UNL     1     -59.951 -78.108 219.988  1.00  0.00     0.098 A 
ATOM     20  C   UNL     1     -57.902 -80.005 220.263  1.00  0.00     0.176 A 
ATOM     21  C   UNL     1     -58.818 -78.017 219.181  1.00  0.00     0.146 A 
ATOM     22  C   UNL     1     -57.783 -78.977 219.284  1.00  0.00     0.111 A 
ATOM     23  O   UNL     1     -58.740 -77.016 218.310  1.00  0.00    -0.456 OA
ATOM     24  C   UNL     1     -56.708 -78.856 218.369  1.00  0.00     0.197 A 
ATOM     25  C   UNL     1     -57.722 -76.856 217.469  1.00  0.00     0.138 A 
ATOM     26  C   UNL     1     -56.672 -77.782 217.479  1.00  0.00     0.100 A 
ATOM     27  O   UNL     1     -55.787 -79.710 218.306  1.00  0.00    -0.289 OA
BRANCH  18  28
ATOM     28  O   UNL     1     -59.214 -81.162 221.942  1.00  0.00    -0.502 OA
ATOM     29  H   UNL     1     -59.351 -82.122 221.653  1.00  0.00     0.293 HD
ENDBRANCH  18  28
BRANCH  20  30
ATOM     30  O   UNL     1     -56.882 -80.926 220.526  1.00  0.00    -0.504 OA
ATOM     31  H   UNL     1     -56.955 -81.693 221.178  1.00  0.00     0.293 HD
ENDBRANCH  20  30
BRANCH  25  32
ATOM     32  C   UNL     1     -57.736 -75.691 216.548  1.00  0.00     0.017 A 
ATOM     33  C   UNL     1     -58.193 -74.423 216.960  1.00  0.00     0.012 A 
ATOM     34  C   UNL     1     -57.251 -75.842 215.235  1.00  0.00     0.012 A 
ATOM     35  C   UNL     1     -58.183 -73.343 216.072  1.00  0.00     0.001 A 
ATOM     36  C   UNL     1     -57.245 -74.759 214.351  1.00  0.00     0.001 A 
ATOM     37  C   UNL     1     -57.713 -73.511 214.768  1.00  0.00     0.000 A 
ENDBRANCH  25  32
ENDBRANCH   1  17
TORSDOF 9
ENDMDL
MODEL 9
REMARK VINA RESULT:    -6.380      2.467      9.128
REMARK INTER + INTRA:         -10.246
REMARK INTER:                  -9.145
REMARK INTRA:                  -1.101
REMARK UNBOUND:                -1.441
REMARK SMILES O=C([O-])[C@H]1O[C@H](Oc2cc3oc(-c4ccccc4)cc(=O)c3c(O)c2O)[C@@H](O)[C@@H](O)[C@@H]1O
REMARK SMILES IDX 7 1 6 2 4 3 31 4 5 5 29 6 27 7 2 8 1 9 3 10 32 11 30 13
REMARK SMILES IDX 28 15 8 17 25 18 9 19 23 20 10 21 22 22 11 23 20 24 12 25
REMARK SMILES IDX 19 26 21 27 26 28 24 30 13 32 14 33 18 34 15 35 17 36 16 37
REMARK H PARENT 32 12 30 14 28 16 26 29 24 31
REMARK Flexibility Score: inf
ROOT
ATOM      1  O   UNL     1     -61.948 -78.792 221.737  1.00  0.00    -0.458 OA
ENDROOT
BRANCH   1   2
ATOM      2  C   UNL     1     -61.603 -78.229 223.008  1.00  0.00     0.339 C 
ATOM      3  C   UNL     1     -63.524 -79.092 224.049  1.00  0.00     0.199 C 
ATOM      4  C   UNL     1     -62.731 -80.083 224.927  1.00  0.00     0.180 C 
ATOM      5  O   UNL     1     -62.759 -77.929 223.776  1.00  0.00    -0.328 OA
ATOM      6  C   UNL     1     -61.406 -80.449 224.230  1.00  0.00     0.181 C 
ATOM      7  C   UNL     1     -60.658 -79.184 223.768  1.00  0.00     0.214 C 
BRANCH   3   8
ATOM      8  C   UNL     1     -64.778 -78.674 224.757  1.00  0.00     0.073 C 
ATOM      9  O   UNL     1     -65.880 -79.211 224.467  1.00  0.00    -0.547 OA
ATOM     10  O   UNL     1     -64.726 -77.718 225.763  1.00  0.00    -0.547 OA
ENDBRANCH   3   8
BRANCH   4  11
ATOM     11  O   UNL     1     -63.497 -81.245 225.125  1.00  0.00    -0.387 OA
ATOM     12  H   UNL     1     -63.075 -81.747 225.870  1.00  0.00     0.211 HD
ENDBRANCH   4  11
BRANCH   6  13
ATOM     13  O   UNL     1     -60.584 -81.187 225.098  1.00  0.00    -0.387 OA
ATOM     14  H   UNL     1     -60.057 -81.813 224.536  1.00  0.00     0.211 HD
ENDBRANCH   6  13
BRANCH   7  15
ATOM     15  O   UNL     1     -60.039 -78.528 224.850  1.00  0.00    -0.384 OA
ATOM     16  H   UNL     1     -60.537 -78.755 225.677  1.00  0.00     0.211 HD
ENDBRANCH   7  15
ENDBRANCH   1   2
BRANCH   1  17
ATOM     17  C   UNL     1     -61.083 -79.052 220.657  1.00  0.00     0.172 A 
ATOM     18  C   UNL     1     -60.629 -80.341 220.291  1.00  0.00     0.201 A 
ATOM     19  C   UNL     1     -60.656 -77.948 219.924  1.00  0.00     0.098 A 
ATOM     20  C   UNL     1     -59.735 -80.499 219.208  1.00  0.00     0.176 A 
ATOM     21  C   UNL     1     -59.812 -78.089 218.825  1.00  0.00     0.146 A 
ATOM     22  C   UNL     1     -59.355 -79.369 218.429  1.00  0.00     0.111 A 
ATOM     23  O   UNL     1     -59.456 -76.998 218.155  1.00  0.00    -0.456 OA
ATOM     24  C   UNL     1     -58.569 -79.429 217.252  1.00  0.00     0.197 A 
ATOM     25  C   UNL     1     -58.685 -77.022 217.072  1.00  0.00     0.138 A 
ATOM     26  C   UNL     1     -58.219 -78.251 216.590  1.00  0.00     0.100 A 
ATOM     27  O   UNL     1     -58.195 -80.522 216.756  1.00  0.00    -0.289 OA
BRANCH  18  28
ATOM     28  O   UNL     1     -61.053 -81.466 221.000  1.00  0.00    -0.502 OA
ATOM     29  H   UNL     1     -61.868 -81.465 221.599  1.00  0.00     0.293 HD
ENDBRANCH  18  28
BRANCH  20  30
ATOM     30  O   UNL     1     -59.240 -81.786 218.973  1.00  0.00    -0.504 OA
ATOM     31  H   UNL     1     -59.782 -82.634 219.053  1.00  0.00     0.293 HD
ENDBRANCH  20  30
BRANCH  25  32
ATOM     32  C   UNL     1     -58.342 -75.737 216.412  1.00  0.00     0.017 A 
ATOM     33  C   UNL     1     -57.764 -75.693 215.127  1.00  0.00     0.012 A 
ATOM     34  C   UNL     1     -58.626 -74.524 217.069  1.00  0.00     0.012 A 
ATOM     35  C   UNL     1     -57.461 -74.466 214.528  1.00  0.00     0.001 A 
ATOM     36  C   UNL     1     -58.319 -73.301 216.465  1.00  0.00     0.001 A 
ATOM     37  C   UNL     1     -57.735 -73.272 215.197  1.00  0.00     0.000 A 
ENDBRANCH  25  32
ENDBRANCH   1  17
TORSDOF 9
ENDMDL
