MODEL 1
REMARK VINA RESULT:    -2.220      0.000      0.000
REMARK INTER + INTRA:          -2.220
REMARK INTER:                  -2.220
REMARK INTRA:                   0.000
REMARK UNBOUND:                 0.000
REMARK SMILES CC(=O)[O-]
REMARK SMILES IDX 1 1 2 2 3 3 4 4
REMARK H PARENT
REMARK Flexibility Score: inf
ROOT
ATOM      1  C   UNL     1     109.231  85.143 122.433  1.00  0.00     0.063 C 
ATOM      2  C   UNL     1     110.544  85.850 122.442  1.00  0.00     0.038 C 
ATOM      3  O   UNL     1     110.935  86.442 123.482  1.00  0.00    -0.550 OA
ATOM      4  O   UNL     1     111.362  85.811 121.321  1.00  0.00    -0.550 OA
ENDROOT
TORSDOF 0
ENDMDL
MODEL 2
REMARK VINA RESULT:    -2.171      1.396      1.784
REMARK INTER + INTRA:          -2.171
REMARK INTER:                  -2.171
REMARK INTRA:                   0.000
REMARK UNBOUND:                 0.000
REMARK SMILES CC(=O)[O-]
REMARK SMILES IDX 1 1 2 2 3 3 4 4
REMARK H PARENT
REMARK Flexibility Score: inf
ROOT
ATOM      1  C   UNL     1     111.694  85.645 121.262  1.00  0.00     0.063 C 
ATOM      2  C   UNL     1     110.687  85.807 122.350  1.00  0.00     0.038 C 
ATOM      3  O   UNL     1     110.908  86.602 123.302  1.00  0.00    -0.550 OA
ATOM      4  O   UNL     1     109.481  85.123 122.290  1.00  0.00    -0.550 OA
ENDROOT
TORSDOF 0
ENDMDL
MODEL 3
REMARK VINA RESULT:    -2.139      1.785      1.843
REMARK INTER + INTRA:          -2.139
REMARK INTER:                  -2.139
REMARK INTRA:                   0.000
REMARK UNBOUND:                 0.000
REMARK SMILES CC(=O)[O-]
REMARK SMILES IDX 1 1 2 2 3 3 4 4
REMARK H PARENT
REMARK Flexibility Score: inf
ROOT
ATOM      1  C   UNL     1     109.533  86.730 123.806  1.00  0.00     0.063 C 
ATOM      2  C   UNL     1     109.749  85.807 122.656  1.00  0.00     0.038 C 
ATOM      3  O   UNL     1     108.835  85.020 122.296  1.00  0.00    -0.550 OA
ATOM      4  O   UNL     1     110.941  85.849 121.945  1.00  0.00    -0.550 OA
ENDROOT
TORSDOF 0
ENDMDL
MODEL 4
REMARK VINA RESULT:    -2.111      3.402      3.800
REMARK INTER + INTRA:          -2.111
REMARK INTER:                  -2.111
REMARK INTRA:                   0.000
REMARK UNBOUND:                 0.000
REMARK SMILES CC(=O)[O-]
REMARK SMILES IDX 1 1 2 2 3 3 4 4
REMARK H PARENT
REMARK Flexibility Score: inf
ROOT
ATOM      1  C   UNL     1     109.473  86.932 123.870  1.00  0.00     0.063 C 
ATOM      2  C   UNL     1     109.442  88.197 124.658  1.00  0.00     0.038 C 
ATOM      3  O   UNL     1     108.690  89.143 124.304  1.00  0.00    -0.550 OA
ATOM      4  O   UNL     1     110.203  88.317 125.813  1.00  0.00    -0.550 OA
ENDROOT
TORSDOF 0
ENDMDL
MODEL 5
REMARK VINA RESULT:    -2.100      1.850      2.586
REMARK INTER + INTRA:          -2.100
REMARK INTER:                  -2.100
REMARK INTRA:                   0.000
REMARK UNBOUND:                 0.000
REMARK SMILES CC(=O)[O-]
REMARK SMILES IDX 1 1 2 2 3 3 4 4
REMARK H PARENT
REMARK Flexibility Score: inf
ROOT
ATOM      1  C   UNL     1     112.865  85.111 122.827  1.00  0.00     0.063 C 
ATOM      2  C   UNL     1     111.666  85.178 121.943  1.00  0.00     0.038 C 
ATOM      3  O   UNL     1     111.729  85.776 120.837  1.00  0.00    -0.550 OA
ATOM      4  O   UNL     1     110.491  84.537 122.313  1.00  0.00    -0.550 OA
ENDROOT
TORSDOF 0
ENDMDL
MODEL 6
REMARK VINA RESULT:    -2.045     11.134     11.396
REMARK INTER + INTRA:          -2.045
REMARK INTER:                  -2.045
REMARK INTRA:                   0.000
REMARK UNBOUND:                 0.000
REMARK SMILES CC(=O)[O-]
REMARK SMILES IDX 1 1 2 2 3 3 4 4
REMARK H PARENT
REMARK Flexibility Score: inf
ROOT
ATOM      1  C   UNL     1     111.013  94.854 117.443  1.00  0.00     0.063 C 
ATOM      2  C   UNL     1     112.097  95.844 117.183  1.00  0.00     0.038 C 
ATOM      3  O   UNL     1     112.002  97.017 117.632  1.00  0.00    -0.550 OA
ATOM      4  O   UNL     1     113.237  95.461 116.490  1.00  0.00    -0.550 OA
ENDROOT
TORSDOF 0
ENDMDL
MODEL 7
REMARK VINA RESULT:    -2.039      2.364      2.734
REMARK INTER + INTRA:          -2.039
REMARK INTER:                  -2.039
REMARK INTRA:                   0.000
REMARK UNBOUND:                 0.000
REMARK SMILES CC(=O)[O-]
REMARK SMILES IDX 1 1 2 2 3 3 4 4
REMARK H PARENT
REMARK Flexibility Score: inf
ROOT
ATOM      1  C   UNL     1     109.226  88.434 124.660  1.00  0.00     0.063 C 
ATOM      2  C   UNL     1     109.941  87.273 124.055  1.00  0.00     0.038 C 
ATOM      3  O   UNL     1     111.106  86.982 124.433  1.00  0.00    -0.550 OA
ATOM      4  O   UNL     1     109.303  86.478 123.113  1.00  0.00    -0.550 OA
ENDROOT
TORSDOF 0
ENDMDL
MODEL 8
REMARK VINA RESULT:    -2.035     10.080     10.424
REMARK INTER + INTRA:          -2.035
REMARK INTER:                  -2.035
REMARK INTRA:                   0.000
REMARK UNBOUND:                 0.000
REMARK SMILES CC(=O)[O-]
REMARK SMILES IDX 1 1 2 2 3 3 4 4
REMARK H PARENT
REMARK Flexibility Score: inf
ROOT
ATOM      1  C   UNL     1     111.290  95.359 117.596  1.00  0.00     0.063 C 
ATOM      2  C   UNL     1     110.987  94.262 116.633  1.00  0.00     0.038 C 
ATOM      3  O   UNL     1     109.915  93.609 116.735  1.00  0.00    -0.550 OA
ATOM      4  O   UNL     1     111.862  93.991 115.589  1.00  0.00    -0.550 OA
ENDROOT
TORSDOF 0
ENDMDL
MODEL 9
REMARK VINA RESULT:    -2.033     10.283     10.445
REMARK INTER + INTRA:          -2.033
REMARK INTER:                  -2.033
REMARK INTRA:                   0.000
REMARK UNBOUND:                 0.000
REMARK SMILES CC(=O)[O-]
REMARK SMILES IDX 1 1 2 2 3 3 4 4
REMARK H PARENT
REMARK Flexibility Score: inf
ROOT
ATOM      1  C   UNL     1     107.066  92.467 117.040  1.00  0.00     0.063 C 
ATOM      2  C   UNL     1     105.669  92.953 116.852  1.00  0.00     0.038 C 
ATOM      3  O   UNL     1     104.703  92.152 116.953  1.00  0.00    -0.550 OA
ATOM      4  O   UNL     1     105.426  94.299 116.617  1.00  0.00    -0.550 OA
ENDROOT
TORSDOF 0
ENDMDL
