MODEL 1
REMARK VINA RESULT:    -4.882      0.000      0.000
REMARK INTER + INTRA:          -5.159
REMARK INTER:                  -6.023
REMARK INTRA:                   0.865
REMARK UNBOUND:                 0.865
REMARK SMILES CC1=CC=CC(C)(C)CC1=O
REMARK SMILES IDX 1 1 2 2 3 3 10 4 11 5 9 6 4 8 5 9 6 10 7 11 8 12
REMARK H PARENT
REMARK Flexibility Score: 80.00
ROOT
ATOM      1  C   UNL     1      29.796  15.121  27.685  1.00  0.00     0.048 C 
ATOM      2  C   UNL     1      30.826  16.225  27.629  1.00  0.00    -0.008 C 
ATOM      3  C   UNL     1      31.730  16.295  28.630  1.00  0.00     0.007 C 
ENDROOT
BRANCH   2   4
ATOM      4  C   UNL     1      30.789  17.114  26.437  1.00  0.00     0.159 C 
ATOM      5  O   UNL     1      29.870  16.948  25.588  1.00  0.00    -0.295 OA
BRANCH   4   6
ATOM      6  C   UNL     1      31.802  18.183  26.153  1.00  0.00     0.091 CG0
ATOM      7  G   UNL     1      32.058  19.136  27.342  1.00  0.00     0.000 G0
ENDBRANCH   4   6
ENDBRANCH   2   4
BRANCH   3   8
ATOM      8  C   UNL     1      32.832  17.260  28.845  1.00  0.00    -0.003 C 
ATOM      9  C   UNL     1      32.980  18.487  28.329  1.00  0.00    -0.020 C 
BRANCH   9  10
ATOM     10  C   UNL     1      32.060  19.150  27.332  1.00  0.00    -0.010 CG0
ATOM     11  C   UNL     1      30.753  19.601  28.024  1.00  0.00     0.016 C 
ATOM     12  C   UNL     1      32.769  20.412  26.786  1.00  0.00     0.016 C 
ATOM     13  G   UNL     1      31.808  18.190  26.147  1.00  0.00     0.000 G0
ENDBRANCH   9  10
ENDBRANCH   3   8
TORSDOF 0
ENDMDL
MODEL 2
REMARK VINA RESULT:    -4.270      1.592      3.509
REMARK INTER + INTRA:          -4.404
REMARK INTER:                  -5.246
REMARK INTRA:                   0.842
REMARK UNBOUND:                 0.865
REMARK SMILES CC1=CC=CC(C)(C)CC1=O
REMARK SMILES IDX 1 1 2 2 3 3 10 4 11 5 9 6 4 8 5 9 6 10 7 11 8 12
REMARK H PARENT
REMARK Flexibility Score: 80.00
ROOT
ATOM      1  C   UNL     1      32.634  19.789  24.793  1.00  0.00     0.048 C 
ATOM      2  C   UNL     1      31.801  19.000  25.777  1.00  0.00    -0.008 C 
ATOM      3  C   UNL     1      31.730  19.453  27.048  1.00  0.00     0.007 C 
ENDROOT
BRANCH   2   4
ATOM      4  C   UNL     1      31.081  17.813  25.243  1.00  0.00     0.159 C 
ATOM      5  O   UNL     1      31.270  17.483  24.040  1.00  0.00    -0.295 OA
BRANCH   4   6
ATOM      6  C   UNL     1      30.104  16.996  26.035  1.00  0.00     0.091 CG0
ATOM      7  G   UNL     1      30.649  16.515  27.399  1.00  0.00     0.000 G0
ENDBRANCH   4   6
ENDBRANCH   2   4
BRANCH   3   8
ATOM      8  C   UNL     1      31.012  18.891  28.215  1.00  0.00    -0.003 C 
ATOM      9  C   UNL     1      30.574  17.640  28.402  1.00  0.00    -0.020 C 
BRANCH   9  10
ATOM     10  C   UNL     1      30.659  16.509  27.405  1.00  0.00    -0.010 CG0
ATOM     11  C   UNL     1      32.105  15.967  27.330  1.00  0.00     0.016 C 
ATOM     12  C   UNL     1      29.747  15.361  27.899  1.00  0.00     0.016 C 
ATOM     13  G   UNL     1      30.129  16.988  26.035  1.00  0.00     0.000 G0
ENDBRANCH   9  10
ENDBRANCH   3   8
TORSDOF 0
ENDMDL
MODEL 3
REMARK VINA RESULT:    -4.259      1.821      2.609
REMARK INTER + INTRA:          -4.390
REMARK INTER:                  -5.235
REMARK INTRA:                   0.845
REMARK UNBOUND:                 0.865
REMARK SMILES CC1=CC=CC(C)(C)CC1=O
REMARK SMILES IDX 1 1 2 2 3 3 10 4 11 5 9 6 4 8 5 9 6 10 7 11 8 12
REMARK H PARENT
REMARK Flexibility Score: 80.00
ROOT
ATOM      1  C   UNL     1      31.883  15.623  28.328  1.00  0.00     0.048 C 
ATOM      2  C   UNL     1      31.657  16.979  27.701  1.00  0.00    -0.008 C 
ATOM      3  C   UNL     1      31.687  17.062  26.353  1.00  0.00     0.007 C 
ENDROOT
BRANCH   2   4
ATOM      4  C   UNL     1      31.364  18.105  28.628  1.00  0.00     0.159 C 
ATOM      5  O   UNL     1      31.416  17.892  29.870  1.00  0.00    -0.295 OA
BRANCH   4   6
ATOM      6  C   UNL     1      30.970  19.481  28.181  1.00  0.00     0.091 CG0
ATOM      7  G   UNL     1      31.940  20.109  27.156  1.00  0.00     0.000 G0
ENDBRANCH   4   6
ENDBRANCH   2   4
BRANCH   3   8
ATOM      8  C   UNL     1      31.514  18.241  25.473  1.00  0.00    -0.003 C 
ATOM      9  C   UNL     1      31.644  19.537  25.779  1.00  0.00    -0.020 C 
BRANCH   9  10
ATOM     10  C   UNL     1      31.939  20.103  27.147  1.00  0.00    -0.010 CG0
ATOM     11  C   UNL     1      33.429  19.897  27.504  1.00  0.00     0.016 C 
ATOM     12  C   UNL     1      31.667  21.625  27.109  1.00  0.00     0.016 C 
ATOM     13  G   UNL     1      30.984  19.470  28.184  1.00  0.00     0.000 G0
ENDBRANCH   9  10
ENDBRANCH   3   8
TORSDOF 0
ENDMDL
MODEL 4
REMARK VINA RESULT:    -4.153      1.646      3.567
REMARK INTER + INTRA:          -4.260
REMARK INTER:                  -5.110
REMARK INTRA:                   0.850
REMARK UNBOUND:                 0.865
REMARK SMILES CC1=CC=CC(C)(C)CC1=O
REMARK SMILES IDX 1 1 2 2 3 3 10 4 11 5 9 6 4 8 5 9 6 10 7 11 8 12
REMARK H PARENT
REMARK Flexibility Score: 80.00
ROOT
ATOM      1  C   UNL     1      33.738  20.132  27.886  1.00  0.00     0.048 C 
ATOM      2  C   UNL     1      32.943  18.882  28.181  1.00  0.00    -0.008 C 
ATOM      3  C   UNL     1      33.613  17.801  28.636  1.00  0.00     0.007 C 
ENDROOT
BRANCH   2   4
ATOM      4  C   UNL     1      31.469  18.968  27.994  1.00  0.00     0.159 C 
ATOM      5  O   UNL     1      30.980  20.036  27.535  1.00  0.00    -0.295 OA
BRANCH   4   6
ATOM      6  C   UNL     1      30.511  17.872  28.355  1.00  0.00     0.091 CG0
ATOM      7  G   UNL     1      30.889  16.492  27.772  1.00  0.00     0.000 G0
ENDBRANCH   4   6
ENDBRANCH   2   4
BRANCH   3   8
ATOM      8  C   UNL     1      33.108  16.455  28.992  1.00  0.00    -0.003 C 
ATOM      9  C   UNL     1      31.968  15.865  28.615  1.00  0.00    -0.020 C 
BRANCH   9  10
ATOM     10  C   UNL     1      30.880  16.486  27.772  1.00  0.00    -0.010 CG0
ATOM     11  C   UNL     1      31.319  16.550  26.291  1.00  0.00     0.016 C 
ATOM     12  C   UNL     1      29.628  15.582  27.857  1.00  0.00     0.016 C 
ATOM     13  G   UNL     1      30.512  17.872  28.347  1.00  0.00     0.000 G0
ENDBRANCH   9  10
ENDBRANCH   3   8
TORSDOF 0
ENDMDL
MODEL 5
REMARK VINA RESULT:    -3.961      2.276      4.229
REMARK INTER + INTRA:          -4.022
REMARK INTER:                  -4.867
REMARK INTRA:                   0.846
REMARK UNBOUND:                 0.865
REMARK SMILES CC1=CC=CC(C)(C)CC1=O
REMARK SMILES IDX 1 1 2 2 3 3 10 4 11 5 9 6 4 8 5 9 6 10 7 11 8 12
REMARK H PARENT
REMARK Flexibility Score: 80.00
ROOT
ATOM      1  C   UNL     1      32.305  22.524  25.362  1.00  0.00     0.048 C 
ATOM      2  C   UNL     1      32.338  21.093  25.845  1.00  0.00    -0.008 C 
ATOM      3  C   UNL     1      31.841  20.140  25.027  1.00  0.00     0.007 C 
ENDROOT
BRANCH   2   4
ATOM      4  C   UNL     1      32.969  20.848  27.170  1.00  0.00     0.159 C 
ATOM      5  O   UNL     1      33.377  21.839  27.836  1.00  0.00    -0.295 OA
BRANCH   4   6
ATOM      6  C   UNL     1      33.190  19.486  27.757  1.00  0.00     0.091 CG0
ATOM      7  G   UNL     1      31.930  18.591  27.756  1.00  0.00     0.000 G0
ENDBRANCH   4   6
ENDBRANCH   2   4
BRANCH   3   8
ATOM      8  C   UNL     1      31.730  18.678  25.233  1.00  0.00    -0.003 C 
ATOM      9  C   UNL     1      31.738  17.995  26.383  1.00  0.00    -0.020 C 
BRANCH   9  10
ATOM     10  C   UNL     1      31.936  18.576  27.763  1.00  0.00    -0.010 CG0
ATOM     11  C   UNL     1      30.653  19.301  28.229  1.00  0.00     0.016 C 
ATOM     12  C   UNL     1      32.207  17.411  28.744  1.00  0.00     0.016 C 
ATOM     13  G   UNL     1      33.176  19.499  27.760  1.00  0.00     0.000 G0
ENDBRANCH   9  10
ENDBRANCH   3   8
TORSDOF 0
ENDMDL
MODEL 6
REMARK VINA RESULT:    -3.884      2.054      2.884
REMARK INTER + INTRA:          -3.928
REMARK INTER:                  -4.996
REMARK INTRA:                   1.068
REMARK UNBOUND:                 0.865
REMARK SMILES CC1=CC=CC(C)(C)CC1=O
REMARK SMILES IDX 1 1 2 2 3 3 10 4 11 5 9 6 4 8 5 9 6 10 7 11 8 12
REMARK H PARENT
REMARK Flexibility Score: 80.00
ROOT
ATOM      1  C   UNL     1      31.250  16.739  26.065  1.00  0.00     0.048 C 
ATOM      2  C   UNL     1      31.243  18.242  26.209  1.00  0.00    -0.008 C 
ATOM      3  C   UNL     1      31.074  18.756  27.447  1.00  0.00     0.007 C 
ENDROOT
BRANCH   2   4
ATOM      4  C   UNL     1      31.479  19.034  24.972  1.00  0.00     0.159 C 
ATOM      5  O   UNL     1      31.817  18.424  23.920  1.00  0.00    -0.295 OA
BRANCH   4   6
ATOM      6  C   UNL     1      31.379  20.529  24.898  1.00  0.00     0.091 CG0
ATOM      7  G   UNL     1      32.222  21.267  25.962  1.00  0.00     0.000 G0
ENDBRANCH   4   6
ENDBRANCH   2   4
BRANCH   3   8
ATOM      8  C   UNL     1      31.013  20.169  27.886  1.00  0.00    -0.003 C 
ATOM      9  C   UNL     1      31.458  21.260  27.250  1.00  0.00    -0.020 C 
BRANCH   9  10
ATOM     10  C   UNL     1      32.202  21.284  25.937  1.00  0.00    -0.010 CG0
ATOM     11  C   UNL     1      32.498  22.742  25.514  1.00  0.00     0.016 C 
ATOM     12  C   UNL     1      33.557  20.564  26.136  1.00  0.00     0.016 C 
ATOM     13  G   UNL     1      31.396  20.506  24.873  1.00  0.00     0.000 G0
ENDBRANCH   9  10
ENDBRANCH   3   8
TORSDOF 0
ENDMDL
MODEL 7
REMARK VINA RESULT:    -3.837      2.401      3.493
REMARK INTER + INTRA:          -3.869
REMARK INTER:                  -4.943
REMARK INTRA:                   1.074
REMARK UNBOUND:                 0.865
REMARK SMILES CC1=CC=CC(C)(C)CC1=O
REMARK SMILES IDX 1 1 2 2 3 3 10 4 11 5 9 6 4 8 5 9 6 10 7 11 8 12
REMARK H PARENT
REMARK Flexibility Score: 80.00
ROOT
ATOM      1  C   UNL     1      32.679  17.844  28.906  1.00  0.00     0.048 C 
ATOM      2  C   UNL     1      32.815  19.165  28.187  1.00  0.00    -0.008 C 
ATOM      3  C   UNL     1      34.060  19.589  27.876  1.00  0.00     0.007 C 
ENDROOT
BRANCH   2   4
ATOM      4  C   UNL     1      31.552  19.867  27.832  1.00  0.00     0.159 C 
ATOM      5  O   UNL     1      30.460  19.250  27.970  1.00  0.00    -0.295 OA
BRANCH   4   6
ATOM      6  C   UNL     1      31.490  21.259  27.279  1.00  0.00     0.091 CG0
ATOM      7  G   UNL     1      32.356  21.471  26.017  1.00  0.00     0.000 G0
ENDBRANCH   4   6
ENDBRANCH   2   4
BRANCH   3   8
ATOM      8  C   UNL     1      34.495  20.829  27.195  1.00  0.00    -0.003 C 
ATOM      9  C   UNL     1      33.775  21.658  26.430  1.00  0.00    -0.020 C 
BRANCH   9  10
ATOM     10  C   UNL     1      32.332  21.469  26.026  1.00  0.00    -0.010 CG0
ATOM     11  C   UNL     1      31.846  22.675  25.190  1.00  0.00     0.016 C 
ATOM     12  C   UNL     1      32.241  20.207  25.136  1.00  0.00     0.016 C 
ATOM     13  G   UNL     1      31.471  21.231  27.287  1.00  0.00     0.000 G0
ENDBRANCH   9  10
ENDBRANCH   3   8
TORSDOF 0
ENDMDL
MODEL 8
REMARK VINA RESULT:    -3.765      1.397      3.242
REMARK INTER + INTRA:          -3.781
REMARK INTER:                  -4.873
REMARK INTRA:                   1.092
REMARK UNBOUND:                 0.865
REMARK SMILES CC1=CC=CC(C)(C)CC1=O
REMARK SMILES IDX 1 1 2 2 3 3 10 4 11 5 9 6 4 8 5 9 6 10 7 11 8 12
REMARK H PARENT
REMARK Flexibility Score: 80.00
ROOT
ATOM      1  C   UNL     1      33.431  20.824  27.636  1.00  0.00     0.048 C 
ATOM      2  C   UNL     1      32.982  19.382  27.684  1.00  0.00    -0.008 C 
ATOM      3  C   UNL     1      33.510  18.589  28.642  1.00  0.00     0.007 C 
ENDROOT
BRANCH   2   4
ATOM      4  C   UNL     1      31.948  18.970  26.697  1.00  0.00     0.159 C 
ATOM      5  O   UNL     1      31.371  19.865  26.020  1.00  0.00    -0.295 OA
BRANCH   4   6
ATOM      6  C   UNL     1      31.513  17.552  26.478  1.00  0.00     0.091 CG0
ATOM      7  G   UNL     1      31.007  16.847  27.756  1.00  0.00     0.000 G0
ENDBRANCH   4   6
ENDBRANCH   2   4
BRANCH   3   8
ATOM      8  C   UNL     1      33.273  17.155  28.921  1.00  0.00    -0.003 C 
ATOM      9  C   UNL     1      32.249  16.387  28.529  1.00  0.00    -0.020 C 
BRANCH   9  10
ATOM     10  C   UNL     1      31.040  16.845  27.749  1.00  0.00    -0.010 CG0
ATOM     11  C   UNL     1      30.108  15.648  27.451  1.00  0.00     0.016 C 
ATOM     12  C   UNL     1      30.255  17.852  28.621  1.00  0.00     0.016 C 
ATOM     13  G   UNL     1      31.500  17.576  26.467  1.00  0.00     0.000 G0
ENDBRANCH   9  10
ENDBRANCH   3   8
TORSDOF 0
ENDMDL
MODEL 9
REMARK VINA RESULT:    -3.131     14.509     15.753
REMARK INTER + INTRA:          -2.998
REMARK INTER:                  -3.848
REMARK INTRA:                   0.850
REMARK UNBOUND:                 0.865
REMARK SMILES CC1=CC=CC(C)(C)CC1=O
REMARK SMILES IDX 1 1 2 2 3 3 10 4 11 5 9 6 4 8 5 9 6 10 7 11 8 12
REMARK H PARENT
REMARK Flexibility Score: 80.00
ROOT
ATOM      1  C   UNL     1      19.755  22.811  26.530  1.00  0.00     0.048 C 
ATOM      2  C   UNL     1      19.059  24.042  27.062  1.00  0.00    -0.008 C 
ATOM      3  C   UNL     1      19.785  24.906  27.804  1.00  0.00     0.007 C 
ENDROOT
BRANCH   2   4
ATOM      4  C   UNL     1      17.635  24.225  26.673  1.00  0.00     0.159 C 
ATOM      5  O   UNL     1      17.068  23.313  26.009  1.00  0.00    -0.295 OA
BRANCH   4   6
ATOM      6  C   UNL     1      16.828  25.449  26.987  1.00  0.00     0.091 CG0
ATOM      7  G   UNL     1      16.859  25.855  28.478  1.00  0.00     0.000 G0
ENDBRANCH   4   6
ENDBRANCH   2   4
BRANCH   3   8
ATOM      8  C   UNL     1      19.375  26.170  28.456  1.00  0.00    -0.003 C 
ATOM      9  C   UNL     1      18.143  26.581  28.780  1.00  0.00    -0.020 C 
BRANCH   9  10
ATOM     10  C   UNL     1      16.855  25.853  28.481  1.00  0.00    -0.010 CG0
ATOM     11  C   UNL     1      16.683  24.650  29.438  1.00  0.00     0.016 C 
ATOM     12  C   UNL     1      15.680  26.828  28.729  1.00  0.00     0.016 C 
ATOM     13  G   UNL     1      16.830  25.440  26.992  1.00  0.00     0.000 G0
ENDBRANCH   9  10
ENDBRANCH   3   8
TORSDOF 0
ENDMDL
