MODEL 1
REMARK VINA RESULT:    -3.337      0.000      0.000
REMARK INTER + INTRA:          -4.046
REMARK INTER:                  -3.922
REMARK INTRA:                  -0.124
REMARK UNBOUND:                -0.124
REMARK SMILES CCCCC(=O)[O-]
REMARK SMILES IDX 4 1 5 2 6 3 7 4 3 5 2 6 1 7
REMARK H PARENT
REMARK Flexibility Score: inf
ROOT
ATOM      1  C   UNL     1      40.322 -10.800 -43.628  1.00  0.00     0.053 C 
ENDROOT
BRANCH   1   2
ATOM      2  C   UNL     1      40.338  -9.429 -44.227  1.00  0.00     0.041 C 
ATOM      3  O   UNL     1      39.441  -9.082 -45.040  1.00  0.00    -0.550 OA
ATOM      4  O   UNL     1      41.315  -8.516 -43.851  1.00  0.00    -0.550 OA
ENDBRANCH   1   2
BRANCH   1   5
ATOM      5  C   UNL     1      40.639 -11.855 -44.696  1.00  0.00     0.006 C 
BRANCH   5   6
ATOM      6  C   UNL     1      42.120 -11.855 -45.103  1.00  0.00    -0.003 C 
ATOM      7  C   UNL     1      43.058 -12.084 -43.919  1.00  0.00     0.004 C 
ENDBRANCH   5   6
ENDBRANCH   1   5
TORSDOF 3
ENDMDL
MODEL 2
REMARK VINA RESULT:    -3.325      2.317      3.578
REMARK INTER + INTRA:          -4.033
REMARK INTER:                  -3.948
REMARK INTRA:                  -0.085
REMARK UNBOUND:                -0.124
REMARK SMILES CCCCC(=O)[O-]
REMARK SMILES IDX 4 1 5 2 6 3 7 4 3 5 2 6 1 7
REMARK H PARENT
REMARK Flexibility Score: inf
ROOT
ATOM      1  C   UNL     1      40.684 -11.965 -44.785  1.00  0.00     0.053 C 
ENDROOT
BRANCH   1   2
ATOM      2  C   UNL     1      42.180 -11.965 -44.826  1.00  0.00     0.041 C 
ATOM      3  O   UNL     1      42.843 -12.136 -43.769  1.00  0.00    -0.550 OA
ATOM      4  O   UNL     1      42.842 -11.827 -46.039  1.00  0.00    -0.550 OA
ENDBRANCH   1   2
BRANCH   1   5
ATOM      5  C   UNL     1      40.171 -10.782 -43.955  1.00  0.00     0.006 C 
BRANCH   5   6
ATOM      6  C   UNL     1      40.697  -9.432 -44.466  1.00  0.00    -0.003 C 
ATOM      7  C   UNL     1      39.591  -8.546 -45.039  1.00  0.00     0.004 C 
ENDBRANCH   5   6
ENDBRANCH   1   5
TORSDOF 3
ENDMDL
MODEL 3
REMARK VINA RESULT:    -3.256      2.841      3.819
REMARK INTER + INTRA:          -3.951
REMARK INTER:                  -3.927
REMARK INTRA:                  -0.024
REMARK UNBOUND:                -0.124
REMARK SMILES CCCCC(=O)[O-]
REMARK SMILES IDX 4 1 5 2 6 3 7 4 3 5 2 6 1 7
REMARK H PARENT
REMARK Flexibility Score: inf
ROOT
ATOM      1  C   UNL     1      43.503 -12.359 -43.736  1.00  0.00     0.053 C 
ENDROOT
BRANCH   1   2
ATOM      2  C   UNL     1      42.478 -11.969 -44.753  1.00  0.00     0.041 C 
ATOM      3  O   UNL     1      42.774 -11.950 -45.978  1.00  0.00    -0.550 OA
ATOM      4  O   UNL     1      41.180 -11.675 -44.356  1.00  0.00    -0.550 OA
ENDBRANCH   1   2
BRANCH   1   5
ATOM      5  C   UNL     1      43.437 -11.423 -42.523  1.00  0.00     0.006 C 
BRANCH   5   6
ATOM      6  C   UNL     1      43.897 -12.107 -41.226  1.00  0.00    -0.003 C 
ATOM      7  C   UNL     1      44.206 -11.110 -40.110  1.00  0.00     0.004 C 
ENDBRANCH   5   6
ENDBRANCH   1   5
TORSDOF 3
ENDMDL
MODEL 4
REMARK VINA RESULT:    -3.234      5.382      6.664
REMARK INTER + INTRA:          -3.925
REMARK INTER:                  -3.821
REMARK INTRA:                  -0.104
REMARK UNBOUND:                -0.124
REMARK SMILES CCCCC(=O)[O-]
REMARK SMILES IDX 4 1 5 2 6 3 7 4 3 5 2 6 1 7
REMARK H PARENT
REMARK Flexibility Score: inf
ROOT
ATOM      1  C   UNL     1      45.122 -11.311 -39.506  1.00  0.00     0.053 C 
ENDROOT
BRANCH   1   2
ATOM      2  C   UNL     1      46.002 -12.501 -39.722  1.00  0.00     0.041 C 
ATOM      3  O   UNL     1      47.254 -12.363 -39.770  1.00  0.00    -0.550 OA
ATOM      4  O   UNL     1      45.446 -13.769 -39.822  1.00  0.00    -0.550 OA
ENDBRANCH   1   2
BRANCH   1   5
ATOM      5  C   UNL     1      43.745 -11.540 -40.143  1.00  0.00     0.006 C 
BRANCH   5   6
ATOM      6  C   UNL     1      43.627 -10.901 -41.535  1.00  0.00    -0.003 C 
ATOM      7  C   UNL     1      43.585 -11.936 -42.658  1.00  0.00     0.004 C 
ENDBRANCH   5   6
ENDBRANCH   1   5
TORSDOF 3
ENDMDL
MODEL 5
REMARK VINA RESULT:    -3.223      2.634      3.794
REMARK INTER + INTRA:          -3.912
REMARK INTER:                  -3.894
REMARK INTRA:                  -0.018
REMARK UNBOUND:                -0.124
REMARK SMILES CCCCC(=O)[O-]
REMARK SMILES IDX 4 1 5 2 6 3 7 4 3 5 2 6 1 7
REMARK H PARENT
REMARK Flexibility Score: inf
ROOT
ATOM      1  C   UNL     1      43.151 -11.982 -43.494  1.00  0.00     0.053 C 
ENDROOT
BRANCH   1   2
ATOM      2  C   UNL     1      43.587 -11.451 -42.165  1.00  0.00     0.041 C 
ATOM      3  O   UNL     1      43.411 -10.237 -41.879  1.00  0.00    -0.550 OA
ATOM      4  O   UNL     1      44.141 -12.306 -41.222  1.00  0.00    -0.550 OA
ENDBRANCH   1   2
BRANCH   1   5
ATOM      5  C   UNL     1      41.864 -11.285 -43.954  1.00  0.00     0.006 C 
BRANCH   5   6
ATOM      6  C   UNL     1      41.115 -12.083 -45.032  1.00  0.00    -0.003 C 
ATOM      7  C   UNL     1      39.608 -12.137 -44.787  1.00  0.00     0.004 C 
ENDBRANCH   5   6
ENDBRANCH   1   5
TORSDOF 3
ENDMDL
MODEL 6
REMARK VINA RESULT:    -3.208      1.325      1.918
REMARK INTER + INTRA:          -3.894
REMARK INTER:                  -3.843
REMARK INTRA:                  -0.051
REMARK UNBOUND:                -0.124
REMARK SMILES CCCCC(=O)[O-]
REMARK SMILES IDX 4 1 5 2 6 3 7 4 3 5 2 6 1 7
REMARK H PARENT
REMARK Flexibility Score: inf
ROOT
ATOM      1  C   UNL     1      40.530 -10.329 -42.748  1.00  0.00     0.053 C 
ENDROOT
BRANCH   1   2
ATOM      2  C   UNL     1      41.540  -9.226 -42.684  1.00  0.00     0.041 C 
ATOM      3  O   UNL     1      41.312  -8.124 -43.248  1.00  0.00    -0.550 OA
ATOM      4  O   UNL     1      42.711  -9.398 -41.958  1.00  0.00    -0.550 OA
ENDBRANCH   1   2
BRANCH   1   5
ATOM      5  C   UNL     1      40.101 -10.578 -44.200  1.00  0.00     0.006 C 
BRANCH   5   6
ATOM      6  C   UNL     1      40.611 -11.922 -44.742  1.00  0.00    -0.003 C 
ATOM      7  C   UNL     1      42.098 -11.893 -45.091  1.00  0.00     0.004 C 
ENDBRANCH   5   6
ENDBRANCH   1   5
TORSDOF 3
ENDMDL
MODEL 7
REMARK VINA RESULT:    -3.205      2.558      3.326
REMARK INTER + INTRA:          -3.891
REMARK INTER:                  -3.777
REMARK INTRA:                  -0.114
REMARK UNBOUND:                -0.124
REMARK SMILES CCCCC(=O)[O-]
REMARK SMILES IDX 4 1 5 2 6 3 7 4 3 5 2 6 1 7
REMARK H PARENT
REMARK Flexibility Score: inf
ROOT
ATOM      1  C   UNL     1      40.945 -11.678 -44.595  1.00  0.00     0.053 C 
ENDROOT
BRANCH   1   2
ATOM      2  C   UNL     1      42.387 -11.954 -44.882  1.00  0.00     0.041 C 
ATOM      3  O   UNL     1      42.817 -11.917 -46.065  1.00  0.00    -0.550 OA
ATOM      4  O   UNL     1      43.269 -12.203 -43.839  1.00  0.00    -0.550 OA
ENDBRANCH   1   2
BRANCH   1   5
ATOM      5  C   UNL     1      40.754 -10.217 -44.167  1.00  0.00     0.006 C 
BRANCH   5   6
ATOM      6  C   UNL     1      40.656 -10.059 -42.642  1.00  0.00    -0.003 C 
ATOM      7  C   UNL     1      41.901  -9.414 -42.034  1.00  0.00     0.004 C 
ENDBRANCH   5   6
ENDBRANCH   1   5
TORSDOF 3
ENDMDL
MODEL 8
REMARK VINA RESULT:    -3.177      3.561      4.535
REMARK INTER + INTRA:          -3.858
REMARK INTER:                  -3.839
REMARK INTRA:                  -0.019
REMARK UNBOUND:                -0.124
REMARK SMILES CCCCC(=O)[O-]
REMARK SMILES IDX 4 1 5 2 6 3 7 4 3 5 2 6 1 7
REMARK H PARENT
REMARK Flexibility Score: inf
ROOT
ATOM      1  C   UNL     1      43.442 -11.253 -42.199  1.00  0.00     0.053 C 
ENDROOT
BRANCH   1   2
ATOM      2  C   UNL     1      43.820 -11.632 -40.802  1.00  0.00     0.041 C 
ATOM      3  O   UNL     1      44.989 -12.026 -40.546  1.00  0.00    -0.550 OA
ATOM      4  O   UNL     1      42.897 -11.504 -39.773  1.00  0.00    -0.550 OA
ENDBRANCH   1   2
BRANCH   1   5
ATOM      5  C   UNL     1      43.561 -12.464 -43.134  1.00  0.00     0.006 C 
BRANCH   5   6
ATOM      6  C   UNL     1      43.271 -12.107 -44.599  1.00  0.00    -0.003 C 
ATOM      7  C   UNL     1      41.788 -11.850 -44.863  1.00  0.00     0.004 C 
ENDBRANCH   5   6
ENDBRANCH   1   5
TORSDOF 3
ENDMDL
MODEL 9
REMARK VINA RESULT:    -3.118      2.921      3.981
REMARK INTER + INTRA:          -3.788
REMARK INTER:                  -3.694
REMARK INTRA:                  -0.094
REMARK UNBOUND:                -0.124
REMARK SMILES CCCCC(=O)[O-]
REMARK SMILES IDX 4 1 5 2 6 3 7 4 3 5 2 6 1 7
REMARK H PARENT
REMARK Flexibility Score: inf
ROOT
ATOM      1  C   UNL     1      42.357  -9.402 -41.999  1.00  0.00     0.053 C 
ENDROOT
BRANCH   1   2
ATOM      2  C   UNL     1      43.389 -10.440 -41.687  1.00  0.00     0.041 C 
ATOM      3  O   UNL     1      44.008 -10.408 -40.590  1.00  0.00    -0.550 OA
ATOM      4  O   UNL     1      43.633 -11.471 -42.584  1.00  0.00    -0.550 OA
ENDBRANCH   1   2
BRANCH   1   5
ATOM      5  C   UNL     1      40.974 -10.050 -42.147  1.00  0.00     0.006 C 
BRANCH   5   6
ATOM      6  C   UNL     1      40.445  -9.986 -43.588  1.00  0.00    -0.003 C 
ATOM      7  C   UNL     1      40.184 -11.369 -44.183  1.00  0.00     0.004 C 
ENDBRANCH   5   6
ENDBRANCH   1   5
TORSDOF 3
ENDMDL
