MODEL 1
REMARK VINA RESULT:    -4.550      0.000      0.000
REMARK INTER + INTRA:          -9.472
REMARK INTER:                  -7.742
REMARK INTRA:                  -1.730
REMARK UNBOUND:                -1.730
REMARK SMILES CCCCCCCCCCCCCC(=O)[O-]
REMARK SMILES IDX 8 1 9 2 10 3 11 4 12 5 13 6 14 7 15 8 16 9 7 10 6 11 5 12
REMARK SMILES IDX 4 13 3 14 2 15 1 16
REMARK H PARENT
REMARK Flexibility Score: inf
ROOT
ATOM      1  C   UNL     1      63.141  30.207  27.247  1.00  0.00     0.000 C 
ENDROOT
BRANCH   1   2
ATOM      2  C   UNL     1      64.621  30.147  27.659  1.00  0.00     0.000 C 
BRANCH   2   3
ATOM      3  C   UNL     1      65.504  29.459  26.601  1.00  0.00     0.000 C 
BRANCH   3   4
ATOM      4  C   UNL     1      64.745  29.175  25.295  1.00  0.00     0.000 C 
BRANCH   4   5
ATOM      5  C   UNL     1      65.389  28.045  24.472  1.00  0.00     0.006 C 
BRANCH   5   6
ATOM      6  C   UNL     1      65.021  26.656  25.009  1.00  0.00     0.053 C 
BRANCH   6   7
ATOM      7  C   UNL     1      64.576  25.736  23.914  1.00  0.00     0.041 C 
ATOM      8  O   UNL     1      65.388  25.377  23.020  1.00  0.00    -0.550 OA
ATOM      9  O   UNL     1      63.258  25.304  23.859  1.00  0.00    -0.550 OA
ENDBRANCH   6   7
ENDBRANCH   5   6
ENDBRANCH   4   5
ENDBRANCH   3   4
ENDBRANCH   2   3
ENDBRANCH   1   2
BRANCH   1  10
ATOM     10  C   UNL     1      62.189  30.100  28.450  1.00  0.00     0.000 C 
BRANCH  10  11
ATOM     11  C   UNL     1      61.313  28.838  28.397  1.00  0.00    -0.000 C 
BRANCH  11  12
ATOM     12  C   UNL     1      62.137  27.549  28.225  1.00  0.00    -0.000 C 
BRANCH  12  13
ATOM     13  C   UNL     1      61.858  26.843  26.888  1.00  0.00    -0.000 C 
BRANCH  13  14
ATOM     14  C   UNL     1      60.369  26.870  26.505  1.00  0.00    -0.000 C 
BRANCH  14  15
ATOM     15  C   UNL     1      60.127  27.503  25.126  1.00  0.00    -0.003 C 
ATOM     16  C   UNL     1      61.340  28.274  24.607  1.00  0.00     0.004 C 
ENDBRANCH  14  15
ENDBRANCH  13  14
ENDBRANCH  12  13
ENDBRANCH  11  12
ENDBRANCH  10  11
ENDBRANCH   1  10
TORSDOF 12
ENDMDL
MODEL 2
REMARK VINA RESULT:    -4.511      2.634      5.111
REMARK INTER + INTRA:          -9.405
REMARK INTER:                  -7.751
REMARK INTRA:                  -1.654
REMARK UNBOUND:                -1.730
REMARK SMILES CCCCCCCCCCCCCC(=O)[O-]
REMARK SMILES IDX 8 1 9 2 10 3 11 4 12 5 13 6 14 7 15 8 16 9 7 10 6 11 5 12
REMARK SMILES IDX 4 13 3 14 2 15 1 16
REMARK H PARENT
REMARK Flexibility Score: inf
ROOT
ATOM      1  C   UNL     1      61.554  27.987  24.311  1.00  0.00     0.000 C 
ENDROOT
BRANCH   1   2
ATOM      2  C   UNL     1      61.508  29.371  24.979  1.00  0.00     0.000 C 
BRANCH   2   3
ATOM      3  C   UNL     1      62.883  30.063  25.003  1.00  0.00     0.000 C 
BRANCH   3   4
ATOM      4  C   UNL     1      63.487  30.125  26.415  1.00  0.00     0.000 C 
BRANCH   4   5
ATOM      5  C   UNL     1      62.423  29.985  27.518  1.00  0.00     0.006 C 
BRANCH   5   6
ATOM      6  C   UNL     1      62.764  28.867  28.513  1.00  0.00     0.053 C 
BRANCH   6   7
ATOM      7  C   UNL     1      61.574  28.008  28.813  1.00  0.00     0.041 C 
ATOM      8  O   UNL     1      61.683  26.753  28.811  1.00  0.00    -0.550 OA
ATOM      9  O   UNL     1      60.338  28.591  29.060  1.00  0.00    -0.550 OA
ENDBRANCH   6   7
ENDBRANCH   5   6
ENDBRANCH   4   5
ENDBRANCH   3   4
ENDBRANCH   2   3
ENDBRANCH   1   2
BRANCH   1  10
ATOM     10  C   UNL     1      61.816  26.854  25.319  1.00  0.00     0.000 C 
BRANCH  10  11
ATOM     11  C   UNL     1      63.052  26.017  24.955  1.00  0.00    -0.000 C 
BRANCH  11  12
ATOM     12  C   UNL     1      64.364  26.645  25.459  1.00  0.00    -0.000 C 
BRANCH  12  13
ATOM     13  C   UNL     1      65.315  27.030  24.313  1.00  0.00    -0.000 C 
BRANCH  13  14
ATOM     14  C   UNL     1      64.767  26.631  22.932  1.00  0.00    -0.000 C 
BRANCH  14  15
ATOM     15  C   UNL     1      65.693  25.654  22.191  1.00  0.00    -0.003 C 
ATOM     16  C   UNL     1      66.379  26.291  20.982  1.00  0.00     0.004 C 
ENDBRANCH  14  15
ENDBRANCH  13  14
ENDBRANCH  12  13
ENDBRANCH  11  12
ENDBRANCH  10  11
ENDBRANCH   1  10
TORSDOF 12
ENDMDL
MODEL 3
REMARK VINA RESULT:    -4.505     12.709     14.648
REMARK INTER + INTRA:          -9.396
REMARK INTER:                  -7.595
REMARK INTRA:                  -1.801
REMARK UNBOUND:                -1.730
REMARK SMILES CCCCCCCCCCCCCC(=O)[O-]
REMARK SMILES IDX 8 1 9 2 10 3 11 4 12 5 13 6 14 7 15 8 16 9 7 10 6 11 5 12
REMARK SMILES IDX 4 13 3 14 2 15 1 16
REMARK H PARENT
REMARK Flexibility Score: inf
ROOT
ATOM      1  C   UNL     1      63.671  29.560   9.892  1.00  0.00     0.000 C 
ENDROOT
BRANCH   1   2
ATOM      2  C   UNL     1      63.737  30.934  10.578  1.00  0.00     0.000 C 
BRANCH   2   3
ATOM      3  C   UNL     1      63.430  30.859  12.085  1.00  0.00     0.000 C 
BRANCH   3   4
ATOM      4  C   UNL     1      62.619  32.067  12.581  1.00  0.00     0.000 C 
BRANCH   4   5
ATOM      5  C   UNL     1      62.328  32.002  14.091  1.00  0.00     0.006 C 
BRANCH   5   6
ATOM      6  C   UNL     1      61.054  32.770  14.468  1.00  0.00     0.053 C 
BRANCH   6   7
ATOM      7  C   UNL     1      59.984  31.857  14.980  1.00  0.00     0.041 C 
ATOM      8  O   UNL     1      60.119  31.283  16.093  1.00  0.00    -0.550 OA
ATOM      9  O   UNL     1      58.853  31.609  14.212  1.00  0.00    -0.550 OA
ENDBRANCH   6   7
ENDBRANCH   5   6
ENDBRANCH   4   5
ENDBRANCH   3   4
ENDBRANCH   2   3
ENDBRANCH   1   2
BRANCH   1  10
ATOM     10  C   UNL     1      62.611  28.638  10.518  1.00  0.00     0.000 C 
BRANCH  10  11
ATOM     11  C   UNL     1      61.353  28.510   9.644  1.00  0.00    -0.000 C 
BRANCH  11  12
ATOM     12  C   UNL     1      60.313  29.608   9.937  1.00  0.00    -0.000 C 
BRANCH  12  13
ATOM     13  C   UNL     1      59.949  29.696  11.428  1.00  0.00    -0.000 C 
BRANCH  13  14
ATOM     14  C   UNL     1      59.125  28.490  11.908  1.00  0.00    -0.000 C 
BRANCH  14  15
ATOM     15  C   UNL     1      59.699  27.854  13.183  1.00  0.00    -0.003 C 
ATOM     16  C   UNL     1      60.959  28.562  13.683  1.00  0.00     0.004 C 
ENDBRANCH  14  15
ENDBRANCH  13  14
ENDBRANCH  12  13
ENDBRANCH  11  12
ENDBRANCH  10  11
ENDBRANCH   1  10
TORSDOF 12
ENDMDL
MODEL 4
REMARK VINA RESULT:    -4.489      1.097      3.165
REMARK INTER + INTRA:          -9.368
REMARK INTER:                  -7.408
REMARK INTRA:                  -1.959
REMARK UNBOUND:                -1.730
REMARK SMILES CCCCCCCCCCCCCC(=O)[O-]
REMARK SMILES IDX 8 1 9 2 10 3 11 4 12 5 13 6 14 7 15 8 16 9 7 10 6 11 5 12
REMARK SMILES IDX 4 13 3 14 2 15 1 16
REMARK H PARENT
REMARK Flexibility Score: inf
ROOT
ATOM      1  C   UNL     1      61.294  27.712  25.079  1.00  0.00     0.000 C 
ENDROOT
BRANCH   1   2
ATOM      2  C   UNL     1      61.839  29.121  24.796  1.00  0.00     0.000 C 
BRANCH   2   3
ATOM      3  C   UNL     1      63.375  29.191  24.879  1.00  0.00     0.000 C 
BRANCH   3   4
ATOM      4  C   UNL     1      63.987  27.937  25.521  1.00  0.00     0.000 C 
BRANCH   4   5
ATOM      5  C   UNL     1      65.230  27.434  24.766  1.00  0.00     0.006 C 
BRANCH   5   6
ATOM      6  C   UNL     1      65.091  25.967  24.336  1.00  0.00     0.053 C 
BRANCH   6   7
ATOM      7  C   UNL     1      63.865  25.744  23.506  1.00  0.00     0.041 C 
ATOM      8  O   UNL     1      63.020  24.875  23.845  1.00  0.00    -0.550 OA
ATOM      9  O   UNL     1      63.673  26.470  22.338  1.00  0.00    -0.550 OA
ENDBRANCH   6   7
ENDBRANCH   5   6
ENDBRANCH   4   5
ENDBRANCH   3   4
ENDBRANCH   2   3
ENDBRANCH   1   2
BRANCH   1  10
ATOM     10  C   UNL     1      60.306  27.687  26.258  1.00  0.00     0.000 C 
BRANCH  10  11
ATOM     11  C   UNL     1      60.805  26.820  27.425  1.00  0.00    -0.000 C 
BRANCH  11  12
ATOM     12  C   UNL     1      61.741  27.587  28.377  1.00  0.00    -0.000 C 
BRANCH  12  13
ATOM     13  C   UNL     1      61.222  28.996  28.708  1.00  0.00    -0.000 C 
BRANCH  13  14
ATOM     14  C   UNL     1      62.247  30.095  28.378  1.00  0.00    -0.000 C 
BRANCH  14  15
ATOM     15  C   UNL     1      63.637  29.799  28.961  1.00  0.00    -0.003 C 
ATOM     16  C   UNL     1      64.767  30.435  28.151  1.00  0.00     0.004 C 
ENDBRANCH  14  15
ENDBRANCH  13  14
ENDBRANCH  12  13
ENDBRANCH  11  12
ENDBRANCH  10  11
ENDBRANCH   1  10
TORSDOF 12
ENDMDL
MODEL 5
REMARK VINA RESULT:    -4.482     12.245     14.175
REMARK INTER + INTRA:          -9.356
REMARK INTER:                  -7.527
REMARK INTRA:                  -1.829
REMARK UNBOUND:                -1.730
REMARK SMILES CCCCCCCCCCCCCC(=O)[O-]
REMARK SMILES IDX 8 1 9 2 10 3 11 4 12 5 13 6 14 7 15 8 16 9 7 10 6 11 5 12
REMARK SMILES IDX 4 13 3 14 2 15 1 16
REMARK H PARENT
REMARK Flexibility Score: inf
ROOT
ATOM      1  C   UNL     1      62.289  29.581  13.193  1.00  0.00     0.000 C 
ENDROOT
BRANCH   1   2
ATOM      2  C   UNL     1      62.093  30.979  12.584  1.00  0.00     0.000 C 
BRANCH   2   3
ATOM      3  C   UNL     1      60.634  31.464  12.671  1.00  0.00     0.000 C 
BRANCH   3   4
ATOM      4  C   UNL     1      60.505  32.820  13.383  1.00  0.00     0.000 C 
BRANCH   4   5
ATOM      5  C   UNL     1      60.068  32.676  14.851  1.00  0.00     0.006 C 
BRANCH   5   6
ATOM      6  C   UNL     1      60.949  33.500  15.800  1.00  0.00     0.053 C 
BRANCH   6   7
ATOM      7  C   UNL     1      62.384  33.077  15.735  1.00  0.00     0.041 C 
ATOM      8  O   UNL     1      63.279  33.915  15.448  1.00  0.00    -0.550 OA
ATOM      9  O   UNL     1      62.730  31.750  15.956  1.00  0.00    -0.550 OA
ENDBRANCH   6   7
ENDBRANCH   5   6
ENDBRANCH   4   5
ENDBRANCH   3   4
ENDBRANCH   2   3
ENDBRANCH   1   2
BRANCH   1  10
ATOM     10  C   UNL     1      61.001  29.027  13.826  1.00  0.00     0.000 C 
BRANCH  10  11
ATOM     11  C   UNL     1      60.375  27.898  12.992  1.00  0.00    -0.000 C 
BRANCH  11  12
ATOM     12  C   UNL     1      59.095  28.340  12.259  1.00  0.00    -0.000 C 
BRANCH  12  13
ATOM     13  C   UNL     1      59.347  28.671  10.778  1.00  0.00    -0.000 C 
BRANCH  13  14
ATOM     14  C   UNL     1      60.638  28.031  10.241  1.00  0.00    -0.000 C 
BRANCH  14  15
ATOM     15  C   UNL     1      61.516  29.031   9.472  1.00  0.00    -0.003 C 
ATOM     16  C   UNL     1      63.010  28.761   9.646  1.00  0.00     0.004 C 
ENDBRANCH  14  15
ENDBRANCH  13  14
ENDBRANCH  12  13
ENDBRANCH  11  12
ENDBRANCH  10  11
ENDBRANCH   1  10
TORSDOF 12
ENDMDL
MODEL 6
REMARK VINA RESULT:    -4.456     12.207     14.073
REMARK INTER + INTRA:          -9.313
REMARK INTER:                  -7.826
REMARK INTRA:                  -1.486
REMARK UNBOUND:                -1.730
REMARK SMILES CCCCCCCCCCCCCC(=O)[O-]
REMARK SMILES IDX 8 1 9 2 10 3 11 4 12 5 13 6 14 7 15 8 16 9 7 10 6 11 5 12
REMARK SMILES IDX 4 13 3 14 2 15 1 16
REMARK H PARENT
REMARK Flexibility Score: inf
ROOT
ATOM      1  C   UNL     1      63.286  29.956  12.105  1.00  0.00     0.000 C 
ENDROOT
BRANCH   1   2
ATOM      2  C   UNL     1      62.873  29.319  13.442  1.00  0.00     0.000 C 
BRANCH   2   3
ATOM      3  C   UNL     1      61.815  28.213  13.270  1.00  0.00     0.000 C 
BRANCH   3   4
ATOM      4  C   UNL     1      60.394  28.705  13.584  1.00  0.00     0.000 C 
BRANCH   4   5
ATOM      5  C   UNL     1      59.399  28.397  12.451  1.00  0.00     0.006 C 
BRANCH   5   6
ATOM      6  C   UNL     1      59.610  29.305  11.232  1.00  0.00     0.053 C 
BRANCH   6   7
ATOM      7  C   UNL     1      59.952  28.519  10.004  1.00  0.00     0.041 C 
ATOM      8  O   UNL     1      59.045  28.169   9.204  1.00  0.00    -0.550 OA
ATOM      9  O   UNL     1      61.266  28.142   9.762  1.00  0.00    -0.550 OA
ENDBRANCH   6   7
ENDBRANCH   5   6
ENDBRANCH   4   5
ENDBRANCH   3   4
ENDBRANCH   2   3
ENDBRANCH   1   2
BRANCH   1  10
ATOM     10  C   UNL     1      62.687  31.359  11.911  1.00  0.00     0.000 C 
BRANCH  10  11
ATOM     11  C   UNL     1      62.200  31.980  13.230  1.00  0.00    -0.000 C 
BRANCH  11  12
ATOM     12  C   UNL     1      60.707  32.355  13.195  1.00  0.00    -0.000 C 
BRANCH  12  13
ATOM     13  C   UNL     1      60.243  33.056  14.483  1.00  0.00    -0.000 C 
BRANCH  13  14
ATOM     14  C   UNL     1      61.397  33.306  15.468  1.00  0.00    -0.000 C 
BRANCH  14  15
ATOM     15  C   UNL     1      60.997  33.036  16.926  1.00  0.00    -0.003 C 
ATOM     16  C   UNL     1      61.380  34.179  17.867  1.00  0.00     0.004 C 
ENDBRANCH  14  15
ENDBRANCH  13  14
ENDBRANCH  12  13
ENDBRANCH  11  12
ENDBRANCH  10  11
ENDBRANCH   1  10
TORSDOF 12
ENDMDL
MODEL 7
REMARK VINA RESULT:    -4.440     11.525     13.418
REMARK INTER + INTRA:          -9.285
REMARK INTER:                  -7.456
REMARK INTRA:                  -1.829
REMARK UNBOUND:                -1.730
REMARK SMILES CCCCCCCCCCCCCC(=O)[O-]
REMARK SMILES IDX 8 1 9 2 10 3 11 4 12 5 13 6 14 7 15 8 16 9 7 10 6 11 5 12
REMARK SMILES IDX 4 13 3 14 2 15 1 16
REMARK H PARENT
REMARK Flexibility Score: inf
ROOT
ATOM      1  C   UNL     1      62.424  32.007  12.741  1.00  0.00     0.000 C 
ENDROOT
BRANCH   1   2
ATOM      2  C   UNL     1      60.889  32.094  12.738  1.00  0.00     0.000 C 
BRANCH   2   3
ATOM      3  C   UNL     1      60.338  32.897  13.931  1.00  0.00     0.000 C 
BRANCH   3   4
ATOM      4  C   UNL     1      59.840  31.993  15.069  1.00  0.00     0.000 C 
BRANCH   4   5
ATOM      5  C   UNL     1      60.640  32.185  16.369  1.00  0.00     0.006 C 
BRANCH   5   6
ATOM      6  C   UNL     1      61.518  33.443  16.328  1.00  0.00     0.053 C 
BRANCH   6   7
ATOM      7  C   UNL     1      61.630  34.088  17.675  1.00  0.00     0.041 C 
ATOM      8  O   UNL     1      60.655  34.064  18.472  1.00  0.00    -0.550 OA
ATOM      9  O   UNL     1      62.798  34.746  18.037  1.00  0.00    -0.550 OA
ENDBRANCH   6   7
ENDBRANCH   5   6
ENDBRANCH   4   5
ENDBRANCH   3   4
ENDBRANCH   2   3
ENDBRANCH   1   2
BRANCH   1  10
ATOM     10  C   UNL     1      62.932  30.556  12.682  1.00  0.00     0.000 C 
BRANCH  10  11
ATOM     11  C   UNL     1      62.407  29.700  13.845  1.00  0.00    -0.000 C 
BRANCH  11  12
ATOM     12  C   UNL     1      61.822  28.355  13.377  1.00  0.00    -0.000 C 
BRANCH  12  13
ATOM     13  C   UNL     1      60.292  28.296  13.510  1.00  0.00    -0.000 C 
BRANCH  13  14
ATOM     14  C   UNL     1      59.569  28.846  12.269  1.00  0.00    -0.000 C 
BRANCH  14  15
ATOM     15  C   UNL     1      60.243  28.418  10.956  1.00  0.00    -0.003 C 
ATOM     16  C   UNL     1      60.502  29.593  10.013  1.00  0.00     0.004 C 
ENDBRANCH  14  15
ENDBRANCH  13  14
ENDBRANCH  12  13
ENDBRANCH  11  12
ENDBRANCH  10  11
ENDBRANCH   1  10
TORSDOF 12
ENDMDL
MODEL 8
REMARK VINA RESULT:    -4.415      1.094      2.062
REMARK INTER + INTRA:          -9.243
REMARK INTER:                  -7.394
REMARK INTRA:                  -1.849
REMARK UNBOUND:                -1.730
REMARK SMILES CCCCCCCCCCCCCC(=O)[O-]
REMARK SMILES IDX 8 1 9 2 10 3 11 4 12 5 13 6 14 7 15 8 16 9 7 10 6 11 5 12
REMARK SMILES IDX 4 13 3 14 2 15 1 16
REMARK H PARENT
REMARK Flexibility Score: inf
ROOT
ATOM      1  C   UNL     1      64.906  29.764  26.988  1.00  0.00     0.000 C 
ENDROOT
BRANCH   1   2
ATOM      2  C   UNL     1      65.634  28.868  25.973  1.00  0.00     0.000 C 
BRANCH   2   3
ATOM      3  C   UNL     1      64.663  28.114  25.045  1.00  0.00     0.000 C 
BRANCH   3   4
ATOM      4  C   UNL     1      64.706  26.593  25.258  1.00  0.00     0.000 C 
BRANCH   4   5
ATOM      5  C   UNL     1      64.033  25.816  24.113  1.00  0.00     0.006 C 
BRANCH   5   6
ATOM      6  C   UNL     1      64.144  26.553  22.771  1.00  0.00     0.053 C 
BRANCH   6   7
ATOM      7  C   UNL     1      65.327  26.090  21.978  1.00  0.00     0.041 C 
ATOM      8  O   UNL     1      65.687  26.723  20.950  1.00  0.00    -0.550 OA
ATOM      9  O   UNL     1      66.010  24.941  22.352  1.00  0.00    -0.550 OA
ENDBRANCH   6   7
ENDBRANCH   5   6
ENDBRANCH   4   5
ENDBRANCH   3   4
ENDBRANCH   2   3
ENDBRANCH   1   2
BRANCH   1  10
ATOM     10  C   UNL     1      63.418  29.954  26.647  1.00  0.00     0.000 C 
BRANCH  10  11
ATOM     11  C   UNL     1      62.552  30.182  27.896  1.00  0.00    -0.000 C 
BRANCH  11  12
ATOM     12  C   UNL     1      61.551  29.038  28.142  1.00  0.00    -0.000 C 
BRANCH  12  13
ATOM     13  C   UNL     1      62.129  27.659  27.784  1.00  0.00    -0.000 C 
BRANCH  13  14
ATOM     14  C   UNL     1      61.239  26.883  26.798  1.00  0.00    -0.000 C 
BRANCH  14  15
ATOM     15  C   UNL     1      60.412  27.811  25.895  1.00  0.00    -0.003 C 
ATOM     16  C   UNL     1      61.068  28.052  24.535  1.00  0.00     0.004 C 
ENDBRANCH  14  15
ENDBRANCH  13  14
ENDBRANCH  12  13
ENDBRANCH  11  12
ENDBRANCH  10  11
ENDBRANCH   1  10
TORSDOF 12
ENDMDL
MODEL 9
REMARK VINA RESULT:    -4.383      1.858      4.297
REMARK INTER + INTRA:          -9.187
REMARK INTER:                  -7.652
REMARK INTRA:                  -1.536
REMARK UNBOUND:                -1.730
REMARK SMILES CCCCCCCCCCCCCC(=O)[O-]
REMARK SMILES IDX 8 1 9 2 10 3 11 4 12 5 13 6 14 7 15 8 16 9 7 10 6 11 5 12
REMARK SMILES IDX 4 13 3 14 2 15 1 16
REMARK H PARENT
REMARK Flexibility Score: inf
ROOT
ATOM      1  C   UNL     1      62.624  30.255  26.658  1.00  0.00     0.000 C 
ENDROOT
BRANCH   1   2
ATOM      2  C   UNL     1      62.927  29.953  28.135  1.00  0.00     0.000 C 
BRANCH   2   3
ATOM      3  C   UNL     1      61.671  29.550  28.929  1.00  0.00     0.000 C 
BRANCH   3   4
ATOM      4  C   UNL     1      60.742  28.622  28.131  1.00  0.00     0.000 C 
BRANCH   4   5
ATOM      5  C   UNL     1      61.243  27.167  28.103  1.00  0.00     0.006 C 
BRANCH   5   6
ATOM      6  C   UNL     1      61.679  26.732  26.698  1.00  0.00     0.053 C 
BRANCH   6   7
ATOM      7  C   UNL     1      60.622  27.012  25.675  1.00  0.00     0.041 C 
ATOM      8  O   UNL     1      59.526  26.392  25.711  1.00  0.00    -0.550 OA
ATOM      9  O   UNL     1      60.859  27.931  24.660  1.00  0.00    -0.550 OA
ENDBRANCH   6   7
ENDBRANCH   5   6
ENDBRANCH   4   5
ENDBRANCH   3   4
ENDBRANCH   2   3
ENDBRANCH   1   2
BRANCH   1  10
ATOM     10  C   UNL     1      63.865  30.118  25.761  1.00  0.00     0.000 C 
BRANCH  10  11
ATOM     11  C   UNL     1      64.965  29.258  26.404  1.00  0.00    -0.000 C 
BRANCH  11  12
ATOM     12  C   UNL     1      65.986  28.735  25.378  1.00  0.00    -0.000 C 
BRANCH  12  13
ATOM     13  C   UNL     1      65.349  27.810  24.327  1.00  0.00    -0.000 C 
BRANCH  13  14
ATOM     14  C   UNL     1      64.881  26.472  24.924  1.00  0.00    -0.000 C 
BRANCH  14  15
ATOM     15  C   UNL     1      63.995  25.673  23.956  1.00  0.00    -0.003 C 
ATOM     16  C   UNL     1      63.545  26.495  22.749  1.00  0.00     0.004 C 
ENDBRANCH  14  15
ENDBRANCH  13  14
ENDBRANCH  12  13
ENDBRANCH  11  12
ENDBRANCH  10  11
ENDBRANCH   1  10
TORSDOF 12
ENDMDL
