MODEL 1
REMARK VINA RESULT:    -9.128      0.000      0.000
REMARK INTER + INTRA:          -9.928
REMARK INTER:                  -9.928
REMARK INTRA:                   0.000
REMARK UNBOUND:                 0.000
REMARK SMILES C[C@@H]1CC[C@H]2[N@H+](C1)C[C@H]1[C@H]3C[C@H]4[C@H](C[C@@H](O)[C@H]5C[C@@H](O)CC[C@]54C)[C@@H]3CC[C@H]1[C@@]2(C)O
REMARK SMILES IDX 5 1 6 2 8 3 7 4 4 5 29 6 3 7 28 8 30 9 2 10 27 11 9 12 1 13
REMARK SMILES IDX 26 14 10 15 25 16 11 17 13 18 12 19 14 20 23 21 15 22 17 23
REMARK SMILES IDX 22 24 24 25 18 26 21 27 19 28 31 30 16 32 20 34
REMARK H PARENT 6 29 31 31 16 33 20 35
REMARK Flexibility Score: inf
ROOT
ATOM      1  C   UNL     1      24.848 -25.323  25.945  1.00  0.00     0.216 C 
ATOM      2  N   UNL     1      25.886 -24.546  26.692  1.00  0.00    -0.330 N 
ATOM      3  C   UNL     1      25.906 -24.807  28.166  1.00  0.00     0.266 C 
ATOM      4  C   UNL     1      27.226 -24.779  26.099  1.00  0.00     0.265 C 
ATOM      5  C   UNL     1      24.787 -24.832  24.477  1.00  0.00     0.069 C 
ATOM      6  C   UNL     1      23.471 -25.281  26.698  1.00  0.00     0.117 C 
ATOM      7  C   UNL     1      26.152 -25.012  23.803  1.00  0.00     0.015 C 
ATOM      8  C   UNL     1      23.630 -25.928  28.137  1.00  0.00     0.036 C 
ATOM      9  C   UNL     1      22.379 -26.075  25.934  1.00  0.00     0.049 C 
ATOM     10  C   UNL     1      27.293 -24.366  24.609  1.00  0.00     0.041 C 
ATOM     11  C   UNL     1      22.760 -25.182  29.213  1.00  0.00     0.007 C 
ATOM     12  C   UNL     1      25.133 -26.084  28.551  1.00  0.00     0.054 C 
ATOM     13  C   UNL     1      27.328 -22.839  24.428  1.00  0.00     0.013 C 
ATOM     14  C   UNL     1      22.987 -25.668  30.659  1.00  0.00     0.004 C 
ATOM     15  C   UNL     1      25.230 -26.532  30.027  1.00  0.00     0.002 C 
ATOM     16  C   UNL     1      24.487 -25.586  30.952  1.00  0.00    -0.004 C 
ATOM     17  C   UNL     1      26.606 -26.773  30.680  1.00  0.00     0.009 C 
ATOM     18  C   UNL     1      25.017 -25.931  32.346  1.00  0.00    -0.001 C 
ATOM     19  C   UNL     1      26.529 -26.069  32.063  1.00  0.00    -0.001 C 
ATOM     20  C   UNL     1      24.383 -27.219  32.941  1.00  0.00     0.036 C 
ATOM     21  C   UNL     1      27.404 -26.556  33.310  1.00  0.00    -0.024 C 
ATOM     22  C   UNL     1      25.291 -27.991  33.929  1.00  0.00     0.118 C 
ATOM     23  C   UNL     1      26.484 -27.152  34.449  1.00  0.00     0.026 C 
ATOM     24  C   UNL     1      28.590 -27.517  32.900  1.00  0.00     0.010 C 
ATOM     25  C   UNL     1      28.051 -25.268  33.914  1.00  0.00     0.012 C 
ATOM     26  C   UNL     1      27.235 -27.872  35.613  1.00  0.00     0.038 C 
ATOM     27  C   UNL     1      28.851 -28.699  33.844  1.00  0.00     0.032 C 
ATOM     28  C   UNL     1      28.682 -28.302  35.307  1.00  0.00     0.114 C 
ATOM     29  H   UNL     1      25.670 -23.528  26.581  1.00  0.00     0.348 HD
ENDROOT
BRANCH   6  30
ATOM     30  O   UNL     1      23.065 -23.933  26.825  1.00  0.00    -0.384 OA
ATOM     31  H   UNL     1      22.139 -23.840  26.482  1.00  0.00     0.211 HD
ENDBRANCH   6  30
BRANCH  22  32
ATOM     32  O   UNL     1      25.705 -29.225  33.401  1.00  0.00    -0.393 OA
ATOM     33  H   UNL     1      24.907 -29.684  33.039  1.00  0.00     0.210 HD
ENDBRANCH  22  32
BRANCH  28  34
ATOM     34  O   UNL     1      29.076 -29.353  36.156  1.00  0.00    -0.393 OA
ATOM     35  H   UNL     1      29.960 -29.116  36.543  1.00  0.00     0.210 HD
ENDBRANCH  28  34
TORSDOF 3
ENDMDL
MODEL 2
REMARK VINA RESULT:    -9.063      2.918      3.924
REMARK INTER + INTRA:          -9.857
REMARK INTER:                  -9.857
REMARK INTRA:                   0.000
REMARK UNBOUND:                 0.000
REMARK SMILES C[C@@H]1CC[C@H]2[N@H+](C1)C[C@H]1[C@H]3C[C@H]4[C@H](C[C@@H](O)[C@H]5C[C@@H](O)CC[C@]54C)[C@@H]3CC[C@H]1[C@@]2(C)O
REMARK SMILES IDX 5 1 6 2 8 3 7 4 4 5 29 6 3 7 28 8 30 9 2 10 27 11 9 12 1 13
REMARK SMILES IDX 26 14 10 15 25 16 11 17 13 18 12 19 14 20 23 21 15 22 17 23
REMARK SMILES IDX 22 24 24 25 18 26 21 27 19 28 31 30 16 32 20 34
REMARK H PARENT 6 29 31 31 16 33 20 35
REMARK Flexibility Score: inf
ROOT
ATOM      1  C   UNL     1      23.688 -21.590  26.725  1.00  0.00     0.216 C 
ATOM      2  N   UNL     1      23.230 -21.739  28.142  1.00  0.00    -0.330 N 
ATOM      3  C   UNL     1      23.564 -23.062  28.759  1.00  0.00     0.266 C 
ATOM      4  C   UNL     1      23.754 -20.624  28.970  1.00  0.00     0.265 C 
ATOM      5  C   UNL     1      23.121 -20.276  26.131  1.00  0.00     0.069 C 
ATOM      6  C   UNL     1      23.348 -22.876  25.891  1.00  0.00     0.117 C 
ATOM      7  C   UNL     1      23.596 -19.075  26.957  1.00  0.00     0.015 C 
ATOM      8  C   UNL     1      24.088 -24.130  26.519  1.00  0.00     0.036 C 
ATOM      9  C   UNL     1      23.808 -22.737  24.416  1.00  0.00     0.049 C 
ATOM     10  C   UNL     1      23.292 -19.240  28.456  1.00  0.00     0.041 C 
ATOM     11  C   UNL     1      23.208 -25.430  26.437  1.00  0.00     0.007 C 
ATOM     12  C   UNL     1      24.631 -23.835  27.959  1.00  0.00     0.054 C 
ATOM     13  C   UNL     1      21.814 -18.962  28.776  1.00  0.00     0.013 C 
ATOM     14  C   UNL     1      23.810 -26.649  27.165  1.00  0.00     0.004 C 
ATOM     15  C   UNL     1      25.165 -25.137  28.598  1.00  0.00     0.002 C 
ATOM     16  C   UNL     1      24.115 -26.232  28.606  1.00  0.00    -0.004 C 
ATOM     17  C   UNL     1      25.770 -25.117  30.016  1.00  0.00     0.009 C 
ATOM     18  C   UNL     1      24.651 -27.260  29.606  1.00  0.00    -0.001 C 
ATOM     19  C   UNL     1      25.142 -26.339  30.743  1.00  0.00    -0.001 C 
ATOM     20  C   UNL     1      25.773 -28.159  29.015  1.00  0.00     0.036 C 
ATOM     21  C   UNL     1      25.893 -27.089  31.939  1.00  0.00    -0.024 C 
ATOM     22  C   UNL     1      26.795 -28.684  30.053  1.00  0.00     0.118 C 
ATOM     23  C   UNL     1      26.304 -28.556  31.516  1.00  0.00     0.026 C 
ATOM     24  C   UNL     1      27.094 -26.255  32.540  1.00  0.00     0.010 C 
ATOM     25  C   UNL     1      24.838 -27.253  33.079  1.00  0.00     0.012 C 
ATOM     26  C   UNL     1      27.246 -29.305  32.511  1.00  0.00     0.038 C 
ATOM     27  C   UNL     1      28.351 -27.058  32.903  1.00  0.00     0.032 C 
ATOM     28  C   UNL     1      28.002 -28.411  33.513  1.00  0.00     0.114 C 
ATOM     29  H   UNL     1      22.186 -21.670  28.153  1.00  0.00     0.348 HD
ENDROOT
BRANCH   6  30
ATOM     30  O   UNL     1      21.950 -23.083  25.926  1.00  0.00    -0.384 OA
ATOM     31  H   UNL     1      21.728 -23.665  26.697  1.00  0.00     0.211 HD
ENDBRANCH   6  30
BRANCH  22  32
ATOM     32  O   UNL     1      28.064 -28.109  29.872  1.00  0.00    -0.393 OA
ATOM     33  H   UNL     1      28.311 -28.213  28.920  1.00  0.00     0.210 HD
ENDBRANCH  22  32
BRANCH  28  34
ATOM     34  O   UNL     1      29.160 -29.061  33.978  1.00  0.00    -0.393 OA
ATOM     35  H   UNL     1      28.904 -29.981  34.254  1.00  0.00     0.210 HD
ENDBRANCH  28  34
TORSDOF 3
ENDMDL
MODEL 3
REMARK VINA RESULT:    -8.991      2.194      4.266
REMARK INTER + INTRA:          -9.779
REMARK INTER:                  -9.779
REMARK INTRA:                   0.000
REMARK UNBOUND:                 0.000
REMARK SMILES C[C@@H]1CC[C@H]2[N@H+](C1)C[C@H]1[C@H]3C[C@H]4[C@H](C[C@@H](O)[C@H]5C[C@@H](O)CC[C@]54C)[C@@H]3CC[C@H]1[C@@]2(C)O
REMARK SMILES IDX 5 1 6 2 8 3 7 4 4 5 29 6 3 7 28 8 30 9 2 10 27 11 9 12 1 13
REMARK SMILES IDX 26 14 10 15 25 16 11 17 13 18 12 19 14 20 23 21 15 22 17 23
REMARK SMILES IDX 22 24 24 25 18 26 21 27 19 28 31 30 16 32 20 34
REMARK H PARENT 6 29 31 31 16 33 20 35
REMARK Flexibility Score: inf
ROOT
ATOM      1  C   UNL     1      26.170 -25.421  28.365  1.00  0.00     0.216 C 
ATOM      2  N   UNL     1      24.948 -25.748  29.165  1.00  0.00    -0.330 N 
ATOM      3  C   UNL     1      25.220 -26.538  30.407  1.00  0.00     0.266 C 
ATOM      4  C   UNL     1      24.198 -24.508  29.483  1.00  0.00     0.265 C 
ATOM      5  C   UNL     1      25.754 -24.782  27.017  1.00  0.00     0.069 C 
ATOM      6  C   UNL     1      27.097 -26.681  28.224  1.00  0.00     0.117 C 
ATOM      7  C   UNL     1      24.943 -23.505  27.265  1.00  0.00     0.015 C 
ATOM      8  C   UNL     1      27.563 -27.164  29.661  1.00  0.00     0.036 C 
ATOM      9  C   UNL     1      28.367 -26.364  27.391  1.00  0.00     0.049 C 
ATOM     10  C   UNL     1      23.754 -23.743  28.213  1.00  0.00     0.041 C 
ATOM     11  C   UNL     1      27.648 -28.730  29.752  1.00  0.00     0.007 C 
ATOM     12  C   UNL     1      26.709 -26.518  30.806  1.00  0.00     0.054 C 
ATOM     13  C   UNL     1      22.579 -24.432  27.498  1.00  0.00     0.013 C 
ATOM     14  C   UNL     1      27.949 -29.267  31.167  1.00  0.00     0.004 C 
ATOM     15  C   UNL     1      27.069 -27.166  32.162  1.00  0.00     0.002 C 
ATOM     16  C   UNL     1      26.912 -28.675  32.124  1.00  0.00    -0.004 C 
ATOM     17  C   UNL     1      26.378 -26.698  33.458  1.00  0.00     0.009 C 
ATOM     18  C   UNL     1      26.903 -29.088  33.598  1.00  0.00    -0.001 C 
ATOM     19  C   UNL     1      25.988 -28.004  34.206  1.00  0.00    -0.001 C 
ATOM     20  C   UNL     1      28.322 -29.121  34.233  1.00  0.00     0.036 C 
ATOM     21  C   UNL     1      25.848 -28.057  35.797  1.00  0.00    -0.024 C 
ATOM     22  C   UNL     1      28.357 -28.838  35.754  1.00  0.00     0.118 C 
ATOM     23  C   UNL     1      26.972 -28.967  36.434  1.00  0.00     0.026 C 
ATOM     24  C   UNL     1      25.755 -26.625  36.462  1.00  0.00     0.010 C 
ATOM     25  C   UNL     1      24.495 -28.782  36.089  1.00  0.00     0.012 C 
ATOM     26  C   UNL     1      27.084 -28.910  37.991  1.00  0.00     0.038 C 
ATOM     27  C   UNL     1      26.522 -26.448  37.780  1.00  0.00     0.032 C 
ATOM     28  C   UNL     1      26.427 -27.689  38.661  1.00  0.00     0.114 C 
ATOM     29  H   UNL     1      24.325 -26.345  28.572  1.00  0.00     0.348 HD
ENDROOT
BRANCH   6  30
ATOM     30  O   UNL     1      26.368 -27.712  27.590  1.00  0.00    -0.384 OA
ATOM     31  H   UNL     1      25.749 -27.310  26.928  1.00  0.00     0.211 HD
ENDBRANCH   6  30
BRANCH  22  32
ATOM     32  O   UNL     1      28.972 -27.607  36.041  1.00  0.00    -0.393 OA
ATOM     33  H   UNL     1      29.819 -27.795  36.516  1.00  0.00     0.210 HD
ENDBRANCH  22  32
BRANCH  28  34
ATOM     34  O   UNL     1      27.002 -27.448  39.923  1.00  0.00    -0.393 OA
ATOM     35  H   UNL     1      26.303 -27.049  40.505  1.00  0.00     0.210 HD
ENDBRANCH  28  34
TORSDOF 3
ENDMDL
MODEL 4
REMARK VINA RESULT:    -8.903      4.113      5.703
REMARK INTER + INTRA:          -9.683
REMARK INTER:                  -9.683
REMARK INTRA:                   0.000
REMARK UNBOUND:                 0.000
REMARK SMILES C[C@@H]1CC[C@H]2[N@H+](C1)C[C@H]1[C@H]3C[C@H]4[C@H](C[C@@H](O)[C@H]5C[C@@H](O)CC[C@]54C)[C@@H]3CC[C@H]1[C@@]2(C)O
REMARK SMILES IDX 5 1 6 2 8 3 7 4 4 5 29 6 3 7 28 8 30 9 2 10 27 11 9 12 1 13
REMARK SMILES IDX 26 14 10 15 25 16 11 17 13 18 12 19 14 20 23 21 15 22 17 23
REMARK SMILES IDX 22 24 24 25 18 26 21 27 19 28 31 30 16 32 20 34
REMARK H PARENT 6 29 31 31 16 33 20 35
REMARK Flexibility Score: inf
ROOT
ATOM      1  C   UNL     1      23.644 -19.340  27.956  1.00  0.00     0.216 C 
ATOM      2  N   UNL     1      23.097 -20.062  29.147  1.00  0.00    -0.330 N 
ATOM      3  C   UNL     1      23.346 -21.539  29.138  1.00  0.00     0.266 C 
ATOM      4  C   UNL     1      23.610 -19.450  30.398  1.00  0.00     0.265 C 
ATOM      5  C   UNL     1      23.161 -17.868  27.974  1.00  0.00     0.069 C 
ATOM      6  C   UNL     1      23.308 -20.114  26.632  1.00  0.00     0.117 C 
ATOM      7  C   UNL     1      23.628 -17.174  29.259  1.00  0.00     0.015 C 
ATOM      8  C   UNL     1      23.965 -21.557  26.677  1.00  0.00     0.036 C 
ATOM      9  C   UNL     1      23.861 -19.376  25.384  1.00  0.00     0.049 C 
ATOM     10  C   UNL     1      23.230 -17.956  30.523  1.00  0.00     0.041 C 
ATOM     11  C   UNL     1      23.045 -22.638  26.002  1.00  0.00     0.007 C 
ATOM     12  C   UNL     1      24.430 -21.949  28.121  1.00  0.00     0.054 C 
ATOM     13  C   UNL     1      21.746 -17.758  30.875  1.00  0.00     0.013 C 
ATOM     14  C   UNL     1      23.558 -24.085  26.148  1.00  0.00     0.004 C 
ATOM     15  C   UNL     1      24.879 -23.428  28.148  1.00  0.00     0.002 C 
ATOM     16  C   UNL     1      23.791 -24.354  27.636  1.00  0.00    -0.004 C 
ATOM     17  C   UNL     1      25.398 -24.061  29.454  1.00  0.00     0.009 C 
ATOM     18  C   UNL     1      24.230 -25.744  28.107  1.00  0.00    -0.001 C 
ATOM     19  C   UNL     1      24.685 -25.438  29.551  1.00  0.00    -0.001 C 
ATOM     20  C   UNL     1      25.352 -26.361  27.227  1.00  0.00     0.036 C 
ATOM     21  C   UNL     1      25.336 -26.675  30.326  1.00  0.00    -0.024 C 
ATOM     22  C   UNL     1      26.291 -27.343  27.970  1.00  0.00     0.118 C 
ATOM     23  C   UNL     1      25.718 -27.835  29.322  1.00  0.00     0.026 C 
ATOM     24  C   UNL     1      26.528 -26.257  31.276  1.00  0.00     0.010 C 
ATOM     25  C   UNL     1      24.209 -27.256  31.240  1.00  0.00     0.012 C 
ATOM     26  C   UNL     1      26.572 -28.995  29.925  1.00  0.00     0.038 C 
ATOM     27  C   UNL     1      27.731 -27.209  31.300  1.00  0.00     0.032 C 
ATOM     28  C   UNL     1      27.298 -28.670  31.244  1.00  0.00     0.114 C 
ATOM     29  H   UNL     1      22.057 -19.944  29.147  1.00  0.00     0.348 HD
ENDROOT
BRANCH   6  30
ATOM     30  O   UNL     1      21.904 -20.234  26.520  1.00  0.00    -0.384 OA
ATOM     31  H   UNL     1      21.624 -21.110  26.889  1.00  0.00     0.211 HD
ENDBRANCH   6  30
BRANCH  22  32
ATOM     32  O   UNL     1      27.588 -26.821  28.106  1.00  0.00    -0.393 OA
ATOM     33  H   UNL     1      27.905 -27.031  29.019  1.00  0.00     0.210 HD
ENDBRANCH  22  32
BRANCH  28  34
ATOM     34  O   UNL     1      28.402 -29.524  31.424  1.00  0.00    -0.393 OA
ATOM     35  H   UNL     1      28.557 -29.619  32.401  1.00  0.00     0.210 HD
ENDBRANCH  28  34
TORSDOF 3
ENDMDL
MODEL 5
REMARK VINA RESULT:    -8.881      2.377      8.561
REMARK INTER + INTRA:          -9.660
REMARK INTER:                  -9.660
REMARK INTRA:                   0.000
REMARK UNBOUND:                 0.000
REMARK SMILES C[C@@H]1CC[C@H]2[N@H+](C1)C[C@H]1[C@H]3C[C@H]4[C@H](C[C@@H](O)[C@H]5C[C@@H](O)CC[C@]54C)[C@@H]3CC[C@H]1[C@@]2(C)O
REMARK SMILES IDX 5 1 6 2 8 3 7 4 4 5 29 6 3 7 28 8 30 9 2 10 27 11 9 12 1 13
REMARK SMILES IDX 26 14 10 15 25 16 11 17 13 18 12 19 14 20 23 21 15 22 17 23
REMARK SMILES IDX 22 24 24 25 18 26 21 27 19 28 31 30 16 32 20 34
REMARK H PARENT 6 29 31 31 16 33 20 35
REMARK Flexibility Score: inf
ROOT
ATOM      1  C   UNL     1      27.330 -27.716  34.213  1.00  0.00     0.216 C 
ATOM      2  N   UNL     1      27.642 -26.299  33.849  1.00  0.00    -0.330 N 
ATOM      3  C   UNL     1      27.333 -25.947  32.427  1.00  0.00     0.266 C 
ATOM      4  C   UNL     1      26.959 -25.368  34.782  1.00  0.00     0.265 C 
ATOM      5  C   UNL     1      27.868 -28.019  35.634  1.00  0.00     0.069 C 
ATOM      6  C   UNL     1      27.843 -28.703  33.104  1.00  0.00     0.117 C 
ATOM      7  C   UNL     1      27.229 -27.071  36.654  1.00  0.00     0.015 C 
ATOM      8  C   UNL     1      27.125 -28.377  31.727  1.00  0.00     0.036 C 
ATOM      9  C   UNL     1      27.535 -30.179  33.467  1.00  0.00     0.049 C 
ATOM     10  C   UNL     1      27.380 -25.593  36.254  1.00  0.00     0.041 C 
ATOM     11  C   UNL     1      28.094 -28.566  30.504  1.00  0.00     0.007 C 
ATOM     12  C   UNL     1      26.413 -26.981  31.749  1.00  0.00     0.054 C 
ATOM     13  C   UNL     1      28.794 -25.062  36.545  1.00  0.00     0.013 C 
ATOM     14  C   UNL     1      27.500 -28.120  29.153  1.00  0.00     0.004 C 
ATOM     15  C   UNL     1      25.901 -26.628  30.334  1.00  0.00     0.002 C 
ATOM     16  C   UNL     1      27.015 -26.676  29.305  1.00  0.00    -0.004 C 
ATOM     17  C   UNL     1      25.147 -25.307  30.085  1.00  0.00     0.009 C 
ATOM     18  C   UNL     1      26.445 -25.926  28.099  1.00  0.00    -0.001 C 
ATOM     19  C   UNL     1      25.774 -24.719  28.790  1.00  0.00    -0.001 C 
ATOM     20  C   UNL     1      25.455 -26.781  27.259  1.00  0.00     0.036 C 
ATOM     21  C   UNL     1      24.951 -23.757  27.813  1.00  0.00    -0.024 C 
ATOM     22  C   UNL     1      24.366 -25.968  26.518  1.00  0.00     0.118 C 
ATOM     23  C   UNL     1      24.687 -24.457  26.420  1.00  0.00     0.026 C 
ATOM     24  C   UNL     1      23.640 -23.173  28.475  1.00  0.00     0.010 C 
ATOM     25  C   UNL     1      25.887 -22.543  27.511  1.00  0.00     0.012 C 
ATOM     26  C   UNL     1      23.696 -23.714  25.470  1.00  0.00     0.038 C 
ATOM     27  C   UNL     1      22.408 -23.094  27.563  1.00  0.00     0.032 C 
ATOM     28  C   UNL     1      22.779 -22.676  26.145  1.00  0.00     0.114 C 
ATOM     29  H   UNL     1      28.673 -26.155  33.966  1.00  0.00     0.348 HD
ENDROOT
BRANCH   6  30
ATOM     30  O   UNL     1      29.239 -28.538  32.962  1.00  0.00    -0.384 OA
ATOM     31  H   UNL     1      29.622 -28.249  33.830  1.00  0.00     0.211 HD
ENDBRANCH   6  30
BRANCH  22  32
ATOM     32  O   UNL     1      23.087 -26.201  27.054  1.00  0.00    -0.393 OA
ATOM     33  H   UNL     1      23.196 -26.431  28.010  1.00  0.00     0.210 HD
ENDBRANCH  22  32
BRANCH  28  34
ATOM     34  O   UNL     1      21.624 -22.460  25.371  1.00  0.00    -0.393 OA
ATOM     35  H   UNL     1      21.029 -23.248  25.485  1.00  0.00     0.210 HD
ENDBRANCH  28  34
TORSDOF 3
ENDMDL
MODEL 6
REMARK VINA RESULT:    -8.677      7.421     10.588
REMARK INTER + INTRA:          -9.438
REMARK INTER:                  -9.438
REMARK INTRA:                   0.000
REMARK UNBOUND:                 0.000
REMARK SMILES C[C@@H]1CC[C@H]2[N@H+](C1)C[C@H]1[C@H]3C[C@H]4[C@H](C[C@@H](O)[C@H]5C[C@@H](O)CC[C@]54C)[C@@H]3CC[C@H]1[C@@]2(C)O
REMARK SMILES IDX 5 1 6 2 8 3 7 4 4 5 29 6 3 7 28 8 30 9 2 10 27 11 9 12 1 13
REMARK SMILES IDX 26 14 10 15 25 16 11 17 13 18 12 19 14 20 23 21 15 22 17 23
REMARK SMILES IDX 22 24 24 25 18 26 21 27 19 28 31 30 16 32 20 34
REMARK H PARENT 6 29 31 31 16 33 20 35
REMARK Flexibility Score: inf
ROOT
ATOM      1  C   UNL     1      26.359 -26.863  38.022  1.00  0.00     0.216 C 
ATOM      2  N   UNL     1      26.662 -27.822  36.914  1.00  0.00    -0.330 N 
ATOM      3  C   UNL     1      25.733 -28.995  36.847  1.00  0.00     0.266 C 
ATOM      4  C   UNL     1      26.704 -27.108  35.614  1.00  0.00     0.265 C 
ATOM      5  C   UNL     1      27.490 -25.807  38.119  1.00  0.00     0.069 C 
ATOM      6  C   UNL     1      26.076 -27.630  39.363  1.00  0.00     0.117 C 
ATOM      7  C   UNL     1      27.615 -25.045  36.795  1.00  0.00     0.015 C 
ATOM      8  C   UNL     1      24.820 -28.580  39.177  1.00  0.00     0.036 C 
ATOM      9  C   UNL     1      25.767 -26.650  40.526  1.00  0.00     0.049 C 
ATOM     10  C   UNL     1      27.772 -25.989  35.589  1.00  0.00     0.041 C 
ATOM     11  C   UNL     1      24.989 -29.932  39.961  1.00  0.00     0.007 C 
ATOM     12  C   UNL     1      24.446 -28.778  37.668  1.00  0.00     0.054 C 
ATOM     13  C   UNL     1      29.201 -26.548  35.482  1.00  0.00     0.013 C 
ATOM     14  C   UNL     1      23.870 -30.960  39.699  1.00  0.00     0.004 C 
ATOM     15  C   UNL     1      23.350 -29.858  37.532  1.00  0.00     0.002 C 
ATOM     16  C   UNL     1      23.764 -31.164  38.186  1.00  0.00    -0.004 C 
ATOM     17  C   UNL     1      22.793 -30.234  36.145  1.00  0.00     0.009 C 
ATOM     18  C   UNL     1      22.785 -32.195  37.616  1.00  0.00    -0.001 C 
ATOM     19  C   UNL     1      22.758 -31.787  36.127  1.00  0.00    -0.001 C 
ATOM     20  C   UNL     1      21.386 -32.149  38.292  1.00  0.00     0.036 C 
ATOM     21  C   UNL     1      21.716 -32.600  35.227  1.00  0.00    -0.024 C 
ATOM     22  C   UNL     1      20.215 -32.598  37.385  1.00  0.00     0.118 C 
ATOM     23  C   UNL     1      20.675 -33.377  36.128  1.00  0.00     0.026 C 
ATOM     24  C   UNL     1      21.033 -31.712  34.111  1.00  0.00     0.010 C 
ATOM     25  C   UNL     1      22.546 -33.699  34.489  1.00  0.00     0.012 C 
ATOM     26  C   UNL     1      19.470 -34.015  35.368  1.00  0.00     0.038 C 
ATOM     27  C   UNL     1      19.539 -31.969  33.873  1.00  0.00     0.032 C 
ATOM     28  C   UNL     1      19.199 -33.453  33.959  1.00  0.00     0.114 C 
ATOM     29  H   UNL     1      27.616 -28.218  37.082  1.00  0.00     0.348 HD
ENDROOT
BRANCH   6  30
ATOM     30  O   UNL     1      27.212 -28.403  39.692  1.00  0.00    -0.384 OA
ATOM     31  H   UNL     1      26.916 -29.265  40.082  1.00  0.00     0.211 HD
ENDBRANCH   6  30
BRANCH  22  32
ATOM     32  O   UNL     1      19.368 -31.525  37.058  1.00  0.00    -0.393 OA
ATOM     33  H   UNL     1      18.443 -31.788  37.288  1.00  0.00     0.210 HD
ENDBRANCH  22  32
BRANCH  28  34
ATOM     34  O   UNL     1      17.861 -33.679  33.585  1.00  0.00    -0.393 OA
ATOM     35  H   UNL     1      17.862 -34.315  32.821  1.00  0.00     0.210 HD
ENDBRANCH  28  34
TORSDOF 3
ENDMDL
MODEL 7
REMARK VINA RESULT:    -8.544      2.313      8.475
REMARK INTER + INTRA:          -9.293
REMARK INTER:                  -9.293
REMARK INTRA:                   0.000
REMARK UNBOUND:                 0.000
REMARK SMILES C[C@@H]1CC[C@H]2[N@H+](C1)C[C@H]1[C@H]3C[C@H]4[C@H](C[C@@H](O)[C@H]5C[C@@H](O)CC[C@]54C)[C@@H]3CC[C@H]1[C@@]2(C)O
REMARK SMILES IDX 5 1 6 2 8 3 7 4 4 5 29 6 3 7 28 8 30 9 2 10 27 11 9 12 1 13
REMARK SMILES IDX 26 14 10 15 25 16 11 17 13 18 12 19 14 20 23 21 15 22 17 23
REMARK SMILES IDX 22 24 24 25 18 26 21 27 19 28 31 30 16 32 20 34
REMARK H PARENT 6 29 31 31 16 33 20 35
REMARK Flexibility Score: inf
ROOT
ATOM      1  C   UNL     1      27.456 -25.420  33.839  1.00  0.00     0.216 C 
ATOM      2  N   UNL     1      27.030 -26.541  32.944  1.00  0.00    -0.330 N 
ATOM      3  C   UNL     1      26.099 -26.131  31.846  1.00  0.00     0.266 C 
ATOM      4  C   UNL     1      28.219 -27.238  32.393  1.00  0.00     0.265 C 
ATOM      5  C   UNL     1      28.249 -25.989  35.043  1.00  0.00     0.069 C 
ATOM      6  C   UNL     1      26.227 -24.528  34.239  1.00  0.00     0.117 C 
ATOM      7  C   UNL     1      29.483 -26.753  34.549  1.00  0.00     0.015 C 
ATOM      8  C   UNL     1      25.579 -23.899  32.935  1.00  0.00     0.036 C 
ATOM      9  C   UNL     1      26.648 -23.364  35.174  1.00  0.00     0.049 C 
ATOM     10  C   UNL     1      29.127 -27.823  33.501  1.00  0.00     0.041 C 
ATOM     11  C   UNL     1      24.013 -23.818  33.042  1.00  0.00     0.007 C 
ATOM     12  C   UNL     1      26.078 -24.605  31.628  1.00  0.00     0.054 C 
ATOM     13  C   UNL     1      28.522 -29.080  34.148  1.00  0.00     0.013 C 
ATOM     14  C   UNL     1      23.314 -23.355  31.747  1.00  0.00     0.004 C 
ATOM     15  C   UNL     1      25.276 -24.091  30.411  1.00  0.00     0.002 C 
ATOM     16  C   UNL     1      23.781 -24.265  30.610  1.00  0.00    -0.004 C 
ATOM     17  C   UNL     1      25.583 -24.620  28.996  1.00  0.00     0.009 C 
ATOM     18  C   UNL     1      23.195 -24.102  29.205  1.00  0.00    -0.001 C 
ATOM     19  C   UNL     1      24.195 -24.929  28.368  1.00  0.00    -0.001 C 
ATOM     20  C   UNL     1      23.094 -22.619  28.752  1.00  0.00     0.036 C 
ATOM     21  C   UNL     1      23.952 -24.880  26.788  1.00  0.00    -0.024 C 
ATOM     22  C   UNL     1      23.195 -22.400  27.223  1.00  0.00     0.118 C 
ATOM     23  C   UNL     1      22.978 -23.696  26.403  1.00  0.00     0.026 C 
ATOM     24  C   UNL     1      25.293 -24.880  25.952  1.00  0.00     0.010 C 
ATOM     25  C   UNL     1      23.189 -26.195  26.425  1.00  0.00     0.012 C 
ATOM     26  C   UNL     1      22.849 -23.399  24.875  1.00  0.00     0.038 C 
ATOM     27  C   UNL     1      25.316 -23.960  24.723  1.00  0.00     0.032 C 
ATOM     28  C   UNL     1      23.979 -23.960  23.991  1.00  0.00     0.114 C 
ATOM     29  H   UNL     1      26.504 -27.236  33.525  1.00  0.00     0.348 HD
ENDROOT
BRANCH   6  30
ATOM     30  O   UNL     1      25.275 -25.337  34.900  1.00  0.00    -0.384 OA
ATOM     31  H   UNL     1      24.727 -24.768  35.499  1.00  0.00     0.211 HD
ENDBRANCH   6  30
BRANCH  22  32
ATOM     32  O   UNL     1      24.386 -21.745  26.867  1.00  0.00    -0.393 OA
ATOM     33  H   UNL     1      24.323 -21.498  25.912  1.00  0.00     0.210 HD
ENDBRANCH  22  32
BRANCH  28  34
ATOM     34  O   UNL     1      24.071 -23.237  22.787  1.00  0.00    -0.393 OA
ATOM     35  H   UNL     1      24.625 -22.430  22.959  1.00  0.00     0.210 HD
ENDBRANCH  28  34
TORSDOF 3
ENDMDL
MODEL 8
REMARK VINA RESULT:    -8.523      5.700      8.785
REMARK INTER + INTRA:          -9.271
REMARK INTER:                  -9.271
REMARK INTRA:                   0.000
REMARK UNBOUND:                 0.000
REMARK SMILES C[C@@H]1CC[C@H]2[N@H+](C1)C[C@H]1[C@H]3C[C@H]4[C@H](C[C@@H](O)[C@H]5C[C@@H](O)CC[C@]54C)[C@@H]3CC[C@H]1[C@@]2(C)O
REMARK SMILES IDX 5 1 6 2 8 3 7 4 4 5 29 6 3 7 28 8 30 9 2 10 27 11 9 12 1 13
REMARK SMILES IDX 26 14 10 15 25 16 11 17 13 18 12 19 14 20 23 21 15 22 17 23
REMARK SMILES IDX 22 24 24 25 18 26 21 27 19 28 31 30 16 32 20 34
REMARK H PARENT 6 29 31 31 16 33 20 35
REMARK Flexibility Score: inf
ROOT
ATOM      1  C   UNL     1      24.451 -24.519  26.480  1.00  0.00     0.216 C 
ATOM      2  N   UNL     1      25.047 -24.021  27.759  1.00  0.00    -0.330 N 
ATOM      3  C   UNL     1      24.632 -22.631  28.130  1.00  0.00     0.266 C 
ATOM      4  C   UNL     1      24.758 -24.969  28.863  1.00  0.00     0.265 C 
ATOM      5  C   UNL     1      25.099 -25.874  26.098  1.00  0.00     0.069 C 
ATOM      6  C   UNL     1      24.539 -23.422  25.359  1.00  0.00     0.117 C 
ATOM      7  C   UNL     1      24.868 -26.903  27.211  1.00  0.00     0.015 C 
ATOM      8  C   UNL     1      23.732 -22.134  25.811  1.00  0.00     0.036 C 
ATOM      9  C   UNL     1      23.933 -23.924  24.022  1.00  0.00     0.049 C 
ATOM     10  C   UNL     1      25.319 -26.385  28.588  1.00  0.00     0.041 C 
ATOM     11  C   UNL     1      24.436 -20.809  25.342  1.00  0.00     0.007 C 
ATOM     12  C   UNL     1      23.396 -22.153  27.341  1.00  0.00     0.054 C 
ATOM     13  C   UNL     1      26.847 -26.450  28.752  1.00  0.00     0.013 C 
ATOM     14  C   UNL     1      23.781 -19.521  25.879  1.00  0.00     0.004 C 
ATOM     15  C   UNL     1      22.788 -20.798  27.765  1.00  0.00     0.002 C 
ATOM     16  C   UNL     1      23.695 -19.636  27.402  1.00  0.00    -0.004 C 
ATOM     17  C   UNL     1      22.355 -20.560  29.226  1.00  0.00     0.009 C 
ATOM     18  C   UNL     1      23.158 -18.467  28.233  1.00  0.00    -0.001 C 
ATOM     19  C   UNL     1      22.913 -19.156  29.592  1.00  0.00    -0.001 C 
ATOM     20  C   UNL     1      21.877 -17.826  27.629  1.00  0.00     0.036 C 
ATOM     21  C   UNL     1      22.220 -18.233  30.698  1.00  0.00    -0.024 C 
ATOM     22  C   UNL     1      20.926 -17.182  28.666  1.00  0.00     0.118 C 
ATOM     23  C   UNL     1      21.593 -16.939  30.043  1.00  0.00     0.026 C 
ATOM     24  C   UNL     1      21.203 -19.021  31.618  1.00  0.00     0.010 C 
ATOM     25  C   UNL     1      23.372 -17.727  31.625  1.00  0.00     0.012 C 
ATOM     26  C   UNL     1      20.688 -16.079  30.981  1.00  0.00     0.038 C 
ATOM     27  C   UNL     1      19.910 -18.276  31.976  1.00  0.00     0.032 C 
ATOM     28  C   UNL     1      20.163 -16.796  32.240  1.00  0.00     0.114 C 
ATOM     29  H   UNL     1      26.087 -23.990  27.640  1.00  0.00     0.348 HD
ENDROOT
BRANCH   6  30
ATOM     30  O   UNL     1      25.897 -23.086  25.159  1.00  0.00    -0.384 OA
ATOM     31  H   UNL     1      26.416 -23.342  25.964  1.00  0.00     0.211 HD
ENDBRANCH   6  30
BRANCH  22  32
ATOM     32  O   UNL     1      19.721 -17.896  28.784  1.00  0.00    -0.393 OA
ATOM     33  H   UNL     1      19.142 -17.412  29.423  1.00  0.00     0.210 HD
ENDBRANCH  22  32
BRANCH  28  34
ATOM     34  O   UNL     1      18.997 -16.169  32.716  1.00  0.00    -0.393 OA
ATOM     35  H   UNL     1      18.240 -16.802  32.597  1.00  0.00     0.210 HD
ENDBRANCH  28  34
TORSDOF 3
ENDMDL
MODEL 9
REMARK VINA RESULT:    -8.514      5.411      8.756
REMARK INTER + INTRA:          -9.261
REMARK INTER:                  -9.261
REMARK INTRA:                   0.000
REMARK UNBOUND:                 0.000
REMARK SMILES C[C@@H]1CC[C@H]2[N@H+](C1)C[C@H]1[C@H]3C[C@H]4[C@H](C[C@@H](O)[C@H]5C[C@@H](O)CC[C@]54C)[C@@H]3CC[C@H]1[C@@]2(C)O
REMARK SMILES IDX 5 1 6 2 8 3 7 4 4 5 29 6 3 7 28 8 30 9 2 10 27 11 9 12 1 13
REMARK SMILES IDX 26 14 10 15 25 16 11 17 13 18 12 19 14 20 23 21 15 22 17 23
REMARK SMILES IDX 22 24 24 25 18 26 21 27 19 28 31 30 16 32 20 34
REMARK H PARENT 6 29 31 31 16 33 20 35
REMARK Flexibility Score: inf
ROOT
ATOM      1  C   UNL     1      21.957 -18.514  30.779  1.00  0.00     0.216 C 
ATOM      2  N   UNL     1      23.358 -18.611  30.262  1.00  0.00    -0.330 N 
ATOM      3  C   UNL     1      23.681 -19.919  29.607  1.00  0.00     0.266 C 
ATOM      4  C   UNL     1      23.646 -17.479  29.347  1.00  0.00     0.265 C 
ATOM      5  C   UNL     1      21.797 -17.211  31.603  1.00  0.00     0.069 C 
ATOM      6  C   UNL     1      21.556 -19.821  31.553  1.00  0.00     0.117 C 
ATOM      7  C   UNL     1      22.111 -15.992  30.728  1.00  0.00     0.015 C 
ATOM      8  C   UNL     1      21.634 -21.065  30.573  1.00  0.00     0.036 C 
ATOM      9  C   UNL     1      20.109 -19.735  32.104  1.00  0.00     0.049 C 
ATOM     10  C   UNL     1      23.481 -16.105  30.038  1.00  0.00     0.041 C 
ATOM     11  C   UNL     1      22.158 -22.353  31.305  1.00  0.00     0.007 C 
ATOM     12  C   UNL     1      22.420 -20.733  29.258  1.00  0.00     0.054 C 
ATOM     13  C   UNL     1      24.637 -15.795  31.004  1.00  0.00     0.013 C 
ATOM     14  C   UNL     1      22.399 -23.557  30.372  1.00  0.00     0.004 C 
ATOM     15  C   UNL     1      22.635 -22.022  28.432  1.00  0.00     0.002 C 
ATOM     16  C   UNL     1      23.328 -23.100  29.245  1.00  0.00    -0.004 C 
ATOM     17  C   UNL     1      23.373 -21.966  27.080  1.00  0.00     0.009 C 
ATOM     18  C   UNL     1      23.816 -24.104  28.197  1.00  0.00    -0.001 C 
ATOM     19  C   UNL     1      24.374 -23.155  27.114  1.00  0.00    -0.001 C 
ATOM     20  C   UNL     1      22.689 -25.038  27.673  1.00  0.00     0.036 C 
ATOM     21  C   UNL     1      24.874 -23.878  25.779  1.00  0.00    -0.024 C 
ATOM     22  C   UNL     1      22.890 -25.545  26.224  1.00  0.00     0.118 C 
ATOM     23  C   UNL     1      24.338 -25.364  25.706  1.00  0.00     0.026 C 
ATOM     24  C   UNL     1      24.575 -23.044  24.470  1.00  0.00     0.010 C 
ATOM     25  C   UNL     1      26.428 -23.990  25.902  1.00  0.00     0.012 C 
ATOM     26  C   UNL     1      24.562 -26.095  24.345  1.00  0.00     0.038 C 
ATOM     27  C   UNL     1      24.110 -23.854  23.251  1.00  0.00     0.032 C 
ATOM     28  C   UNL     1      24.850 -25.182  23.138  1.00  0.00     0.114 C 
ATOM     29  H   UNL     1      24.010 -18.527  31.076  1.00  0.00     0.348 HD
ENDROOT
BRANCH   6  30
ATOM     30  O   UNL     1      22.455 -20.005  32.627  1.00  0.00    -0.384 OA
ATOM     31  H   UNL     1      22.689 -19.121  33.010  1.00  0.00     0.211 HD
ENDBRANCH   6  30
BRANCH  22  32
ATOM     32  O   UNL     1      21.943 -24.994  25.344  1.00  0.00    -0.393 OA
ATOM     33  H   UNL     1      21.296 -25.705  25.111  1.00  0.00     0.210 HD
ENDBRANCH  22  32
BRANCH  28  34
ATOM     34  O   UNL     1      24.522 -25.833  21.935  1.00  0.00    -0.393 OA
ATOM     35  H   UNL     1      23.728 -26.405  22.106  1.00  0.00     0.210 HD
ENDBRANCH  28  34
TORSDOF 3
ENDMDL
