MODEL 1
REMARK VINA RESULT:    -4.935      0.000      0.000
REMARK INTER + INTRA:          -5.643
REMARK INTER:                  -5.512
REMARK INTRA:                  -0.131
REMARK UNBOUND:                -0.131
REMARK SMILES O=C([O-])C=Cc1ccccc1
REMARK SMILES IDX 4 1 5 2 2 3 1 4 3 5 6 6 7 7 11 8 8 9 10 10 9 11
REMARK H PARENT
REMARK Flexibility Score: inf
ROOT
ATOM      1  C   UNL     1       0.253  -7.879   4.467  1.00  0.00     0.025 C 
ATOM      2  C   UNL     1       1.100  -8.828   4.038  1.00  0.00     0.010 C 
ENDROOT
BRANCH   1   3
ATOM      3  C   UNL     1      -1.207  -8.075   4.471  1.00  0.00     0.064 C 
ATOM      4  O   UNL     1      -1.806  -8.500   5.496  1.00  0.00    -0.545 OA
ATOM      5  O   UNL     1      -1.937  -7.787   3.326  1.00  0.00    -0.545 OA
ENDBRANCH   1   3
BRANCH   2   6
ATOM      6  C   UNL     1       2.582  -8.693   4.009  1.00  0.00    -0.026 A 
ATOM      7  C   UNL     1       3.322  -9.667   3.313  1.00  0.00     0.008 A 
ATOM      8  C   UNL     1       3.279  -7.641   4.641  1.00  0.00     0.008 A 
ATOM      9  C   UNL     1       4.716  -9.594   3.249  1.00  0.00     0.001 A 
ATOM     10  C   UNL     1       4.674  -7.573   4.574  1.00  0.00     0.001 A 
ATOM     11  C   UNL     1       5.392  -8.548   3.878  1.00  0.00     0.000 A 
ENDBRANCH   2   6
TORSDOF 2
ENDMDL
MODEL 2
REMARK VINA RESULT:    -4.932      0.100      1.461
REMARK INTER + INTRA:          -5.640
REMARK INTER:                  -5.496
REMARK INTRA:                  -0.143
REMARK UNBOUND:                -0.131
REMARK SMILES O=C([O-])C=Cc1ccccc1
REMARK SMILES IDX 4 1 5 2 2 3 1 4 3 5 6 6 7 7 11 8 8 9 10 10 9 11
REMARK H PARENT
REMARK Flexibility Score: inf
ROOT
ATOM      1  C   UNL     1       0.298  -7.876   4.403  1.00  0.00     0.025 C 
ATOM      2  C   UNL     1       1.134  -8.872   4.070  1.00  0.00     0.010 C 
ENDROOT
BRANCH   1   3
ATOM      3  C   UNL     1      -1.161  -8.066   4.463  1.00  0.00     0.064 C 
ATOM      4  O   UNL     1      -1.729  -8.439   5.525  1.00  0.00    -0.545 OA
ATOM      5  O   UNL     1      -1.927  -7.830   3.329  1.00  0.00    -0.545 OA
ENDBRANCH   1   3
BRANCH   2   6
ATOM      6  C   UNL     1       2.615  -8.746   3.991  1.00  0.00    -0.026 A 
ATOM      7  C   UNL     1       3.225  -7.669   4.662  1.00  0.00     0.008 A 
ATOM      8  C   UNL     1       3.435  -9.649   3.281  1.00  0.00     0.008 A 
ATOM      9  C   UNL     1       4.612  -7.498   4.625  1.00  0.00     0.001 A 
ATOM     10  C   UNL     1       4.822  -9.472   3.247  1.00  0.00     0.001 A 
ATOM     11  C   UNL     1       5.410  -8.399   3.919  1.00  0.00     0.000 A 
ENDBRANCH   2   6
TORSDOF 2
ENDMDL
MODEL 3
REMARK VINA RESULT:    -4.370      5.167      6.718
REMARK INTER + INTRA:          -5.012
REMARK INTER:                  -4.885
REMARK INTRA:                  -0.127
REMARK UNBOUND:                -0.131
REMARK SMILES O=C([O-])C=Cc1ccccc1
REMARK SMILES IDX 4 1 5 2 2 3 1 4 3 5 6 6 7 7 11 8 8 9 10 10 9 11
REMARK H PARENT
REMARK Flexibility Score: inf
ROOT
ATOM      1  C   UNL     1       7.289  -6.321   3.289  1.00  0.00     0.025 C 
ATOM      2  C   UNL     1       6.663  -6.996   4.266  1.00  0.00     0.010 C 
ENDROOT
BRANCH   1   3
ATOM      3  C   UNL     1       8.552  -5.600   3.521  1.00  0.00     0.064 C 
ATOM      4  O   UNL     1       9.579  -6.199   3.938  1.00  0.00    -0.545 OA
ATOM      5  O   UNL     1       8.613  -4.235   3.275  1.00  0.00    -0.545 OA
ENDBRANCH   1   3
BRANCH   2   6
ATOM      6  C   UNL     1       5.387  -7.743   4.098  1.00  0.00    -0.026 A 
ATOM      7  C   UNL     1       4.233  -7.236   4.727  1.00  0.00     0.008 A 
ATOM      8  C   UNL     1       5.275  -8.931   3.343  1.00  0.00     0.008 A 
ATOM      9  C   UNL     1       3.006  -7.894   4.605  1.00  0.00     0.001 A 
ATOM     10  C   UNL     1       4.044  -9.584   3.225  1.00  0.00     0.001 A 
ATOM     11  C   UNL     1       2.911  -9.066   3.855  1.00  0.00     0.000 A 
ENDBRANCH   2   6
TORSDOF 2
ENDMDL
MODEL 4
REMARK VINA RESULT:    -4.073      2.128      2.570
REMARK INTER + INTRA:          -4.681
REMARK INTER:                  -4.536
REMARK INTRA:                  -0.145
REMARK UNBOUND:                -0.131
REMARK SMILES O=C([O-])C=Cc1ccccc1
REMARK SMILES IDX 4 1 5 2 2 3 1 4 3 5 6 6 7 7 11 8 8 9 10 10 9 11
REMARK H PARENT
REMARK Flexibility Score: inf
ROOT
ATOM      1  C   UNL     1       1.059  -6.614   5.199  1.00  0.00     0.025 C 
ATOM      2  C   UNL     1       2.393  -6.761   5.185  1.00  0.00     0.010 C 
ENDROOT
BRANCH   1   3
ATOM      3  C   UNL     1       0.400  -5.506   5.911  1.00  0.00     0.064 C 
ATOM      4  O   UNL     1      -0.531  -5.719   6.733  1.00  0.00    -0.545 OA
ATOM      5  O   UNL     1       0.813  -4.201   5.672  1.00  0.00    -0.545 OA
ENDBRANCH   1   3
BRANCH   2   6
ATOM      6  C   UNL     1       3.120  -7.856   4.486  1.00  0.00    -0.026 A 
ATOM      7  C   UNL     1       2.368  -8.937   3.989  1.00  0.00     0.008 A 
ATOM      8  C   UNL     1       4.519  -7.864   4.298  1.00  0.00     0.008 A 
ATOM      9  C   UNL     1       2.994  -9.995   3.323  1.00  0.00     0.001 A 
ATOM     10  C   UNL     1       5.138  -8.926   3.631  1.00  0.00     0.001 A 
ATOM     11  C   UNL     1       4.377  -9.990   3.143  1.00  0.00     0.000 A 
ENDBRANCH   2   6
TORSDOF 2
ENDMDL
MODEL 5
REMARK VINA RESULT:    -4.036      3.238      3.856
REMARK INTER + INTRA:          -4.639
REMARK INTER:                  -4.507
REMARK INTRA:                  -0.132
REMARK UNBOUND:                -0.131
REMARK SMILES O=C([O-])C=Cc1ccccc1
REMARK SMILES IDX 4 1 5 2 2 3 1 4 3 5 6 6 7 7 11 8 8 9 10 10 9 11
REMARK H PARENT
REMARK Flexibility Score: inf
ROOT
ATOM      1  C   UNL     1       0.776  -4.964   5.640  1.00  0.00     0.025 C 
ATOM      2  C   UNL     1       1.866  -5.728   5.820  1.00  0.00     0.010 C 
ENDROOT
BRANCH   1   3
ATOM      3  C   UNL     1       0.553  -3.726   6.405  1.00  0.00     0.064 C 
ATOM      4  O   UNL     1       1.512  -3.101   6.932  1.00  0.00    -0.545 OA
ATOM      5  O   UNL     1      -0.739  -3.237   6.549  1.00  0.00    -0.545 OA
ENDBRANCH   1   3
BRANCH   2   6
ATOM      6  C   UNL     1       2.151  -6.988   5.081  1.00  0.00    -0.026 A 
ATOM      7  C   UNL     1       3.496  -7.312   4.818  1.00  0.00     0.008 A 
ATOM      8  C   UNL     1       1.145  -7.871   4.633  1.00  0.00     0.008 A 
ATOM      9  C   UNL     1       3.826  -8.482   4.128  1.00  0.00     0.001 A 
ATOM     10  C   UNL     1       1.482  -9.039   3.943  1.00  0.00     0.001 A 
ATOM     11  C   UNL     1       2.821  -9.346   3.692  1.00  0.00     0.000 A 
ENDBRANCH   2   6
TORSDOF 2
ENDMDL
MODEL 6
REMARK VINA RESULT:    -4.022      2.137      2.811
REMARK INTER + INTRA:          -4.624
REMARK INTER:                  -4.476
REMARK INTRA:                  -0.148
REMARK UNBOUND:                -0.131
REMARK SMILES O=C([O-])C=Cc1ccccc1
REMARK SMILES IDX 4 1 5 2 2 3 1 4 3 5 6 6 7 7 11 8 8 9 10 10 9 11
REMARK H PARENT
REMARK Flexibility Score: inf
ROOT
ATOM      1  C   UNL     1       0.260  -5.977   5.886  1.00  0.00     0.025 C 
ATOM      2  C   UNL     1       0.345  -7.089   5.138  1.00  0.00     0.010 C 
ENDROOT
BRANCH   1   3
ATOM      3  C   UNL     1      -1.033  -5.406   6.296  1.00  0.00     0.064 C 
ATOM      4  O   UNL     1      -2.113  -6.023   6.096  1.00  0.00    -0.545 OA
ATOM      5  O   UNL     1      -1.064  -4.163   6.915  1.00  0.00    -0.545 OA
ENDBRANCH   1   3
BRANCH   2   6
ATOM      6  C   UNL     1       1.618  -7.717   4.691  1.00  0.00    -0.026 A 
ATOM      7  C   UNL     1       2.824  -7.055   4.991  1.00  0.00     0.008 A 
ATOM      8  C   UNL     1       1.676  -8.937   3.983  1.00  0.00     0.008 A 
ATOM      9  C   UNL     1       4.052  -7.596   4.598  1.00  0.00     0.001 A 
ATOM     10  C   UNL     1       2.908  -9.472   3.592  1.00  0.00     0.001 A 
ATOM     11  C   UNL     1       4.094  -8.803   3.899  1.00  0.00     0.000 A 
ENDBRANCH   2   6
TORSDOF 2
ENDMDL
MODEL 7
REMARK VINA RESULT:    -3.985     14.890     15.937
REMARK INTER + INTRA:          -4.583
REMARK INTER:                  -4.441
REMARK INTRA:                  -0.142
REMARK UNBOUND:                -0.131
REMARK SMILES O=C([O-])C=Cc1ccccc1
REMARK SMILES IDX 4 1 5 2 2 3 1 4 3 5 6 6 7 7 11 8 8 9 10 10 9 11
REMARK H PARENT
REMARK Flexibility Score: inf
ROOT
ATOM      1  C   UNL     1       3.384   5.084   5.717  1.00  0.00     0.025 C 
ATOM      2  C   UNL     1       3.922   6.307   5.573  1.00  0.00     0.010 C 
ENDROOT
BRANCH   1   3
ATOM      3  C   UNL     1       3.747   3.961   4.836  1.00  0.00     0.064 C 
ATOM      4  O   UNL     1       4.932   3.797   4.441  1.00  0.00    -0.545 OA
ATOM      5  O   UNL     1       2.764   3.067   4.433  1.00  0.00    -0.545 OA
ENDBRANCH   1   3
BRANCH   2   6
ATOM      6  C   UNL     1       3.599   7.481   6.428  1.00  0.00    -0.026 A 
ATOM      7  C   UNL     1       2.282   7.609   6.910  1.00  0.00     0.008 A 
ATOM      8  C   UNL     1       4.544   8.470   6.780  1.00  0.00     0.008 A 
ATOM      9  C   UNL     1       1.919   8.691   7.718  1.00  0.00     0.001 A 
ATOM     10  C   UNL     1       4.174   9.549   7.588  1.00  0.00     0.001 A 
ATOM     11  C   UNL     1       2.864   9.660   8.057  1.00  0.00     0.000 A 
ENDBRANCH   2   6
TORSDOF 2
ENDMDL
MODEL 8
REMARK VINA RESULT:    -3.889     15.118     16.186
REMARK INTER + INTRA:          -4.475
REMARK INTER:                  -4.348
REMARK INTRA:                  -0.127
REMARK UNBOUND:                -0.131
REMARK SMILES O=C([O-])C=Cc1ccccc1
REMARK SMILES IDX 4 1 5 2 2 3 1 4 3 5 6 6 7 7 11 8 8 9 10 10 9 11
REMARK H PARENT
REMARK Flexibility Score: inf
ROOT
ATOM      1  C   UNL     1       3.690   5.267   5.782  1.00  0.00     0.025 C 
ATOM      2  C   UNL     1       3.759   6.570   5.463  1.00  0.00     0.010 C 
ENDROOT
BRANCH   1   3
ATOM      3  C   UNL     1       4.033   4.206   4.820  1.00  0.00     0.064 C 
ATOM      4  O   UNL     1       5.212   4.065   4.396  1.00  0.00    -0.545 OA
ATOM      5  O   UNL     1       3.040   3.345   4.372  1.00  0.00    -0.545 OA
ENDBRANCH   1   3
BRANCH   2   6
ATOM      6  C   UNL     1       3.426   7.689   6.386  1.00  0.00    -0.026 A 
ATOM      7  C   UNL     1       4.452   8.588   6.733  1.00  0.00     0.008 A 
ATOM      8  C   UNL     1       2.139   7.892   6.929  1.00  0.00     0.008 A 
ATOM      9  C   UNL     1       4.201   9.659   7.596  1.00  0.00     0.001 A 
ATOM     10  C   UNL     1       1.895   8.965   7.792  1.00  0.00     0.001 A 
ATOM     11  C   UNL     1       2.924   9.848   8.125  1.00  0.00     0.000 A 
ENDBRANCH   2   6
TORSDOF 2
ENDMDL
