MODEL 1
REMARK VINA RESULT:    -2.936      0.000      0.000
REMARK INTER + INTRA:          -2.860
REMARK INTER:                  -3.622
REMARK INTRA:                   0.762
REMARK UNBOUND:                 0.762
REMARK SMILES CC1=CC=CC(C)(C)CC1=O
REMARK SMILES IDX 1 1 2 2 3 3 10 4 11 5 9 6 4 8 5 9 6 10 7 11 8 12
REMARK H PARENT
REMARK Flexibility Score: 80.00
ROOT
ATOM      1  C   UNL     1      13.634  -4.690  15.265  1.00  0.00     0.048 C 
ATOM      2  C   UNL     1      14.789  -5.605  14.933  1.00  0.00    -0.008 C 
ATOM      3  C   UNL     1      15.775  -5.725  15.848  1.00  0.00     0.007 C 
ENDROOT
BRANCH   2   4
ATOM      4  C   UNL     1      14.783  -6.241  13.592  1.00  0.00     0.159 C 
ATOM      5  O   UNL     1      13.961  -5.829  12.727  1.00  0.00    -0.295 OA
BRANCH   4   6
ATOM      6  C   UNL     1      15.695  -7.365  13.206  1.00  0.00     0.091 CG0
ATOM      7  G   UNL     1      17.192  -6.994  13.301  1.00  0.00     0.000 G0
ENDBRANCH   4   6
ENDBRANCH   2   4
BRANCH   3   8
ATOM      8  C   UNL     1      17.028  -6.514  15.797  1.00  0.00    -0.003 C 
ATOM      9  C   UNL     1      17.650  -7.044  14.736  1.00  0.00    -0.020 C 
BRANCH   9  10
ATOM     10  C   UNL     1      17.186  -6.981  13.300  1.00  0.00    -0.010 CG0
ATOM     11  C   UNL     1      17.992  -8.017  12.484  1.00  0.00     0.016 C 
ATOM     12  C   UNL     1      17.476  -5.581  12.711  1.00  0.00     0.016 C 
ATOM     13  G   UNL     1      15.691  -7.363  13.218  1.00  0.00     0.000 G0
ENDBRANCH   9  10
ENDBRANCH   3   8
TORSDOF 0
ENDMDL
MODEL 2
REMARK VINA RESULT:    -2.791      2.127      3.701
REMARK INTER + INTRA:          -2.682
REMARK INTER:                  -3.441
REMARK INTRA:                   0.758
REMARK UNBOUND:                 0.762
REMARK SMILES CC1=CC=CC(C)(C)CC1=O
REMARK SMILES IDX 1 1 2 2 3 3 10 4 11 5 9 6 4 8 5 9 6 10 7 11 8 12
REMARK H PARENT
REMARK Flexibility Score: 80.00
ROOT
ATOM      1  C   UNL     1      18.862  -9.403  15.215  1.00  0.00     0.048 C 
ATOM      2  C   UNL     1      17.936  -8.587  14.345  1.00  0.00    -0.008 C 
ATOM      3  C   UNL     1      17.748  -9.000  13.072  1.00  0.00     0.007 C 
ENDROOT
BRANCH   2   4
ATOM      4  C   UNL     1      17.365  -7.352  14.937  1.00  0.00     0.159 C 
ATOM      5  O   UNL     1      17.801  -6.954  16.052  1.00  0.00    -0.295 OA
BRANCH   4   6
ATOM      6  C   UNL     1      16.279  -6.549  14.288  1.00  0.00     0.091 CG0
ATOM      7  G   UNL     1      16.649  -6.059  12.870  1.00  0.00     0.000 G0
ENDBRANCH   4   6
ENDBRANCH   2   4
BRANCH   3   8
ATOM      8  C   UNL     1      16.932  -8.402  11.989  1.00  0.00    -0.003 C 
ATOM      9  C   UNL     1      16.463  -7.153  11.877  1.00  0.00    -0.020 C 
BRANCH   9  10
ATOM     10  C   UNL     1      16.642  -6.034  12.875  1.00  0.00    -0.010 CG0
ATOM     11  C   UNL     1      15.659  -4.898  12.511  1.00  0.00     0.016 C 
ATOM     12  C   UNL     1      18.078  -5.468  12.784  1.00  0.00     0.016 C 
ATOM     13  G   UNL     1      16.290  -6.539  14.292  1.00  0.00     0.000 G0
ENDBRANCH   9  10
ENDBRANCH   3   8
TORSDOF 0
ENDMDL
MODEL 3
REMARK VINA RESULT:    -2.788      2.072      3.233
REMARK INTER + INTRA:          -2.678
REMARK INTER:                  -3.669
REMARK INTRA:                   0.991
REMARK UNBOUND:                 0.762
REMARK SMILES CC1=CC=CC(C)(C)CC1=O
REMARK SMILES IDX 1 1 2 2 3 3 10 4 11 5 9 6 4 8 5 9 6 10 7 11 8 12
REMARK H PARENT
REMARK Flexibility Score: 80.00
ROOT
ATOM      1  C   UNL     1      18.798  -9.825  15.125  1.00  0.00     0.048 C 
ATOM      2  C   UNL     1      17.965  -8.655  14.657  1.00  0.00    -0.008 C 
ATOM      3  C   UNL     1      17.782  -7.632  15.520  1.00  0.00     0.007 C 
ENDROOT
BRANCH   2   4
ATOM      4  C   UNL     1      17.352  -8.757  13.309  1.00  0.00     0.159 C 
ATOM      5  O   UNL     1      17.780  -9.636  12.511  1.00  0.00    -0.295 OA
BRANCH   4   6
ATOM      6  C   UNL     1      16.251  -7.861  12.831  1.00  0.00     0.091 CG0
ATOM      7  G   UNL     1      16.636  -6.364  12.842  1.00  0.00     0.000 G0
ENDBRANCH   4   6
ENDBRANCH   2   4
BRANCH   3   8
ATOM      8  C   UNL     1      17.006  -6.380  15.360  1.00  0.00    -0.003 C 
ATOM      9  C   UNL     1      16.496  -5.839  14.246  1.00  0.00    -0.020 C 
BRANCH   9  10
ATOM     10  C   UNL     1      16.624  -6.385  12.844  1.00  0.00    -0.010 CG0
ATOM     11  C   UNL     1      18.093  -6.223  12.392  1.00  0.00     0.016 C 
ATOM     12  C   UNL     1      15.735  -5.569  11.876  1.00  0.00     0.016 C 
ATOM     13  G   UNL     1      16.282  -7.891  12.839  1.00  0.00     0.000 G0
ENDBRANCH   9  10
ENDBRANCH   3   8
TORSDOF 0
ENDMDL
MODEL 4
REMARK VINA RESULT:    -2.757      2.717      4.031
REMARK INTER + INTRA:          -2.640
REMARK INTER:                  -3.380
REMARK INTRA:                   0.740
REMARK UNBOUND:                 0.762
REMARK SMILES CC1=CC=CC(C)(C)CC1=O
REMARK SMILES IDX 1 1 2 2 3 3 10 4 11 5 9 6 4 8 5 9 6 10 7 11 8 12
REMARK H PARENT
REMARK Flexibility Score: 80.00
ROOT
ATOM      1  C   UNL     1      16.819 -11.161  12.872  1.00  0.00     0.048 C 
ATOM      2  C   UNL     1      16.716  -9.655  12.912  1.00  0.00    -0.008 C 
ATOM      3  C   UNL     1      15.812  -9.068  12.098  1.00  0.00     0.007 C 
ENDROOT
BRANCH   2   4
ATOM      4  C   UNL     1      17.671  -8.935  13.790  1.00  0.00     0.159 C 
ATOM      5  O   UNL     1      18.642  -9.572  14.285  1.00  0.00    -0.295 OA
BRANCH   4   6
ATOM      6  C   UNL     1      17.541  -7.484  14.139  1.00  0.00     0.091 CG0
ATOM      7  G   UNL     1      17.583  -6.555  12.905  1.00  0.00     0.000 G0
ENDBRANCH   4   6
ENDBRANCH   2   4
BRANCH   3   8
ATOM      8  C   UNL     1      15.502  -7.632  11.898  1.00  0.00    -0.003 C 
ATOM      9  C   UNL     1      16.236  -6.558  12.216  1.00  0.00    -0.020 C 
BRANCH   9  10
ATOM     10  C   UNL     1      17.583  -6.562  12.901  1.00  0.00    -0.010 CG0
ATOM     11  C   UNL     1      17.873  -5.131  13.406  1.00  0.00     0.016 C 
ATOM     12  C   UNL     1      18.689  -6.945  11.890  1.00  0.00     0.016 C 
ATOM     13  G   UNL     1      17.542  -7.505  14.124  1.00  0.00     0.000 G0
ENDBRANCH   9  10
ENDBRANCH   3   8
TORSDOF 0
ENDMDL
MODEL 5
REMARK VINA RESULT:    -2.544      2.053      3.906
REMARK INTER + INTRA:          -2.378
REMARK INTER:                  -3.378
REMARK INTRA:                   1.001
REMARK UNBOUND:                 0.762
REMARK SMILES CC1=CC=CC(C)(C)CC1=O
REMARK SMILES IDX 1 1 2 2 3 3 10 4 11 5 9 6 4 8 5 9 6 10 7 11 8 12
REMARK H PARENT
REMARK Flexibility Score: 80.00
ROOT
ATOM      1  C   UNL     1      17.775  -9.680  12.822  1.00  0.00     0.048 C 
ATOM      2  C   UNL     1      16.707  -8.624  12.660  1.00  0.00    -0.008 C 
ATOM      3  C   UNL     1      15.419  -9.030  12.671  1.00  0.00     0.007 C 
ENDROOT
BRANCH   2   4
ATOM      4  C   UNL     1      17.164  -7.231  12.425  1.00  0.00     0.159 C 
ATOM      5  O   UNL     1      18.370  -6.939  12.656  1.00  0.00    -0.295 OA
BRANCH   4   6
ATOM      6  C   UNL     1      16.264  -6.138  11.936  1.00  0.00     0.091 CG0
ATOM      7  G   UNL     1      15.059  -5.879  12.868  1.00  0.00     0.000 G0
ENDBRANCH   4   6
ENDBRANCH   2   4
BRANCH   3   8
ATOM      8  C   UNL     1      14.173  -8.244  12.511  1.00  0.00    -0.003 C 
ATOM      9  C   UNL     1      13.998  -6.917  12.568  1.00  0.00    -0.020 C 
BRANCH   9  10
ATOM     10  C   UNL     1      15.063  -5.883  12.844  1.00  0.00    -0.010 CG0
ATOM     11  C   UNL     1      15.501  -6.020  14.320  1.00  0.00     0.016 C 
ATOM     12  C   UNL     1      14.484  -4.462  12.649  1.00  0.00     0.016 C 
ATOM     13  G   UNL     1      16.294  -6.152  11.950  1.00  0.00     0.000 G0
ENDBRANCH   9  10
ENDBRANCH   3   8
TORSDOF 0
ENDMDL
MODEL 6
REMARK VINA RESULT:    -2.383      1.713      2.579
REMARK INTER + INTRA:          -2.178
REMARK INTER:                  -2.925
REMARK INTRA:                   0.747
REMARK UNBOUND:                 0.762
REMARK SMILES CC1=CC=CC(C)(C)CC1=O
REMARK SMILES IDX 1 1 2 2 3 3 10 4 11 5 9 6 4 8 5 9 6 10 7 11 8 12
REMARK H PARENT
REMARK Flexibility Score: 80.00
ROOT
ATOM      1  C   UNL     1      14.496  -5.487  16.115  1.00  0.00     0.048 C 
ATOM      2  C   UNL     1      15.303  -5.693  14.855  1.00  0.00    -0.008 C 
ATOM      3  C   UNL     1      14.654  -5.600  13.674  1.00  0.00     0.007 C 
ENDROOT
BRANCH   2   4
ATOM      4  C   UNL     1      16.732  -6.057  15.020  1.00  0.00     0.159 C 
ATOM      5  O   UNL     1      17.148  -6.389  16.164  1.00  0.00    -0.295 OA
BRANCH   4   6
ATOM      6  C   UNL     1      17.724  -6.040  13.897  1.00  0.00     0.091 CG0
ATOM      7  G   UNL     1      17.357  -7.003  12.746  1.00  0.00     0.000 G0
ENDBRANCH   4   6
ENDBRANCH   2   4
BRANCH   3   8
ATOM      8  C   UNL     1      15.161  -5.775  12.293  1.00  0.00    -0.003 C 
ATOM      9  C   UNL     1      16.285  -6.373  11.877  1.00  0.00    -0.020 C 
BRANCH   9  10
ATOM     10  C   UNL     1      17.344  -7.003  12.750  1.00  0.00    -0.010 CG0
ATOM     11  C   UNL     1      18.612  -7.222  11.894  1.00  0.00     0.016 C 
ATOM     12  C   UNL     1      16.863  -8.385  13.251  1.00  0.00     0.016 C 
ATOM     13  G   UNL     1      17.703  -6.044  13.906  1.00  0.00     0.000 G0
ENDBRANCH   9  10
ENDBRANCH   3   8
TORSDOF 0
ENDMDL
MODEL 7
REMARK VINA RESULT:    -2.313      2.013      3.272
REMARK INTER + INTRA:          -2.093
REMARK INTER:                  -2.847
REMARK INTRA:                   0.754
REMARK UNBOUND:                 0.762
REMARK SMILES CC1=CC=CC(C)(C)CC1=O
REMARK SMILES IDX 1 1 2 2 3 3 10 4 11 5 9 6 4 8 5 9 6 10 7 11 8 12
REMARK H PARENT
REMARK Flexibility Score: 80.00
ROOT
ATOM      1  C   UNL     1      16.716  -6.385  17.453  1.00  0.00     0.048 C 
ATOM      2  C   UNL     1      15.963  -5.851  16.258  1.00  0.00    -0.008 C 
ATOM      3  C   UNL     1      14.782  -5.236  16.486  1.00  0.00     0.007 C 
ENDROOT
BRANCH   2   4
ATOM      4  C   UNL     1      16.547  -6.113  14.919  1.00  0.00     0.159 C 
ATOM      5  O   UNL     1      17.505  -6.929  14.822  1.00  0.00    -0.295 OA
BRANCH   4   6
ATOM      6  C   UNL     1      16.070  -5.447  13.665  1.00  0.00     0.091 CG0
ATOM      7  G   UNL     1      14.587  -5.740  13.346  1.00  0.00     0.000 G0
ENDBRANCH   4   6
ENDBRANCH   2   4
BRANCH   3   8
ATOM      8  C   UNL     1      13.818  -4.643  15.530  1.00  0.00    -0.003 C 
ATOM      9  C   UNL     1      13.706  -4.844  14.211  1.00  0.00    -0.020 C 
BRANCH   9  10
ATOM     10  C   UNL     1      14.583  -5.732  13.360  1.00  0.00    -0.010 CG0
ATOM     11  C   UNL     1      14.329  -5.385  11.875  1.00  0.00     0.016 C 
ATOM     12  C   UNL     1      14.201  -7.215  13.575  1.00  0.00     0.016 C 
ATOM     13  G   UNL     1      16.069  -5.448  13.672  1.00  0.00     0.000 G0
ENDBRANCH   9  10
ENDBRANCH   3   8
TORSDOF 0
ENDMDL
MODEL 8
REMARK VINA RESULT:    -2.252      1.538      2.435
REMARK INTER + INTRA:          -2.017
REMARK INTER:                  -2.769
REMARK INTRA:                   0.752
REMARK UNBOUND:                 0.762
REMARK SMILES CC1=CC=CC(C)(C)CC1=O
REMARK SMILES IDX 1 1 2 2 3 3 10 4 11 5 9 6 4 8 5 9 6 10 7 11 8 12
REMARK H PARENT
REMARK Flexibility Score: 80.00
ROOT
ATOM      1  C   UNL     1      16.466  -5.406  17.604  1.00  0.00     0.048 C 
ATOM      2  C   UNL     1      16.202  -6.035  16.257  1.00  0.00    -0.008 C 
ATOM      3  C   UNL     1      17.183  -6.790  15.716  1.00  0.00     0.007 C 
ENDROOT
BRANCH   2   4
ATOM      4  C   UNL     1      14.911  -5.711  15.600  1.00  0.00     0.159 C 
ATOM      5  O   UNL     1      14.205  -4.779  16.074  1.00  0.00    -0.295 OA
BRANCH   4   6
ATOM      6  C   UNL     1      14.386  -6.443  14.404  1.00  0.00     0.091 CG0
ATOM      7  G   UNL     1      15.319  -6.354  13.176  1.00  0.00     0.000 G0
ENDBRANCH   4   6
ENDBRANCH   2   4
BRANCH   3   8
ATOM      8  C   UNL     1      17.229  -7.503  14.418  1.00  0.00    -0.003 C 
ATOM      9  C   UNL     1      16.465  -7.329  13.332  1.00  0.00    -0.020 C 
BRANCH   9  10
ATOM     10  C   UNL     1      15.323  -6.351  13.185  1.00  0.00    -0.010 CG0
ATOM     11  C   UNL     1      14.501  -6.749  11.938  1.00  0.00     0.016 C 
ATOM     12  C   UNL     1      15.874  -4.924  12.957  1.00  0.00     0.016 C 
ATOM     13  G   UNL     1      14.398  -6.442  14.419  1.00  0.00     0.000 G0
ENDBRANCH   9  10
ENDBRANCH   3   8
TORSDOF 0
ENDMDL
MODEL 9
REMARK VINA RESULT:    -2.250      1.513      2.549
REMARK INTER + INTRA:          -2.015
REMARK INTER:                  -3.048
REMARK INTRA:                   1.033
REMARK UNBOUND:                 0.762
REMARK SMILES CC1=CC=CC(C)(C)CC1=O
REMARK SMILES IDX 1 1 2 2 3 3 10 4 11 5 9 6 4 8 5 9 6 10 7 11 8 12
REMARK H PARENT
REMARK Flexibility Score: 80.00
ROOT
ATOM      1  C   UNL     1      15.079  -4.133  12.677  1.00  0.00     0.048 C 
ATOM      2  C   UNL     1      16.005  -5.327  12.672  1.00  0.00    -0.008 C 
ATOM      3  C   UNL     1      17.202  -5.187  12.063  1.00  0.00     0.007 C 
ENDROOT
BRANCH   2   4
ATOM      4  C   UNL     1      15.491  -6.583  13.272  1.00  0.00     0.159 C 
ATOM      5  O   UNL     1      14.461  -6.533  14.000  1.00  0.00    -0.295 OA
BRANCH   4   6
ATOM      6  C   UNL     1      16.139  -7.919  13.074  1.00  0.00     0.091 CG0
ATOM      7  G   UNL     1      17.619  -7.950  13.517  1.00  0.00     0.000 G0
ENDBRANCH   4   6
ENDBRANCH   2   4
BRANCH   3   8
ATOM      8  C   UNL     1      18.294  -6.171  11.875  1.00  0.00    -0.003 C 
ATOM      9  C   UNL     1      18.478  -7.353  12.477  1.00  0.00    -0.020 C 
BRANCH   9  10
ATOM     10  C   UNL     1      17.600  -7.964  13.543  1.00  0.00    -0.010 CG0
ATOM     11  C   UNL     1      17.738  -7.119  14.829  1.00  0.00     0.016 C 
ATOM     12  C   UNL     1      18.076  -9.400  13.862  1.00  0.00     0.016 C 
ATOM     13  G   UNL     1      16.123  -7.914  13.091  1.00  0.00     0.000 G0
ENDBRANCH   9  10
ENDBRANCH   3   8
TORSDOF 0
ENDMDL
