MODEL 1
REMARK VINA RESULT:    -5.459      0.000      0.000
REMARK INTER + INTRA:          -6.100
REMARK INTER:                  -5.937
REMARK INTRA:                  -0.162
REMARK UNBOUND:                -0.162
REMARK SMILES CC(=O)[C@H]1CC[C@H]2[C@H]3CC=C4C[C@H](O)CC[C@]4(C)[C@H]3CC[C@]12C
REMARK SMILES IDX 4 1 5 2 6 3 7 4 22 5 21 6 20 7 19 8 8 9 9 10 10 11 11 12
REMARK SMILES IDX 17 13 16 14 15 15 13 16 12 17 18 18 23 19 2 20 1 21 3 22
REMARK SMILES IDX 14 23
REMARK H PARENT 14 24
REMARK Flexibility Score: inf
ROOT
ATOM      1  C   UNL     1     -28.162 -17.872  21.111  1.00  0.00     0.062 C 
ATOM      2  C   UNL     1     -26.701 -17.728  21.617  1.00  0.00     0.012 C 
ATOM      3  C   UNL     1     -26.789 -17.318  23.101  1.00  0.00     0.005 C 
ATOM      4  C   UNL     1     -28.281 -17.375  23.400  1.00  0.00    -0.001 C 
ATOM      5  C   UNL     1     -28.988 -16.990  22.087  1.00  0.00    -0.020 C 
ATOM      6  C   UNL     1     -30.479 -17.375  22.225  1.00  0.00     0.008 C 
ATOM      7  C   UNL     1     -31.121 -16.762  23.502  1.00  0.00     0.005 C 
ATOM      8  C   UNL     1     -30.356 -17.131  24.817  1.00  0.00     0.003 C 
ATOM      9  C   UNL     1     -28.845 -16.777  24.709  1.00  0.00     0.000 C 
ATOM     10  C   UNL     1     -28.619 -15.275  24.910  1.00  0.00     0.031 C 
ATOM     11  C   UNL     1     -29.156 -14.847  26.235  1.00  0.00    -0.027 C 
ATOM     12  C   UNL     1     -30.263 -15.388  26.785  1.00  0.00    -0.065 C 
ATOM     13  C   UNL     1     -30.992 -16.609  26.186  1.00  0.00    -0.008 C 
ATOM     14  C   UNL     1     -30.870 -17.760  27.239  1.00  0.00     0.014 C 
ATOM     15  C   UNL     1     -31.258 -17.356  28.677  1.00  0.00     0.033 C 
ATOM     16  C   UNL     1     -30.486 -16.119  29.163  1.00  0.00     0.118 C 
ATOM     17  C   UNL     1     -30.654 -14.948  28.183  1.00  0.00     0.063 C 
ATOM     18  C   UNL     1     -32.494 -16.259  26.006  1.00  0.00     0.016 C 
ATOM     19  C   UNL     1     -28.857 -15.486  21.677  1.00  0.00     0.012 C 
ENDROOT
BRANCH   1  20
ATOM     20  C   UNL     1     -28.349 -17.588  19.630  1.00  0.00     0.133 C 
ATOM     21  C   UNL     1     -27.333 -16.784  18.876  1.00  0.00     0.088 C 
ATOM     22  O   UNL     1     -29.312 -18.037  19.027  1.00  0.00    -0.300 OA
ENDBRANCH   1  20
BRANCH  16  23
ATOM     23  O   UNL     1     -29.127 -16.441  29.307  1.00  0.00    -0.393 OA
ATOM     24  H   UNL     1     -29.050 -17.007  30.119  1.00  0.00     0.210 HD
ENDBRANCH  16  23
TORSDOF 2
ENDMDL
MODEL 2
REMARK VINA RESULT:    -5.412      1.217      6.923
REMARK INTER + INTRA:          -6.049
REMARK INTER:                  -5.995
REMARK INTRA:                  -0.054
REMARK UNBOUND:                -0.162
REMARK SMILES CC(=O)[C@H]1CC[C@H]2[C@H]3CC=C4C[C@H](O)CC[C@]4(C)[C@H]3CC[C@]12C
REMARK SMILES IDX 4 1 5 2 6 3 7 4 22 5 21 6 20 7 19 8 8 9 9 10 10 11 11 12
REMARK SMILES IDX 17 13 16 14 15 15 13 16 12 17 18 18 23 19 2 20 1 21 3 22
REMARK SMILES IDX 14 23
REMARK H PARENT 14 24
REMARK Flexibility Score: inf
ROOT
ATOM      1  C   UNL     1     -31.133 -17.326  26.903  1.00  0.00     0.062 C 
ATOM      2  C   UNL     1     -32.287 -16.375  26.484  1.00  0.00     0.012 C 
ATOM      3  C   UNL     1     -31.968 -15.904  25.050  1.00  0.00     0.005 C 
ATOM      4  C   UNL     1     -30.726 -16.703  24.679  1.00  0.00    -0.001 C 
ATOM      5  C   UNL     1     -29.947 -16.905  25.992  1.00  0.00    -0.020 C 
ATOM      6  C   UNL     1     -28.883 -17.999  25.745  1.00  0.00     0.008 C 
ATOM      7  C   UNL     1     -27.991 -17.673  24.514  1.00  0.00     0.005 C 
ATOM      8  C   UNL     1     -28.810 -17.427  23.203  1.00  0.00     0.003 C 
ATOM      9  C   UNL     1     -29.907 -16.345  23.419  1.00  0.00     0.000 C 
ATOM     10  C   UNL     1     -29.301 -14.938  23.393  1.00  0.00     0.031 C 
ATOM     11  C   UNL     1     -28.594 -14.706  22.098  1.00  0.00    -0.027 C 
ATOM     12  C   UNL     1     -27.931 -15.681  21.442  1.00  0.00    -0.065 C 
ATOM     13  C   UNL     1     -27.970 -17.163  21.871  1.00  0.00    -0.008 C 
ATOM     14  C   UNL     1     -28.661 -17.945  20.706  1.00  0.00     0.014 C 
ATOM     15  C   UNL     1     -28.092 -17.641  19.304  1.00  0.00     0.033 C 
ATOM     16  C   UNL     1     -28.084 -16.137  18.991  1.00  0.00     0.118 C 
ATOM     17  C   UNL     1     -27.339 -15.354  20.084  1.00  0.00     0.063 C 
ATOM     18  C   UNL     1     -26.513 -17.682  22.019  1.00  0.00     0.016 C 
ATOM     19  C   UNL     1     -29.270 -15.618  26.569  1.00  0.00     0.012 C 
ENDROOT
BRANCH   1  20
ATOM     20  C   UNL     1     -30.852 -17.358  28.396  1.00  0.00     0.133 C 
ATOM     21  C   UNL     1     -31.814 -16.738  29.365  1.00  0.00     0.088 C 
ATOM     22  O   UNL     1     -29.855 -17.916  28.830  1.00  0.00    -0.300 OA
ENDBRANCH   1  20
BRANCH  16  23
ATOM     23  O   UNL     1     -29.405 -15.675  18.876  1.00  0.00    -0.393 OA
ATOM     24  H   UNL     1     -29.493 -15.279  17.969  1.00  0.00     0.210 HD
ENDBRANCH  16  23
TORSDOF 2
ENDMDL
MODEL 3
REMARK VINA RESULT:    -5.352      3.365      5.428
REMARK INTER + INTRA:          -5.983
REMARK INTER:                  -5.772
REMARK INTRA:                  -0.212
REMARK UNBOUND:                -0.162
REMARK SMILES CC(=O)[C@H]1CC[C@H]2[C@H]3CC=C4C[C@H](O)CC[C@]4(C)[C@H]3CC[C@]12C
REMARK SMILES IDX 4 1 5 2 6 3 7 4 22 5 21 6 20 7 19 8 8 9 9 10 10 11 11 12
REMARK SMILES IDX 17 13 16 14 15 15 13 16 12 17 18 18 23 19 2 20 1 21 3 22
REMARK SMILES IDX 14 23
REMARK H PARENT 14 24
REMARK Flexibility Score: inf
ROOT
ATOM      1  C   UNL     1     -32.164 -15.275  25.038  1.00  0.00     0.062 C 
ATOM      2  C   UNL     1     -33.144 -16.000  26.000  1.00  0.00     0.012 C 
ATOM      3  C   UNL     1     -32.495 -15.960  27.398  1.00  0.00     0.005 C 
ATOM      4  C   UNL     1     -31.250 -15.110  27.192  1.00  0.00    -0.001 C 
ATOM      5  C   UNL     1     -30.787 -15.386  25.748  1.00  0.00    -0.020 C 
ATOM      6  C   UNL     1     -29.757 -14.297  25.368  1.00  0.00     0.008 C 
ATOM      7  C   UNL     1     -28.602 -14.202  26.405  1.00  0.00     0.005 C 
ATOM      8  C   UNL     1     -29.102 -13.968  27.870  1.00  0.00     0.003 C 
ATOM      9  C   UNL     1     -30.158 -15.034  28.282  1.00  0.00     0.000 C 
ATOM     10  C   UNL     1     -29.483 -16.361  28.646  1.00  0.00     0.031 C 
ATOM     11  C   UNL     1     -28.500 -16.152  29.750  1.00  0.00    -0.027 C 
ATOM     12  C   UNL     1     -27.766 -15.027  29.873  1.00  0.00    -0.065 C 
ATOM     13  C   UNL     1     -27.979 -13.780  28.989  1.00  0.00    -0.008 C 
ATOM     14  C   UNL     1     -28.445 -12.632  29.945  1.00  0.00     0.014 C 
ATOM     15  C   UNL     1     -27.568 -12.451  31.202  1.00  0.00     0.033 C 
ATOM     16  C   UNL     1     -27.408 -13.759  31.995  1.00  0.00     0.118 C 
ATOM     17  C   UNL     1     -26.877 -14.883  31.093  1.00  0.00     0.063 C 
ATOM     18  C   UNL     1     -26.621 -13.375  28.354  1.00  0.00     0.016 C 
ATOM     19  C   UNL     1     -30.181 -16.807  25.504  1.00  0.00     0.012 C 
ENDROOT
BRANCH   1  20
ATOM     20  C   UNL     1     -32.216 -15.761  23.599  1.00  0.00     0.133 C 
ATOM     21  C   UNL     1     -32.996 -16.989  23.238  1.00  0.00     0.088 C 
ATOM     22  O   UNL     1     -31.648 -15.141  22.712  1.00  0.00    -0.300 OA
ENDBRANCH   1  20
BRANCH  16  23
ATOM     23  O   UNL     1     -28.645 -14.124  32.551  1.00  0.00    -0.393 OA
ATOM     24  H   UNL     1     -29.130 -13.281  32.753  1.00  0.00     0.210 HD
ENDBRANCH  16  23
TORSDOF 2
ENDMDL
MODEL 4
REMARK VINA RESULT:    -5.350      3.519      5.549
REMARK INTER + INTRA:          -5.982
REMARK INTER:                  -5.774
REMARK INTRA:                  -0.208
REMARK UNBOUND:                -0.162
REMARK SMILES CC(=O)[C@H]1CC[C@H]2[C@H]3CC=C4C[C@H](O)CC[C@]4(C)[C@H]3CC[C@]12C
REMARK SMILES IDX 4 1 5 2 6 3 7 4 22 5 21 6 20 7 19 8 8 9 9 10 10 11 11 12
REMARK SMILES IDX 17 13 16 14 15 15 13 16 12 17 18 18 23 19 2 20 1 21 3 22
REMARK SMILES IDX 14 23
REMARK H PARENT 14 24
REMARK Flexibility Score: inf
ROOT
ATOM      1  C   UNL     1     -26.741 -14.257  21.946  1.00  0.00     0.062 C 
ATOM      2  C   UNL     1     -25.752 -15.354  22.425  1.00  0.00     0.012 C 
ATOM      3  C   UNL     1     -26.545 -16.676  22.455  1.00  0.00     0.005 C 
ATOM      4  C   UNL     1     -27.900 -16.295  21.874  1.00  0.00    -0.001 C 
ATOM      5  C   UNL     1     -28.142 -14.833  22.294  1.00  0.00    -0.020 C 
ATOM      6  C   UNL     1     -29.312 -14.286  21.444  1.00  0.00     0.008 C 
ATOM      7  C   UNL     1     -30.569 -15.196  21.534  1.00  0.00     0.005 C 
ATOM      8  C   UNL     1     -30.286 -16.686  21.147  1.00  0.00     0.003 C 
ATOM      9  C   UNL     1     -29.098 -17.265  21.968  1.00  0.00     0.000 C 
ATOM     10  C   UNL     1     -29.545 -17.641  23.384  1.00  0.00     0.031 C 
ATOM     11  C   UNL     1     -30.664 -18.628  23.326  1.00  0.00    -0.027 C 
ATOM     12  C   UNL     1     -31.607 -18.608  22.362  1.00  0.00    -0.065 C 
ATOM     13  C   UNL     1     -31.539 -17.674  21.135  1.00  0.00    -0.008 C 
ATOM     14  C   UNL     1     -31.408 -18.599  19.880  1.00  0.00     0.014 C 
ATOM     15  C   UNL     1     -32.434 -19.750  19.822  1.00  0.00     0.033 C 
ATOM     16  C   UNL     1     -32.428 -20.602  21.101  1.00  0.00     0.118 C 
ATOM     17  C   UNL     1     -32.635 -19.723  22.344  1.00  0.00     0.063 C 
ATOM     18  C   UNL     1     -32.872 -16.884  21.030  1.00  0.00     0.016 C 
ATOM     19  C   UNL     1     -28.437 -14.618  23.815  1.00  0.00     0.012 C 
ENDROOT
BRANCH   1  20
ATOM     20  C   UNL     1     -26.442 -12.863  22.472  1.00  0.00     0.133 C 
ATOM     21  C   UNL     1     -25.363 -12.649  23.490  1.00  0.00     0.088 C 
ATOM     22  O   UNL     1     -27.054 -11.893  22.049  1.00  0.00    -0.300 OA
ENDBRANCH   1  20
BRANCH  16  23
ATOM     23  O   UNL     1     -31.213 -21.299  21.194  1.00  0.00    -0.393 OA
ATOM     24  H   UNL     1     -30.677 -20.850  21.899  1.00  0.00     0.210 HD
ENDBRANCH  16  23
TORSDOF 2
ENDMDL
MODEL 5
REMARK VINA RESULT:    -5.322      2.766      4.353
REMARK INTER + INTRA:          -5.951
REMARK INTER:                  -5.752
REMARK INTRA:                  -0.199
REMARK UNBOUND:                -0.162
REMARK SMILES CC(=O)[C@H]1CC[C@H]2[C@H]3CC=C4C[C@H](O)CC[C@]4(C)[C@H]3CC[C@]12C
REMARK SMILES IDX 4 1 5 2 6 3 7 4 22 5 21 6 20 7 19 8 8 9 9 10 10 11 11 12
REMARK SMILES IDX 17 13 16 14 15 15 13 16 12 17 18 18 23 19 2 20 1 21 3 22
REMARK SMILES IDX 14 23
REMARK H PARENT 14 24
REMARK Flexibility Score: inf
ROOT
ATOM      1  C   UNL     1     -32.218 -17.184  20.256  1.00  0.00     0.062 C 
ATOM      2  C   UNL     1     -33.697 -16.757  20.052  1.00  0.00     0.012 C 
ATOM      3  C   UNL     1     -34.125 -16.030  21.343  1.00  0.00     0.005 C 
ATOM      4  C   UNL     1     -32.842 -15.966  22.160  1.00  0.00    -0.001 C 
ATOM      5  C   UNL     1     -32.049 -17.236  21.799  1.00  0.00    -0.020 C 
ATOM      6  C   UNL     1     -30.602 -17.050  22.313  1.00  0.00     0.008 C 
ATOM      7  C   UNL     1     -30.566 -16.679  23.823  1.00  0.00     0.005 C 
ATOM      8  C   UNL     1     -31.418 -15.411  24.170  1.00  0.00     0.003 C 
ATOM      9  C   UNL     1     -32.877 -15.553  23.649  1.00  0.00     0.000 C 
ATOM     10  C   UNL     1     -33.703 -16.453  24.574  1.00  0.00     0.031 C 
ATOM     11  C   UNL     1     -33.700 -15.904  25.962  1.00  0.00    -0.027 C 
ATOM     12  C   UNL     1     -32.634 -15.274  26.498  1.00  0.00    -0.065 C 
ATOM     13  C   UNL     1     -31.373 -14.912  25.685  1.00  0.00    -0.008 C 
ATOM     14  C   UNL     1     -31.288 -13.349  25.671  1.00  0.00     0.014 C 
ATOM     15  C   UNL     1     -31.436 -12.687  27.058  1.00  0.00     0.033 C 
ATOM     16  C   UNL     1     -32.716 -13.134  27.783  1.00  0.00     0.118 C 
ATOM     17  C   UNL     1     -32.783 -14.666  27.879  1.00  0.00     0.063 C 
ATOM     18  C   UNL     1     -30.124 -15.469  26.420  1.00  0.00     0.016 C 
ATOM     19  C   UNL     1     -32.647 -18.573  22.350  1.00  0.00     0.012 C 
ENDROOT
BRANCH   1  20
ATOM     20  C   UNL     1     -31.810 -18.435  19.496  1.00  0.00     0.133 C 
ATOM     21  C   UNL     1     -32.850 -19.334  18.898  1.00  0.00     0.088 C 
ATOM     22  O   UNL     1     -30.630 -18.710  19.334  1.00  0.00    -0.300 OA
ENDBRANCH   1  20
BRANCH  16  23
ATOM     23  O   UNL     1     -33.839 -12.639  27.102  1.00  0.00    -0.393 OA
ATOM     24  H   UNL     1     -34.639 -13.000  27.565  1.00  0.00     0.210 HD
ENDBRANCH  16  23
TORSDOF 2
ENDMDL
MODEL 6
REMARK VINA RESULT:    -5.322      2.842      7.239
REMARK INTER + INTRA:          -5.951
REMARK INTER:                  -5.817
REMARK INTRA:                  -0.134
REMARK UNBOUND:                -0.162
REMARK SMILES CC(=O)[C@H]1CC[C@H]2[C@H]3CC=C4C[C@H](O)CC[C@]4(C)[C@H]3CC[C@]12C
REMARK SMILES IDX 4 1 5 2 6 3 7 4 22 5 21 6 20 7 19 8 8 9 9 10 10 11 11 12
REMARK SMILES IDX 17 13 16 14 15 15 13 16 12 17 18 18 23 19 2 20 1 21 3 22
REMARK SMILES IDX 14 23
REMARK H PARENT 14 24
REMARK Flexibility Score: inf
ROOT
ATOM      1  C   UNL     1     -32.084 -13.869  26.206  1.00  0.00     0.062 C 
ATOM      2  C   UNL     1     -30.833 -14.576  26.794  1.00  0.00     0.012 C 
ATOM      3  C   UNL     1     -30.409 -15.643  25.765  1.00  0.00     0.005 C 
ATOM      4  C   UNL     1     -31.352 -15.407  24.594  1.00  0.00    -0.001 C 
ATOM      5  C   UNL     1     -32.672 -14.906  25.211  1.00  0.00    -0.020 C 
ATOM      6  C   UNL     1     -33.531 -14.315  24.069  1.00  0.00     0.008 C 
ATOM      7  C   UNL     1     -33.711 -15.321  22.898  1.00  0.00     0.005 C 
ATOM      8  C   UNL     1     -32.356 -15.850  22.320  1.00  0.00     0.003 C 
ATOM      9  C   UNL     1     -31.453 -16.434  23.444  1.00  0.00     0.000 C 
ATOM     10  C   UNL     1     -31.917 -17.839  23.842  1.00  0.00     0.031 C 
ATOM     11  C   UNL     1     -31.908 -18.740  22.652  1.00  0.00    -0.027 C 
ATOM     12  C   UNL     1     -32.215 -18.314  21.409  1.00  0.00    -0.065 C 
ATOM     13  C   UNL     1     -32.446 -16.827  21.061  1.00  0.00    -0.008 C 
ATOM     14  C   UNL     1     -31.313 -16.425  20.060  1.00  0.00     0.014 C 
ATOM     15  C   UNL     1     -31.130 -17.396  18.875  1.00  0.00     0.033 C 
ATOM     16  C   UNL     1     -30.927 -18.848  19.338  1.00  0.00     0.118 C 
ATOM     17  C   UNL     1     -32.071 -19.293  20.261  1.00  0.00     0.063 C 
ATOM     18  C   UNL     1     -33.815 -16.686  20.342  1.00  0.00     0.016 C 
ATOM     19  C   UNL     1     -33.490 -15.984  25.996  1.00  0.00     0.012 C 
ENDROOT
BRANCH   1  20
ATOM     20  C   UNL     1     -33.046 -13.318  27.245  1.00  0.00     0.133 C 
ATOM     21  C   UNL     1     -34.095 -12.319  26.858  1.00  0.00     0.088 C 
ATOM     22  O   UNL     1     -33.000 -13.705  28.404  1.00  0.00    -0.300 OA
ENDBRANCH   1  20
BRANCH  16  23
ATOM     23  O   UNL     1     -29.694 -18.961  20.000  1.00  0.00    -0.393 OA
ATOM     24  H   UNL     1     -29.694 -18.283  20.726  1.00  0.00     0.210 HD
ENDBRANCH  16  23
TORSDOF 2
ENDMDL
MODEL 7
REMARK VINA RESULT:    -5.297      2.201      7.050
REMARK INTER + INTRA:          -5.923
REMARK INTER:                  -5.805
REMARK INTRA:                  -0.118
REMARK UNBOUND:                -0.162
REMARK SMILES CC(=O)[C@H]1CC[C@H]2[C@H]3CC=C4C[C@H](O)CC[C@]4(C)[C@H]3CC[C@]12C
REMARK SMILES IDX 4 1 5 2 6 3 7 4 22 5 21 6 20 7 19 8 8 9 9 10 10 11 11 12
REMARK SMILES IDX 17 13 16 14 15 15 13 16 12 17 18 18 23 19 2 20 1 21 3 22
REMARK SMILES IDX 14 23
REMARK H PARENT 14 24
REMARK Flexibility Score: inf
ROOT
ATOM      1  C   UNL     1     -31.295 -16.694  27.191  1.00  0.00     0.062 C 
ATOM      2  C   UNL     1     -32.613 -15.874  27.201  1.00  0.00     0.012 C 
ATOM      3  C   UNL     1     -33.130 -15.857  25.748  1.00  0.00     0.005 C 
ATOM      4  C   UNL     1     -32.158 -16.768  25.012  1.00  0.00    -0.001 C 
ATOM      5  C   UNL     1     -30.801 -16.597  25.721  1.00  0.00    -0.020 C 
ATOM      6  C   UNL     1     -29.879 -17.748  25.257  1.00  0.00     0.008 C 
ATOM      7  C   UNL     1     -29.786 -17.828  23.707  1.00  0.00     0.005 C 
ATOM      8  C   UNL     1     -31.181 -17.954  23.008  1.00  0.00     0.003 C 
ATOM      9  C   UNL     1     -32.146 -16.823  23.468  1.00  0.00     0.000 C 
ATOM     10  C   UNL     1     -31.825 -15.506  22.754  1.00  0.00     0.031 C 
ATOM     11  C   UNL     1     -31.910 -15.689  21.275  1.00  0.00    -0.027 C 
ATOM     12  C   UNL     1     -31.552 -16.834  20.657  1.00  0.00    -0.065 C 
ATOM     13  C   UNL     1     -31.175 -18.121  21.421  1.00  0.00    -0.008 C 
ATOM     14  C   UNL     1     -32.255 -19.191  21.048  1.00  0.00     0.014 C 
ATOM     15  C   UNL     1     -32.521 -19.333  19.534  1.00  0.00     0.033 C 
ATOM     16  C   UNL     1     -32.868 -17.988  18.875  1.00  0.00     0.118 C 
ATOM     17  C   UNL     1     -31.780 -16.941  19.162  1.00  0.00     0.063 C 
ATOM     18  C   UNL     1     -29.793 -18.618  20.917  1.00  0.00     0.016 C 
ATOM     19  C   UNL     1     -30.099 -15.219  25.491  1.00  0.00     0.012 C 
ENDROOT
BRANCH   1  20
ATOM     20  C   UNL     1     -30.293 -16.292  28.261  1.00  0.00     0.133 C 
ATOM     21  C   UNL     1     -29.236 -17.255  28.713  1.00  0.00     0.088 C 
ATOM     22  O   UNL     1     -30.314 -15.171  28.745  1.00  0.00    -0.300 OA
ENDBRANCH   1  20
BRANCH  16  23
ATOM     23  O   UNL     1     -34.111 -17.540  19.349  1.00  0.00    -0.393 OA
ATOM     24  H   UNL     1     -34.715 -17.481  18.563  1.00  0.00     0.210 HD
ENDBRANCH  16  23
TORSDOF 2
ENDMDL
MODEL 8
REMARK VINA RESULT:    -5.262      3.073      4.794
REMARK INTER + INTRA:          -5.886
REMARK INTER:                  -5.678
REMARK INTRA:                  -0.208
REMARK UNBOUND:                -0.162
REMARK SMILES CC(=O)[C@H]1CC[C@H]2[C@H]3CC=C4C[C@H](O)CC[C@]4(C)[C@H]3CC[C@]12C
REMARK SMILES IDX 4 1 5 2 6 3 7 4 22 5 21 6 20 7 19 8 8 9 9 10 10 11 11 12
REMARK SMILES IDX 17 13 16 14 15 15 13 16 12 17 18 18 23 19 2 20 1 21 3 22
REMARK SMILES IDX 14 23
REMARK H PARENT 14 24
REMARK Flexibility Score: inf
ROOT
ATOM      1  C   UNL     1     -30.478 -18.984  21.273  1.00  0.00     0.062 C 
ATOM      2  C   UNL     1     -29.791 -18.824  19.890  1.00  0.00     0.012 C 
ATOM      3  C   UNL     1     -28.693 -17.756  20.066  1.00  0.00     0.005 C 
ATOM      4  C   UNL     1     -28.721 -17.456  21.558  1.00  0.00    -0.001 C 
ATOM      5  C   UNL     1     -30.187 -17.640  21.996  1.00  0.00    -0.020 C 
ATOM      6  C   UNL     1     -30.212 -17.702  23.542  1.00  0.00     0.008 C 
ATOM      7  C   UNL     1     -29.500 -16.477  24.182  1.00  0.00     0.005 C 
ATOM      8  C   UNL     1     -28.028 -16.285  23.685  1.00  0.00     0.003 C 
ATOM      9  C   UNL     1     -27.960 -16.240  22.131  1.00  0.00     0.000 C 
ATOM     10  C   UNL     1     -28.395 -14.869  21.605  1.00  0.00     0.031 C 
ATOM     11  C   UNL     1     -27.538 -13.796  22.191  1.00  0.00    -0.027 C 
ATOM     12  C   UNL     1     -27.053 -13.853  23.449  1.00  0.00    -0.065 C 
ATOM     13  C   UNL     1     -27.195 -15.098  24.352  1.00  0.00    -0.008 C 
ATOM     14  C   UNL     1     -25.745 -15.621  24.618  1.00  0.00     0.014 C 
ATOM     15  C   UNL     1     -24.748 -14.537  25.079  1.00  0.00     0.033 C 
ATOM     16  C   UNL     1     -24.703 -13.339  24.117  1.00  0.00     0.118 C 
ATOM     17  C   UNL     1     -26.108 -12.757  23.902  1.00  0.00     0.063 C 
ATOM     18  C   UNL     1     -27.823 -14.668  25.705  1.00  0.00     0.016 C 
ATOM     19  C   UNL     1     -31.177 -16.542  21.486  1.00  0.00     0.012 C 
ENDROOT
BRANCH   1  20
ATOM     20  C   UNL     1     -31.936 -19.408  21.210  1.00  0.00     0.133 C 
ATOM     21  C   UNL     1     -32.646 -19.496  19.893  1.00  0.00     0.088 C 
ATOM     22  O   UNL     1     -32.541 -19.712  22.228  1.00  0.00    -0.300 OA
ENDBRANCH   1  20
BRANCH  16  23
ATOM     23  O   UNL     1     -24.149 -13.742  22.892  1.00  0.00    -0.393 OA
ATOM     24  H   UNL     1     -24.907 -13.891  22.268  1.00  0.00     0.210 HD
ENDBRANCH  16  23
TORSDOF 2
ENDMDL
MODEL 9
REMARK VINA RESULT:    -5.206      3.592      5.229
REMARK INTER + INTRA:          -5.824
REMARK INTER:                  -5.691
REMARK INTRA:                  -0.133
REMARK UNBOUND:                -0.162
REMARK SMILES CC(=O)[C@H]1CC[C@H]2[C@H]3CC=C4C[C@H](O)CC[C@]4(C)[C@H]3CC[C@]12C
REMARK SMILES IDX 4 1 5 2 6 3 7 4 22 5 21 6 20 7 19 8 8 9 9 10 10 11 11 12
REMARK SMILES IDX 17 13 16 14 15 15 13 16 12 17 18 18 23 19 2 20 1 21 3 22
REMARK SMILES IDX 14 23
REMARK H PARENT 14 24
REMARK Flexibility Score: inf
ROOT
ATOM      1  C   UNL     1     -32.386 -17.727  20.825  1.00  0.00     0.062 C 
ATOM      2  C   UNL     1     -31.935 -19.104  21.383  1.00  0.00     0.012 C 
ATOM      3  C   UNL     1     -30.541 -18.888  22.006  1.00  0.00     0.005 C 
ATOM      4  C   UNL     1     -30.323 -17.386  21.888  1.00  0.00    -0.001 C 
ATOM      5  C   UNL     1     -31.057 -16.955  20.603  1.00  0.00    -0.020 C 
ATOM      6  C   UNL     1     -31.176 -15.413  20.625  1.00  0.00     0.008 C 
ATOM      7  C   UNL     1     -29.796 -14.728  20.836  1.00  0.00     0.005 C 
ATOM      8  C   UNL     1     -29.052 -15.218  22.124  1.00  0.00     0.003 C 
ATOM      9  C   UNL     1     -28.931 -16.769  22.149  1.00  0.00     0.000 C 
ATOM     10  C   UNL     1     -27.805 -17.245  21.226  1.00  0.00     0.031 C 
ATOM     11  C   UNL     1     -26.511 -16.619  21.629  1.00  0.00    -0.027 C 
ATOM     12  C   UNL     1     -26.425 -15.364  22.117  1.00  0.00    -0.065 C 
ATOM     13  C   UNL     1     -27.663 -14.508  22.462  1.00  0.00    -0.008 C 
ATOM     14  C   UNL     1     -27.615 -14.261  24.006  1.00  0.00     0.014 C 
ATOM     15  C   UNL     1     -26.253 -13.760  24.533  1.00  0.00     0.033 C 
ATOM     16  C   UNL     1     -25.093 -14.678  24.114  1.00  0.00     0.118 C 
ATOM     17  C   UNL     1     -25.072 -14.872  22.591  1.00  0.00     0.063 C 
ATOM     18  C   UNL     1     -27.544 -13.139  21.738  1.00  0.00     0.016 C 
ATOM     19  C   UNL     1     -30.391 -17.424  19.268  1.00  0.00     0.012 C 
ENDROOT
BRANCH   1  20
ATOM     20  C   UNL     1     -33.322 -17.805  19.630  1.00  0.00     0.133 C 
ATOM     21  C   UNL     1     -34.124 -16.610  19.213  1.00  0.00     0.088 C 
ATOM     22  O   UNL     1     -33.410 -18.832  18.974  1.00  0.00    -0.300 OA
ENDBRANCH   1  20
BRANCH  16  23
ATOM     23  O   UNL     1     -25.218 -15.917  24.762  1.00  0.00    -0.393 OA
ATOM     24  H   UNL     1     -24.698 -15.856  25.605  1.00  0.00     0.210 HD
ENDBRANCH  16  23
TORSDOF 2
ENDMDL
