MODEL 1
REMARK VINA RESULT:    -4.445      0.000      0.000
REMARK INTER + INTRA:         -10.099
REMARK INTER:                  -8.084
REMARK INTRA:                  -2.015
REMARK UNBOUND:                -2.015
REMARK SMILES CCCCCCCCCCCCCCCC(=O)[O-]
REMARK SMILES IDX 9 1 10 2 11 3 12 4 13 5 14 6 15 7 16 8 17 9 18 10 8 11 7 12
REMARK SMILES IDX 6 13 5 14 4 15 3 16 2 17 1 18
REMARK H PARENT
REMARK Flexibility Score: inf
ROOT
ATOM      1  C   UNL     1      44.607  60.706   8.940  1.00  0.00     0.000 C 
ENDROOT
BRANCH   1   2
ATOM      2  C   UNL     1      43.074  60.596   8.922  1.00  0.00     0.000 C 
BRANCH   2   3
ATOM      3  C   UNL     1      42.426  61.528   7.884  1.00  0.00     0.000 C 
BRANCH   3   4
ATOM      4  C   UNL     1      43.430  62.512   7.265  1.00  0.00     0.000 C 
BRANCH   4   5
ATOM      5  C   UNL     1      42.749  63.631   6.462  1.00  0.00     0.000 C 
BRANCH   5   6
ATOM      6  C   UNL     1      43.756  64.728   6.086  1.00  0.00     0.006 C 
BRANCH   6   7
ATOM      7  C   UNL     1      43.092  66.105   5.951  1.00  0.00     0.053 C 
BRANCH   7   8
ATOM      8  C   UNL     1      42.871  66.749   7.286  1.00  0.00     0.041 C 
ATOM      9  O   UNL     1      41.749  67.246   7.571  1.00  0.00    -0.550 OA
ATOM     10  O   UNL     1      43.912  66.830   8.202  1.00  0.00    -0.550 OA
ENDBRANCH   7   8
ENDBRANCH   6   7
ENDBRANCH   5   6
ENDBRANCH   4   5
ENDBRANCH   3   4
ENDBRANCH   2   3
ENDBRANCH   1   2
BRANCH   1  11
ATOM     11  C   UNL     1      45.184  60.761  10.366  1.00  0.00     0.000 C 
BRANCH  11  12
ATOM     12  C   UNL     1      44.150  60.332  11.429  1.00  0.00    -0.000 C 
BRANCH  12  13
ATOM     13  C   UNL     1      44.578  60.664  12.870  1.00  0.00    -0.000 C 
BRANCH  13  14
ATOM     14  C   UNL     1      44.762  62.172  13.105  1.00  0.00    -0.000 C 
BRANCH  14  15
ATOM     15  C   UNL     1      43.502  62.981  12.764  1.00  0.00    -0.000 C 
BRANCH  15  16
ATOM     16  C   UNL     1      43.771  64.086  11.730  1.00  0.00    -0.000 C 
BRANCH  16  17
ATOM     17  C   UNL     1      42.724  64.055  10.611  1.00  0.00    -0.003 C 
ATOM     18  C   UNL     1      41.488  63.263  11.034  1.00  0.00     0.004 C 
ENDBRANCH  16  17
ENDBRANCH  15  16
ENDBRANCH  14  15
ENDBRANCH  13  14
ENDBRANCH  12  13
ENDBRANCH  11  12
ENDBRANCH   1  11
TORSDOF 14
ENDMDL
MODEL 2
REMARK VINA RESULT:    -4.350      0.969      2.785
REMARK INTER + INTRA:          -9.926
REMARK INTER:                  -7.736
REMARK INTRA:                  -2.189
REMARK UNBOUND:                -2.015
REMARK SMILES CCCCCCCCCCCCCCCC(=O)[O-]
REMARK SMILES IDX 9 1 10 2 11 3 12 4 13 5 14 6 15 7 16 8 17 9 18 10 8 11 7 12
REMARK SMILES IDX 6 13 5 14 4 15 3 16 2 17 1 18
REMARK H PARENT
REMARK Flexibility Score: inf
ROOT
ATOM      1  C   UNL     1      42.959  63.677  10.739  1.00  0.00     0.000 C 
ENDROOT
BRANCH   1   2
ATOM      2  C   UNL     1      41.570  63.148  10.349  1.00  0.00     0.000 C 
BRANCH   2   3
ATOM      3  C   UNL     1      41.483  62.749   8.866  1.00  0.00     0.000 C 
BRANCH   3   4
ATOM      4  C   UNL     1      42.864  62.646   8.201  1.00  0.00     0.000 C 
BRANCH   4   5
ATOM      5  C   UNL     1      42.829  62.985   6.702  1.00  0.00     0.000 C 
BRANCH   5   6
ATOM      6  C   UNL     1      43.487  64.346   6.432  1.00  0.00     0.006 C 
BRANCH   6   7
ATOM      7  C   UNL     1      42.480  65.502   6.501  1.00  0.00     0.053 C 
BRANCH   7   8
ATOM      8  C   UNL     1      42.564  66.235   7.804  1.00  0.00     0.041 C 
ATOM      9  O   UNL     1      41.554  66.312   8.555  1.00  0.00    -0.550 OA
ATOM     10  O   UNL     1      43.746  66.863   8.177  1.00  0.00    -0.550 OA
ENDBRANCH   7   8
ENDBRANCH   6   7
ENDBRANCH   5   6
ENDBRANCH   4   5
ENDBRANCH   3   4
ENDBRANCH   2   3
ENDBRANCH   1   2
BRANCH   1  11
ATOM     11  C   UNL     1      43.203  63.650  12.259  1.00  0.00     0.000 C 
BRANCH  11  12
ATOM     12  C   UNL     1      44.595  63.086  12.615  1.00  0.00    -0.000 C 
BRANCH  12  13
ATOM     13  C   UNL     1      44.545  61.915  13.612  1.00  0.00    -0.000 C 
BRANCH  13  14
ATOM     14  C   UNL     1      44.576  60.542  12.921  1.00  0.00    -0.000 C 
BRANCH  14  15
ATOM     15  C   UNL     1      43.213  60.145  12.333  1.00  0.00    -0.000 C 
BRANCH  15  16
ATOM     16  C   UNL     1      43.273  59.898  10.818  1.00  0.00    -0.000 C 
BRANCH  16  17
ATOM     17  C   UNL     1      44.668  60.215  10.267  1.00  0.00    -0.003 C 
ATOM     18  C   UNL     1      44.872  59.588   8.889  1.00  0.00     0.004 C 
ENDBRANCH  16  17
ENDBRANCH  15  16
ENDBRANCH  14  15
ENDBRANCH  13  14
ENDBRANCH  12  13
ENDBRANCH  11  12
ENDBRANCH   1  11
TORSDOF 14
ENDMDL
MODEL 3
REMARK VINA RESULT:    -4.341      1.197      1.922
REMARK INTER + INTRA:          -9.909
REMARK INTER:                  -7.720
REMARK INTRA:                  -2.188
REMARK UNBOUND:                -2.015
REMARK SMILES CCCCCCCCCCCCCCCC(=O)[O-]
REMARK SMILES IDX 9 1 10 2 11 3 12 4 13 5 14 6 15 7 16 8 17 9 18 10 8 11 7 12
REMARK SMILES IDX 6 13 5 14 4 15 3 16 2 17 1 18
REMARK H PARENT
REMARK Flexibility Score: inf
ROOT
ATOM      1  C   UNL     1      43.120  59.894  10.761  1.00  0.00     0.000 C 
ENDROOT
BRANCH   1   2
ATOM      2  C   UNL     1      44.546  59.993  10.196  1.00  0.00     0.000 C 
BRANCH   2   3
ATOM      3  C   UNL     1      44.606  60.783   8.877  1.00  0.00     0.000 C 
BRANCH   3   4
ATOM      4  C   UNL     1      43.368  61.666   8.661  1.00  0.00     0.000 C 
BRANCH   4   5
ATOM      5  C   UNL     1      43.460  62.518   7.385  1.00  0.00     0.000 C 
BRANCH   5   6
ATOM      6  C   UNL     1      42.547  63.750   7.481  1.00  0.00     0.006 C 
BRANCH   6   7
ATOM      7  C   UNL     1      42.457  64.511   6.151  1.00  0.00     0.053 C 
BRANCH   7   8
ATOM      8  C   UNL     1      43.202  65.809   6.202  1.00  0.00     0.041 C 
ATOM      9  O   UNL     1      43.514  66.403   5.136  1.00  0.00    -0.550 OA
ATOM     10  O   UNL     1      43.580  66.349   7.425  1.00  0.00    -0.550 OA
ENDBRANCH   7   8
ENDBRANCH   6   7
ENDBRANCH   5   6
ENDBRANCH   4   5
ENDBRANCH   3   4
ENDBRANCH   2   3
ENDBRANCH   1   2
BRANCH   1  11
ATOM     11  C   UNL     1      43.095  59.755  12.294  1.00  0.00     0.000 C 
BRANCH  11  12
ATOM     12  C   UNL     1      44.381  60.301  12.949  1.00  0.00    -0.000 C 
BRANCH  12  13
ATOM     13  C   UNL     1      44.225  61.723  13.517  1.00  0.00    -0.000 C 
BRANCH  13  14
ATOM     14  C   UNL     1      44.856  62.797  12.616  1.00  0.00    -0.000 C 
BRANCH  14  15
ATOM     15  C   UNL     1      43.805  63.668  11.910  1.00  0.00    -0.000 C 
BRANCH  15  16
ATOM     16  C   UNL     1      42.396  63.484  12.494  1.00  0.00    -0.000 C 
BRANCH  16  17
ATOM     17  C   UNL     1      41.384  63.160  11.390  1.00  0.00    -0.003 C 
ATOM     18  C   UNL     1      40.269  62.256  11.911  1.00  0.00     0.004 C 
ENDBRANCH  16  17
ENDBRANCH  15  16
ENDBRANCH  14  15
ENDBRANCH  13  14
ENDBRANCH  12  13
ENDBRANCH  11  12
ENDBRANCH   1  11
TORSDOF 14
ENDMDL
MODEL 4
REMARK VINA RESULT:    -4.234      1.272      3.381
REMARK INTER + INTRA:          -9.714
REMARK INTER:                  -7.813
REMARK INTRA:                  -1.901
REMARK UNBOUND:                -2.015
REMARK SMILES CCCCCCCCCCCCCCCC(=O)[O-]
REMARK SMILES IDX 9 1 10 2 11 3 12 4 13 5 14 6 15 7 16 8 17 9 18 10 8 11 7 12
REMARK SMILES IDX 6 13 5 14 4 15 3 16 2 17 1 18
REMARK H PARENT
REMARK Flexibility Score: inf
ROOT
ATOM      1  C   UNL     1      42.078  63.351  12.861  1.00  0.00     0.000 C 
ENDROOT
BRANCH   1   2
ATOM      2  C   UNL     1      40.902  62.977  11.945  1.00  0.00     0.000 C 
BRANCH   2   3
ATOM      3  C   UNL     1      41.329  62.085  10.767  1.00  0.00     0.000 C 
BRANCH   3   4
ATOM      4  C   UNL     1      40.854  62.630   9.411  1.00  0.00     0.000 C 
BRANCH   4   5
ATOM      5  C   UNL     1      40.749  64.163   9.391  1.00  0.00     0.000 C 
BRANCH   5   6
ATOM      6  C   UNL     1      42.105  64.802   9.055  1.00  0.00     0.006 C 
BRANCH   6   7
ATOM      7  C   UNL     1      42.126  65.409   7.645  1.00  0.00     0.053 C 
BRANCH   7   8
ATOM      8  C   UNL     1      42.789  66.752   7.629  1.00  0.00     0.041 C 
ATOM      9  O   UNL     1      43.955  66.890   8.088  1.00  0.00    -0.550 OA
ATOM     10  O   UNL     1      42.110  67.860   7.138  1.00  0.00    -0.550 OA
ENDBRANCH   7   8
ENDBRANCH   6   7
ENDBRANCH   5   6
ENDBRANCH   4   5
ENDBRANCH   3   4
ENDBRANCH   2   3
ENDBRANCH   1   2
BRANCH   1  11
ATOM     11  C   UNL     1      43.357  63.699  12.077  1.00  0.00     0.000 C 
BRANCH  11  12
ATOM     12  C   UNL     1      44.585  62.919  12.593  1.00  0.00    -0.000 C 
BRANCH  12  13
ATOM     13  C   UNL     1      44.219  61.673  13.419  1.00  0.00    -0.000 C 
BRANCH  13  14
ATOM     14  C   UNL     1      44.256  60.378  12.592  1.00  0.00    -0.000 C 
BRANCH  14  15
ATOM     15  C   UNL     1      45.060  60.530  11.291  1.00  0.00    -0.000 C 
BRANCH  15  16
ATOM     16  C   UNL     1      44.309  59.983  10.067  1.00  0.00    -0.000 C 
BRANCH  16  17
ATOM     17  C   UNL     1      44.889  60.557   8.769  1.00  0.00    -0.003 C 
ATOM     18  C   UNL     1      43.882  61.467   8.070  1.00  0.00     0.004 C 
ENDBRANCH  16  17
ENDBRANCH  15  16
ENDBRANCH  14  15
ENDBRANCH  13  14
ENDBRANCH  12  13
ENDBRANCH  11  12
ENDBRANCH   1  11
TORSDOF 14
ENDMDL
MODEL 5
REMARK VINA RESULT:    -4.219      2.543      5.544
REMARK INTER + INTRA:          -9.687
REMARK INTER:                  -8.175
REMARK INTRA:                  -1.512
REMARK UNBOUND:                -2.015
REMARK SMILES CCCCCCCCCCCCCCCC(=O)[O-]
REMARK SMILES IDX 9 1 10 2 11 3 12 4 13 5 14 6 15 7 16 8 17 9 18 10 8 11 7 12
REMARK SMILES IDX 6 13 5 14 4 15 3 16 2 17 1 18
REMARK H PARENT
REMARK Flexibility Score: inf
ROOT
ATOM      1  C   UNL     1      45.397  60.790  10.769  1.00  0.00     0.000 C 
ENDROOT
BRANCH   1   2
ATOM      2  C   UNL     1      44.655  60.407  12.059  1.00  0.00     0.000 C 
BRANCH   2   3
ATOM      3  C   UNL     1      44.637  61.547  13.092  1.00  0.00     0.000 C 
BRANCH   3   4
ATOM      4  C   UNL     1      44.645  62.937  12.438  1.00  0.00     0.000 C 
BRANCH   4   5
ATOM      5  C   UNL     1      43.247  63.573  12.378  1.00  0.00     0.000 C 
BRANCH   5   6
ATOM      6  C   UNL     1      42.191  62.635  12.981  1.00  0.00     0.006 C 
BRANCH   6   7
ATOM      7  C   UNL     1      40.904  63.378  13.363  1.00  0.00     0.053 C 
BRANCH   7   8
ATOM      8  C   UNL     1      39.771  63.037  12.446  1.00  0.00     0.041 C 
ATOM      9  O   UNL     1      39.947  63.022  11.198  1.00  0.00    -0.550 OA
ATOM     10  O   UNL     1      38.510  62.766  12.964  1.00  0.00    -0.550 OA
ENDBRANCH   7   8
ENDBRANCH   6   7
ENDBRANCH   5   6
ENDBRANCH   4   5
ENDBRANCH   3   4
ENDBRANCH   2   3
ENDBRANCH   1   2
BRANCH   1  11
ATOM     11  C   UNL     1      44.559  60.541   9.502  1.00  0.00     0.000 C 
BRANCH  11  12
ATOM     12  C   UNL     1      43.104  61.031   9.661  1.00  0.00    -0.000 C 
BRANCH  12  13
ATOM     13  C   UNL     1      42.786  62.289   8.834  1.00  0.00    -0.000 C 
BRANCH  13  14
ATOM     14  C   UNL     1      43.177  62.145   7.355  1.00  0.00    -0.000 C 
BRANCH  14  15
ATOM     15  C   UNL     1      42.875  63.410   6.537  1.00  0.00    -0.000 C 
BRANCH  15  16
ATOM     16  C   UNL     1      42.472  64.601   7.419  1.00  0.00    -0.000 C 
BRANCH  16  17
ATOM     17  C   UNL     1      43.062  65.908   6.877  1.00  0.00    -0.003 C 
ATOM     18  C   UNL     1      43.690  66.735   7.997  1.00  0.00     0.004 C 
ENDBRANCH  16  17
ENDBRANCH  15  16
ENDBRANCH  14  15
ENDBRANCH  13  14
ENDBRANCH  12  13
ENDBRANCH  11  12
ENDBRANCH   1  11
TORSDOF 14
ENDMDL
MODEL 6
REMARK VINA RESULT:    -4.209      3.063      6.756
REMARK INTER + INTRA:          -9.668
REMARK INTER:                  -7.877
REMARK INTRA:                  -1.791
REMARK UNBOUND:                -2.015
REMARK SMILES CCCCCCCCCCCCCCCC(=O)[O-]
REMARK SMILES IDX 9 1 10 2 11 3 12 4 13 5 14 6 15 7 16 8 17 9 18 10 8 11 7 12
REMARK SMILES IDX 6 13 5 14 4 15 3 16 2 17 1 18
REMARK H PARENT
REMARK Flexibility Score: inf
ROOT
ATOM      1  C   UNL     1      42.128  62.932  10.110  1.00  0.00     0.000 C 
ENDROOT
BRANCH   1   2
ATOM      2  C   UNL     1      41.423  62.901  11.475  1.00  0.00     0.000 C 
BRANCH   2   3
ATOM      3  C   UNL     1      42.333  63.374  12.622  1.00  0.00     0.000 C 
BRANCH   3   4
ATOM      4  C   UNL     1      43.747  63.734  12.144  1.00  0.00     0.000 C 
BRANCH   4   5
ATOM      5  C   UNL     1      44.828  62.820  12.741  1.00  0.00     0.000 C 
BRANCH   5   6
ATOM      6  C   UNL     1      44.203  61.761  13.662  1.00  0.00     0.006 C 
BRANCH   6   7
ATOM      7  C   UNL     1      44.490  60.332  13.181  1.00  0.00     0.053 C 
BRANCH   7   8
ATOM      8  C   UNL     1      43.502  59.883  12.149  1.00  0.00     0.041 C 
ATOM      9  O   UNL     1      43.779  59.976  10.923  1.00  0.00    -0.550 OA
ATOM     10  O   UNL     1      42.260  59.394  12.537  1.00  0.00    -0.550 OA
ENDBRANCH   7   8
ENDBRANCH   6   7
ENDBRANCH   5   6
ENDBRANCH   4   5
ENDBRANCH   3   4
ENDBRANCH   2   3
ENDBRANCH   1   2
BRANCH   1  11
ATOM     11  C   UNL     1      41.422  63.848   9.094  1.00  0.00     0.000 C 
BRANCH  11  12
ATOM     12  C   UNL     1      41.950  65.297   9.152  1.00  0.00    -0.000 C 
BRANCH  12  13
ATOM     13  C   UNL     1      41.012  66.319   8.483  1.00  0.00    -0.000 C 
BRANCH  13  14
ATOM     14  C   UNL     1      41.714  67.150   7.397  1.00  0.00    -0.000 C 
BRANCH  14  15
ATOM     15  C   UNL     1      43.184  66.748   7.203  1.00  0.00    -0.000 C 
BRANCH  15  16
ATOM     16  C   UNL     1      43.438  66.077   5.844  1.00  0.00    -0.000 C 
BRANCH  16  17
ATOM     17  C   UNL     1      43.648  64.568   6.010  1.00  0.00    -0.003 C 
ATOM     18  C   UNL     1      42.446  63.783   5.490  1.00  0.00     0.004 C 
ENDBRANCH  16  17
ENDBRANCH  15  16
ENDBRANCH  14  15
ENDBRANCH  13  14
ENDBRANCH  12  13
ENDBRANCH  11  12
ENDBRANCH   1  11
TORSDOF 14
ENDMDL
MODEL 7
REMARK VINA RESULT:    -4.176      1.454      2.451
REMARK INTER + INTRA:          -9.609
REMARK INTER:                  -7.155
REMARK INTRA:                  -2.454
REMARK UNBOUND:                -2.015
REMARK SMILES CCCCCCCCCCCCCCCC(=O)[O-]
REMARK SMILES IDX 9 1 10 2 11 3 12 4 13 5 14 6 15 7 16 8 17 9 18 10 8 11 7 12
REMARK SMILES IDX 6 13 5 14 4 15 3 16 2 17 1 18
REMARK H PARENT
REMARK Flexibility Score: inf
ROOT
ATOM      1  C   UNL     1      44.625  61.110   9.276  1.00  0.00     0.000 C 
ENDROOT
BRANCH   1   2
ATOM      2  C   UNL     1      43.507  61.314   8.240  1.00  0.00     0.000 C 
BRANCH   2   3
ATOM      3  C   UNL     1      42.924  62.738   8.272  1.00  0.00     0.000 C 
BRANCH   3   4
ATOM      4  C   UNL     1      41.408  62.749   8.521  1.00  0.00     0.000 C 
BRANCH   4   5
ATOM      5  C   UNL     1      40.959  63.926   9.402  1.00  0.00     0.000 C 
BRANCH   5   6
ATOM      6  C   UNL     1      41.901  65.128   9.233  1.00  0.00     0.006 C 
BRANCH   6   7
ATOM      7  C   UNL     1      41.293  66.221   8.343  1.00  0.00     0.053 C 
BRANCH   7   8
ATOM      8  C   UNL     1      42.342  66.940   7.552  1.00  0.00     0.041 C 
ATOM      9  O   UNL     1      43.470  66.411   7.366  1.00  0.00    -0.550 OA
ATOM     10  O   UNL     1      42.087  68.210   7.048  1.00  0.00    -0.550 OA
ENDBRANCH   7   8
ENDBRANCH   6   7
ENDBRANCH   5   6
ENDBRANCH   4   5
ENDBRANCH   3   4
ENDBRANCH   2   3
ENDBRANCH   1   2
BRANCH   1  11
ATOM     11  C   UNL     1      44.362  59.915  10.209  1.00  0.00     0.000 C 
BRANCH  11  12
ATOM     12  C   UNL     1      42.855  59.623  10.370  1.00  0.00    -0.000 C 
BRANCH  12  13
ATOM     13  C   UNL     1      42.327  59.882  11.792  1.00  0.00    -0.000 C 
BRANCH  13  14
ATOM     14  C   UNL     1      41.659  61.258  11.938  1.00  0.00    -0.000 C 
BRANCH  14  15
ATOM     15  C   UNL     1      42.382  62.163  12.948  1.00  0.00    -0.000 C 
BRANCH  15  16
ATOM     16  C   UNL     1      43.143  63.314  12.270  1.00  0.00    -0.000 C 
BRANCH  16  17
ATOM     17  C   UNL     1      44.655  63.162  12.471  1.00  0.00    -0.003 C 
ATOM     18  C   UNL     1      44.973  62.010  13.421  1.00  0.00     0.004 C 
ENDBRANCH  16  17
ENDBRANCH  15  16
ENDBRANCH  14  15
ENDBRANCH  13  14
ENDBRANCH  12  13
ENDBRANCH  11  12
ENDBRANCH   1  11
TORSDOF 14
ENDMDL
MODEL 8
REMARK VINA RESULT:    -4.149      1.622      2.429
REMARK INTER + INTRA:          -9.560
REMARK INTER:                  -7.580
REMARK INTRA:                  -1.980
REMARK UNBOUND:                -2.015
REMARK SMILES CCCCCCCCCCCCCCCC(=O)[O-]
REMARK SMILES IDX 9 1 10 2 11 3 12 4 13 5 14 6 15 7 16 8 17 9 18 10 8 11 7 12
REMARK SMILES IDX 6 13 5 14 4 15 3 16 2 17 1 18
REMARK H PARENT
REMARK Flexibility Score: inf
ROOT
ATOM      1  C   UNL     1      43.445  62.099   7.739  1.00  0.00     0.000 C 
ENDROOT
BRANCH   1   2
ATOM      2  C   UNL     1      42.088  62.778   7.494  1.00  0.00     0.000 C 
BRANCH   2   3
ATOM      3  C   UNL     1      41.419  63.250   8.796  1.00  0.00     0.000 C 
BRANCH   3   4
ATOM      4  C   UNL     1      41.208  64.771   8.834  1.00  0.00     0.000 C 
BRANCH   4   5
ATOM      5  C   UNL     1      42.528  65.551   8.952  1.00  0.00     0.000 C 
BRANCH   5   6
ATOM      6  C   UNL     1      42.621  66.636   7.868  1.00  0.00     0.006 C 
BRANCH   6   7
ATOM      7  C   UNL     1      43.579  66.243   6.735  1.00  0.00     0.053 C 
BRANCH   7   8
ATOM      8  C   UNL     1      42.840  65.774   5.520  1.00  0.00     0.041 C 
ATOM      9  O   UNL     1      41.589  65.901   5.450  1.00  0.00    -0.550 OA
ATOM     10  O   UNL     1      43.527  65.165   4.477  1.00  0.00    -0.550 OA
ENDBRANCH   7   8
ENDBRANCH   6   7
ENDBRANCH   5   6
ENDBRANCH   4   5
ENDBRANCH   3   4
ENDBRANCH   2   3
ENDBRANCH   1   2
BRANCH   1  11
ATOM     11  C   UNL     1      43.513  61.374   9.095  1.00  0.00     0.000 C 
BRANCH  11  12
ATOM     12  C   UNL     1      44.891  60.724   9.339  1.00  0.00    -0.000 C 
BRANCH  12  13
ATOM     13  C   UNL     1      45.349  60.790  10.808  1.00  0.00    -0.000 C 
BRANCH  13  14
ATOM     14  C   UNL     1      44.204  60.528  11.800  1.00  0.00    -0.000 C 
BRANCH  14  15
ATOM     15  C   UNL     1      44.169  61.553  12.945  1.00  0.00    -0.000 C 
BRANCH  15  16
ATOM     16  C   UNL     1      44.689  62.934  12.516  1.00  0.00    -0.000 C 
BRANCH  16  17
ATOM     17  C   UNL     1      43.560  63.784  11.923  1.00  0.00    -0.003 C 
ATOM     18  C   UNL     1      42.223  63.469  12.591  1.00  0.00     0.004 C 
ENDBRANCH  16  17
ENDBRANCH  15  16
ENDBRANCH  14  15
ENDBRANCH  13  14
ENDBRANCH  12  13
ENDBRANCH  11  12
ENDBRANCH   1  11
TORSDOF 14
ENDMDL
MODEL 9
REMARK VINA RESULT:    -4.130      1.528      3.194
REMARK INTER + INTRA:          -9.525
REMARK INTER:                  -7.185
REMARK INTRA:                  -2.340
REMARK UNBOUND:                -2.015
REMARK SMILES CCCCCCCCCCCCCCCC(=O)[O-]
REMARK SMILES IDX 9 1 10 2 11 3 12 4 13 5 14 6 15 7 16 8 17 9 18 10 8 11 7 12
REMARK SMILES IDX 6 13 5 14 4 15 3 16 2 17 1 18
REMARK H PARENT
REMARK Flexibility Score: inf
ROOT
ATOM      1  C   UNL     1      44.618  60.823  12.214  1.00  0.00     0.000 C 
ENDROOT
BRANCH   1   2
ATOM      2  C   UNL     1      45.290  61.084  10.857  1.00  0.00     0.000 C 
BRANCH   2   3
ATOM      3  C   UNL     1      45.025  59.961   9.839  1.00  0.00     0.000 C 
BRANCH   3   4
ATOM      4  C   UNL     1      43.912  60.319   8.842  1.00  0.00     0.000 C 
BRANCH   4   5
ATOM      5  C   UNL     1      43.716  61.836   8.690  1.00  0.00     0.000 C 
BRANCH   5   6
ATOM      6  C   UNL     1      42.696  62.148   7.584  1.00  0.00     0.006 C 
BRANCH   6   7
ATOM      7  C   UNL     1      43.228  63.176   6.577  1.00  0.00     0.053 C 
BRANCH   7   8
ATOM      8  C   UNL     1      42.666  64.542   6.827  1.00  0.00     0.041 C 
ATOM      9  O   UNL     1      43.434  65.536   6.923  1.00  0.00    -0.550 OA
ATOM     10  O   UNL     1      41.297  64.714   6.987  1.00  0.00    -0.550 OA
ENDBRANCH   7   8
ENDBRANCH   6   7
ENDBRANCH   5   6
ENDBRANCH   4   5
ENDBRANCH   3   4
ENDBRANCH   2   3
ENDBRANCH   1   2
BRANCH   1  11
ATOM     11  C   UNL     1      44.509  62.092  13.079  1.00  0.00     0.000 C 
BRANCH  11  12
ATOM     12  C   UNL     1      44.377  63.370  12.224  1.00  0.00    -0.000 C 
BRANCH  12  13
ATOM     13  C   UNL     1      42.920  63.737  11.890  1.00  0.00    -0.000 C 
BRANCH  13  14
ATOM     14  C   UNL     1      41.924  63.250  12.954  1.00  0.00    -0.000 C 
BRANCH  14  15
ATOM     15  C   UNL     1      40.700  62.550  12.343  1.00  0.00    -0.000 C 
BRANCH  15  16
ATOM     16  C   UNL     1      40.909  62.178  10.867  1.00  0.00    -0.000 C 
BRANCH  16  17
ATOM     17  C   UNL     1      40.500  60.724  10.606  1.00  0.00    -0.003 C 
ATOM     18  C   UNL     1      41.294  59.762  11.486  1.00  0.00     0.004 C 
ENDBRANCH  16  17
ENDBRANCH  15  16
ENDBRANCH  14  15
ENDBRANCH  13  14
ENDBRANCH  12  13
ENDBRANCH  11  12
ENDBRANCH   1  11
TORSDOF 14
ENDMDL
