MODEL 1
REMARK VINA RESULT:    -0.728      0.000      0.000
REMARK INTER + INTRA:          -6.213
REMARK INTER:                  -1.580
REMARK INTRA:                  -4.633
REMARK UNBOUND:                -4.633
REMARK SMILES CCCCCCCCCCCCCCCCCCCCCC(=O)[O-]
REMARK SMILES IDX 12 1 11 2 10 3 9 4 8 5 7 6 6 7 5 8 4 9 3 10 2 11 1 12 13 13
REMARK SMILES IDX 14 14 15 15 16 16 17 17 18 18 19 19 20 20 21 21 22 22 23 23
REMARK SMILES IDX 24 24
REMARK H PARENT
REMARK Flexibility Score: inf
ROOT
ATOM      1  C   UNL     1     -14.528 -23.224  81.795  1.00  0.00     0.000 C 
ENDROOT
BRANCH   1   2
ATOM      2  C   UNL     1     -13.280 -24.121  81.844  1.00  0.00     0.000 C 
BRANCH   2   3
ATOM      3  C   UNL     1     -13.615 -25.587  82.174  1.00  0.00     0.000 C 
BRANCH   3   4
ATOM      4  C   UNL     1     -13.889 -26.427  80.917  1.00  0.00    -0.000 C 
BRANCH   4   5
ATOM      5  C   UNL     1     -15.010 -27.460  81.134  1.00  0.00    -0.000 C 
BRANCH   5   6
ATOM      6  C   UNL     1     -16.403 -26.815  81.191  1.00  0.00    -0.000 C 
BRANCH   6   7
ATOM      7  C   UNL     1     -16.864 -26.272  79.827  1.00  0.00    -0.000 C 
BRANCH   7   8
ATOM      8  C   UNL     1     -17.270 -24.784  79.893  1.00  0.00    -0.000 C 
BRANCH   8   9
ATOM      9  C   UNL     1     -16.601 -23.908  78.816  1.00  0.00    -0.000 C 
BRANCH   9  10
ATOM     10  C   UNL     1     -15.415 -24.565  78.085  1.00  0.00    -0.000 C 
BRANCH  10  11
ATOM     11  C   UNL     1     -14.081 -23.806  78.203  1.00  0.00    -0.003 C 
ATOM     12  C   UNL     1     -12.876 -24.649  77.788  1.00  0.00     0.004 C 
ENDBRANCH  10  11
ENDBRANCH   9  10
ENDBRANCH   8   9
ENDBRANCH   7   8
ENDBRANCH   6   7
ENDBRANCH   5   6
ENDBRANCH   4   5
ENDBRANCH   3   4
ENDBRANCH   2   3
ENDBRANCH   1   2
BRANCH   1  13
ATOM     13  C   UNL     1     -14.317 -21.886  82.525  1.00  0.00     0.000 C 
BRANCH  13  14
ATOM     14  C   UNL     1     -13.297 -21.988  83.670  1.00  0.00     0.000 C 
BRANCH  14  15
ATOM     15  C   UNL     1     -13.957 -22.303  85.024  1.00  0.00     0.000 C 
BRANCH  15  16
ATOM     16  C   UNL     1     -13.351 -23.546  85.698  1.00  0.00     0.000 C 
BRANCH  16  17
ATOM     17  C   UNL     1     -14.309 -24.751  85.685  1.00  0.00     0.000 C 
BRANCH  17  18
ATOM     18  C   UNL     1     -15.783 -24.333  85.566  1.00  0.00     0.000 C 
BRANCH  18  19
ATOM     19  C   UNL     1     -16.536 -25.135  84.488  1.00  0.00     0.000 C 
BRANCH  19  20
ATOM     20  C   UNL     1     -17.435 -24.247  83.613  1.00  0.00     0.006 C 
BRANCH  20  21
ATOM     21  C   UNL     1     -17.591 -22.826  84.172  1.00  0.00     0.053 C 
BRANCH  21  22
ATOM     22  C   UNL     1     -18.320 -21.959  83.196  1.00  0.00     0.041 C 
ATOM     23  O   UNL     1     -19.256 -21.213  83.585  1.00  0.00    -0.550 OA
ATOM     24  O   UNL     1     -17.935 -21.940  81.861  1.00  0.00    -0.550 OA
ENDBRANCH  21  22
ENDBRANCH  20  21
ENDBRANCH  19  20
ENDBRANCH  18  19
ENDBRANCH  17  18
ENDBRANCH  16  17
ENDBRANCH  15  16
ENDBRANCH  14  15
ENDBRANCH  13  14
ENDBRANCH   1  13
TORSDOF 20
ENDMDL
MODEL 2
REMARK VINA RESULT:    -0.591      3.091      6.162
REMARK INTER + INTRA:          -5.916
REMARK INTER:                  -1.468
REMARK INTRA:                  -4.448
REMARK UNBOUND:                -4.633
REMARK SMILES CCCCCCCCCCCCCCCCCCCCCC(=O)[O-]
REMARK SMILES IDX 12 1 11 2 10 3 9 4 8 5 7 6 6 7 5 8 4 9 3 10 2 11 1 12 13 13
REMARK SMILES IDX 14 14 15 15 16 16 17 17 18 18 19 19 20 20 21 21 22 22 23 23
REMARK SMILES IDX 24 24
REMARK H PARENT
REMARK Flexibility Score: inf
ROOT
ATOM      1  C   UNL     1     -17.381 -21.222  79.969  1.00  0.00     0.000 C 
ENDROOT
BRANCH   1   2
ATOM      2  C   UNL     1     -16.832 -22.428  80.747  1.00  0.00     0.000 C 
BRANCH   2   3
ATOM      3  C   UNL     1     -16.374 -22.060  82.170  1.00  0.00     0.000 C 
BRANCH   3   4
ATOM      4  C   UNL     1     -16.845 -23.076  83.222  1.00  0.00    -0.000 C 
BRANCH   4   5
ATOM      5  C   UNL     1     -16.910 -24.510  82.668  1.00  0.00    -0.000 C 
BRANCH   5   6
ATOM      6  C   UNL     1     -15.607 -25.292  82.901  1.00  0.00    -0.000 C 
BRANCH   6   7
ATOM      7  C   UNL     1     -14.728 -25.371  81.640  1.00  0.00    -0.000 C 
BRANCH   7   8
ATOM      8  C   UNL     1     -13.311 -24.805  81.875  1.00  0.00    -0.000 C 
BRANCH   8   9
ATOM      9  C   UNL     1     -13.084 -24.268  83.302  1.00  0.00    -0.000 C 
BRANCH   9  10
ATOM     10  C   UNL     1     -12.875 -22.745  83.399  1.00  0.00    -0.000 C 
BRANCH  10  11
ATOM     11  C   UNL     1     -13.529 -22.080  84.624  1.00  0.00    -0.003 C 
ATOM     12  C   UNL     1     -14.042 -23.092  85.649  1.00  0.00     0.004 C 
ENDBRANCH  10  11
ENDBRANCH   9  10
ENDBRANCH   8   9
ENDBRANCH   7   8
ENDBRANCH   6   7
ENDBRANCH   5   6
ENDBRANCH   4   5
ENDBRANCH   3   4
ENDBRANCH   2   3
ENDBRANCH   1   2
BRANCH   1  13
ATOM     13  C   UNL     1     -17.244 -19.905  80.755  1.00  0.00     0.000 C 
BRANCH  13  14
ATOM     14  C   UNL     1     -16.214 -18.948  80.132  1.00  0.00     0.000 C 
BRANCH  14  15
ATOM     15  C   UNL     1     -15.679 -19.451  78.781  1.00  0.00     0.000 C 
BRANCH  15  16
ATOM     16  C   UNL     1     -14.142 -19.498  78.737  1.00  0.00     0.000 C 
BRANCH  16  17
ATOM     17  C   UNL     1     -13.528 -19.976  80.065  1.00  0.00     0.000 C 
BRANCH  17  18
ATOM     18  C   UNL     1     -13.338 -21.500  80.113  1.00  0.00     0.000 C 
BRANCH  18  19
ATOM     19  C   UNL     1     -13.029 -22.099  78.730  1.00  0.00     0.000 C 
BRANCH  19  20
ATOM     20  C   UNL     1     -13.766 -23.426  78.482  1.00  0.00     0.006 C 
BRANCH  20  21
ATOM     21  C   UNL     1     -15.054 -23.245  77.668  1.00  0.00     0.053 C 
BRANCH  21  22
ATOM     22  C   UNL     1     -14.742 -22.686  76.317  1.00  0.00     0.041 C 
ATOM     23  O   UNL     1     -13.974 -23.306  75.535  1.00  0.00    -0.550 OA
ATOM     24  O   UNL     1     -15.337 -21.501  75.900  1.00  0.00    -0.550 OA
ENDBRANCH  21  22
ENDBRANCH  20  21
ENDBRANCH  19  20
ENDBRANCH  18  19
ENDBRANCH  17  18
ENDBRANCH  16  17
ENDBRANCH  15  16
ENDBRANCH  14  15
ENDBRANCH  13  14
ENDBRANCH   1  13
TORSDOF 20
ENDMDL
MODEL 3
REMARK VINA RESULT:    -0.590      2.560      6.575
REMARK INTER + INTRA:          -5.912
REMARK INTER:                  -1.622
REMARK INTRA:                  -4.291
REMARK UNBOUND:                -4.633
REMARK SMILES CCCCCCCCCCCCCCCCCCCCCC(=O)[O-]
REMARK SMILES IDX 12 1 11 2 10 3 9 4 8 5 7 6 6 7 5 8 4 9 3 10 2 11 1 12 13 13
REMARK SMILES IDX 14 14 15 15 16 16 17 17 18 18 19 19 20 20 21 21 22 22 23 23
REMARK SMILES IDX 24 24
REMARK H PARENT
REMARK Flexibility Score: inf
ROOT
ATOM      1  C   UNL     1     -18.482 -21.901  81.068  1.00  0.00     0.000 C 
ENDROOT
BRANCH   1   2
ATOM      2  C   UNL     1     -17.121 -21.428  81.606  1.00  0.00     0.000 C 
BRANCH   2   3
ATOM      3  C   UNL     1     -16.011 -22.478  81.420  1.00  0.00     0.000 C 
BRANCH   3   4
ATOM      4  C   UNL     1     -14.678 -22.046  82.051  1.00  0.00    -0.000 C 
BRANCH   4   5
ATOM      5  C   UNL     1     -13.783 -23.245  82.412  1.00  0.00    -0.000 C 
BRANCH   5   6
ATOM      6  C   UNL     1     -12.961 -23.004  83.687  1.00  0.00    -0.000 C 
BRANCH   6   7
ATOM      7  C   UNL     1     -13.663 -22.060  84.678  1.00  0.00    -0.000 C 
BRANCH   7   8
ATOM      8  C   UNL     1     -14.435 -22.825  85.774  1.00  0.00    -0.000 C 
BRANCH   8   9
ATOM      9  C   UNL     1     -15.858 -22.289  86.023  1.00  0.00    -0.000 C 
BRANCH   9  10
ATOM     10  C   UNL     1     -16.937 -22.835  85.069  1.00  0.00    -0.000 C 
BRANCH  10  11
ATOM     11  C   UNL     1     -16.716 -24.287  84.606  1.00  0.00    -0.003 C 
ATOM     12  C   UNL     1     -17.858 -24.816  83.739  1.00  0.00     0.004 C 
ENDBRANCH  10  11
ENDBRANCH   9  10
ENDBRANCH   8   9
ENDBRANCH   7   8
ENDBRANCH   6   7
ENDBRANCH   5   6
ENDBRANCH   4   5
ENDBRANCH   3   4
ENDBRANCH   2   3
ENDBRANCH   1   2
BRANCH   1  13
ATOM     13  C   UNL     1     -18.395 -23.273  80.377  1.00  0.00     0.000 C 
BRANCH  13  14
ATOM     14  C   UNL     1     -19.048 -23.279  78.986  1.00  0.00     0.000 C 
BRANCH  14  15
ATOM     15  C   UNL     1     -18.068 -23.689  77.873  1.00  0.00     0.000 C 
BRANCH  15  16
ATOM     16  C   UNL     1     -16.801 -24.363  78.425  1.00  0.00     0.000 C 
BRANCH  16  17
ATOM     17  C   UNL     1     -15.509 -23.680  77.940  1.00  0.00     0.000 C 
BRANCH  17  18
ATOM     18  C   UNL     1     -15.757 -22.264  77.398  1.00  0.00     0.000 C 
BRANCH  18  19
ATOM     19  C   UNL     1     -14.949 -21.195  78.155  1.00  0.00     0.000 C 
BRANCH  19  20
ATOM     20  C   UNL     1     -15.783 -19.946  78.484  1.00  0.00     0.006 C 
BRANCH  20  21
ATOM     21  C   UNL     1     -17.252 -20.088  78.063  1.00  0.00     0.053 C 
BRANCH  21  22
ATOM     22  C   UNL     1     -18.033 -18.885  78.488  1.00  0.00     0.041 C 
ATOM     23  O   UNL     1     -18.770 -18.283  77.663  1.00  0.00    -0.550 OA
ATOM     24  O   UNL     1     -17.986 -18.457  79.808  1.00  0.00    -0.550 OA
ENDBRANCH  21  22
ENDBRANCH  20  21
ENDBRANCH  19  20
ENDBRANCH  18  19
ENDBRANCH  17  18
ENDBRANCH  16  17
ENDBRANCH  15  16
ENDBRANCH  14  15
ENDBRANCH  13  14
ENDBRANCH   1  13
TORSDOF 20
ENDMDL
MODEL 4
REMARK VINA RESULT:    -0.568      1.920      5.299
REMARK INTER + INTRA:          -5.866
REMARK INTER:                  -1.611
REMARK INTRA:                  -4.254
REMARK UNBOUND:                -4.633
REMARK SMILES CCCCCCCCCCCCCCCCCCCCCC(=O)[O-]
REMARK SMILES IDX 12 1 11 2 10 3 9 4 8 5 7 6 6 7 5 8 4 9 3 10 2 11 1 12 13 13
REMARK SMILES IDX 14 14 15 15 16 16 17 17 18 18 19 19 20 20 21 21 22 22 23 23
REMARK SMILES IDX 24 24
REMARK H PARENT
REMARK Flexibility Score: inf
ROOT
ATOM      1  C   UNL     1     -15.952 -26.388  81.287  1.00  0.00     0.000 C 
ENDROOT
BRANCH   1   2
ATOM      2  C   UNL     1     -15.224 -26.226  82.631  1.00  0.00     0.000 C 
BRANCH   2   3
ATOM      3  C   UNL     1     -13.744 -26.644  82.560  1.00  0.00     0.000 C 
BRANCH   3   4
ATOM      4  C   UNL     1     -12.882 -25.947  83.625  1.00  0.00    -0.000 C 
BRANCH   4   5
ATOM      5  C   UNL     1     -13.088 -26.543  85.029  1.00  0.00    -0.000 C 
BRANCH   5   6
ATOM      6  C   UNL     1     -13.391 -25.470  86.086  1.00  0.00    -0.000 C 
BRANCH   6   7
ATOM      7  C   UNL     1     -13.020 -24.052  85.618  1.00  0.00    -0.000 C 
BRANCH   7   8
ATOM      8  C   UNL     1     -14.160 -23.038  85.851  1.00  0.00    -0.000 C 
BRANCH   8   9
ATOM      9  C   UNL     1     -15.568 -23.623  85.628  1.00  0.00    -0.000 C 
BRANCH   9  10
ATOM     10  C   UNL     1     -16.519 -22.737  84.801  1.00  0.00    -0.000 C 
BRANCH  10  11
ATOM     11  C   UNL     1     -17.251 -23.465  83.659  1.00  0.00    -0.003 C 
ATOM     12  C   UNL     1     -17.469 -22.580  82.432  1.00  0.00     0.004 C 
ENDBRANCH  10  11
ENDBRANCH   9  10
ENDBRANCH   8   9
ENDBRANCH   7   8
ENDBRANCH   6   7
ENDBRANCH   5   6
ENDBRANCH   4   5
ENDBRANCH   3   4
ENDBRANCH   2   3
ENDBRANCH   1   2
BRANCH   1  13
ATOM     13  C   UNL     1     -15.128 -25.848  80.104  1.00  0.00     0.000 C 
BRANCH  13  14
ATOM     14  C   UNL     1     -14.984 -24.318  80.132  1.00  0.00     0.000 C 
BRANCH  14  15
ATOM     15  C   UNL     1     -13.568 -23.850  79.752  1.00  0.00     0.000 C 
BRANCH  15  16
ATOM     16  C   UNL     1     -12.876 -23.084  80.892  1.00  0.00     0.000 C 
BRANCH  16  17
ATOM     17  C   UNL     1     -13.815 -22.825  82.084  1.00  0.00     0.000 C 
BRANCH  17  18
ATOM     18  C   UNL     1     -13.894 -21.337  82.462  1.00  0.00     0.000 C 
BRANCH  18  19
ATOM     19  C   UNL     1     -13.738 -20.412  81.242  1.00  0.00     0.000 C 
BRANCH  19  20
ATOM     20  C   UNL     1     -15.083 -20.084  80.573  1.00  0.00     0.006 C 
BRANCH  20  21
ATOM     21  C   UNL     1     -15.201 -20.672  79.161  1.00  0.00     0.053 C 
BRANCH  21  22
ATOM     22  C   UNL     1     -16.604 -21.118  78.898  1.00  0.00     0.041 C 
ATOM     23  O   UNL     1     -17.566 -20.576  79.504  1.00  0.00    -0.550 OA
ATOM     24  O   UNL     1     -16.854 -22.100  77.949  1.00  0.00    -0.550 OA
ENDBRANCH  21  22
ENDBRANCH  20  21
ENDBRANCH  19  20
ENDBRANCH  18  19
ENDBRANCH  17  18
ENDBRANCH  16  17
ENDBRANCH  15  16
ENDBRANCH  14  15
ENDBRANCH  13  14
ENDBRANCH   1  13
TORSDOF 20
ENDMDL
MODEL 5
REMARK VINA RESULT:    -0.550      2.227      4.737
REMARK INTER + INTRA:          -5.827
REMARK INTER:                  -1.419
REMARK INTRA:                  -4.408
REMARK UNBOUND:                -4.633
REMARK SMILES CCCCCCCCCCCCCCCCCCCCCC(=O)[O-]
REMARK SMILES IDX 12 1 11 2 10 3 9 4 8 5 7 6 6 7 5 8 4 9 3 10 2 11 1 12 13 13
REMARK SMILES IDX 14 14 15 15 16 16 17 17 18 18 19 19 20 20 21 21 22 22 23 23
REMARK SMILES IDX 24 24
REMARK H PARENT
REMARK Flexibility Score: inf
ROOT
ATOM      1  C   UNL     1     -14.110 -24.090  85.196  1.00  0.00     0.000 C 
ENDROOT
BRANCH   1   2
ATOM      2  C   UNL     1     -14.303 -22.579  85.399  1.00  0.00     0.000 C 
BRANCH   2   3
ATOM      3  C   UNL     1     -13.609 -21.740  84.311  1.00  0.00     0.000 C 
BRANCH   3   4
ATOM      4  C   UNL     1     -13.595 -22.442  82.944  1.00  0.00    -0.000 C 
BRANCH   4   5
ATOM      5  C   UNL     1     -14.820 -22.079  82.085  1.00  0.00    -0.000 C 
BRANCH   5   6
ATOM      6  C   UNL     1     -15.335 -23.269  81.260  1.00  0.00    -0.000 C 
BRANCH   6   7
ATOM      7  C   UNL     1     -14.488 -24.539  81.455  1.00  0.00    -0.000 C 
BRANCH   7   8
ATOM      8  C   UNL     1     -15.353 -25.787  81.731  1.00  0.00    -0.000 C 
BRANCH   8   9
ATOM      9  C   UNL     1     -16.490 -25.994  80.711  1.00  0.00    -0.000 C 
BRANCH   9  10
ATOM     10  C   UNL     1     -17.899 -26.112  81.321  1.00  0.00    -0.000 C 
BRANCH  10  11
ATOM     11  C   UNL     1     -18.153 -27.406  82.117  1.00  0.00    -0.003 C 
ATOM     12  C   UNL     1     -18.377 -27.153  83.608  1.00  0.00     0.004 C 
ENDBRANCH  10  11
ENDBRANCH   9  10
ENDBRANCH   8   9
ENDBRANCH   7   8
ENDBRANCH   6   7
ENDBRANCH   5   6
ENDBRANCH   4   5
ENDBRANCH   3   4
ENDBRANCH   2   3
ENDBRANCH   1   2
BRANCH   1  13
ATOM     13  C   UNL     1     -15.446 -24.852  85.152  1.00  0.00     0.000 C 
BRANCH  13  14
ATOM     14  C   UNL     1     -16.656 -23.944  85.423  1.00  0.00     0.000 C 
BRANCH  14  15
ATOM     15  C   UNL     1     -17.487 -23.671  84.158  1.00  0.00     0.000 C 
BRANCH  15  16
ATOM     16  C   UNL     1     -18.124 -22.271  84.164  1.00  0.00     0.000 C 
BRANCH  16  17
ATOM     17  C   UNL     1     -18.465 -21.771  82.748  1.00  0.00     0.000 C 
BRANCH  17  18
ATOM     18  C   UNL     1     -19.200 -22.827  81.909  1.00  0.00     0.000 C 
BRANCH  18  19
ATOM     19  C   UNL     1     -20.649 -23.049  82.379  1.00  0.00     0.000 C 
BRANCH  19  20
ATOM     20  C   UNL     1     -20.927 -24.511  82.766  1.00  0.00     0.006 C 
BRANCH  20  21
ATOM     21  C   UNL     1     -21.852 -24.636  83.983  1.00  0.00     0.053 C 
BRANCH  21  22
ATOM     22  C   UNL     1     -21.123 -24.259  85.233  1.00  0.00     0.041 C 
ATOM     23  O   UNL     1     -20.270 -25.041  85.731  1.00  0.00    -0.550 OA
ATOM     24  O   UNL     1     -21.349 -23.022  85.824  1.00  0.00    -0.550 OA
ENDBRANCH  21  22
ENDBRANCH  20  21
ENDBRANCH  19  20
ENDBRANCH  18  19
ENDBRANCH  17  18
ENDBRANCH  16  17
ENDBRANCH  15  16
ENDBRANCH  14  15
ENDBRANCH  13  14
ENDBRANCH   1  13
TORSDOF 20
ENDMDL
MODEL 6
REMARK VINA RESULT:    -0.527      9.261     12.171
REMARK INTER + INTRA:          -5.777
REMARK INTER:                  -1.091
REMARK INTRA:                  -4.687
REMARK UNBOUND:                -4.633
REMARK SMILES CCCCCCCCCCCCCCCCCCCCCC(=O)[O-]
REMARK SMILES IDX 12 1 11 2 10 3 9 4 8 5 7 6 6 7 5 8 4 9 3 10 2 11 1 12 13 13
REMARK SMILES IDX 14 14 15 15 16 16 17 17 18 18 19 19 20 20 21 21 22 22 23 23
REMARK SMILES IDX 24 24
REMARK H PARENT
REMARK Flexibility Score: inf
ROOT
ATOM      1  C   UNL     1     -18.160 -12.056  82.394  1.00  0.00     0.000 C 
ENDROOT
BRANCH   1   2
ATOM      2  C   UNL     1     -16.923 -11.247  81.972  1.00  0.00     0.000 C 
BRANCH   2   3
ATOM      3  C   UNL     1     -16.417 -11.624  80.567  1.00  0.00     0.000 C 
BRANCH   3   4
ATOM      4  C   UNL     1     -14.922 -11.979  80.554  1.00  0.00    -0.000 C 
BRANCH   4   5
ATOM      5  C   UNL     1     -14.348 -12.158  81.971  1.00  0.00    -0.000 C 
BRANCH   5   6
ATOM      6  C   UNL     1     -13.657 -13.517  82.161  1.00  0.00    -0.000 C 
BRANCH   6   7
ATOM      7  C   UNL     1     -14.208 -14.301  83.365  1.00  0.00    -0.000 C 
BRANCH   7   8
ATOM      8  C   UNL     1     -15.063 -13.419  84.300  1.00  0.00    -0.000 C 
BRANCH   8   9
ATOM      9  C   UNL     1     -15.996 -14.220  85.229  1.00  0.00    -0.000 C 
BRANCH   9  10
ATOM     10  C   UNL     1     -17.306 -13.504  85.610  1.00  0.00    -0.000 C 
BRANCH  10  11
ATOM     11  C   UNL     1     -18.584 -14.333  85.385  1.00  0.00    -0.003 C 
ATOM     12  C   UNL     1     -18.325 -15.839  85.383  1.00  0.00     0.004 C 
ENDBRANCH  10  11
ENDBRANCH   9  10
ENDBRANCH   8   9
ENDBRANCH   7   8
ENDBRANCH   6   7
ENDBRANCH   5   6
ENDBRANCH   4   5
ENDBRANCH   3   4
ENDBRANCH   2   3
ENDBRANCH   1   2
BRANCH   1  13
ATOM     13  C   UNL     1     -18.714 -12.922  81.249  1.00  0.00     0.000 C 
BRANCH  13  14
ATOM     14  C   UNL     1     -18.815 -14.409  81.625  1.00  0.00     0.000 C 
BRANCH  14  15
ATOM     15  C   UNL     1     -17.439 -15.054  81.865  1.00  0.00     0.000 C 
BRANCH  15  16
ATOM     16  C   UNL     1     -17.010 -15.972  80.709  1.00  0.00     0.000 C 
BRANCH  16  17
ATOM     17  C   UNL     1     -15.903 -15.349  79.839  1.00  0.00     0.000 C 
BRANCH  17  18
ATOM     18  C   UNL     1     -16.431 -14.822  78.496  1.00  0.00     0.000 C 
BRANCH  18  19
ATOM     19  C   UNL     1     -17.812 -15.400  78.140  1.00  0.00     0.000 C 
BRANCH  19  20
ATOM     20  C   UNL     1     -18.816 -14.315  77.718  1.00  0.00     0.006 C 
BRANCH  20  21
ATOM     21  C   UNL     1     -18.163 -12.936  77.550  1.00  0.00     0.053 C 
BRANCH  21  22
ATOM     22  C   UNL     1     -19.181 -11.854  77.716  1.00  0.00     0.041 C 
ATOM     23  O   UNL     1     -20.397 -12.084  77.484  1.00  0.00    -0.550 OA
ATOM     24  O   UNL     1     -18.795 -10.601  78.175  1.00  0.00    -0.550 OA
ENDBRANCH  21  22
ENDBRANCH  20  21
ENDBRANCH  19  20
ENDBRANCH  18  19
ENDBRANCH  17  18
ENDBRANCH  16  17
ENDBRANCH  15  16
ENDBRANCH  14  15
ENDBRANCH  13  14
ENDBRANCH   1  13
TORSDOF 20
ENDMDL
MODEL 7
REMARK VINA RESULT:    -0.521      2.440      5.343
REMARK INTER + INTRA:          -5.764
REMARK INTER:                  -1.543
REMARK INTRA:                  -4.220
REMARK UNBOUND:                -4.633
REMARK SMILES CCCCCCCCCCCCCCCCCCCCCC(=O)[O-]
REMARK SMILES IDX 12 1 11 2 10 3 9 4 8 5 7 6 6 7 5 8 4 9 3 10 2 11 1 12 13 13
REMARK SMILES IDX 14 14 15 15 16 16 17 17 18 18 19 19 20 20 21 21 22 22 23 23
REMARK SMILES IDX 24 24
REMARK H PARENT
REMARK Flexibility Score: inf
ROOT
ATOM      1  C   UNL     1     -17.030 -23.047  81.197  1.00  0.00     0.000 C 
ENDROOT
BRANCH   1   2
ATOM      2  C   UNL     1     -17.218 -22.400  82.578  1.00  0.00     0.000 C 
BRANCH   2   3
ATOM      3  C   UNL     1     -17.218 -23.430  83.722  1.00  0.00     0.000 C 
BRANCH   3   4
ATOM      4  C   UNL     1     -17.086 -24.875  83.214  1.00  0.00    -0.000 C 
BRANCH   4   5
ATOM      5  C   UNL     1     -16.358 -25.786  84.218  1.00  0.00    -0.000 C 
BRANCH   5   6
ATOM      6  C   UNL     1     -14.933 -26.143  83.766  1.00  0.00    -0.000 C 
BRANCH   6   7
ATOM      7  C   UNL     1     -14.669 -25.782  82.293  1.00  0.00    -0.000 C 
BRANCH   7   8
ATOM      8  C   UNL     1     -13.436 -24.870  82.123  1.00  0.00    -0.000 C 
BRANCH   8   9
ATOM      9  C   UNL     1     -13.078 -24.065  83.387  1.00  0.00    -0.000 C 
BRANCH   9  10
ATOM     10  C   UNL     1     -13.533 -22.594  83.373  1.00  0.00    -0.000 C 
BRANCH  10  11
ATOM     11  C   UNL     1     -13.843 -22.000  84.760  1.00  0.00    -0.003 C 
ATOM     12  C   UNL     1     -14.208 -23.063  85.795  1.00  0.00     0.004 C 
ENDBRANCH  10  11
ENDBRANCH   9  10
ENDBRANCH   8   9
ENDBRANCH   7   8
ENDBRANCH   6   7
ENDBRANCH   5   6
ENDBRANCH   4   5
ENDBRANCH   3   4
ENDBRANCH   2   3
ENDBRANCH   1   2
BRANCH   1  13
ATOM     13  C   UNL     1     -15.780 -22.522  80.468  1.00  0.00     0.000 C 
BRANCH  13  14
ATOM     14  C   UNL     1     -16.093 -21.352  79.520  1.00  0.00     0.000 C 
BRANCH  14  15
ATOM     15  C   UNL     1     -15.811 -19.981  80.157  1.00  0.00     0.000 C 
BRANCH  15  16
ATOM     16  C   UNL     1     -16.996 -19.012  80.015  1.00  0.00     0.000 C 
BRANCH  16  17
ATOM     17  C   UNL     1     -17.980 -19.105  81.195  1.00  0.00     0.000 C 
BRANCH  17  18
ATOM     18  C   UNL     1     -19.433 -19.314  80.739  1.00  0.00     0.000 C 
BRANCH  18  19
ATOM     19  C   UNL     1     -19.635 -20.660  80.020  1.00  0.00     0.000 C 
BRANCH  19  20
ATOM     20  C   UNL     1     -20.621 -21.581  80.757  1.00  0.00     0.006 C 
BRANCH  20  21
ATOM     21  C   UNL     1     -20.728 -21.258  82.253  1.00  0.00     0.053 C 
BRANCH  21  22
ATOM     22  C   UNL     1     -20.940 -22.510  83.043  1.00  0.00     0.041 C 
ATOM     23  O   UNL     1     -20.579 -23.623  82.577  1.00  0.00    -0.550 OA
ATOM     24  O   UNL     1     -21.493 -22.444  84.315  1.00  0.00    -0.550 OA
ENDBRANCH  21  22
ENDBRANCH  20  21
ENDBRANCH  19  20
ENDBRANCH  18  19
ENDBRANCH  17  18
ENDBRANCH  16  17
ENDBRANCH  15  16
ENDBRANCH  14  15
ENDBRANCH  13  14
ENDBRANCH   1  13
TORSDOF 20
ENDMDL
MODEL 8
REMARK VINA RESULT:    -0.516      2.290      5.935
REMARK INTER + INTRA:          -5.753
REMARK INTER:                  -1.294
REMARK INTRA:                  -4.459
REMARK UNBOUND:                -4.633
REMARK SMILES CCCCCCCCCCCCCCCCCCCCCC(=O)[O-]
REMARK SMILES IDX 12 1 11 2 10 3 9 4 8 5 7 6 6 7 5 8 4 9 3 10 2 11 1 12 13 13
REMARK SMILES IDX 14 14 15 15 16 16 17 17 18 18 19 19 20 20 21 21 22 22 23 23
REMARK SMILES IDX 24 24
REMARK H PARENT
REMARK Flexibility Score: inf
ROOT
ATOM      1  C   UNL     1     -17.835 -22.533  81.573  1.00  0.00     0.000 C 
ENDROOT
BRANCH   1   2
ATOM      2  C   UNL     1     -16.427 -23.059  81.896  1.00  0.00     0.000 C 
BRANCH   2   3
ATOM      3  C   UNL     1     -15.346 -21.970  81.783  1.00  0.00     0.000 C 
BRANCH   3   4
ATOM      4  C   UNL     1     -13.975 -22.538  81.384  1.00  0.00    -0.000 C 
BRANCH   4   5
ATOM      5  C   UNL     1     -12.963 -22.501  82.543  1.00  0.00    -0.000 C 
BRANCH   5   6
ATOM      6  C   UNL     1     -13.463 -21.673  83.737  1.00  0.00    -0.000 C 
BRANCH   6   7
ATOM      7  C   UNL     1     -13.576 -22.501  85.029  1.00  0.00    -0.000 C 
BRANCH   7   8
ATOM      8  C   UNL     1     -13.534 -24.020  84.760  1.00  0.00    -0.000 C 
BRANCH   8   9
ATOM      9  C   UNL     1     -14.901 -24.716  84.911  1.00  0.00    -0.000 C 
BRANCH   9  10
ATOM     10  C   UNL     1     -15.194 -25.809  83.865  1.00  0.00    -0.000 C 
BRANCH  10  11
ATOM     11  C   UNL     1     -14.083 -26.020  82.821  1.00  0.00    -0.003 C 
ATOM     12  C   UNL     1     -14.625 -26.212  81.405  1.00  0.00     0.004 C 
ENDBRANCH  10  11
ENDBRANCH   9  10
ENDBRANCH   8   9
ENDBRANCH   7   8
ENDBRANCH   6   7
ENDBRANCH   5   6
ENDBRANCH   4   5
ENDBRANCH   3   4
ENDBRANCH   2   3
ENDBRANCH   1   2
BRANCH   1  13
ATOM     13  C   UNL     1     -18.670 -23.546  80.770  1.00  0.00     0.000 C 
BRANCH  13  14
ATOM     14  C   UNL     1     -17.816 -24.672  80.165  1.00  0.00     0.000 C 
BRANCH  14  15
ATOM     15  C   UNL     1     -17.530 -24.461  78.669  1.00  0.00     0.000 C 
BRANCH  15  16
ATOM     16  C   UNL     1     -16.034 -24.584  78.333  1.00  0.00     0.000 C 
BRANCH  16  17
ATOM     17  C   UNL     1     -15.369 -23.218  78.089  1.00  0.00     0.000 C 
BRANCH  17  18
ATOM     18  C   UNL     1     -16.380 -22.128  77.701  1.00  0.00     0.000 C 
BRANCH  18  19
ATOM     19  C   UNL     1     -16.143 -20.808  78.456  1.00  0.00     0.000 C 
BRANCH  19  20
ATOM     20  C   UNL     1     -17.453 -20.083  78.805  1.00  0.00     0.006 C 
BRANCH  20  21
ATOM     21  C   UNL     1     -18.696 -20.839  78.318  1.00  0.00     0.053 C 
BRANCH  21  22
ATOM     22  C   UNL     1     -19.909 -20.382  79.065  1.00  0.00     0.041 C 
ATOM     23  O   UNL     1     -19.879 -19.314  79.731  1.00  0.00    -0.550 OA
ATOM     24  O   UNL     1     -21.088 -21.112  78.988  1.00  0.00    -0.550 OA
ENDBRANCH  21  22
ENDBRANCH  20  21
ENDBRANCH  19  20
ENDBRANCH  18  19
ENDBRANCH  17  18
ENDBRANCH  16  17
ENDBRANCH  15  16
ENDBRANCH  14  15
ENDBRANCH  13  14
ENDBRANCH   1  13
TORSDOF 20
ENDMDL
MODEL 9
REMARK VINA RESULT:    -0.509      2.328      5.699
REMARK INTER + INTRA:          -5.737
REMARK INTER:                  -1.322
REMARK INTRA:                  -4.415
REMARK UNBOUND:                -4.633
REMARK SMILES CCCCCCCCCCCCCCCCCCCCCC(=O)[O-]
REMARK SMILES IDX 12 1 11 2 10 3 9 4 8 5 7 6 6 7 5 8 4 9 3 10 2 11 1 12 13 13
REMARK SMILES IDX 14 14 15 15 16 16 17 17 18 18 19 19 20 20 21 21 22 22 23 23
REMARK SMILES IDX 24 24
REMARK H PARENT
REMARK Flexibility Score: inf
ROOT
ATOM      1  C   UNL     1     -16.563 -25.752  84.337  1.00  0.00     0.000 C 
ENDROOT
BRANCH   1   2
ATOM      2  C   UNL     1     -16.372 -24.704  85.446  1.00  0.00     0.000 C 
BRANCH   2   3
ATOM      3  C   UNL     1     -14.915 -24.221  85.561  1.00  0.00     0.000 C 
BRANCH   3   4
ATOM      4  C   UNL     1     -14.811 -22.701  85.764  1.00  0.00    -0.000 C 
BRANCH   4   5
ATOM      5  C   UNL     1     -13.874 -22.035  84.741  1.00  0.00    -0.000 C 
BRANCH   5   6
ATOM      6  C   UNL     1     -13.866 -22.762  83.387  1.00  0.00    -0.000 C 
BRANCH   6   7
ATOM      7  C   UNL     1     -14.641 -22.000  82.297  1.00  0.00    -0.000 C 
BRANCH   7   8
ATOM      8  C   UNL     1     -15.912 -22.750  81.845  1.00  0.00    -0.000 C 
BRANCH   8   9
ATOM      9  C   UNL     1     -17.167 -22.398  82.667  1.00  0.00    -0.000 C 
BRANCH   9  10
ATOM     10  C   UNL     1     -18.481 -23.007  82.142  1.00  0.00    -0.000 C 
BRANCH  10  11
ATOM     11  C   UNL     1     -18.320 -24.338  81.385  1.00  0.00    -0.003 C 
ATOM     12  C   UNL     1     -19.269 -25.426  81.886  1.00  0.00     0.004 C 
ENDBRANCH  10  11
ENDBRANCH   9  10
ENDBRANCH   8   9
ENDBRANCH   7   8
ENDBRANCH   6   7
ENDBRANCH   5   6
ENDBRANCH   4   5
ENDBRANCH   3   4
ENDBRANCH   2   3
ENDBRANCH   1   2
BRANCH   1  13
ATOM     13  C   UNL     1     -15.225 -26.266  83.778  1.00  0.00     0.000 C 
BRANCH  13  14
ATOM     14  C   UNL     1     -15.172 -26.235  82.242  1.00  0.00     0.000 C 
BRANCH  14  15
ATOM     15  C   UNL     1     -13.737 -26.126  81.701  1.00  0.00     0.000 C 
BRANCH  15  16
ATOM     16  C   UNL     1     -13.656 -25.296  80.409  1.00  0.00     0.000 C 
BRANCH  16  17
ATOM     17  C   UNL     1     -14.922 -25.426  79.543  1.00  0.00     0.000 C 
BRANCH  17  18
ATOM     18  C   UNL     1     -15.117 -24.231  78.597  1.00  0.00     0.000 C 
BRANCH  18  19
ATOM     19  C   UNL     1     -16.587 -24.042  78.183  1.00  0.00     0.000 C 
BRANCH  19  20
ATOM     20  C   UNL     1     -17.041 -22.576  78.270  1.00  0.00     0.006 C 
BRANCH  20  21
ATOM     21  C   UNL     1     -15.865 -21.596  78.367  1.00  0.00     0.053 C 
BRANCH  21  22
ATOM     22  C   UNL     1     -15.722 -20.825  77.092  1.00  0.00     0.041 C 
ATOM     23  O   UNL     1     -16.435 -19.809  76.882  1.00  0.00    -0.550 OA
ATOM     24  O   UNL     1     -14.768 -21.201  76.156  1.00  0.00    -0.550 OA
ENDBRANCH  21  22
ENDBRANCH  20  21
ENDBRANCH  19  20
ENDBRANCH  18  19
ENDBRANCH  17  18
ENDBRANCH  16  17
ENDBRANCH  15  16
ENDBRANCH  14  15
ENDBRANCH  13  14
ENDBRANCH   1  13
TORSDOF 20
ENDMDL
