MODEL 1
REMARK VINA RESULT:     4.304      0.000      0.000
REMARK INTER + INTRA:           5.550
REMARK INTER:                   5.059
REMARK INTRA:                   0.491
REMARK UNBOUND:                 0.491
REMARK SMILES O=c1c(O)c(-c2ccc(O)c(O)c2)oc2cc(O)ccc12
REMARK SMILES IDX 5 1 3 2 2 3 1 4 21 5 15 6 14 7 16 8 17 9 19 10 20 11 6 12
REMARK SMILES IDX 7 13 8 14 9 15 13 16 11 17 10 18 12 20 4 22 18 24
REMARK H PARENT 10 19 12 21 4 23 18 25
REMARK Flexibility Score: inf
ROOT
ATOM      1  C   UNL     1      -7.748  35.794   0.143  1.00  0.00     0.180 A 
ATOM      2  C   UNL     1      -6.811  36.841   0.263  1.00  0.00     0.208 A 
ATOM      3  C   UNL     1      -5.574  36.576   0.870  1.00  0.00     0.235 A 
ATOM      4  O   UNL     1      -4.716  37.494   0.979  1.00  0.00    -0.285 OA
ATOM      5  C   UNL     1      -5.307  35.288   1.360  1.00  0.00     0.069 A 
ATOM      6  C   UNL     1      -6.306  34.300   1.224  1.00  0.00     0.142 A 
ATOM      7  O   UNL     1      -7.462  34.590   0.635  1.00  0.00    -0.452 OA
ATOM      8  C   UNL     1      -6.083  33.007   1.709  1.00  0.00     0.094 A 
ATOM      9  C   UNL     1      -4.870  32.685   2.327  1.00  0.00     0.119 A 
ATOM     10  C   UNL     1      -3.875  33.663   2.463  1.00  0.00     0.047 A 
ATOM     11  C   UNL     1      -4.090  34.958   1.983  1.00  0.00     0.020 A 
ENDROOT
BRANCH   1  12
ATOM     12  C   UNL     1      -9.067  35.988  -0.500  1.00  0.00     0.025 A 
ATOM     13  C   UNL     1      -9.312  37.159  -1.235  1.00  0.00     0.016 A 
ATOM     14  C   UNL     1     -10.556  37.373  -1.833  1.00  0.00     0.051 A 
ATOM     15  C   UNL     1     -11.578  36.426  -1.692  1.00  0.00     0.157 A 
ATOM     16  C   UNL     1     -10.103  35.050  -0.344  1.00  0.00     0.062 A 
ATOM     17  C   UNL     1     -11.353  35.265  -0.942  1.00  0.00     0.158 A 
BRANCH  15  18
ATOM     18  O   UNL     1     -12.821  36.635  -2.289  1.00  0.00    -0.504 OA
ATOM     19  H   UNL     1     -12.918  37.188  -3.132  1.00  0.00     0.293 HD
ENDBRANCH  15  18
BRANCH  17  20
ATOM     20  O   UNL     1     -12.378  34.331  -0.792  1.00  0.00    -0.504 OA
ATOM     21  H   UNL     1     -12.229  33.346  -0.977  1.00  0.00     0.293 HD
ENDBRANCH  17  20
ENDBRANCH   1  12
BRANCH   2  22
ATOM     22  O   UNL     1      -7.123  38.125  -0.190  1.00  0.00    -0.502 OA
ATOM     23  H   UNL     1      -6.480  38.902  -0.102  1.00  0.00     0.293 HD
ENDBRANCH   2  22
BRANCH   9  24
ATOM     24  O   UNL     1      -4.664  31.393   2.803  1.00  0.00    -0.508 OA
ATOM     25  H   UNL     1      -3.738  30.982   2.840  1.00  0.00     0.293 HD
ENDBRANCH   9  24
TORSDOF 5
ENDMDL
MODEL 2
REMARK VINA RESULT:     5.795      1.334      2.806
REMARK INTER + INTRA:           7.302
REMARK INTER:                   7.223
REMARK INTRA:                   0.079
REMARK UNBOUND:                 0.491
REMARK SMILES O=c1c(O)c(-c2ccc(O)c(O)c2)oc2cc(O)ccc12
REMARK SMILES IDX 5 1 3 2 2 3 1 4 21 5 15 6 14 7 16 8 17 9 19 10 20 11 6 12
REMARK SMILES IDX 7 13 8 14 9 15 13 16 11 17 10 18 12 20 4 22 18 24
REMARK H PARENT 10 19 12 21 4 23 18 25
REMARK Flexibility Score: inf
ROOT
ATOM      1  C   UNL     1      -7.928  35.394   0.278  1.00  0.00     0.180 A 
ATOM      2  C   UNL     1      -7.398  34.087   0.285  1.00  0.00     0.208 A 
ATOM      3  C   UNL     1      -6.237  33.830   1.030  1.00  0.00     0.235 A 
ATOM      4  O   UNL     1      -5.751  32.667   1.061  1.00  0.00    -0.285 OA
ATOM      5  C   UNL     1      -5.622  34.879   1.733  1.00  0.00     0.069 A 
ATOM      6  C   UNL     1      -6.200  36.166   1.656  1.00  0.00     0.142 A 
ATOM      7  O   UNL     1      -7.306  36.363   0.945  1.00  0.00    -0.452 OA
ATOM      8  C   UNL     1      -5.612  37.239   2.333  1.00  0.00     0.094 A 
ATOM      9  C   UNL     1      -4.452  37.045   3.089  1.00  0.00     0.119 A 
ATOM     10  C   UNL     1      -3.875  35.770   3.168  1.00  0.00     0.047 A 
ATOM     11  C   UNL     1      -4.455  34.691   2.495  1.00  0.00     0.020 A 
ENDROOT
BRANCH   1  12
ATOM     12  C   UNL     1      -9.158  35.740  -0.468  1.00  0.00     0.025 A 
ATOM     13  C   UNL     1      -9.225  36.957  -1.164  1.00  0.00     0.016 A 
ATOM     14  C   UNL     1     -10.384  37.314  -1.859  1.00  0.00     0.051 A 
ATOM     15  C   UNL     1     -11.498  36.465  -1.854  1.00  0.00     0.157 A 
ATOM     16  C   UNL     1     -10.287  34.900  -0.449  1.00  0.00     0.062 A 
ATOM     17  C   UNL     1     -11.451  35.259  -1.144  1.00  0.00     0.158 A 
BRANCH  15  18
ATOM     18  O   UNL     1     -12.655  36.817  -2.547  1.00  0.00    -0.504 OA
ATOM     19  H   UNL     1     -13.467  37.187  -2.069  1.00  0.00     0.293 HD
ENDBRANCH  15  18
BRANCH  17  20
ATOM     20  O   UNL     1     -12.567  34.423  -1.130  1.00  0.00    -0.504 OA
ATOM     21  H   UNL     1     -13.409  34.652  -1.644  1.00  0.00     0.293 HD
ENDBRANCH  17  20
ENDBRANCH   1  12
BRANCH   2  22
ATOM     22  O   UNL     1      -8.004  33.074  -0.463  1.00  0.00    -0.502 OA
ATOM     23  H   UNL     1      -8.339  32.216  -0.041  1.00  0.00     0.293 HD
ENDBRANCH   2  22
BRANCH   9  24
ATOM     24  O   UNL     1      -3.879  38.125   3.757  1.00  0.00    -0.508 OA
ATOM     25  H   UNL     1      -3.958  39.070   3.400  1.00  0.00     0.293 HD
ENDBRANCH   9  24
TORSDOF 5
ENDMDL
MODEL 3
REMARK VINA RESULT:     5.937      3.863      5.284
REMARK INTER + INTRA:           7.470
REMARK INTER:                   7.665
REMARK INTRA:                  -0.196
REMARK UNBOUND:                 0.491
REMARK SMILES O=c1c(O)c(-c2ccc(O)c(O)c2)oc2cc(O)ccc12
REMARK SMILES IDX 5 1 3 2 2 3 1 4 21 5 15 6 14 7 16 8 17 9 19 10 20 11 6 12
REMARK SMILES IDX 7 13 8 14 9 15 13 16 11 17 10 18 12 20 4 22 18 24
REMARK H PARENT 10 19 12 21 4 23 18 25
REMARK Flexibility Score: inf
ROOT
ATOM      1  C   UNL     1      -6.385  33.687   1.254  1.00  0.00     0.180 A 
ATOM      2  C   UNL     1      -5.304  34.260   0.552  1.00  0.00     0.208 A 
ATOM      3  C   UNL     1      -4.848  35.532   0.930  1.00  0.00     0.235 A 
ATOM      4  O   UNL     1      -3.877  36.060   0.324  1.00  0.00    -0.285 OA
ATOM      5  C   UNL     1      -5.487  36.209   1.981  1.00  0.00     0.069 A 
ATOM      6  C   UNL     1      -6.578  35.579   2.619  1.00  0.00     0.142 A 
ATOM      7  O   UNL     1      -6.972  34.369   2.235  1.00  0.00    -0.452 OA
ATOM      8  C   UNL     1      -7.247  36.225   3.664  1.00  0.00     0.094 A 
ATOM      9  C   UNL     1      -6.840  37.496   4.083  1.00  0.00     0.119 A 
ATOM     10  C   UNL     1      -5.757  38.125   3.452  1.00  0.00     0.047 A 
ATOM     11  C   UNL     1      -5.083  37.488   2.407  1.00  0.00     0.020 A 
ENDROOT
BRANCH   1  12
ATOM     12  C   UNL     1      -6.912  32.343   0.927  1.00  0.00     0.025 A 
ATOM     13  C   UNL     1      -7.613  32.149  -0.274  1.00  0.00     0.016 A 
ATOM     14  C   UNL     1      -8.137  30.894  -0.593  1.00  0.00     0.051 A 
ATOM     15  C   UNL     1      -7.981  29.819   0.291  1.00  0.00     0.157 A 
ATOM     16  C   UNL     1      -6.775  31.265   1.821  1.00  0.00     0.062 A 
ATOM     17  C   UNL     1      -7.304  30.006   1.501  1.00  0.00     0.158 A 
BRANCH  15  18
ATOM     18  O   UNL     1      -8.501  28.565  -0.025  1.00  0.00    -0.504 OA
ATOM     19  H   UNL     1      -8.009  27.712   0.211  1.00  0.00     0.293 HD
ENDBRANCH  15  18
BRANCH  17  20
ATOM     20  O   UNL     1      -7.162  28.937   2.385  1.00  0.00    -0.504 OA
ATOM     21  H   UNL     1      -6.560  28.150   2.175  1.00  0.00     0.293 HD
ENDBRANCH  17  20
ENDBRANCH   1  12
BRANCH   2  22
ATOM     22  O   UNL     1      -4.720  33.583  -0.522  1.00  0.00    -0.502 OA
ATOM     23  H   UNL     1      -5.246  32.957  -1.119  1.00  0.00     0.293 HD
ENDBRANCH   2  22
BRANCH   9  24
ATOM     24  O   UNL     1      -7.518  38.125   5.124  1.00  0.00    -0.508 OA
ATOM     25  H   UNL     1      -8.040  37.596   5.812  1.00  0.00     0.293 HD
ENDBRANCH   9  24
TORSDOF 5
ENDMDL
MODEL 4
REMARK VINA RESULT:     6.266     11.284     14.503
REMARK INTER + INTRA:           7.856
REMARK INTER:                   8.172
REMARK INTRA:                  -0.317
REMARK UNBOUND:                 0.491
REMARK SMILES O=c1c(O)c(-c2ccc(O)c(O)c2)oc2cc(O)ccc12
REMARK SMILES IDX 5 1 3 2 2 3 1 4 21 5 15 6 14 7 16 8 17 9 19 10 20 11 6 12
REMARK SMILES IDX 7 13 8 14 9 15 13 16 11 17 10 18 12 20 4 22 18 24
REMARK H PARENT 10 19 12 21 4 23 18 25
REMARK Flexibility Score: inf
ROOT
ATOM      1  C   UNL     1     -18.063  34.002  -9.465  1.00  0.00     0.180 A 
ATOM      2  C   UNL     1     -17.923  33.639 -10.820  1.00  0.00     0.208 A 
ATOM      3  C   UNL     1     -16.656  33.724 -11.416  1.00  0.00     0.235 A 
ATOM      4  O   UNL     1     -16.503  33.395 -12.624  1.00  0.00    -0.285 OA
ATOM      5  C   UNL     1     -15.566  34.183 -10.659  1.00  0.00     0.069 A 
ATOM      6  C   UNL     1     -15.793  34.550  -9.315  1.00  0.00     0.142 A 
ATOM      7  O   UNL     1     -17.008  34.447  -8.786  1.00  0.00    -0.452 OA
ATOM      8  C   UNL     1     -14.735  35.022  -8.530  1.00  0.00     0.094 A 
ATOM      9  C   UNL     1     -13.450  35.131  -9.071  1.00  0.00     0.119 A 
ATOM     10  C   UNL     1     -13.221  34.767 -10.405  1.00  0.00     0.047 A 
ATOM     11  C   UNL     1     -14.271  34.296 -11.197  1.00  0.00     0.020 A 
ENDROOT
BRANCH   1  12
ATOM     12  C   UNL     1     -19.362  33.924  -8.760  1.00  0.00     0.025 A 
ATOM     13  C   UNL     1     -19.726  32.734  -8.110  1.00  0.00     0.016 A 
ATOM     14  C   UNL     1     -20.957  32.631  -7.456  1.00  0.00     0.051 A 
ATOM     15  C   UNL     1     -21.848  33.711  -7.456  1.00  0.00     0.157 A 
ATOM     16  C   UNL     1     -20.270  34.999  -8.775  1.00  0.00     0.062 A 
ATOM     17  C   UNL     1     -21.506  34.895  -8.121  1.00  0.00     0.158 A 
BRANCH  15  18
ATOM     18  O   UNL     1     -23.076  33.613  -6.804  1.00  0.00    -0.504 OA
ATOM     19  H   UNL     1     -23.797  34.313  -6.924  1.00  0.00     0.293 HD
ENDBRANCH  15  18
BRANCH  17  20
ATOM     20  O   UNL     1     -22.401  35.964  -8.132  1.00  0.00    -0.504 OA
ATOM     21  H   UNL     1     -22.203  36.828  -7.641  1.00  0.00     0.293 HD
ENDBRANCH  17  20
ENDBRANCH   1  12
BRANCH   2  22
ATOM     22  O   UNL     1     -19.035  33.232 -11.562  1.00  0.00    -0.502 OA
ATOM     23  H   UNL     1     -19.702  32.555 -11.213  1.00  0.00     0.293 HD
ENDBRANCH   2  22
BRANCH   9  24
ATOM     24  O   UNL     1     -12.409  35.604  -8.276  1.00  0.00    -0.508 OA
ATOM     25  H   UNL     1     -11.445  35.566  -8.587  1.00  0.00     0.293 HD
ENDBRANCH   9  24
TORSDOF 5
ENDMDL
MODEL 5
REMARK VINA RESULT:     7.020     12.850     16.617
REMARK INTER + INTRA:           8.742
REMARK INTER:                   8.993
REMARK INTRA:                  -0.251
REMARK UNBOUND:                 0.491
REMARK SMILES O=c1c(O)c(-c2ccc(O)c(O)c2)oc2cc(O)ccc12
REMARK SMILES IDX 5 1 3 2 2 3 1 4 21 5 15 6 14 7 16 8 17 9 19 10 20 11 6 12
REMARK SMILES IDX 7 13 8 14 9 15 13 16 11 17 10 18 12 20 4 22 18 24
REMARK H PARENT 10 19 12 21 4 23 18 25
REMARK Flexibility Score: inf
ROOT
ATOM      1  C   UNL     1     -19.632  34.154  -8.879  1.00  0.00     0.180 A 
ATOM      2  C   UNL     1     -20.183  33.191  -8.007  1.00  0.00     0.208 A 
ATOM      3  C   UNL     1     -21.470  33.403  -7.492  1.00  0.00     0.235 A 
ATOM      4  O   UNL     1     -21.989  32.551  -6.719  1.00  0.00    -0.285 OA
ATOM      5  C   UNL     1     -22.170  34.570  -7.837  1.00  0.00     0.069 A 
ATOM      6  C   UNL     1     -21.540  35.498  -8.696  1.00  0.00     0.142 A 
ATOM      7  O   UNL     1     -20.322  35.255  -9.169  1.00  0.00    -0.452 OA
ATOM      8  C   UNL     1     -22.199  36.678  -9.056  1.00  0.00     0.094 A 
ATOM      9  C   UNL     1     -23.483  36.945  -8.570  1.00  0.00     0.119 A 
ATOM     10  C   UNL     1     -24.112  36.026  -7.718  1.00  0.00     0.047 A 
ATOM     11  C   UNL     1     -23.461  34.845  -7.352  1.00  0.00     0.020 A 
ENDROOT
BRANCH   1  12
ATOM     12  C   UNL     1     -18.288  33.995  -9.478  1.00  0.00     0.025 A 
ATOM     13  C   UNL     1     -18.171  33.594 -10.818  1.00  0.00     0.016 A 
ATOM     14  C   UNL     1     -16.912  33.418 -11.398  1.00  0.00     0.051 A 
ATOM     15  C   UNL     1     -15.752  33.625 -10.641  1.00  0.00     0.157 A 
ATOM     16  C   UNL     1     -17.120  34.182  -8.716  1.00  0.00     0.062 A 
ATOM     17  C   UNL     1     -15.856  34.003  -9.297  1.00  0.00     0.158 A 
BRANCH  15  18
ATOM     18  O   UNL     1     -14.495  33.452 -11.216  1.00  0.00    -0.504 OA
ATOM     19  H   UNL     1     -13.840  32.764 -10.863  1.00  0.00     0.293 HD
ENDBRANCH  15  18
BRANCH  17  20
ATOM     20  O   UNL     1     -14.700  34.195  -8.542  1.00  0.00    -0.504 OA
ATOM     21  H   UNL     1     -14.029  34.919  -8.772  1.00  0.00     0.293 HD
ENDBRANCH  17  20
ENDBRANCH   1  12
BRANCH   2  22
ATOM     22  O   UNL     1     -19.445  32.063  -7.642  1.00  0.00    -0.502 OA
ATOM     23  H   UNL     1     -18.597  31.791  -8.125  1.00  0.00     0.293 HD
ENDBRANCH   2  22
BRANCH   9  24
ATOM     24  O   UNL     1     -24.125  38.125  -8.938  1.00  0.00    -0.508 OA
ATOM     25  H   UNL     1     -23.968  38.553  -9.843  1.00  0.00     0.293 HD
ENDBRANCH   9  24
TORSDOF 5
ENDMDL
MODEL 6
REMARK VINA RESULT:     7.206     13.153     15.580
REMARK INTER + INTRA:           8.960
REMARK INTER:                   9.210
REMARK INTRA:                  -0.250
REMARK UNBOUND:                 0.491
REMARK SMILES O=c1c(O)c(-c2ccc(O)c(O)c2)oc2cc(O)ccc12
REMARK SMILES IDX 5 1 3 2 2 3 1 4 21 5 15 6 14 7 16 8 17 9 19 10 20 11 6 12
REMARK SMILES IDX 7 13 8 14 9 15 13 16 11 17 10 18 12 20 4 22 18 24
REMARK H PARENT 10 19 12 21 4 23 18 25
REMARK Flexibility Score: inf
ROOT
ATOM      1  C   UNL     1     -18.967  33.929  -9.131  1.00  0.00     0.180 A 
ATOM      2  C   UNL     1     -17.776  33.963  -8.376  1.00  0.00     0.208 A 
ATOM      3  C   UNL     1     -16.546  33.891  -9.047  1.00  0.00     0.235 A 
ATOM      4  O   UNL     1     -15.468  33.931  -8.395  1.00  0.00    -0.285 OA
ATOM      5  C   UNL     1     -16.530  33.769 -10.446  1.00  0.00     0.069 A 
ATOM      6  C   UNL     1     -17.765  33.717 -11.128  1.00  0.00     0.142 A 
ATOM      7  O   UNL     1     -18.908  33.796 -10.454  1.00  0.00    -0.452 OA
ATOM      8  C   UNL     1     -17.791  33.585 -12.521  1.00  0.00     0.094 A 
ATOM      9  C   UNL     1     -16.596  33.506 -13.244  1.00  0.00     0.119 A 
ATOM     10  C   UNL     1     -15.368  33.557 -12.570  1.00  0.00     0.047 A 
ATOM     11  C   UNL     1     -15.332  33.688 -11.179  1.00  0.00     0.020 A 
ENDROOT
BRANCH   1  12
ATOM     12  C   UNL     1     -20.302  34.017  -8.498  1.00  0.00     0.025 A 
ATOM     13  C   UNL     1     -20.828  32.897  -7.834  1.00  0.00     0.016 A 
ATOM     14  C   UNL     1     -22.095  32.951  -7.248  1.00  0.00     0.051 A 
ATOM     15  C   UNL     1     -22.861  34.121  -7.331  1.00  0.00     0.157 A 
ATOM     16  C   UNL     1     -21.084  35.182  -8.598  1.00  0.00     0.062 A 
ATOM     17  C   UNL     1     -22.357  35.236  -8.011  1.00  0.00     0.158 A 
BRANCH  15  18
ATOM     18  O   UNL     1     -24.125  34.179  -6.746  1.00  0.00    -0.504 OA
ATOM     19  H   UNL     1     -24.269  33.944  -5.772  1.00  0.00     0.293 HD
ENDBRANCH  15  18
BRANCH  17  20
ATOM     20  O   UNL     1     -23.128  36.394  -8.105  1.00  0.00    -0.504 OA
ATOM     21  H   UNL     1     -23.974  36.514  -7.560  1.00  0.00     0.293 HD
ENDBRANCH  17  20
ENDBRANCH   1  12
BRANCH   2  22
ATOM     22  O   UNL     1     -17.825  34.036  -6.981  1.00  0.00    -0.502 OA
ATOM     23  H   UNL     1     -18.530  33.553  -6.438  1.00  0.00     0.293 HD
ENDBRANCH   2  22
BRANCH   9  24
ATOM     24  O   UNL     1     -16.640  33.374 -14.630  1.00  0.00    -0.508 OA
ATOM     25  H   UNL     1     -16.390  34.141 -15.243  1.00  0.00     0.293 HD
ENDBRANCH   9  24
TORSDOF 5
ENDMDL
