MODEL 1
REMARK VINA RESULT:     0.000      0.000      0.000
REMARK INTER + INTRA:          -3.626
REMARK INTER:                   0.000
REMARK INTRA:                  -3.626
REMARK UNBOUND:                -3.626
REMARK SMILES CCCCCCCCC=CCCCCCCCC(=O)[O-]
REMARK SMILES IDX 10 1 9 2 11 3 12 4 13 5 14 6 15 7 16 8 17 9 18 10 19 11
REMARK SMILES IDX 20 12 8 13 7 14 6 15 5 16 4 17 3 18 2 19 1 20
REMARK H PARENT
REMARK Flexibility Score: inf
ROOT
ATOM      1  C   UNL     1     165.824 194.181 190.284  1.00  0.00    -0.031 C 
ATOM      2  C   UNL     1     165.442 195.466 190.174  1.00  0.00    -0.031 C 
ENDROOT
BRANCH   1   3
ATOM      3  C   UNL     1     166.195 193.305 189.114  1.00  0.00     0.027 C 
BRANCH   3   4
ATOM      4  C   UNL     1     164.993 192.460 188.667  1.00  0.00     0.004 C 
BRANCH   4   5
ATOM      5  C   UNL     1     164.654 192.644 187.177  1.00  0.00     0.000 C 
BRANCH   5   6
ATOM      6  C   UNL     1     165.699 193.428 186.361  1.00  0.00     0.000 C 
BRANCH   6   7
ATOM      7  C   UNL     1     165.090 194.149 185.147  1.00  0.00     0.000 C 
BRANCH   7   8
ATOM      8  C   UNL     1     165.846 195.440 184.789  1.00  0.00     0.006 C 
BRANCH   8   9
ATOM      9  C   UNL     1     167.099 195.651 185.650  1.00  0.00     0.053 C 
BRANCH   9  10
ATOM     10  C   UNL     1     167.379 197.111 185.813  1.00  0.00     0.041 C 
ATOM     11  O   UNL     1     168.527 197.501 186.158  1.00  0.00    -0.550 OA
ATOM     12  O   UNL     1     166.362 198.039 185.633  1.00  0.00    -0.550 OA
ENDBRANCH   9  10
ENDBRANCH   8   9
ENDBRANCH   7   8
ENDBRANCH   6   7
ENDBRANCH   5   6
ENDBRANCH   4   5
ENDBRANCH   3   4
ENDBRANCH   1   3
BRANCH   2  13
ATOM     13  C   UNL     1     165.393 196.210 188.859  1.00  0.00     0.027 C 
BRANCH  13  14
ATOM     14  C   UNL     1     164.083 196.990 188.683  1.00  0.00     0.004 C 
BRANCH  14  15
ATOM     15  C   UNL     1     163.462 196.768 187.292  1.00  0.00     0.000 C 
BRANCH  15  16
ATOM     16  C   UNL     1     162.451 195.612 187.274  1.00  0.00     0.000 C 
BRANCH  16  17
ATOM     17  C   UNL     1     161.700 195.457 188.608  1.00  0.00    -0.000 C 
BRANCH  17  18
ATOM     18  C   UNL     1     161.712 194.000 189.116  1.00  0.00    -0.000 C 
BRANCH  18  19
ATOM     19  C   UNL     1     162.083 193.871 190.603  1.00  0.00    -0.003 C 
ATOM     20  C   UNL     1     161.961 195.188 191.367  1.00  0.00     0.004 C 
ENDBRANCH  18  19
ENDBRANCH  17  18
ENDBRANCH  16  17
ENDBRANCH  15  16
ENDBRANCH  14  15
ENDBRANCH  13  14
ENDBRANCH   2  13
TORSDOF 15
ENDMDL
MODEL 2
REMARK VINA RESULT:     0.000      9.358     11.818
REMARK INTER + INTRA:          -3.625
REMARK INTER:                   0.000
REMARK INTRA:                  -3.625
REMARK UNBOUND:                -3.626
REMARK SMILES CCCCCCCCC=CCCCCCCCC(=O)[O-]
REMARK SMILES IDX 10 1 9 2 11 3 12 4 13 5 14 6 15 7 16 8 17 9 18 10 19 11
REMARK SMILES IDX 20 12 8 13 7 14 6 15 5 16 4 17 3 18 2 19 1 20
REMARK H PARENT
REMARK Flexibility Score: inf
ROOT
ATOM      1  C   UNL     1     174.183 194.180 183.200  1.00  0.00    -0.031 C 
ATOM      2  C   UNL     1     173.756 194.873 184.271  1.00  0.00    -0.031 C 
ENDROOT
BRANCH   1   3
ATOM      3  C   UNL     1     173.748 192.774 182.873  1.00  0.00     0.027 C 
BRANCH   3   4
ATOM      4  C   UNL     1     174.839 191.765 183.259  1.00  0.00     0.004 C 
BRANCH   4   5
ATOM      5  C   UNL     1     174.353 190.719 184.279  1.00  0.00     0.000 C 
BRANCH   5   6
ATOM      6  C   UNL     1     172.833 190.704 184.524  1.00  0.00     0.000 C 
BRANCH   6   7
ATOM      7  C   UNL     1     172.468 190.460 185.998  1.00  0.00     0.000 C 
BRANCH   7   8
ATOM      8  C   UNL     1     173.701 190.165 186.869  1.00  0.00     0.006 C 
BRANCH   8   9
ATOM      9  C   UNL     1     173.551 190.692 188.303  1.00  0.00     0.053 C 
BRANCH   9  10
ATOM     10  C   UNL     1     174.743 190.312 189.124  1.00  0.00     0.041 C 
ATOM     11  O   UNL     1     175.337 191.181 189.816  1.00  0.00    -0.550 OA
ATOM     12  O   UNL     1     175.227 189.011 189.087  1.00  0.00    -0.550 OA
ENDBRANCH   9  10
ENDBRANCH   8   9
ENDBRANCH   7   8
ENDBRANCH   6   7
ENDBRANCH   5   6
ENDBRANCH   4   5
ENDBRANCH   3   4
ENDBRANCH   1   3
BRANCH   2  13
ATOM     13  C   UNL     1     172.736 194.343 185.252  1.00  0.00     0.027 C 
BRANCH  13  14
ATOM     14  C   UNL     1     173.373 193.945 186.591  1.00  0.00     0.004 C 
BRANCH  14  15
ATOM     15  C   UNL     1     174.827 194.434 186.706  1.00  0.00     0.000 C 
BRANCH  15  16
ATOM     16  C   UNL     1     175.834 193.278 186.799  1.00  0.00     0.000 C 
BRANCH  16  17
ATOM     17  C   UNL     1     176.927 193.354 185.719  1.00  0.00    -0.000 C 
BRANCH  17  18
ATOM     18  C   UNL     1     177.734 192.043 185.615  1.00  0.00    -0.000 C 
BRANCH  18  19
ATOM     19  C   UNL     1     177.409 191.030 186.726  1.00  0.00    -0.003 C 
ATOM     20  C   UNL     1     177.322 189.592 186.219  1.00  0.00     0.004 C 
ENDBRANCH  18  19
ENDBRANCH  17  18
ENDBRANCH  16  17
ENDBRANCH  15  16
ENDBRANCH  14  15
ENDBRANCH  13  14
ENDBRANCH   2  13
TORSDOF 15
ENDMDL
MODEL 3
REMARK VINA RESULT:     0.002      4.077      6.039
REMARK INTER + INTRA:          -3.622
REMARK INTER:                   0.000
REMARK INTRA:                  -3.622
REMARK UNBOUND:                -3.626
REMARK SMILES CCCCCCCCC=CCCCCCCCC(=O)[O-]
REMARK SMILES IDX 10 1 9 2 11 3 12 4 13 5 14 6 15 7 16 8 17 9 18 10 19 11
REMARK SMILES IDX 20 12 8 13 7 14 6 15 5 16 4 17 3 18 2 19 1 20
REMARK H PARENT
REMARK Flexibility Score: inf
ROOT
ATOM      1  C   UNL     1     166.413 191.528 188.681  1.00  0.00    -0.031 C 
ATOM      2  C   UNL     1     166.697 192.403 187.699  1.00  0.00    -0.031 C 
ENDROOT
BRANCH   1   3
ATOM      3  C   UNL     1     166.875 191.679 190.108  1.00  0.00     0.027 C 
BRANCH   3   4
ATOM      4  C   UNL     1     167.803 190.521 190.503  1.00  0.00     0.004 C 
BRANCH   4   5
ATOM      5  C   UNL     1     169.267 190.961 190.684  1.00  0.00     0.000 C 
BRANCH   5   6
ATOM      6  C   UNL     1     170.226 190.511 189.567  1.00  0.00     0.000 C 
BRANCH   6   7
ATOM      7  C   UNL     1     169.591 189.489 188.609  1.00  0.00     0.000 C 
BRANCH   7   8
ATOM      8  C   UNL     1     169.645 189.945 187.141  1.00  0.00     0.006 C 
BRANCH   8   9
ATOM      9  C   UNL     1     168.452 189.438 186.320  1.00  0.00     0.053 C 
BRANCH   9  10
ATOM     10  C   UNL     1     168.471 190.035 184.948  1.00  0.00     0.041 C 
ATOM     11  O   UNL     1     168.523 189.291 183.933  1.00  0.00    -0.550 OA
ATOM     12  O   UNL     1     168.482 191.415 184.791  1.00  0.00    -0.550 OA
ENDBRANCH   9  10
ENDBRANCH   8   9
ENDBRANCH   7   8
ENDBRANCH   6   7
ENDBRANCH   5   6
ENDBRANCH   4   5
ENDBRANCH   3   4
ENDBRANCH   1   3
BRANCH   2  13
ATOM     13  C   UNL     1     167.469 193.683 187.922  1.00  0.00     0.027 C 
BRANCH  13  14
ATOM     14  C   UNL     1     168.970 193.509 187.649  1.00  0.00     0.004 C 
BRANCH  14  15
ATOM     15  C   UNL     1     169.834 194.114 188.770  1.00  0.00     0.000 C 
BRANCH  15  16
ATOM     16  C   UNL     1     169.040 195.060 189.683  1.00  0.00     0.000 C 
BRANCH  16  17
ATOM     17  C   UNL     1     169.051 194.614 191.155  1.00  0.00    -0.000 C 
BRANCH  17  18
ATOM     18  C   UNL     1     167.673 194.794 191.827  1.00  0.00    -0.000 C 
BRANCH  18  19
ATOM     19  C   UNL     1     166.695 195.651 191.006  1.00  0.00    -0.003 C 
ATOM     20  C   UNL     1     165.349 194.967 190.775  1.00  0.00     0.004 C 
ENDBRANCH  18  19
ENDBRANCH  17  18
ENDBRANCH  16  17
ENDBRANCH  15  16
ENDBRANCH  14  15
ENDBRANCH  13  14
ENDBRANCH   2  13
TORSDOF 15
ENDMDL
MODEL 4
REMARK VINA RESULT:     0.004      7.621      9.831
REMARK INTER + INTRA:          -3.617
REMARK INTER:                   0.000
REMARK INTRA:                  -3.617
REMARK UNBOUND:                -3.626
REMARK SMILES CCCCCCCCC=CCCCCCCCC(=O)[O-]
REMARK SMILES IDX 10 1 9 2 11 3 12 4 13 5 14 6 15 7 16 8 17 9 18 10 19 11
REMARK SMILES IDX 20 12 8 13 7 14 6 15 5 16 4 17 3 18 2 19 1 20
REMARK H PARENT
REMARK Flexibility Score: inf
ROOT
ATOM      1  C   UNL     1     168.909 190.201 184.599  1.00  0.00    -0.031 C 
ATOM      2  C   UNL     1     169.847 190.131 183.637  1.00  0.00    -0.031 C 
ENDROOT
BRANCH   1   3
ATOM      3  C   UNL     1     168.092 189.026 185.072  1.00  0.00     0.027 C 
BRANCH   3   4
ATOM      4  C   UNL     1     166.617 189.198 184.683  1.00  0.00     0.004 C 
BRANCH   4   5
ATOM      5  C   UNL     1     166.352 190.499 183.904  1.00  0.00     0.000 C 
BRANCH   5   6
ATOM      6  C   UNL     1     166.002 190.310 182.417  1.00  0.00     0.000 C 
BRANCH   6   7
ATOM      7  C   UNL     1     166.896 191.142 181.483  1.00  0.00     0.000 C 
BRANCH   7   8
ATOM      8  C   UNL     1     166.781 190.705 180.012  1.00  0.00     0.006 C 
BRANCH   8   9
ATOM      9  C   UNL     1     165.617 189.733 179.774  1.00  0.00     0.053 C 
BRANCH   9  10
ATOM     10  C   UNL     1     166.022 188.663 178.810  1.00  0.00     0.041 C 
ATOM     11  O   UNL     1     167.115 188.749 178.190  1.00  0.00    -0.550 OA
ATOM     12  O   UNL     1     165.170 187.596 178.558  1.00  0.00    -0.550 OA
ENDBRANCH   9  10
ENDBRANCH   8   9
ENDBRANCH   7   8
ENDBRANCH   6   7
ENDBRANCH   5   6
ENDBRANCH   4   5
ENDBRANCH   3   4
ENDBRANCH   1   3
BRANCH   2  13
ATOM     13  C   UNL     1     170.239 188.844 182.949  1.00  0.00     0.027 C 
BRANCH  13  14
ATOM     14  C   UNL     1     169.716 188.774 181.508  1.00  0.00     0.004 C 
BRANCH  14  15
ATOM     15  C   UNL     1     168.582 187.745 181.355  1.00  0.00     0.000 C 
BRANCH  15  16
ATOM     16  C   UNL     1     168.687 186.594 182.367  1.00  0.00     0.000 C 
BRANCH  16  17
ATOM     17  C   UNL     1     167.313 186.067 182.814  1.00  0.00    -0.000 C 
BRANCH  17  18
ATOM     18  C   UNL     1     166.164 186.636 181.955  1.00  0.00    -0.000 C 
BRANCH  18  19
ATOM     19  C   UNL     1     164.811 186.671 182.684  1.00  0.00    -0.003 C 
ATOM     20  C   UNL     1     163.718 187.376 181.882  1.00  0.00     0.004 C 
ENDBRANCH  18  19
ENDBRANCH  17  18
ENDBRANCH  16  17
ENDBRANCH  15  16
ENDBRANCH  14  15
ENDBRANCH  13  14
ENDBRANCH   2  13
TORSDOF 15
ENDMDL
MODEL 5
REMARK VINA RESULT:     0.009      9.516     11.928
REMARK INTER + INTRA:          -3.608
REMARK INTER:                   0.000
REMARK INTRA:                  -3.608
REMARK UNBOUND:                -3.626
REMARK SMILES CCCCCCCCC=CCCCCCCCC(=O)[O-]
REMARK SMILES IDX 10 1 9 2 11 3 12 4 13 5 14 6 15 7 16 8 17 9 18 10 19 11
REMARK SMILES IDX 20 12 8 13 7 14 6 15 5 16 4 17 3 18 2 19 1 20
REMARK H PARENT
REMARK Flexibility Score: inf
ROOT
ATOM      1  C   UNL     1     165.912 185.615 183.298  1.00  0.00    -0.031 C 
ATOM      2  C   UNL     1     166.437 184.898 184.307  1.00  0.00    -0.031 C 
ENDROOT
BRANCH   1   3
ATOM      3  C   UNL     1     164.834 185.111 182.371  1.00  0.00     0.027 C 
BRANCH   3   4
ATOM      4  C   UNL     1     163.457 185.632 182.807  1.00  0.00     0.004 C 
BRANCH   4   5
ATOM      5  C   UNL     1     163.546 186.861 183.729  1.00  0.00     0.000 C 
BRANCH   5   6
ATOM      6  C   UNL     1     162.968 186.661 185.142  1.00  0.00     0.000 C 
BRANCH   6   7
ATOM      7  C   UNL     1     163.977 186.994 186.253  1.00  0.00     0.000 C 
BRANCH   7   8
ATOM      8  C   UNL     1     163.555 186.431 187.621  1.00  0.00     0.006 C 
BRANCH   8   9
ATOM      9  C   UNL     1     162.071 186.043 187.669  1.00  0.00     0.053 C 
BRANCH   9  10
ATOM     10  C   UNL     1     161.866 184.879 188.585  1.00  0.00     0.041 C 
ATOM     11  O   UNL     1     160.708 184.423 188.782  1.00  0.00    -0.550 OA
ATOM     12  O   UNL     1     162.947 184.327 189.261  1.00  0.00    -0.550 OA
ENDBRANCH   9  10
ENDBRANCH   8   9
ENDBRANCH   7   8
ENDBRANCH   6   7
ENDBRANCH   5   6
ENDBRANCH   4   5
ENDBRANCH   3   4
ENDBRANCH   1   3
BRANCH   2  13
ATOM     13  C   UNL     1     165.966 183.510 184.675  1.00  0.00     0.027 C 
BRANCH  13  14
ATOM     14  C   UNL     1     165.289 183.473 186.052  1.00  0.00     0.004 C 
BRANCH  14  15
ATOM     15  C   UNL     1     163.802 183.086 185.954  1.00  0.00     0.000 C 
BRANCH  15  16
ATOM     16  C   UNL     1     163.452 182.421 184.614  1.00  0.00     0.000 C 
BRANCH  16  17
ATOM     17  C   UNL     1     161.973 182.599 184.232  1.00  0.00    -0.000 C 
BRANCH  17  18
ATOM     18  C   UNL     1     161.129 183.143 185.404  1.00  0.00    -0.000 C 
BRANCH  18  19
ATOM     19  C   UNL     1     160.138 184.243 184.990  1.00  0.00    -0.003 C 
ATOM     20  C   UNL     1     160.046 184.426 183.476  1.00  0.00     0.004 C 
ENDBRANCH  18  19
ENDBRANCH  17  18
ENDBRANCH  16  17
ENDBRANCH  15  16
ENDBRANCH  14  15
ENDBRANCH  13  14
ENDBRANCH   2  13
TORSDOF 15
ENDMDL
MODEL 6
REMARK VINA RESULT:     0.010      8.270     10.436
REMARK INTER + INTRA:          -3.607
REMARK INTER:                   0.000
REMARK INTRA:                  -3.607
REMARK UNBOUND:                -3.626
REMARK SMILES CCCCCCCCC=CCCCCCCCC(=O)[O-]
REMARK SMILES IDX 10 1 9 2 11 3 12 4 13 5 14 6 15 7 16 8 17 9 18 10 19 11
REMARK SMILES IDX 20 12 8 13 7 14 6 15 5 16 4 17 3 18 2 19 1 20
REMARK H PARENT
REMARK Flexibility Score: inf
ROOT
ATOM      1  C   UNL     1     164.181 191.336 179.706  1.00  0.00    -0.031 C 
ATOM      2  C   UNL     1     163.470 190.974 178.623  1.00  0.00    -0.031 C 
ENDROOT
BRANCH   1   3
ATOM      3  C   UNL     1     163.855 192.524 180.575  1.00  0.00     0.027 C 
BRANCH   3   4
ATOM      4  C   UNL     1     163.737 192.103 182.047  1.00  0.00     0.004 C 
BRANCH   4   5
ATOM      5  C   UNL     1     163.654 190.577 182.229  1.00  0.00     0.000 C 
BRANCH   5   6
ATOM      6  C   UNL     1     162.318 190.058 182.789  1.00  0.00     0.000 C 
BRANCH   6   7
ATOM      7  C   UNL     1     161.917 188.691 182.209  1.00  0.00     0.000 C 
BRANCH   7   8
ATOM      8  C   UNL     1     163.003 188.097 181.296  1.00  0.00     0.006 C 
BRANCH   8   9
ATOM      9  C   UNL     1     162.468 187.722 179.907  1.00  0.00     0.053 C 
BRANCH   9  10
ATOM     10  C   UNL     1     161.285 186.815 180.032  1.00  0.00     0.041 C 
ATOM     11  O   UNL     1     161.424 185.653 180.499  1.00  0.00    -0.550 OA
ATOM     12  O   UNL     1     160.037 187.234 179.588  1.00  0.00    -0.550 OA
ENDBRANCH   9  10
ENDBRANCH   8   9
ENDBRANCH   7   8
ENDBRANCH   6   7
ENDBRANCH   5   6
ENDBRANCH   4   5
ENDBRANCH   3   4
ENDBRANCH   1   3
BRANCH   2  13
ATOM     13  C   UNL     1     162.213 191.686 178.177  1.00  0.00     0.027 C 
BRANCH  13  14
ATOM     14  C   UNL     1     160.971 190.791 178.286  1.00  0.00     0.004 C 
BRANCH  14  15
ATOM     15  C   UNL     1     160.373 190.805 179.704  1.00  0.00     0.000 C 
BRANCH  15  16
ATOM     16  C   UNL     1     159.654 192.122 180.029  1.00  0.00     0.000 C 
BRANCH  16  17
ATOM     17  C   UNL     1     160.148 192.762 181.338  1.00  0.00    -0.000 C 
BRANCH  17  18
ATOM     18  C   UNL     1     160.637 194.211 181.129  1.00  0.00    -0.000 C 
BRANCH  18  19
ATOM     19  C   UNL     1     160.537 194.689 179.671  1.00  0.00    -0.003 C 
ATOM     20  C   UNL     1     161.839 195.298 179.151  1.00  0.00     0.004 C 
ENDBRANCH  18  19
ENDBRANCH  17  18
ENDBRANCH  16  17
ENDBRANCH  15  16
ENDBRANCH  14  15
ENDBRANCH  13  14
ENDBRANCH   2  13
TORSDOF 15
ENDMDL
MODEL 7
REMARK VINA RESULT:     0.017      3.427      5.437
REMARK INTER + INTRA:          -3.594
REMARK INTER:                   0.000
REMARK INTRA:                  -3.594
REMARK UNBOUND:                -3.626
REMARK SMILES CCCCCCCCC=CCCCCCCCC(=O)[O-]
REMARK SMILES IDX 10 1 9 2 11 3 12 4 13 5 14 6 15 7 16 8 17 9 18 10 19 11
REMARK SMILES IDX 20 12 8 13 7 14 6 15 5 16 4 17 3 18 2 19 1 20
REMARK H PARENT
REMARK Flexibility Score: inf
ROOT
ATOM      1  C   UNL     1     166.012 190.385 190.674  1.00  0.00    -0.031 C 
ATOM      2  C   UNL     1     165.315 191.368 191.271  1.00  0.00    -0.031 C 
ENDROOT
BRANCH   1   3
ATOM      3  C   UNL     1     166.987 190.603 189.544  1.00  0.00     0.027 C 
BRANCH   3   4
ATOM      4  C   UNL     1     168.429 190.631 190.070  1.00  0.00     0.004 C 
BRANCH   4   5
ATOM      5  C   UNL     1     169.293 191.710 189.391  1.00  0.00     0.000 C 
BRANCH   5   6
ATOM      6  C   UNL     1     168.626 192.428 188.204  1.00  0.00     0.000 C 
BRANCH   6   7
ATOM      7  C   UNL     1     168.569 193.954 188.385  1.00  0.00     0.000 C 
BRANCH   7   8
ATOM      8  C   UNL     1     167.177 194.532 188.076  1.00  0.00     0.006 C 
BRANCH   8   9
ATOM      9  C   UNL     1     166.272 193.535 187.341  1.00  0.00     0.053 C 
BRANCH   9  10
ATOM     10  C   UNL     1     166.069 193.963 185.922  1.00  0.00     0.041 C 
ATOM     11  O   UNL     1     167.005 193.850 185.086  1.00  0.00    -0.550 OA
ATOM     12  O   UNL     1     164.864 194.533 185.533  1.00  0.00    -0.550 OA
ENDBRANCH   9  10
ENDBRANCH   8   9
ENDBRANCH   7   8
ENDBRANCH   6   7
ENDBRANCH   5   6
ENDBRANCH   4   5
ENDBRANCH   3   4
ENDBRANCH   1   3
BRANCH   2  13
ATOM     13  C   UNL     1     165.468 192.829 190.918  1.00  0.00     0.027 C 
BRANCH  13  14
ATOM     14  C   UNL     1     165.961 193.664 192.107  1.00  0.00     0.004 C 
BRANCH  14  15
ATOM     15  C   UNL     1     167.317 194.333 191.820  1.00  0.00     0.000 C 
BRANCH  15  16
ATOM     16  C   UNL     1     168.497 193.562 192.431  1.00  0.00     0.000 C 
BRANCH  16  17
ATOM     17  C   UNL     1     168.096 192.746 193.671  1.00  0.00    -0.000 C 
BRANCH  17  18
ATOM     18  C   UNL     1     168.652 191.307 193.626  1.00  0.00    -0.000 C 
BRANCH  18  19
ATOM     19  C   UNL     1     167.625 190.237 194.034  1.00  0.00    -0.003 C 
ATOM     20  C   UNL     1     166.400 190.821 194.734  1.00  0.00     0.004 C 
ENDBRANCH  18  19
ENDBRANCH  17  18
ENDBRANCH  16  17
ENDBRANCH  15  16
ENDBRANCH  14  15
ENDBRANCH  13  14
ENDBRANCH   2  13
TORSDOF 15
ENDMDL
MODEL 8
REMARK VINA RESULT:     0.017      9.269     11.815
REMARK INTER + INTRA:          -3.594
REMARK INTER:                   0.000
REMARK INTRA:                  -3.594
REMARK UNBOUND:                -3.626
REMARK SMILES CCCCCCCCC=CCCCCCCCC(=O)[O-]
REMARK SMILES IDX 10 1 9 2 11 3 12 4 13 5 14 6 15 7 16 8 17 9 18 10 19 11
REMARK SMILES IDX 20 12 8 13 7 14 6 15 5 16 4 17 3 18 2 19 1 20
REMARK H PARENT
REMARK Flexibility Score: inf
ROOT
ATOM      1  C   UNL     1     165.568 188.539 193.364  1.00  0.00    -0.031 C 
ATOM      2  C   UNL     1     165.119 187.434 193.985  1.00  0.00    -0.031 C 
ENDROOT
BRANCH   1   3
ATOM      3  C   UNL     1     165.516 188.753 191.872  1.00  0.00     0.027 C 
BRANCH   3   4
ATOM      4  C   UNL     1     166.925 188.690 191.265  1.00  0.00     0.004 C 
BRANCH   4   5
ATOM      5  C   UNL     1     167.029 187.693 190.097  1.00  0.00     0.000 C 
BRANCH   5   6
ATOM      6  C   UNL     1     165.840 186.725 189.957  1.00  0.00     0.000 C 
BRANCH   6   7
ATOM      7  C   UNL     1     166.228 185.395 189.288  1.00  0.00     0.000 C 
BRANCH   7   8
ATOM      8  C   UNL     1     165.527 184.186 189.930  1.00  0.00     0.006 C 
BRANCH   8   9
ATOM      9  C   UNL     1     166.461 182.980 190.098  1.00  0.00     0.053 C 
BRANCH   9  10
ATOM     10  C   UNL     1     165.997 182.115 191.227  1.00  0.00     0.041 C 
ATOM     11  O   UNL     1     164.787 181.776 191.309  1.00  0.00    -0.550 OA
ATOM     12  O   UNL     1     166.891 181.723 192.215  1.00  0.00    -0.550 OA
ENDBRANCH   9  10
ENDBRANCH   8   9
ENDBRANCH   7   8
ENDBRANCH   6   7
ENDBRANCH   5   6
ENDBRANCH   4   5
ENDBRANCH   3   4
ENDBRANCH   1   3
BRANCH   2  13
ATOM     13  C   UNL     1     164.447 186.289 193.263  1.00  0.00     0.027 C 
BRANCH  13  14
ATOM     14  C   UNL     1     165.171 184.955 193.492  1.00  0.00     0.004 C 
BRANCH  14  15
ATOM     15  C   UNL     1     166.609 185.159 194.001  1.00  0.00     0.000 C 
BRANCH  15  16
ATOM     16  C   UNL     1     167.647 185.126 192.870  1.00  0.00     0.000 C 
BRANCH  16  17
ATOM     17  C   UNL     1     168.787 186.139 193.078  1.00  0.00    -0.000 C 
BRANCH  17  18
ATOM     18  C   UNL     1     169.817 186.099 191.930  1.00  0.00    -0.000 C 
BRANCH  18  19
ATOM     19  C   UNL     1     169.579 184.956 190.929  1.00  0.00    -0.003 C 
ATOM     20  C   UNL     1     169.934 185.335 189.492  1.00  0.00     0.004 C 
ENDBRANCH  18  19
ENDBRANCH  17  18
ENDBRANCH  16  17
ENDBRANCH  15  16
ENDBRANCH  14  15
ENDBRANCH  13  14
ENDBRANCH   2  13
TORSDOF 15
ENDMDL
MODEL 9
REMARK VINA RESULT:     0.023      7.422     10.014
REMARK INTER + INTRA:          -3.583
REMARK INTER:                   0.000
REMARK INTRA:                  -3.583
REMARK UNBOUND:                -3.626
REMARK SMILES CCCCCCCCC=CCCCCCCCC(=O)[O-]
REMARK SMILES IDX 10 1 9 2 11 3 12 4 13 5 14 6 15 7 16 8 17 9 18 10 19 11
REMARK SMILES IDX 20 12 8 13 7 14 6 15 5 16 4 17 3 18 2 19 1 20
REMARK H PARENT
REMARK Flexibility Score: inf
ROOT
ATOM      1  C   UNL     1     172.958 191.994 187.415  1.00  0.00    -0.031 C 
ATOM      2  C   UNL     1     172.559 192.885 188.340  1.00  0.00    -0.031 C 
ENDROOT
BRANCH   1   3
ATOM      3  C   UNL     1     172.453 190.576 187.332  1.00  0.00     0.027 C 
BRANCH   3   4
ATOM      4  C   UNL     1     173.405 189.617 188.061  1.00  0.00     0.004 C 
BRANCH   4   5
ATOM      5  C   UNL     1     172.664 188.542 188.876  1.00  0.00     0.000 C 
BRANCH   5   6
ATOM      6  C   UNL     1     171.143 188.478 188.641  1.00  0.00     0.000 C 
BRANCH   6   7
ATOM      7  C   UNL     1     170.332 188.614 189.941  1.00  0.00     0.000 C 
BRANCH   7   8
ATOM      8  C   UNL     1     169.212 189.663 189.829  1.00  0.00     0.006 C 
BRANCH   8   9
ATOM      9  C   UNL     1     168.923 190.067 188.377  1.00  0.00     0.053 C 
BRANCH   9  10
ATOM     10  C   UNL     1     167.615 189.496 187.929  1.00  0.00     0.041 C 
ATOM     11  O   UNL     1     167.510 188.263 187.690  1.00  0.00    -0.550 OA
ATOM     12  O   UNL     1     166.524 190.331 187.726  1.00  0.00    -0.550 OA
ENDBRANCH   9  10
ENDBRANCH   8   9
ENDBRANCH   7   8
ENDBRANCH   6   7
ENDBRANCH   5   6
ENDBRANCH   4   5
ENDBRANCH   3   4
ENDBRANCH   1   3
BRANCH   2  13
ATOM     13  C   UNL     1     171.504 192.589 189.381  1.00  0.00     0.027 C 
BRANCH  13  14
ATOM     14  C   UNL     1     172.040 192.746 190.811  1.00  0.00     0.004 C 
BRANCH  14  15
ATOM     15  C   UNL     1     172.029 191.414 191.581  1.00  0.00     0.000 C 
BRANCH  15  16
ATOM     16  C   UNL     1     173.418 190.762 191.655  1.00  0.00     0.000 C 
BRANCH  16  17
ATOM     17  C   UNL     1     174.561 191.775 191.470  1.00  0.00    -0.000 C 
BRANCH  17  18
ATOM     18  C   UNL     1     175.589 191.306 190.420  1.00  0.00    -0.000 C 
BRANCH  18  19
ATOM     19  C   UNL     1     176.079 192.431 189.493  1.00  0.00    -0.003 C 
ATOM     20  C   UNL     1     175.710 193.825 189.998  1.00  0.00     0.004 C 
ENDBRANCH  18  19
ENDBRANCH  17  18
ENDBRANCH  16  17
ENDBRANCH  15  16
ENDBRANCH  14  15
ENDBRANCH  13  14
ENDBRANCH   2  13
TORSDOF 15
ENDMDL
