MODEL 1
REMARK VINA RESULT:    -3.396      0.000      0.000
REMARK INTER + INTRA:          -4.846
REMARK INTER:                  -5.182
REMARK INTRA:                   0.336
REMARK UNBOUND:                 0.336
REMARK SMILES CC1=CCC[C@@H](C)C(=O)C[C@H](C(C)C)C(=O)C1
REMARK SMILES IDX 8 1 9 2 6 3 7 4 5 5 4 6 3 7 2 8 1 9 10 11 11 12 15 13 16 14
REMARK SMILES IDX 17 15 12 17 13 18 14 19
REMARK H PARENT
REMARK Flexibility Score: 70.00
ROOT
ATOM      1  C   UNL     1      -3.035  28.088  30.636  1.00  0.00     0.136 C 
ATOM      2  O   UNL     1      -2.825  29.114  31.267  1.00  0.00    -0.299 OA
ENDROOT
BRANCH   1   3
ATOM      3  C   UNL     1      -4.421  27.470  30.655  1.00  0.00     0.053 C 
ATOM      4  C   UNL     1      -4.543  26.393  29.568  1.00  0.00     0.016 C 
BRANCH   3   5
ATOM      5  C   UNL     1      -5.503  28.559  30.477  1.00  0.00     0.015 C 
BRANCH   5   6
ATOM      6  C   UNL     1      -5.839  28.788  28.990  1.00  0.00     0.028 C 
BRANCH   6   7
ATOM      7  C   UNL     1      -5.346  30.114  28.465  1.00  0.00    -0.028 C 
ATOM      8  C   UNL     1      -4.308  30.284  27.609  1.00  0.00    -0.070 CG0
ATOM      9  C   UNL     1      -3.901  31.698  27.276  1.00  0.00     0.039 C 
ATOM     10  G   UNL     1      -3.571  29.131  26.938  1.00  0.00     0.000 G0
ENDBRANCH   6   7
ENDBRANCH   5   6
ENDBRANCH   3   5
ENDBRANCH   1   3
BRANCH   1  11
ATOM     11  C   UNL     1      -1.906  27.471  29.841  1.00  0.00     0.087 C 
BRANCH  11  12
ATOM     12  C   UNL     1      -2.254  27.328  28.336  1.00  0.00     0.066 C 
BRANCH  12  13
ATOM     13  C   UNL     1      -2.317  28.688  27.653  1.00  0.00     0.140 C 
ATOM     14  O   UNL     1      -1.335  29.417  27.634  1.00  0.00    -0.299 OA
BRANCH  13  15
ATOM     15  C   UNL     1      -3.577  29.117  26.942  1.00  0.00     0.106 CG0
ATOM     16  G   UNL     1      -4.300  30.279  27.613  1.00  0.00     0.000 G0
ENDBRANCH  13  15
ENDBRANCH  12  13
BRANCH  12  17
ATOM     17  C   UNL     1      -1.318  26.335  27.572  1.00  0.00    -0.006 C 
ATOM     18  C   UNL     1       0.034  26.092  28.269  1.00  0.00     0.008 C 
ATOM     19  C   UNL     1      -2.015  24.990  27.311  1.00  0.00     0.008 C 
ENDBRANCH  12  17
ENDBRANCH  11  12
ENDBRANCH   1  11
TORSDOF 1
ENDMDL
MODEL 2
REMARK VINA RESULT:    -2.201      1.652      3.271
REMARK INTER + INTRA:          -3.023
REMARK INTER:                  -4.744
REMARK INTRA:                   1.721
REMARK UNBOUND:                 0.336
REMARK SMILES CC1=CCC[C@@H](C)C(=O)C[C@H](C(C)C)C(=O)C1
REMARK SMILES IDX 8 1 9 2 6 3 7 4 5 5 4 6 3 7 2 8 1 9 10 11 11 12 15 13 16 14
REMARK SMILES IDX 17 15 12 17 13 18 14 19
REMARK H PARENT
REMARK Flexibility Score: 70.00
ROOT
ATOM      1  C   UNL     1      -3.546  29.511  27.583  1.00  0.00     0.136 C 
ATOM      2  O   UNL     1      -2.611  30.232  27.902  1.00  0.00    -0.299 OA
ENDROOT
BRANCH   1   3
ATOM      3  C   UNL     1      -4.862  30.138  27.162  1.00  0.00     0.053 C 
ATOM      4  C   UNL     1      -4.619  31.505  26.506  1.00  0.00     0.016 C 
BRANCH   3   5
ATOM      5  C   UNL     1      -5.814  30.268  28.372  1.00  0.00     0.015 C 
BRANCH   5   6
ATOM      6  C   UNL     1      -5.533  29.188  29.435  1.00  0.00     0.028 C 
BRANCH   6   7
ATOM      7  C   UNL     1      -4.539  29.626  30.482  1.00  0.00    -0.028 C 
ATOM      8  C   UNL     1      -3.521  28.871  30.963  1.00  0.00    -0.070 CG0
ATOM      9  C   UNL     1      -2.690  29.448  32.082  1.00  0.00     0.039 C 
ATOM     10  G   UNL     1      -3.148  27.503  30.405  1.00  0.00     0.000 G0
ENDBRANCH   6   7
ENDBRANCH   5   6
ENDBRANCH   3   5
ENDBRANCH   1   3
BRANCH   1  11
ATOM     11  C   UNL     1      -3.356  28.011  27.606  1.00  0.00     0.087 C 
BRANCH  11  12
ATOM     12  C   UNL     1      -1.936  27.604  28.083  1.00  0.00     0.066 C 
BRANCH  12  13
ATOM     13  C   UNL     1      -1.876  27.492  29.600  1.00  0.00     0.140 C 
ATOM     14  O   UNL     1      -0.797  27.446  30.175  1.00  0.00    -0.299 OA
BRANCH  13  15
ATOM     15  C   UNL     1      -3.151  27.497  30.408  1.00  0.00     0.106 CG0
ATOM     16  G   UNL     1      -3.523  28.865  30.968  1.00  0.00     0.000 G0
ENDBRANCH  13  15
ENDBRANCH  12  13
BRANCH  12  17
ATOM     17  C   UNL     1      -1.388  26.319  27.381  1.00  0.00    -0.006 C 
ATOM     18  C   UNL     1       0.004  25.883  27.876  1.00  0.00     0.008 C 
ATOM     19  C   UNL     1      -2.373  25.144  27.505  1.00  0.00     0.008 C 
ENDBRANCH  12  17
ENDBRANCH  11  12
ENDBRANCH   1  11
TORSDOF 1
ENDMDL
MODEL 3
REMARK VINA RESULT:    -1.976      1.817      4.510
REMARK INTER + INTRA:          -2.679
REMARK INTER:                  -3.583
REMARK INTRA:                   0.904
REMARK UNBOUND:                 0.336
REMARK SMILES CC1=CCC[C@@H](C)C(=O)C[C@H](C(C)C)C(=O)C1
REMARK SMILES IDX 8 1 9 2 6 3 7 4 5 5 4 6 3 7 2 8 1 9 10 11 11 12 15 13 16 14
REMARK SMILES IDX 17 15 12 17 13 18 14 19
REMARK H PARENT
REMARK Flexibility Score: 70.00
ROOT
ATOM      1  C   UNL     1      -2.454  28.151  27.475  1.00  0.00     0.136 C 
ATOM      2  O   UNL     1      -2.684  27.866  26.307  1.00  0.00    -0.299 OA
ENDROOT
BRANCH   1   3
ATOM      3  C   UNL     1      -1.995  27.066  28.431  1.00  0.00     0.053 C 
ATOM      4  C   UNL     1      -0.815  26.288  27.831  1.00  0.00     0.016 C 
BRANCH   3   5
ATOM      5  C   UNL     1      -3.163  26.117  28.778  1.00  0.00     0.015 C 
BRANCH   5   6
ATOM      6  C   UNL     1      -3.998  26.652  29.958  1.00  0.00     0.028 C 
BRANCH   6   7
ATOM      7  C   UNL     1      -3.249  27.638  30.819  1.00  0.00    -0.028 C 
ATOM      8  C   UNL     1      -3.545  28.956  30.943  1.00  0.00    -0.070 CG0
ATOM      9  C   UNL     1      -2.617  29.806  31.776  1.00  0.00     0.039 C 
ATOM     10  G   UNL     1      -4.778  29.606  30.328  1.00  0.00     0.000 G0
ENDBRANCH   6   7
ENDBRANCH   5   6
ENDBRANCH   3   5
ENDBRANCH   1   3
BRANCH   1  11
ATOM     11  C   UNL     1      -2.623  29.584  27.927  1.00  0.00     0.087 C 
BRANCH  11  12
ATOM     12  C   UNL     1      -4.097  30.062  27.833  1.00  0.00     0.066 C 
BRANCH  12  13
ATOM     13  C   UNL     1      -4.976  29.339  28.846  1.00  0.00     0.140 C 
ATOM     14  O   UNL     1      -5.789  28.505  28.476  1.00  0.00    -0.299 OA
BRANCH  13  15
ATOM     15  C   UNL     1      -4.803  29.608  30.321  1.00  0.00     0.106 CG0
ATOM     16  G   UNL     1      -3.568  28.956  30.929  1.00  0.00     0.000 G0
ENDBRANCH  13  15
ENDBRANCH  12  13
BRANCH  12  17
ATOM     17  C   UNL     1      -4.256  31.614  27.926  1.00  0.00    -0.006 C 
ATOM     18  C   UNL     1      -3.445  32.388  26.869  1.00  0.00     0.008 C 
ATOM     19  C   UNL     1      -5.733  32.036  27.857  1.00  0.00     0.008 C 
ENDBRANCH  12  17
ENDBRANCH  11  12
ENDBRANCH   1  11
TORSDOF 1
ENDMDL
MODEL 4
REMARK VINA RESULT:    -1.807      1.619      4.393
REMARK INTER + INTRA:          -2.422
REMARK INTER:                  -2.784
REMARK INTRA:                   0.361
REMARK UNBOUND:                 0.336
REMARK SMILES CC1=CCC[C@@H](C)C(=O)C[C@H](C(C)C)C(=O)C1
REMARK SMILES IDX 8 1 9 2 6 3 7 4 5 5 4 6 3 7 2 8 1 9 10 11 11 12 15 13 16 14
REMARK SMILES IDX 17 15 12 17 13 18 14 19
REMARK H PARENT
REMARK Flexibility Score: 70.00
ROOT
ATOM      1  C   UNL     1      -4.519  28.129  30.104  1.00  0.00     0.136 C 
ATOM      2  O   UNL     1      -4.841  27.023  29.692  1.00  0.00    -0.299 OA
ENDROOT
BRANCH   1   3
ATOM      3  C   UNL     1      -3.535  28.239  31.254  1.00  0.00     0.053 C 
ATOM      4  C   UNL     1      -2.784  29.577  31.190  1.00  0.00     0.016 C 
BRANCH   3   5
ATOM      5  C   UNL     1      -2.548  27.051  31.240  1.00  0.00     0.015 C 
BRANCH   5   6
ATOM      6  C   UNL     1      -1.265  27.386  30.455  1.00  0.00     0.028 C 
BRANCH   6   7
ATOM      7  C   UNL     1      -1.212  26.735  29.095  1.00  0.00    -0.028 C 
ATOM      8  C   UNL     1      -1.547  27.332  27.924  1.00  0.00    -0.070 CG0
ATOM      9  C   UNL     1      -1.523  26.486  26.676  1.00  0.00     0.039 C 
ATOM     10  G   UNL     1      -1.896  28.810  27.801  1.00  0.00     0.000 G0
ENDBRANCH   6   7
ENDBRANCH   5   6
ENDBRANCH   3   5
ENDBRANCH   1   3
BRANCH   1  11
ATOM     11  C   UNL     1      -5.104  29.356  29.443  1.00  0.00     0.087 C 
BRANCH  11  12
ATOM     12  C   UNL     1      -4.072  30.090  28.545  1.00  0.00     0.066 C 
BRANCH  12  13
ATOM     13  C   UNL     1      -3.364  29.118  27.611  1.00  0.00     0.140 C 
ATOM     14  O   UNL     1      -3.967  28.605  26.679  1.00  0.00    -0.299 OA
BRANCH  13  15
ATOM     15  C   UNL     1      -1.895  28.827  27.798  1.00  0.00     0.106 CG0
ATOM     16  G   UNL     1      -1.568  27.344  27.925  1.00  0.00     0.000 G0
ENDBRANCH  13  15
ENDBRANCH  12  13
BRANCH  12  17
ATOM     17  C   UNL     1      -4.674  31.308  27.771  1.00  0.00    -0.006 C 
ATOM     18  C   UNL     1      -5.867  31.972  28.486  1.00  0.00     0.008 C 
ATOM     19  C   UNL     1      -3.602  32.366  27.461  1.00  0.00     0.008 C 
ENDBRANCH  12  17
ENDBRANCH  11  12
ENDBRANCH   1  11
TORSDOF 1
ENDMDL
MODEL 5
REMARK VINA RESULT:    -1.679      1.459      3.438
REMARK INTER + INTRA:          -2.227
REMARK INTER:                  -4.425
REMARK INTRA:                   2.198
REMARK UNBOUND:                 0.336
REMARK SMILES CC1=CCC[C@@H](C)C(=O)C[C@H](C(C)C)C(=O)C1
REMARK SMILES IDX 8 1 9 2 6 3 7 4 5 5 4 6 3 7 2 8 1 9 10 11 11 12 15 13 16 14
REMARK SMILES IDX 17 15 12 17 13 18 14 19
REMARK H PARENT
REMARK Flexibility Score: 70.00
ROOT
ATOM      1  C   UNL     1      -3.010  29.540  27.569  1.00  0.00     0.136 C 
ATOM      2  O   UNL     1      -1.983  30.160  27.327  1.00  0.00    -0.299 OA
ENDROOT
BRANCH   1   3
ATOM      3  C   UNL     1      -4.318  30.294  27.723  1.00  0.00     0.053 C 
ATOM      4  C   UNL     1      -4.263  31.624  26.959  1.00  0.00     0.016 C 
BRANCH   3   5
ATOM      5  C   UNL     1      -4.637  30.527  29.216  1.00  0.00     0.015 C 
BRANCH   5   6
ATOM      6  C   UNL     1      -5.917  29.784  29.647  1.00  0.00     0.028 C 
BRANCH   6   7
ATOM      7  C   UNL     1      -5.745  28.286  29.704  1.00  0.00    -0.028 C 
ATOM      8  C   UNL     1      -4.596  27.638  30.019  1.00  0.00    -0.070 CG0
ATOM      9  C   UNL     1      -4.593  26.133  29.926  1.00  0.00     0.039 C 
ATOM     10  G   UNL     1      -3.335  28.344  30.503  1.00  0.00     0.000 G0
ENDBRANCH   6   7
ENDBRANCH   5   6
ENDBRANCH   3   5
ENDBRANCH   1   3
BRANCH   1  11
ATOM     11  C   UNL     1      -2.946  28.034  27.693  1.00  0.00     0.087 C 
BRANCH  11  12
ATOM     12  C   UNL     1      -1.740  27.564  28.550  1.00  0.00     0.066 C 
BRANCH  12  13
ATOM     13  C   UNL     1      -2.037  27.698  30.038  1.00  0.00     0.140 C 
ATOM     14  O   UNL     1      -1.219  27.328  30.868  1.00  0.00    -0.299 OA
BRANCH  13  15
ATOM     15  C   UNL     1      -3.322  28.343  30.495  1.00  0.00     0.106 CG0
ATOM     16  G   UNL     1      -4.579  27.625  30.020  1.00  0.00     0.000 G0
ENDBRANCH  13  15
ENDBRANCH  12  13
BRANCH  12  17
ATOM     17  C   UNL     1      -1.235  26.131  28.182  1.00  0.00    -0.006 C 
ATOM     18  C   UNL     1      -1.967  25.502  26.981  1.00  0.00     0.008 C 
ATOM     19  C   UNL     1       0.281  26.113  27.932  1.00  0.00     0.008 C 
ENDBRANCH  12  17
ENDBRANCH  11  12
ENDBRANCH   1  11
TORSDOF 1
ENDMDL
MODEL 6
REMARK VINA RESULT:    -0.608      2.099      4.464
REMARK INTER + INTRA:          -0.591
REMARK INTER:                  -3.355
REMARK INTRA:                   2.763
REMARK UNBOUND:                 0.336
REMARK SMILES CC1=CCC[C@@H](C)C(=O)C[C@H](C(C)C)C(=O)C1
REMARK SMILES IDX 8 1 9 2 6 3 7 4 5 5 4 6 3 7 2 8 1 9 10 11 11 12 15 13 16 14
REMARK SMILES IDX 17 15 12 17 13 18 14 19
REMARK H PARENT
REMARK Flexibility Score: 70.00
ROOT
ATOM      1  C   UNL     1      -5.253  30.061  29.129  1.00  0.00     0.136 C 
ATOM      2  O   UNL     1      -5.979  30.870  29.692  1.00  0.00    -0.299 OA
ENDROOT
BRANCH   1   3
ATOM      3  C   UNL     1      -4.225  30.553  28.127  1.00  0.00     0.053 C 
ATOM      4  C   UNL     1      -4.755  31.782  27.375  1.00  0.00     0.016 C 
BRANCH   3   5
ATOM      5  C   UNL     1      -3.845  29.425  27.143  1.00  0.00     0.015 C 
BRANCH   5   6
ATOM      6  C   UNL     1      -2.365  29.019  27.288  1.00  0.00     0.028 C 
BRANCH   6   7
ATOM      7  C   UNL     1      -2.110  27.568  26.962  1.00  0.00    -0.028 C 
ATOM      8  C   UNL     1      -1.966  26.571  27.870  1.00  0.00    -0.070 CG0
ATOM      9  C   UNL     1      -1.617  25.198  27.352  1.00  0.00     0.039 C 
ATOM     10  G   UNL     1      -2.182  26.757  29.367  1.00  0.00     0.000 G0
ENDBRANCH   6   7
ENDBRANCH   5   6
ENDBRANCH   3   5
ENDBRANCH   1   3
BRANCH   1  11
ATOM     11  C   UNL     1      -5.394  28.593  29.462  1.00  0.00     0.087 C 
BRANCH  11  12
ATOM     12  C   UNL     1      -4.228  28.074  30.345  1.00  0.00     0.066 C 
BRANCH  12  13
ATOM     13  C   UNL     1      -3.636  26.791  29.777  1.00  0.00     0.140 C 
ATOM     14  O   UNL     1      -4.342  25.807  29.604  1.00  0.00    -0.299 OA
BRANCH  13  15
ATOM     15  C   UNL     1      -2.184  26.747  29.367  1.00  0.00     0.106 CG0
ATOM     16  G   UNL     1      -1.969  26.566  27.869  1.00  0.00     0.000 G0
ENDBRANCH  13  15
ENDBRANCH  12  13
BRANCH  12  17
ATOM     17  C   UNL     1      -3.128  29.151  30.620  1.00  0.00    -0.006 C 
ATOM     18  C   UNL     1      -3.280  29.863  31.978  1.00  0.00     0.008 C 
ATOM     19  C   UNL     1      -1.715  28.559  30.501  1.00  0.00     0.008 C 
ENDBRANCH  12  17
ENDBRANCH  11  12
ENDBRANCH   1  11
TORSDOF 1
ENDMDL
