MODEL 1
REMARK VINA RESULT:    -4.672      0.000      0.000
REMARK INTER + INTRA:          -8.166
REMARK INTER:                  -7.130
REMARK INTRA:                  -1.036
REMARK UNBOUND:                -1.036
REMARK SMILES CCCCCCCCCCC(=O)[O-]
REMARK SMILES IDX 7 1 8 2 9 3 10 4 11 5 12 6 13 7 6 8 5 9 4 10 3 11 2 12 1 13
REMARK H PARENT
REMARK Flexibility Score: inf
ROOT
ATOM      1  C   UNL     1     -19.741  -6.395  14.904  1.00  0.00     0.000 C 
ENDROOT
BRANCH   1   2
ATOM      2  C   UNL     1     -19.628  -7.904  15.173  1.00  0.00     0.000 C 
BRANCH   2   3
ATOM      3  C   UNL     1     -18.497  -8.249  16.155  1.00  0.00     0.006 C 
BRANCH   3   4
ATOM      4  C   UNL     1     -19.040  -9.009  17.369  1.00  0.00     0.053 C 
BRANCH   4   5
ATOM      5  C   UNL     1     -17.919  -9.624  18.146  1.00  0.00     0.041 C 
ATOM      6  O   UNL     1     -16.865  -8.970  18.365  1.00  0.00    -0.550 OA
ATOM      7  O   UNL     1     -18.057 -10.902  18.671  1.00  0.00    -0.550 OA
ENDBRANCH   4   5
ENDBRANCH   3   4
ENDBRANCH   2   3
ENDBRANCH   1   2
BRANCH   1   8
ATOM      8  C   UNL     1     -21.124  -5.832  15.276  1.00  0.00     0.000 C 
BRANCH   8   9
ATOM      9  C   UNL     1     -21.184  -5.289  16.716  1.00  0.00    -0.000 C 
BRANCH   9  10
ATOM     10  C   UNL     1     -22.281  -5.903  17.604  1.00  0.00    -0.000 C 
BRANCH  10  11
ATOM     11  C   UNL     1     -22.020  -7.379  17.948  1.00  0.00    -0.000 C 
BRANCH  11  12
ATOM     12  C   UNL     1     -23.172  -8.297  17.511  1.00  0.00    -0.003 C 
ATOM     13  C   UNL     1     -22.712  -9.430  16.593  1.00  0.00     0.004 C 
ENDBRANCH  11  12
ENDBRANCH  10  11
ENDBRANCH   9  10
ENDBRANCH   8   9
ENDBRANCH   1   8
TORSDOF 9
ENDMDL
MODEL 2
REMARK VINA RESULT:    -4.575      2.972      5.335
REMARK INTER + INTRA:          -8.017
REMARK INTER:                  -7.350
REMARK INTRA:                  -0.667
REMARK UNBOUND:                -1.036
REMARK SMILES CCCCCCCCCCC(=O)[O-]
REMARK SMILES IDX 7 1 8 2 9 3 10 4 11 5 12 6 13 7 6 8 5 9 4 10 3 11 2 12 1 13
REMARK H PARENT
REMARK Flexibility Score: inf
ROOT
ATOM      1  C   UNL     1     -21.242  -5.849  16.034  1.00  0.00     0.000 C 
ENDROOT
BRANCH   1   2
ATOM      2  C   UNL     1     -21.760  -6.002  17.474  1.00  0.00     0.000 C 
BRANCH   2   3
ATOM      3  C   UNL     1     -22.139  -7.451  17.817  1.00  0.00     0.006 C 
BRANCH   3   4
ATOM      4  C   UNL     1     -23.656  -7.600  17.960  1.00  0.00     0.053 C 
BRANCH   4   5
ATOM      5  C   UNL     1     -24.102  -8.936  17.452  1.00  0.00     0.041 C 
ATOM      6  O   UNL     1     -25.300  -9.299  17.592  1.00  0.00    -0.550 OA
ATOM      7  O   UNL     1     -23.207  -9.757  16.781  1.00  0.00    -0.550 OA
ENDBRANCH   4   5
ENDBRANCH   3   4
ENDBRANCH   2   3
ENDBRANCH   1   2
BRANCH   1   8
ATOM      8  C   UNL     1     -21.680  -7.009  15.123  1.00  0.00     0.000 C 
BRANCH   8   9
ATOM      9  C   UNL     1     -20.497  -7.697  14.416  1.00  0.00    -0.000 C 
BRANCH   9  10
ATOM     10  C   UNL     1     -19.161  -7.655  15.180  1.00  0.00    -0.000 C 
BRANCH  10  11
ATOM     11  C   UNL     1     -17.999  -7.117  14.328  1.00  0.00    -0.000 C 
BRANCH  11  12
ATOM     12  C   UNL     1     -17.764  -5.613  14.538  1.00  0.00    -0.003 C 
ATOM     13  C   UNL     1     -16.903  -4.989  13.439  1.00  0.00     0.004 C 
ENDBRANCH  11  12
ENDBRANCH  10  11
ENDBRANCH   9  10
ENDBRANCH   8   9
ENDBRANCH   1   8
TORSDOF 9
ENDMDL
MODEL 3
REMARK VINA RESULT:    -4.561      2.400      4.389
REMARK INTER + INTRA:          -7.997
REMARK INTER:                  -7.085
REMARK INTRA:                  -0.911
REMARK UNBOUND:                -1.036
REMARK SMILES CCCCCCCCCCC(=O)[O-]
REMARK SMILES IDX 7 1 8 2 9 3 10 4 11 5 12 6 13 7 6 8 5 9 4 10 3 11 2 12 1 13
REMARK H PARENT
REMARK Flexibility Score: inf
ROOT
ATOM      1  C   UNL     1     -21.337  -5.273  16.951  1.00  0.00     0.000 C 
ENDROOT
BRANCH   1   2
ATOM      2  C   UNL     1     -22.363  -6.008  17.828  1.00  0.00     0.000 C 
BRANCH   2   3
ATOM      3  C   UNL     1     -22.155  -7.531  17.836  1.00  0.00     0.006 C 
BRANCH   3   4
ATOM      4  C   UNL     1     -23.451  -8.262  17.470  1.00  0.00     0.053 C 
BRANCH   4   5
ATOM      5  C   UNL     1     -23.205  -9.242  16.366  1.00  0.00     0.041 C 
ATOM      6  O   UNL     1     -23.055  -8.839  15.182  1.00  0.00    -0.550 OA
ATOM      7  O   UNL     1     -23.092 -10.596  16.651  1.00  0.00    -0.550 OA
ENDBRANCH   4   5
ENDBRANCH   3   4
ENDBRANCH   2   3
ENDBRANCH   1   2
BRANCH   1   8
ATOM      8  C   UNL     1     -21.313  -5.797  15.505  1.00  0.00     0.000 C 
BRANCH   8   9
ATOM      9  C   UNL     1     -19.906  -6.220  15.043  1.00  0.00    -0.000 C 
BRANCH   9  10
ATOM     10  C   UNL     1     -19.645  -7.738  15.037  1.00  0.00    -0.000 C 
BRANCH  10  11
ATOM     11  C   UNL     1     -18.593  -8.170  16.073  1.00  0.00    -0.000 C 
BRANCH  11  12
ATOM     12  C   UNL     1     -19.177  -9.094  17.153  1.00  0.00    -0.003 C 
ATOM     13  C   UNL     1     -18.151  -9.486  18.216  1.00  0.00     0.004 C 
ENDBRANCH  11  12
ENDBRANCH  10  11
ENDBRANCH   9  10
ENDBRANCH   8   9
ENDBRANCH   1   8
TORSDOF 9
ENDMDL
MODEL 4
REMARK VINA RESULT:    -4.509      2.091      3.086
REMARK INTER + INTRA:          -7.917
REMARK INTER:                  -6.921
REMARK INTRA:                  -0.996
REMARK UNBOUND:                -1.036
REMARK SMILES CCCCCCCCCCC(=O)[O-]
REMARK SMILES IDX 7 1 8 2 9 3 10 4 11 5 12 6 13 7 6 8 5 9 4 10 3 11 2 12 1 13
REMARK H PARENT
REMARK Flexibility Score: inf
ROOT
ATOM      1  C   UNL     1     -21.332  -5.262  16.478  1.00  0.00     0.000 C 
ENDROOT
BRANCH   1   2
ATOM      2  C   UNL     1     -21.025  -5.673  15.029  1.00  0.00     0.000 C 
BRANCH   2   3
ATOM      3  C   UNL     1     -21.440  -7.121  14.723  1.00  0.00     0.006 C 
BRANCH   3   4
ATOM      4  C   UNL     1     -20.285  -7.896  14.081  1.00  0.00     0.053 C 
BRANCH   4   5
ATOM      5  C   UNL     1     -19.037  -7.746  14.894  1.00  0.00     0.041 C 
ATOM      6  O   UNL     1     -18.927  -8.339  16.000  1.00  0.00    -0.550 OA
ATOM      7  O   UNL     1     -17.978  -6.992  14.407  1.00  0.00    -0.550 OA
ENDBRANCH   4   5
ENDBRANCH   3   4
ENDBRANCH   2   3
ENDBRANCH   1   2
BRANCH   1   8
ATOM      8  C   UNL     1     -21.764  -6.453  17.352  1.00  0.00     0.000 C 
BRANCH   8   9
ATOM      9  C   UNL     1     -22.946  -6.120  18.280  1.00  0.00    -0.000 C 
BRANCH   9  10
ATOM     10  C   UNL     1     -24.078  -7.163  18.304  1.00  0.00    -0.000 C 
BRANCH  10  11
ATOM     11  C   UNL     1     -24.245  -7.898  16.963  1.00  0.00    -0.000 C 
BRANCH  11  12
ATOM     12  C   UNL     1     -24.194  -9.425  17.119  1.00  0.00    -0.003 C 
ATOM     13  C   UNL     1     -23.043 -10.063  16.340  1.00  0.00     0.004 C 
ENDBRANCH  11  12
ENDBRANCH  10  11
ENDBRANCH   9  10
ENDBRANCH   8   9
ENDBRANCH   1   8
TORSDOF 9
ENDMDL
MODEL 5
REMARK VINA RESULT:    -4.496      3.358      5.541
REMARK INTER + INTRA:          -7.897
REMARK INTER:                  -7.339
REMARK INTRA:                  -0.558
REMARK UNBOUND:                -1.036
REMARK SMILES CCCCCCCCCCC(=O)[O-]
REMARK SMILES IDX 7 1 8 2 9 3 10 4 11 5 12 6 13 7 6 8 5 9 4 10 3 11 2 12 1 13
REMARK H PARENT
REMARK Flexibility Score: inf
ROOT
ATOM      1  C   UNL     1     -22.877  -8.464  14.742  1.00  0.00     0.000 C 
ENDROOT
BRANCH   1   2
ATOM      2  C   UNL     1     -22.994  -9.365  15.982  1.00  0.00     0.000 C 
BRANCH   2   3
ATOM      3  C   UNL     1     -22.756  -8.602  17.295  1.00  0.00     0.006 C 
BRANCH   3   4
ATOM      4  C   UNL     1     -24.070  -8.042  17.848  1.00  0.00     0.053 C 
BRANCH   4   5
ATOM      5  C   UNL     1     -23.842  -6.708  18.488  1.00  0.00     0.041 C 
ATOM      6  O   UNL     1     -22.867  -5.994  18.135  1.00  0.00    -0.550 OA
ATOM      7  O   UNL     1     -24.736  -6.233  19.438  1.00  0.00    -0.550 OA
ENDBRANCH   4   5
ENDBRANCH   3   4
ENDBRANCH   2   3
ENDBRANCH   1   2
BRANCH   1   8
ATOM      8  C   UNL     1     -21.784  -7.391  14.893  1.00  0.00     0.000 C 
BRANCH   8   9
ATOM      9  C   UNL     1     -20.428  -7.831  14.312  1.00  0.00    -0.000 C 
BRANCH   9  10
ATOM     10  C   UNL     1     -19.218  -7.633  15.244  1.00  0.00    -0.000 C 
BRANCH  10  11
ATOM     11  C   UNL     1     -17.973  -7.107  14.508  1.00  0.00    -0.000 C 
BRANCH  11  12
ATOM     12  C   UNL     1     -17.909  -5.572  14.485  1.00  0.00    -0.003 C 
ATOM     13  C   UNL     1     -16.899  -5.036  13.470  1.00  0.00     0.004 C 
ENDBRANCH  11  12
ENDBRANCH  10  11
ENDBRANCH   9  10
ENDBRANCH   8   9
ENDBRANCH   1   8
TORSDOF 9
ENDMDL
MODEL 6
REMARK VINA RESULT:    -4.415      2.200      3.794
REMARK INTER + INTRA:          -7.774
REMARK INTER:                  -6.880
REMARK INTRA:                  -0.894
REMARK UNBOUND:                -1.036
REMARK SMILES CCCCCCCCCCC(=O)[O-]
REMARK SMILES IDX 7 1 8 2 9 3 10 4 11 5 12 6 13 7 6 8 5 9 4 10 3 11 2 12 1 13
REMARK H PARENT
REMARK Flexibility Score: inf
ROOT
ATOM      1  C   UNL     1     -21.964  -6.551  17.807  1.00  0.00     0.000 C 
ENDROOT
BRANCH   1   2
ATOM      2  C   UNL     1     -21.448  -5.333  17.025  1.00  0.00     0.000 C 
BRANCH   2   3
ATOM      3  C   UNL     1     -21.274  -5.620  15.526  1.00  0.00     0.006 C 
BRANCH   3   4
ATOM      4  C   UNL     1     -19.817  -5.965  15.201  1.00  0.00     0.053 C 
BRANCH   4   5
ATOM      5  C   UNL     1     -19.662  -7.439  14.993  1.00  0.00     0.041 C 
ATOM      6  O   UNL     1     -19.363  -8.187  15.961  1.00  0.00    -0.550 OA
ATOM      7  O   UNL     1     -19.896  -7.992  13.741  1.00  0.00    -0.550 OA
ENDBRANCH   4   5
ENDBRANCH   3   4
ENDBRANCH   2   3
ENDBRANCH   1   2
BRANCH   1   8
ATOM      8  C   UNL     1     -23.431  -6.394  18.245  1.00  0.00     0.000 C 
BRANCH   8   9
ATOM      9  C   UNL     1     -24.151  -7.743  18.427  1.00  0.00    -0.000 C 
BRANCH   9  10
ATOM     10  C   UNL     1     -24.442  -8.513  17.125  1.00  0.00    -0.000 C 
BRANCH  10  11
ATOM     11  C   UNL     1     -23.262  -9.388  16.669  1.00  0.00    -0.000 C 
BRANCH  11  12
ATOM     12  C   UNL     1     -22.862  -9.120  15.209  1.00  0.00    -0.003 C 
ATOM     13  C   UNL     1     -23.602  -7.927  14.602  1.00  0.00     0.004 C 
ENDBRANCH  11  12
ENDBRANCH  10  11
ENDBRANCH   9  10
ENDBRANCH   8   9
ENDBRANCH   1   8
TORSDOF 9
ENDMDL
MODEL 7
REMARK VINA RESULT:    -4.371      3.217      4.890
REMARK INTER + INTRA:          -7.707
REMARK INTER:                  -6.918
REMARK INTRA:                  -0.789
REMARK UNBOUND:                -1.036
REMARK SMILES CCCCCCCCCCC(=O)[O-]
REMARK SMILES IDX 7 1 8 2 9 3 10 4 11 5 12 6 13 7 6 8 5 9 4 10 3 11 2 12 1 13
REMARK H PARENT
REMARK Flexibility Score: inf
ROOT
ATOM      1  C   UNL     1     -22.091  -7.453  14.814  1.00  0.00     0.000 C 
ENDROOT
BRANCH   1   2
ATOM      2  C   UNL     1     -22.973  -8.692  15.036  1.00  0.00     0.000 C 
BRANCH   2   3
ATOM      3  C   UNL     1     -22.815  -9.289  16.443  1.00  0.00     0.006 C 
BRANCH   3   4
ATOM      4  C   UNL     1     -22.647  -8.184  17.490  1.00  0.00     0.053 C 
BRANCH   4   5
ATOM      5  C   UNL     1     -23.983  -7.710  17.970  1.00  0.00     0.041 C 
ATOM      6  O   UNL     1     -24.149  -6.505  18.295  1.00  0.00    -0.550 OA
ATOM      7  O   UNL     1     -25.057  -8.589  18.012  1.00  0.00    -0.550 OA
ENDBRANCH   4   5
ENDBRANCH   3   4
ENDBRANCH   2   3
ENDBRANCH   1   2
BRANCH   1   8
ATOM      8  C   UNL     1     -20.658  -7.818  14.387  1.00  0.00     0.000 C 
BRANCH   8   9
ATOM      9  C   UNL     1     -19.585  -7.237  15.327  1.00  0.00    -0.000 C 
BRANCH   9  10
ATOM     10  C   UNL     1     -18.574  -8.258  15.880  1.00  0.00    -0.000 C 
BRANCH  10  11
ATOM     11  C   UNL     1     -19.071  -8.967  17.152  1.00  0.00    -0.000 C 
BRANCH  11  12
ATOM     12  C   UNL     1     -17.924  -9.328  18.109  1.00  0.00    -0.003 C 
ATOM     13  C   UNL     1     -17.980 -10.783  18.578  1.00  0.00     0.004 C 
ENDBRANCH  11  12
ENDBRANCH  10  11
ENDBRANCH   9  10
ENDBRANCH   8   9
ENDBRANCH   1   8
TORSDOF 9
ENDMDL
MODEL 8
REMARK VINA RESULT:    -4.335      2.176      3.756
REMARK INTER + INTRA:          -7.652
REMARK INTER:                  -6.760
REMARK INTRA:                  -0.892
REMARK UNBOUND:                -1.036
REMARK SMILES CCCCCCCCCCC(=O)[O-]
REMARK SMILES IDX 7 1 8 2 9 3 10 4 11 5 12 6 13 7 6 8 5 9 4 10 3 11 2 12 1 13
REMARK H PARENT
REMARK Flexibility Score: inf
ROOT
ATOM      1  C   UNL     1     -22.164  -6.225  17.490  1.00  0.00     0.000 C 
ENDROOT
BRANCH   1   2
ATOM      2  C   UNL     1     -21.282  -5.206  16.751  1.00  0.00     0.000 C 
BRANCH   2   3
ATOM      3  C   UNL     1     -21.097  -5.549  15.264  1.00  0.00     0.006 C 
BRANCH   3   4
ATOM      4  C   UNL     1     -19.629  -5.855  14.952  1.00  0.00     0.053 C 
BRANCH   4   5
ATOM      5  C   UNL     1     -19.423  -7.329  14.794  1.00  0.00     0.041 C 
ATOM      6  O   UNL     1     -20.032  -7.960  13.891  1.00  0.00    -0.550 OA
ATOM      7  O   UNL     1     -18.523  -7.996  15.614  1.00  0.00    -0.550 OA
ENDBRANCH   4   5
ENDBRANCH   3   4
ENDBRANCH   2   3
ENDBRANCH   1   2
BRANCH   1   8
ATOM      8  C   UNL     1     -21.395  -7.501  17.877  1.00  0.00     0.000 C 
BRANCH   8   9
ATOM      9  C   UNL     1     -21.718  -8.697  16.963  1.00  0.00    -0.000 C 
BRANCH   9  10
ATOM     10  C   UNL     1     -23.114  -8.671  16.314  1.00  0.00    -0.000 C 
BRANCH  10  11
ATOM     11  C   UNL     1     -24.164  -9.456  17.118  1.00  0.00    -0.000 C 
BRANCH  11  12
ATOM     12  C   UNL     1     -25.087  -8.537  17.934  1.00  0.00    -0.003 C 
ATOM     13  C   UNL     1     -26.096  -7.787  17.064  1.00  0.00     0.004 C 
ENDBRANCH  11  12
ENDBRANCH  10  11
ENDBRANCH   9  10
ENDBRANCH   8   9
ENDBRANCH   1   8
TORSDOF 9
ENDMDL
MODEL 9
REMARK VINA RESULT:    -4.258      3.489      5.257
REMARK INTER + INTRA:          -7.534
REMARK INTER:                  -6.372
REMARK INTRA:                  -1.162
REMARK UNBOUND:                -1.036
REMARK SMILES CCCCCCCCCCC(=O)[O-]
REMARK SMILES IDX 7 1 8 2 9 3 10 4 11 5 12 6 13 7 6 8 5 9 4 10 3 11 2 12 1 13
REMARK H PARENT
REMARK Flexibility Score: inf
ROOT
ATOM      1  C   UNL     1     -21.762  -5.923  17.441  1.00  0.00     0.000 C 
ENDROOT
BRANCH   1   2
ATOM      2  C   UNL     1     -22.289  -7.156  18.192  1.00  0.00     0.000 C 
BRANCH   2   3
ATOM      3  C   UNL     1     -22.759  -8.272  17.246  1.00  0.00     0.006 C 
BRANCH   3   4
ATOM      4  C   UNL     1     -24.219  -8.645  17.523  1.00  0.00     0.053 C 
BRANCH   4   5
ATOM      5  C   UNL     1     -25.135  -7.556  17.062  1.00  0.00     0.041 C 
ATOM      6  O   UNL     1     -25.873  -6.956  17.887  1.00  0.00    -0.550 OA
ATOM      7  O   UNL     1     -25.138  -7.170  15.728  1.00  0.00    -0.550 OA
ENDBRANCH   4   5
ENDBRANCH   3   4
ENDBRANCH   2   3
ENDBRANCH   1   2
BRANCH   1   8
ATOM      8  C   UNL     1     -21.711  -6.137  15.918  1.00  0.00     0.000 C 
BRANCH   8   9
ATOM      9  C   UNL     1     -20.520  -5.425  15.251  1.00  0.00    -0.000 C 
BRANCH   9  10
ATOM     10  C   UNL     1     -19.344  -6.338  14.858  1.00  0.00    -0.000 C 
BRANCH  10  11
ATOM     11  C   UNL     1     -19.577  -7.812  15.233  1.00  0.00    -0.000 C 
BRANCH  11  12
ATOM     12  C   UNL     1     -18.537  -8.334  16.236  1.00  0.00    -0.003 C 
ATOM     13  C   UNL     1     -19.167  -9.120  17.387  1.00  0.00     0.004 C 
ENDBRANCH  11  12
ENDBRANCH  10  11
ENDBRANCH   9  10
ENDBRANCH   8   9
ENDBRANCH   1   8
TORSDOF 9
ENDMDL
