MODEL 1
REMARK VINA RESULT:    -2.972      0.000      0.000
REMARK INTER + INTRA:          -4.995
REMARK INTER:                  -4.536
REMARK INTRA:                  -0.459
REMARK UNBOUND:                -0.459
REMARK SMILES CC1=CCC[C@@H](C)C(=O)C[C@H](C(C)C)C(=O)C1
REMARK SMILES IDX 8 1 9 2 6 3 7 4 5 5 4 6 3 7 2 8 1 9 10 11 11 12 15 13 16 14
REMARK SMILES IDX 17 15 12 17 13 18 14 19
REMARK H PARENT
REMARK Flexibility Score: 70.00
ROOT
ATOM      1  C   UNL     1     166.183 199.776 305.395  1.00  0.00     0.136 C 
ATOM      2  O   UNL     1     166.708 198.965 304.644  1.00  0.00    -0.299 OA
ENDROOT
BRANCH   1   3
ATOM      3  C   UNL     1     165.970 199.424 306.855  1.00  0.00     0.053 C 
ATOM      4  C   UNL     1     166.376 197.966 307.093  1.00  0.00     0.016 C 
BRANCH   3   5
ATOM      5  C   UNL     1     164.512 199.654 307.308  1.00  0.00     0.015 C 
BRANCH   5   6
ATOM      6  C   UNL     1     164.264 200.990 308.031  1.00  0.00     0.028 C 
BRANCH   6   7
ATOM      7  C   UNL     1     162.930 201.627 307.712  1.00  0.00    -0.028 C 
ATOM      8  C   UNL     1     162.594 202.377 306.629  1.00  0.00    -0.070 CG0
ATOM      9  C   UNL     1     161.143 202.788 306.515  1.00  0.00     0.039 C 
ATOM     10  G   UNL     1     163.562 202.925 305.585  1.00  0.00     0.000 G0
ENDBRANCH   6   7
ENDBRANCH   5   6
ENDBRANCH   3   5
ENDBRANCH   1   3
BRANCH   1  11
ATOM     11  C   UNL     1     165.812 201.136 304.861  1.00  0.00     0.087 C 
BRANCH  11  12
ATOM     12  C   UNL     1     164.571 201.111 303.927  1.00  0.00     0.066 C 
BRANCH  12  13
ATOM     13  C   UNL     1     163.594 202.241 304.235  1.00  0.00     0.140 C 
ATOM     14  O   UNL     1     162.920 202.703 303.325  1.00  0.00    -0.299 OA
BRANCH  13  15
ATOM     15  C   UNL     1     163.575 202.924 305.580  1.00  0.00     0.106 CG0
ATOM     16  G   UNL     1     162.579 202.365 306.591  1.00  0.00     0.000 G0
ENDBRANCH  13  15
ENDBRANCH  12  13
BRANCH  12  17
ATOM     17  C   UNL     1     164.980 201.147 302.420  1.00  0.00    -0.006 C 
ATOM     18  C   UNL     1     166.349 201.816 302.201  1.00  0.00     0.008 C 
ATOM     19  C   UNL     1     165.018 199.732 301.810  1.00  0.00     0.008 C 
ENDBRANCH  12  17
ENDBRANCH  11  12
ENDBRANCH   1  11
TORSDOF 1
ENDMDL
MODEL 2
REMARK VINA RESULT:    -2.841      2.580      3.808
REMARK INTER + INTRA:          -4.794
REMARK INTER:                  -4.642
REMARK INTRA:                  -0.152
REMARK UNBOUND:                -0.459
REMARK SMILES CC1=CCC[C@@H](C)C(=O)C[C@H](C(C)C)C(=O)C1
REMARK SMILES IDX 8 1 9 2 6 3 7 4 5 5 4 6 3 7 2 8 1 9 10 11 11 12 15 13 16 14
REMARK SMILES IDX 17 15 12 17 13 18 14 19
REMARK H PARENT
REMARK Flexibility Score: 70.00
ROOT
ATOM      1  C   UNL     1     166.089 200.223 302.792  1.00  0.00     0.136 C 
ATOM      2  O   UNL     1     165.706 199.112 302.452  1.00  0.00    -0.299 OA
ENDROOT
BRANCH   1   3
ATOM      3  C   UNL     1     165.986 200.644 304.246  1.00  0.00     0.053 C 
ATOM      4  C   UNL     1     166.565 199.541 305.139  1.00  0.00     0.016 C 
BRANCH   3   5
ATOM      5  C   UNL     1     164.535 200.965 304.664  1.00  0.00     0.015 C 
BRANCH   5   6
ATOM      6  C   UNL     1     164.152 202.452 304.575  1.00  0.00     0.028 C 
BRANCH   6   7
ATOM      7  C   UNL     1     163.110 202.760 303.524  1.00  0.00    -0.028 C 
ATOM      8  C   UNL     1     163.291 202.947 302.189  1.00  0.00    -0.070 CG0
ATOM      9  C   UNL     1     162.043 203.125 301.355  1.00  0.00     0.039 C 
ATOM     10  G   UNL     1     164.634 203.098 301.482  1.00  0.00     0.000 G0
ENDBRANCH   6   7
ENDBRANCH   5   6
ENDBRANCH   3   5
ENDBRANCH   1   3
BRANCH   1  11
ATOM     11  C   UNL     1     166.712 201.131 301.763  1.00  0.00     0.087 C 
BRANCH  11  12
ATOM     12  C   UNL     1     165.971 201.108 300.397  1.00  0.00     0.066 C 
BRANCH  12  13
ATOM     13  C   UNL     1     164.872 202.163 300.319  1.00  0.00     0.140 C 
ATOM     14  O   UNL     1     164.290 202.332 299.257  1.00  0.00    -0.299 OA
BRANCH  13  15
ATOM     15  C   UNL     1     164.618 203.124 301.454  1.00  0.00     0.106 CG0
ATOM     16  G   UNL     1     163.289 202.950 302.181  1.00  0.00     0.000 G0
ENDBRANCH  13  15
ENDBRANCH  12  13
BRANCH  12  17
ATOM     17  C   UNL     1     166.961 201.270 299.199  1.00  0.00    -0.006 C 
ATOM     18  C   UNL     1     167.757 202.586 299.272  1.00  0.00     0.008 C 
ATOM     19  C   UNL     1     167.955 200.095 299.123  1.00  0.00     0.008 C 
ENDBRANCH  12  17
ENDBRANCH  11  12
ENDBRANCH   1  11
TORSDOF 1
ENDMDL
MODEL 3
REMARK VINA RESULT:    -2.640      2.621      5.995
REMARK INTER + INTRA:          -4.488
REMARK INTER:                  -4.928
REMARK INTRA:                   0.440
REMARK UNBOUND:                -0.459
REMARK SMILES CC1=CCC[C@@H](C)C(=O)C[C@H](C(C)C)C(=O)C1
REMARK SMILES IDX 8 1 9 2 6 3 7 4 5 5 4 6 3 7 2 8 1 9 10 11 11 12 15 13 16 14
REMARK SMILES IDX 17 15 12 17 13 18 14 19
REMARK H PARENT
REMARK Flexibility Score: 70.00
ROOT
ATOM      1  C   UNL     1     164.419 202.515 303.873  1.00  0.00     0.136 C 
ATOM      2  O   UNL     1     163.656 202.689 304.813  1.00  0.00    -0.299 OA
ENDROOT
BRANCH   1   3
ATOM      3  C   UNL     1     164.097 203.118 302.518  1.00  0.00     0.053 C 
ATOM      4  C   UNL     1     162.936 202.349 301.881  1.00  0.00     0.016 C 
BRANCH   3   5
ATOM      5  C   UNL     1     165.317 203.125 301.573  1.00  0.00     0.015 C 
BRANCH   5   6
ATOM      6  C   UNL     1     165.284 202.053 300.470  1.00  0.00     0.028 C 
BRANCH   6   7
ATOM      7  C   UNL     1     166.529 201.198 300.401  1.00  0.00    -0.028 C 
ATOM      8  C   UNL     1     166.740 199.973 300.955  1.00  0.00    -0.070 CG0
ATOM      9  C   UNL     1     168.049 199.296 300.620  1.00  0.00     0.039 C 
ATOM     10  G   UNL     1     165.826 199.277 301.958  1.00  0.00     0.000 G0
ENDBRANCH   6   7
ENDBRANCH   5   6
ENDBRANCH   3   5
ENDBRANCH   1   3
BRANCH   1  11
ATOM     11  C   UNL     1     165.698 201.749 304.098  1.00  0.00     0.087 C 
BRANCH  11  12
ATOM     12  C   UNL     1     165.466 200.243 304.399  1.00  0.00     0.066 C 
BRANCH  12  13
ATOM     13  C   UNL     1     166.202 199.338 303.416  1.00  0.00     0.140 C 
ATOM     14  O   UNL     1     167.226 198.778 303.782  1.00  0.00    -0.299 OA
BRANCH  13  15
ATOM     15  C   UNL     1     165.810 199.268 301.961  1.00  0.00     0.106 CG0
ATOM     16  G   UNL     1     166.748 199.977 300.990  1.00  0.00     0.000 G0
ENDBRANCH  13  15
ENDBRANCH  12  13
BRANCH  12  17
ATOM     17  C   UNL     1     165.860 199.879 305.867  1.00  0.00    -0.006 C 
ATOM     18  C   UNL     1     164.925 200.531 306.902  1.00  0.00     0.008 C 
ATOM     19  C   UNL     1     165.859 198.354 306.091  1.00  0.00     0.008 C 
ENDBRANCH  12  17
ENDBRANCH  11  12
ENDBRANCH   1  11
TORSDOF 1
ENDMDL
MODEL 4
REMARK VINA RESULT:    -2.305      3.280      5.842
REMARK INTER + INTRA:          -3.977
REMARK INTER:                  -4.008
REMARK INTRA:                   0.031
REMARK UNBOUND:                -0.459
REMARK SMILES CC1=CCC[C@@H](C)C(=O)C[C@H](C(C)C)C(=O)C1
REMARK SMILES IDX 8 1 9 2 6 3 7 4 5 5 4 6 3 7 2 8 1 9 10 11 11 12 15 13 16 14
REMARK SMILES IDX 17 15 12 17 13 18 14 19
REMARK H PARENT
REMARK Flexibility Score: 70.00
ROOT
ATOM      1  C   UNL     1     167.290 199.526 300.931  1.00  0.00     0.136 C 
ATOM      2  O   UNL     1     168.164 199.068 301.654  1.00  0.00    -0.299 OA
ENDROOT
BRANCH   1   3
ATOM      3  C   UNL     1     167.582 199.781 299.463  1.00  0.00     0.053 C 
ATOM      4  C   UNL     1     168.326 198.578 298.875  1.00  0.00     0.016 C 
BRANCH   3   5
ATOM      5  C   UNL     1     168.396 201.074 299.243  1.00  0.00     0.015 C 
BRANCH   5   6
ATOM      6  C   UNL     1     167.693 202.364 299.700  1.00  0.00     0.028 C 
BRANCH   6   7
ATOM      7  C   UNL     1     166.211 202.398 299.407  1.00  0.00    -0.028 C 
ATOM      8  C   UNL     1     165.198 202.764 300.238  1.00  0.00    -0.070 CG0
ATOM      9  C   UNL     1     163.813 202.813 299.635  1.00  0.00     0.039 C 
ATOM     10  G   UNL     1     165.320 203.024 301.736  1.00  0.00     0.000 G0
ENDBRANCH   6   7
ENDBRANCH   5   6
ENDBRANCH   3   5
ENDBRANCH   1   3
BRANCH   1  11
ATOM     11  C   UNL     1     165.917 199.771 301.503  1.00  0.00     0.087 C 
BRANCH  11  12
ATOM     12  C   UNL     1     165.935 200.664 302.775  1.00  0.00     0.066 C 
BRANCH  12  13
ATOM     13  C   UNL     1     165.009 201.869 302.647  1.00  0.00     0.140 C 
ATOM     14  O   UNL     1     163.904 201.823 303.169  1.00  0.00    -0.299 OA
BRANCH  13  15
ATOM     15  C   UNL     1     165.343 203.029 301.741  1.00  0.00     0.106 CG0
ATOM     16  G   UNL     1     165.217 202.756 300.246  1.00  0.00     0.000 G0
ENDBRANCH  13  15
ENDBRANCH  12  13
BRANCH  12  17
ATOM     17  C   UNL     1     165.582 199.847 304.060  1.00  0.00    -0.006 C 
ATOM     18  C   UNL     1     164.967 198.475 303.731  1.00  0.00     0.008 C 
ATOM     19  C   UNL     1     166.822 199.632 304.951  1.00  0.00     0.008 C 
ENDBRANCH  12  17
ENDBRANCH  11  12
ENDBRANCH   1  11
TORSDOF 1
ENDMDL
MODEL 5
REMARK VINA RESULT:    -2.254      3.100      6.645
REMARK INTER + INTRA:          -3.899
REMARK INTER:                  -4.238
REMARK INTRA:                   0.340
REMARK UNBOUND:                -0.459
REMARK SMILES CC1=CCC[C@@H](C)C(=O)C[C@H](C(C)C)C(=O)C1
REMARK SMILES IDX 8 1 9 2 6 3 7 4 5 5 4 6 3 7 2 8 1 9 10 11 11 12 15 13 16 14
REMARK SMILES IDX 17 15 12 17 13 18 14 19
REMARK H PARENT
REMARK Flexibility Score: 70.00
ROOT
ATOM      1  C   UNL     1     163.873 201.981 300.848  1.00  0.00     0.136 C 
ATOM      2  O   UNL     1     163.465 200.865 300.555  1.00  0.00    -0.299 OA
ENDROOT
BRANCH   1   3
ATOM      3  C   UNL     1     163.923 203.068 299.790  1.00  0.00     0.053 C 
ATOM      4  C   UNL     1     162.699 202.947 298.876  1.00  0.00     0.016 C 
BRANCH   3   5
ATOM      5  C   UNL     1     165.221 203.016 298.956  1.00  0.00     0.015 C 
BRANCH   5   6
ATOM      6  C   UNL     1     166.512 202.868 299.780  1.00  0.00     0.028 C 
BRANCH   6   7
ATOM      7  C   UNL     1     167.197 201.530 299.622  1.00  0.00    -0.028 C 
ATOM      8  C   UNL     1     167.312 200.531 300.538  1.00  0.00    -0.070 CG0
ATOM      9  C   UNL     1     167.953 199.247 300.061  1.00  0.00     0.039 C 
ATOM     10  G   UNL     1     166.952 200.628 302.016  1.00  0.00     0.000 G0
ENDBRANCH   6   7
ENDBRANCH   5   6
ENDBRANCH   3   5
ENDBRANCH   1   3
BRANCH   1  11
ATOM     11  C   UNL     1     164.262 202.269 302.275  1.00  0.00     0.087 C 
BRANCH  11  12
ATOM     12  C   UNL     1     164.563 200.986 303.099  1.00  0.00     0.066 C 
BRANCH  12  13
ATOM     13  C   UNL     1     165.595 200.093 302.419  1.00  0.00     0.140 C 
ATOM     14  O   UNL     1     165.371 198.894 302.329  1.00  0.00    -0.299 OA
BRANCH  13  15
ATOM     15  C   UNL     1     166.957 200.614 302.029  1.00  0.00     0.106 CG0
ATOM     16  G   UNL     1     167.299 200.522 300.546  1.00  0.00     0.000 G0
ENDBRANCH  13  15
ENDBRANCH  12  13
BRANCH  12  17
ATOM     17  C   UNL     1     165.019 201.326 304.555  1.00  0.00    -0.006 C 
ATOM     18  C   UNL     1     163.920 202.045 305.359  1.00  0.00     0.008 C 
ATOM     19  C   UNL     1     165.447 200.061 305.324  1.00  0.00     0.008 C 
ENDBRANCH  12  17
ENDBRANCH  11  12
ENDBRANCH   1  11
TORSDOF 1
ENDMDL
MODEL 6
REMARK VINA RESULT:    -2.120      2.908      5.054
REMARK INTER + INTRA:          -3.695
REMARK INTER:                  -3.627
REMARK INTRA:                  -0.068
REMARK UNBOUND:                -0.459
REMARK SMILES CC1=CCC[C@@H](C)C(=O)C[C@H](C(C)C)C(=O)C1
REMARK SMILES IDX 8 1 9 2 6 3 7 4 5 5 4 6 3 7 2 8 1 9 10 11 11 12 15 13 16 14
REMARK SMILES IDX 17 15 12 17 13 18 14 19
REMARK H PARENT
REMARK Flexibility Score: 70.00
ROOT
ATOM      1  C   UNL     1     164.632 201.201 304.660  1.00  0.00     0.136 C 
ATOM      2  O   UNL     1     164.572 202.208 305.351  1.00  0.00    -0.299 OA
ENDROOT
BRANCH   1   3
ATOM      3  C   UNL     1     165.326 199.961 305.192  1.00  0.00     0.053 C 
ATOM      4  C   UNL     1     165.562 200.116 306.698  1.00  0.00     0.016 C 
BRANCH   3   5
ATOM      5  C   UNL     1     166.660 199.677 304.468  1.00  0.00     0.015 C 
BRANCH   5   6
ATOM      6  C   UNL     1     166.571 198.640 303.335  1.00  0.00     0.028 C 
BRANCH   6   7
ATOM      7  C   UNL     1     167.325 199.026 302.083  1.00  0.00    -0.028 C 
ATOM      8  C   UNL     1     166.936 199.876 301.094  1.00  0.00    -0.070 CG0
ATOM      9  C   UNL     1     167.952 200.166 300.013  1.00  0.00     0.039 C 
ATOM     10  G   UNL     1     165.542 200.472 300.926  1.00  0.00     0.000 G0
ENDBRANCH   6   7
ENDBRANCH   5   6
ENDBRANCH   3   5
ENDBRANCH   1   3
BRANCH   1  11
ATOM     11  C   UNL     1     163.961 201.195 303.310  1.00  0.00     0.087 C 
BRANCH  11  12
ATOM     12  C   UNL     1     164.396 202.381 302.405  1.00  0.00     0.066 C 
BRANCH  12  13
ATOM     13  C   UNL     1     165.374 201.947 301.317  1.00  0.00     0.140 C 
ATOM     14  O   UNL     1     165.927 202.805 300.645  1.00  0.00    -0.299 OA
BRANCH  13  15
ATOM     15  C   UNL     1     165.529 200.498 300.927  1.00  0.00     0.106 CG0
ATOM     16  G   UNL     1     166.926 199.913 301.103  1.00  0.00     0.000 G0
ENDBRANCH  13  15
ENDBRANCH  12  13
BRANCH  12  17
ATOM     17  C   UNL     1     163.166 203.104 301.767  1.00  0.00    -0.006 C 
ATOM     18  C   UNL     1     162.763 202.491 300.414  1.00  0.00     0.008 C 
ATOM     19  C   UNL     1     161.944 203.076 302.706  1.00  0.00     0.008 C 
ENDBRANCH  12  17
ENDBRANCH  11  12
ENDBRANCH   1  11
TORSDOF 1
ENDMDL
MODEL 7
REMARK VINA RESULT:    -2.085      2.832      5.059
REMARK INTER + INTRA:          -3.641
REMARK INTER:                  -4.803
REMARK INTRA:                   1.162
REMARK UNBOUND:                -0.459
REMARK SMILES CC1=CCC[C@@H](C)C(=O)C[C@H](C(C)C)C(=O)C1
REMARK SMILES IDX 8 1 9 2 6 3 7 4 5 5 4 6 3 7 2 8 1 9 10 11 11 12 15 13 16 14
REMARK SMILES IDX 17 15 12 17 13 18 14 19
REMARK H PARENT
REMARK Flexibility Score: 70.00
ROOT
ATOM      1  C   UNL     1     167.068 200.954 300.024  1.00  0.00     0.136 C 
ATOM      2  O   UNL     1     166.345 200.885 299.039  1.00  0.00    -0.299 OA
ENDROOT
BRANCH   1   3
ATOM      3  C   UNL     1     168.185 199.944 300.213  1.00  0.00     0.053 C 
ATOM      4  C   UNL     1     168.442 199.216 298.889  1.00  0.00     0.016 C 
BRANCH   3   5
ATOM      5  C   UNL     1     167.874 198.927 301.331  1.00  0.00     0.015 C 
BRANCH   5   6
ATOM      6  C   UNL     1     166.546 199.166 302.071  1.00  0.00     0.028 C 
BRANCH   6   7
ATOM      7  C   UNL     1     166.665 199.144 303.578  1.00  0.00    -0.028 C 
ATOM      8  C   UNL     1     165.971 199.881 304.487  1.00  0.00    -0.070 CG0
ATOM      9  C   UNL     1     166.217 199.562 305.944  1.00  0.00     0.039 C 
ATOM     10  G   UNL     1     165.057 201.060 304.171  1.00  0.00     0.000 G0
ENDBRANCH   6   7
ENDBRANCH   5   6
ENDBRANCH   3   5
ENDBRANCH   1   3
BRANCH   1  11
ATOM     11  C   UNL     1     166.869 202.083 301.003  1.00  0.00     0.087 C 
BRANCH  11  12
ATOM     12  C   UNL     1     165.501 202.021 301.738  1.00  0.00     0.066 C 
BRANCH  12  13
ATOM     13  C   UNL     1     165.656 202.115 303.253  1.00  0.00     0.140 C 
ATOM     14  O   UNL     1     166.396 202.970 303.719  1.00  0.00    -0.299 OA
BRANCH  13  15
ATOM     15  C   UNL     1     165.074 201.070 304.173  1.00  0.00     0.106 CG0
ATOM     16  G   UNL     1     165.977 199.878 304.472  1.00  0.00     0.000 G0
ENDBRANCH  13  15
ENDBRANCH  12  13
BRANCH  12  17
ATOM     17  C   UNL     1     164.519 203.125 301.227  1.00  0.00    -0.006 C 
ATOM     18  C   UNL     1     164.373 203.112 299.694  1.00  0.00     0.008 C 
ATOM     19  C   UNL     1     163.121 202.975 301.858  1.00  0.00     0.008 C 
ENDBRANCH  12  17
ENDBRANCH  11  12
ENDBRANCH   1  11
TORSDOF 1
ENDMDL
MODEL 8
REMARK VINA RESULT:    -1.855      2.239      4.509
REMARK INTER + INTRA:          -3.290
REMARK INTER:                  -3.382
REMARK INTRA:                   0.092
REMARK UNBOUND:                -0.459
REMARK SMILES CC1=CCC[C@@H](C)C(=O)C[C@H](C(C)C)C(=O)C1
REMARK SMILES IDX 8 1 9 2 6 3 7 4 5 5 4 6 3 7 2 8 1 9 10 11 11 12 15 13 16 14
REMARK SMILES IDX 17 15 12 17 13 18 14 19
REMARK H PARENT
REMARK Flexibility Score: 70.00
ROOT
ATOM      1  C   UNL     1     165.071 199.921 306.075  1.00  0.00     0.136 C 
ATOM      2  O   UNL     1     165.060 200.326 307.230  1.00  0.00    -0.299 OA
ENDROOT
BRANCH   1   3
ATOM      3  C   UNL     1     165.849 198.668 305.722  1.00  0.00     0.053 C 
ATOM      4  C   UNL     1     166.625 198.186 306.952  1.00  0.00     0.016 C 
BRANCH   3   5
ATOM      5  C   UNL     1     166.812 198.889 304.535  1.00  0.00     0.015 C 
BRANCH   5   6
ATOM      6  C   UNL     1     166.227 198.539 303.156  1.00  0.00     0.028 C 
BRANCH   6   7
ATOM      7  C   UNL     1     166.757 199.391 302.025  1.00  0.00    -0.028 C 
ATOM      8  C   UNL     1     166.410 200.665 301.699  1.00  0.00    -0.070 CG0
ATOM      9  C   UNL     1     167.195 201.314 300.582  1.00  0.00     0.039 C 
ATOM     10  G   UNL     1     165.241 201.451 302.284  1.00  0.00     0.000 G0
ENDBRANCH   6   7
ENDBRANCH   5   6
ENDBRANCH   3   5
ENDBRANCH   1   3
BRANCH   1  11
ATOM     11  C   UNL     1     164.258 200.650 305.036  1.00  0.00     0.087 C 
BRANCH  11  12
ATOM     12  C   UNL     1     164.731 202.111 304.801  1.00  0.00     0.066 C 
BRANCH  12  13
ATOM     13  C   UNL     1     165.570 202.249 303.534  1.00  0.00     0.140 C 
ATOM     14  O   UNL     1     166.423 203.124 303.484  1.00  0.00    -0.299 OA
BRANCH  13  15
ATOM     15  C   UNL     1     165.248 201.468 302.284  1.00  0.00     0.106 CG0
ATOM     16  G   UNL     1     166.400 200.658 301.698  1.00  0.00     0.000 G0
ENDBRANCH  13  15
ENDBRANCH  12  13
BRANCH  12  17
ATOM     17  C   UNL     1     163.529 203.109 304.764  1.00  0.00    -0.006 C 
ATOM     18  C   UNL     1     162.655 202.927 303.509  1.00  0.00     0.008 C 
ATOM     19  C   UNL     1     162.637 202.967 306.013  1.00  0.00     0.008 C 
ENDBRANCH  12  17
ENDBRANCH  11  12
ENDBRANCH   1  11
TORSDOF 1
ENDMDL
MODEL 9
REMARK VINA RESULT:    -1.612      2.176      4.706
REMARK INTER + INTRA:          -2.919
REMARK INTER:                  -4.133
REMARK INTRA:                   1.213
REMARK UNBOUND:                -0.459
REMARK SMILES CC1=CCC[C@@H](C)C(=O)C[C@H](C(C)C)C(=O)C1
REMARK SMILES IDX 8 1 9 2 6 3 7 4 5 5 4 6 3 7 2 8 1 9 10 11 11 12 15 13 16 14
REMARK SMILES IDX 17 15 12 17 13 18 14 19
REMARK H PARENT
REMARK Flexibility Score: 70.00
ROOT
ATOM      1  C   UNL     1     166.006 199.905 302.446  1.00  0.00     0.136 C 
ATOM      2  O   UNL     1     164.987 199.240 302.574  1.00  0.00    -0.299 OA
ENDROOT
BRANCH   1   3
ATOM      3  C   UNL     1     166.416 200.399 301.071  1.00  0.00     0.053 C 
ATOM      4  C   UNL     1     167.378 199.392 300.433  1.00  0.00     0.016 C 
BRANCH   3   5
ATOM      5  C   UNL     1     167.063 201.800 301.119  1.00  0.00     0.015 C 
BRANCH   5   6
ATOM      6  C   UNL     1     166.223 202.921 300.481  1.00  0.00     0.028 C 
BRANCH   6   7
ATOM      7  C   UNL     1     164.775 202.930 300.913  1.00  0.00    -0.028 C 
ATOM      8  C   UNL     1     164.273 203.019 302.175  1.00  0.00    -0.070 CG0
ATOM      9  C   UNL     1     162.771 203.124 302.299  1.00  0.00     0.039 C 
ATOM     10  G   UNL     1     165.079 202.916 303.466  1.00  0.00     0.000 G0
ENDBRANCH   6   7
ENDBRANCH   5   6
ENDBRANCH   3   5
ENDBRANCH   1   3
BRANCH   1  11
ATOM     11  C   UNL     1     166.805 200.269 303.671  1.00  0.00     0.087 C 
BRANCH  11  12
ATOM     12  C   UNL     1     165.929 200.815 304.833  1.00  0.00     0.066 C 
BRANCH  12  13
ATOM     13  C   UNL     1     164.796 201.705 304.333  1.00  0.00     0.140 C 
ATOM     14  O   UNL     1     163.641 201.336 304.494  1.00  0.00    -0.299 OA
BRANCH  13  15
ATOM     15  C   UNL     1     165.064 202.923 303.484  1.00  0.00     0.106 CG0
ATOM     16  G   UNL     1     164.281 203.003 302.178  1.00  0.00     0.000 G0
ENDBRANCH  13  15
ENDBRANCH  12  13
BRANCH  12  17
ATOM     17  C   UNL     1     165.358 199.660 305.718  1.00  0.00    -0.006 C 
ATOM     18  C   UNL     1     166.354 198.497 305.877  1.00  0.00     0.008 C 
ATOM     19  C   UNL     1     164.959 200.165 307.119  1.00  0.00     0.008 C 
ENDBRANCH  12  17
ENDBRANCH  11  12
ENDBRANCH   1  11
TORSDOF 1
ENDMDL
