MODEL 1
REMARK VINA RESULT:    -4.056      0.000      0.000
REMARK INTER + INTRA:          -5.022
REMARK INTER:                  -4.886
REMARK INTRA:                  -0.136
REMARK UNBOUND:                -0.136
REMARK SMILES CC[C@H](C)[C@H]([NH3+])C(=O)[O-]
REMARK SMILES IDX 3 1 4 2 5 3 6 4 7 8 8 9 9 10 2 11 1 12
REMARK H PARENT 6 5 6 6 6 7
REMARK Flexibility Score: inf
ROOT
ATOM      1  C   UNL     1     -38.461  19.188 -28.660  1.00  0.00     0.050 C 
ATOM      2  C   UNL     1     -39.911  19.309 -28.158  1.00  0.00     0.014 C 
ENDROOT
BRANCH   1   3
ATOM      3  C   UNL     1     -38.421  18.868 -30.187  1.00  0.00     0.230 C 
BRANCH   3   4
ATOM      4  N   UNL     1     -37.751  17.593 -30.488  1.00  0.00    -0.350 N 
ATOM      5  H   UNL     1     -38.273  16.797 -30.057  1.00  0.00     0.345 HD
ATOM      6  H   UNL     1     -37.741  17.440 -31.523  1.00  0.00     0.345 HD
ATOM      7  H   UNL     1     -36.765  17.588 -30.142  1.00  0.00     0.345 HD
ENDBRANCH   3   4
BRANCH   3   8
ATOM      8  C   UNL     1     -37.801  20.004 -30.964  1.00  0.00     0.099 C 
ATOM      9  O   UNL     1     -38.453  20.617 -31.850  1.00  0.00    -0.544 OA
ATOM     10  O   UNL     1     -36.476  20.353 -30.730  1.00  0.00    -0.544 OA
ENDBRANCH   3   8
ENDBRANCH   1   3
BRANCH   1  11
ATOM     11  C   UNL     1     -37.656  18.170 -27.811  1.00  0.00     0.006 C 
ATOM     12  C   UNL     1     -36.282  18.702 -27.398  1.00  0.00     0.004 C 
ENDBRANCH   1  11
TORSDOF 4
ENDMDL
MODEL 2
REMARK VINA RESULT:    -3.974      2.299      2.748
REMARK INTER + INTRA:          -4.923
REMARK INTER:                  -4.926
REMARK INTRA:                   0.003
REMARK UNBOUND:                -0.136
REMARK SMILES CC[C@H](C)[C@H]([NH3+])C(=O)[O-]
REMARK SMILES IDX 3 1 4 2 5 3 6 4 7 8 8 9 9 10 2 11 1 12
REMARK H PARENT 6 5 6 6 6 7
REMARK Flexibility Score: inf
ROOT
ATOM      1  C   UNL     1     -39.102  19.754 -29.486  1.00  0.00     0.050 C 
ATOM      2  C   UNL     1     -38.771  18.999 -28.186  1.00  0.00     0.014 C 
ENDROOT
BRANCH   1   3
ATOM      3  C   UNL     1     -38.092  19.391 -30.619  1.00  0.00     0.230 C 
BRANCH   3   4
ATOM      4  N   UNL     1     -38.326  20.148 -31.859  1.00  0.00    -0.350 N 
ATOM      5  H   UNL     1     -38.467  21.161 -31.646  1.00  0.00     0.345 HD
ATOM      6  H   UNL     1     -37.487  20.069 -32.478  1.00  0.00     0.345 HD
ATOM      7  H   UNL     1     -39.158  19.784 -32.378  1.00  0.00     0.345 HD
ENDBRANCH   3   4
BRANCH   3   8
ATOM      8  C   UNL     1     -38.084  17.904 -30.883  1.00  0.00     0.099 C 
ATOM      9  O   UNL     1     -39.015  17.355 -31.531  1.00  0.00    -0.544 OA
ATOM     10  O   UNL     1     -37.060  17.120 -30.366  1.00  0.00    -0.544 OA
ENDBRANCH   3   8
ENDBRANCH   1   3
BRANCH   1  11
ATOM     11  C   UNL     1     -39.204  21.282 -29.238  1.00  0.00     0.006 C 
ATOM     12  C   UNL     1     -37.847  21.926 -28.953  1.00  0.00     0.004 C 
ENDBRANCH   1  11
TORSDOF 4
ENDMDL
MODEL 3
REMARK VINA RESULT:    -3.960      2.346      2.879
REMARK INTER + INTRA:          -4.905
REMARK INTER:                  -4.792
REMARK INTRA:                  -0.113
REMARK UNBOUND:                -0.136
REMARK SMILES CC[C@H](C)[C@H]([NH3+])C(=O)[O-]
REMARK SMILES IDX 3 1 4 2 5 3 6 4 7 8 8 9 9 10 2 11 1 12
REMARK H PARENT 6 5 6 6 6 7
REMARK Flexibility Score: inf
ROOT
ATOM      1  C   UNL     1     -38.450  19.321 -29.596  1.00  0.00     0.050 C 
ATOM      2  C   UNL     1     -39.442  19.001 -28.464  1.00  0.00     0.014 C 
ENDROOT
BRANCH   1   3
ATOM      3  C   UNL     1     -38.759  20.710 -30.237  1.00  0.00     0.230 C 
BRANCH   3   4
ATOM      4  N   UNL     1     -38.073  20.913 -31.523  1.00  0.00    -0.350 N 
ATOM      5  H   UNL     1     -38.585  20.421 -32.290  1.00  0.00     0.345 HD
ATOM      6  H   UNL     1     -38.062  21.933 -31.754  1.00  0.00     0.345 HD
ATOM      7  H   UNL     1     -37.087  20.569 -31.488  1.00  0.00     0.345 HD
ENDBRANCH   3   4
BRANCH   3   8
ATOM      8  C   UNL     1     -38.453  21.832 -29.274  1.00  0.00     0.099 C 
ATOM      9  O   UNL     1     -37.283  22.019 -28.847  1.00  0.00    -0.544 OA
ATOM     10  O   UNL     1     -39.483  22.645 -28.817  1.00  0.00    -0.544 OA
ENDBRANCH   3   8
ENDBRANCH   1   3
BRANCH   1  11
ATOM     11  C   UNL     1     -38.399  18.175 -30.640  1.00  0.00     0.006 C 
ATOM     12  C   UNL     1     -37.271  17.179 -30.369  1.00  0.00     0.004 C 
ENDBRANCH   1  11
TORSDOF 4
ENDMDL
MODEL 4
REMARK VINA RESULT:    -3.947      2.327      3.077
REMARK INTER + INTRA:          -4.890
REMARK INTER:                  -4.824
REMARK INTRA:                  -0.067
REMARK UNBOUND:                -0.136
REMARK SMILES CC[C@H](C)[C@H]([NH3+])C(=O)[O-]
REMARK SMILES IDX 3 1 4 2 5 3 6 4 7 8 8 9 9 10 2 11 1 12
REMARK H PARENT 6 5 6 6 6 7
REMARK Flexibility Score: inf
ROOT
ATOM      1  C   UNL     1     -38.007  20.367 -29.340  1.00  0.00     0.050 C 
ATOM      2  C   UNL     1     -37.329  21.746 -29.250  1.00  0.00     0.014 C 
ENDROOT
BRANCH   1   3
ATOM      3  C   UNL     1     -37.671  19.663 -30.692  1.00  0.00     0.230 C 
BRANCH   3   4
ATOM      4  N   UNL     1     -38.350  20.279 -31.843  1.00  0.00    -0.350 N 
ATOM      5  H   UNL     1     -38.164  19.730 -32.712  1.00  0.00     0.345 HD
ATOM      6  H   UNL     1     -39.383  20.274 -31.680  1.00  0.00     0.345 HD
ATOM      7  H   UNL     1     -38.041  21.267 -31.985  1.00  0.00     0.345 HD
ENDBRANCH   3   4
BRANCH   3   8
ATOM      8  C   UNL     1     -37.958  18.183 -30.618  1.00  0.00     0.099 C 
ATOM      9  O   UNL     1     -37.322  17.437 -29.827  1.00  0.00    -0.544 OA
ATOM     10  O   UNL     1     -38.907  17.625 -31.467  1.00  0.00    -0.544 OA
ENDBRANCH   3   8
ENDBRANCH   1   3
BRANCH   1  11
ATOM     11  C   UNL     1     -39.533  20.473 -29.080  1.00  0.00     0.006 C 
ATOM     12  C   UNL     1     -40.048  19.382 -28.141  1.00  0.00     0.004 C 
ENDBRANCH   1  11
TORSDOF 4
ENDMDL
MODEL 5
REMARK VINA RESULT:    -3.933      2.266      2.942
REMARK INTER + INTRA:          -4.873
REMARK INTER:                  -4.798
REMARK INTRA:                  -0.075
REMARK UNBOUND:                -0.136
REMARK SMILES CC[C@H](C)[C@H]([NH3+])C(=O)[O-]
REMARK SMILES IDX 3 1 4 2 5 3 6 4 7 8 8 9 9 10 2 11 1 12
REMARK H PARENT 6 5 6 6 6 7
REMARK Flexibility Score: inf
ROOT
ATOM      1  C   UNL     1     -38.789  19.201 -29.052  1.00  0.00     0.050 C 
ATOM      2  C   UNL     1     -40.044  19.291 -28.165  1.00  0.00     0.014 C 
ENDROOT
BRANCH   1   3
ATOM      3  C   UNL     1     -37.787  18.138 -28.502  1.00  0.00     0.230 C 
BRANCH   3   4
ATOM      4  N   UNL     1     -37.043  18.609 -27.323  1.00  0.00    -0.350 N 
ATOM      5  H   UNL     1     -37.446  19.507 -26.973  1.00  0.00     0.345 HD
ATOM      6  H   UNL     1     -37.127  17.904 -26.555  1.00  0.00     0.345 HD
ATOM      7  H   UNL     1     -36.030  18.745 -27.540  1.00  0.00     0.345 HD
ENDBRANCH   3   4
BRANCH   3   8
ATOM      8  C   UNL     1     -36.848  17.667 -29.586  1.00  0.00     0.099 C 
ATOM      9  O   UNL     1     -37.189  16.761 -30.391  1.00  0.00    -0.544 OA
ATOM     10  O   UNL     1     -35.570  18.207 -29.669  1.00  0.00    -0.544 OA
ENDBRANCH   3   8
ENDBRANCH   1   3
BRANCH   1  11
ATOM     11  C   UNL     1     -38.139  20.596 -29.249  1.00  0.00     0.006 C 
ATOM     12  C   UNL     1     -39.157  21.735 -29.189  1.00  0.00     0.004 C 
ENDBRANCH   1  11
TORSDOF 4
ENDMDL
MODEL 6
REMARK VINA RESULT:    -3.922      2.192      3.433
REMARK INTER + INTRA:          -4.860
REMARK INTER:                  -4.902
REMARK INTRA:                   0.042
REMARK UNBOUND:                -0.136
REMARK SMILES CC[C@H](C)[C@H]([NH3+])C(=O)[O-]
REMARK SMILES IDX 3 1 4 2 5 3 6 4 7 8 8 9 9 10 2 11 1 12
REMARK H PARENT 6 5 6 6 6 7
REMARK Flexibility Score: inf
ROOT
ATOM      1  C   UNL     1     -37.465  19.055 -29.983  1.00  0.00     0.050 C 
ATOM      2  C   UNL     1     -38.596  18.415 -30.808  1.00  0.00     0.014 C 
ENDROOT
BRANCH   1   3
ATOM      3  C   UNL     1     -37.944  19.391 -28.537  1.00  0.00     0.230 C 
BRANCH   3   4
ATOM      4  N   UNL     1     -37.741  18.279 -27.594  1.00  0.00    -0.350 N 
ATOM      5  H   UNL     1     -37.061  17.589 -27.985  1.00  0.00     0.345 HD
ATOM      6  H   UNL     1     -37.339  18.649 -26.702  1.00  0.00     0.345 HD
ATOM      7  H   UNL     1     -38.641  17.794 -27.376  1.00  0.00     0.345 HD
ENDBRANCH   3   4
BRANCH   3   8
ATOM      8  C   UNL     1     -39.383  19.850 -28.535  1.00  0.00     0.099 C 
ATOM      9  O   UNL     1     -40.303  19.099 -28.113  1.00  0.00    -0.544 OA
ATOM     10  O   UNL     1     -39.705  21.101 -29.047  1.00  0.00    -0.544 OA
ENDBRANCH   3   8
ENDBRANCH   1   3
BRANCH   1  11
ATOM     11  C   UNL     1     -36.859  20.280 -30.716  1.00  0.00     0.006 C 
ATOM     12  C   UNL     1     -37.769  20.816 -31.822  1.00  0.00     0.004 C 
ENDBRANCH   1  11
TORSDOF 4
ENDMDL
MODEL 7
REMARK VINA RESULT:    -3.898      1.862      2.338
REMARK INTER + INTRA:          -4.832
REMARK INTER:                  -4.779
REMARK INTRA:                  -0.052
REMARK UNBOUND:                -0.136
REMARK SMILES CC[C@H](C)[C@H]([NH3+])C(=O)[O-]
REMARK SMILES IDX 3 1 4 2 5 3 6 4 7 8 8 9 9 10 2 11 1 12
REMARK H PARENT 6 5 6 6 6 7
REMARK Flexibility Score: inf
ROOT
ATOM      1  C   UNL     1     -38.770  19.008 -29.914  1.00  0.00     0.050 C 
ATOM      2  C   UNL     1     -37.590  18.166 -30.432  1.00  0.00     0.014 C 
ENDROOT
BRANCH   1   3
ATOM      3  C   UNL     1     -38.727  20.455 -30.499  1.00  0.00     0.230 C 
BRANCH   3   4
ATOM      4  N   UNL     1     -38.189  20.503 -31.867  1.00  0.00    -0.350 N 
ATOM      5  H   UNL     1     -37.251  20.045 -31.906  1.00  0.00     0.345 HD
ATOM      6  H   UNL     1     -38.825  19.977 -32.510  1.00  0.00     0.345 HD
ATOM      7  H   UNL     1     -38.108  21.486 -32.212  1.00  0.00     0.345 HD
ENDBRANCH   3   4
BRANCH   3   8
ATOM      8  C   UNL     1     -37.971  21.387 -29.583  1.00  0.00     0.099 C 
ATOM      9  O   UNL     1     -38.574  22.261 -28.905  1.00  0.00    -0.544 OA
ATOM     10  O   UNL     1     -36.585  21.313 -29.520  1.00  0.00    -0.544 OA
ENDBRANCH   3   8
ENDBRANCH   1   3
BRANCH   1  11
ATOM     11  C   UNL     1     -38.839  18.987 -28.365  1.00  0.00     0.006 C 
ATOM     12  C   UNL     1     -37.690  18.200 -27.734  1.00  0.00     0.004 C 
ENDBRANCH   1  11
TORSDOF 4
ENDMDL
MODEL 8
REMARK VINA RESULT:    -3.896      2.540      3.470
REMARK INTER + INTRA:          -4.829
REMARK INTER:                  -4.739
REMARK INTRA:                  -0.090
REMARK UNBOUND:                -0.136
REMARK SMILES CC[C@H](C)[C@H]([NH3+])C(=O)[O-]
REMARK SMILES IDX 3 1 4 2 5 3 6 4 7 8 8 9 9 10 2 11 1 12
REMARK H PARENT 6 5 6 6 6 7
REMARK Flexibility Score: inf
ROOT
ATOM      1  C   UNL     1     -38.206  20.157 -29.933  1.00  0.00     0.050 C 
ATOM      2  C   UNL     1     -38.314  20.154 -31.469  1.00  0.00     0.014 C 
ENDROOT
BRANCH   1   3
ATOM      3  C   UNL     1     -38.755  18.827 -29.329  1.00  0.00     0.230 C 
BRANCH   3   4
ATOM      4  N   UNL     1     -39.752  19.048 -28.270  1.00  0.00    -0.350 N 
ATOM      5  H   UNL     1     -40.521  19.665 -28.615  1.00  0.00     0.345 HD
ATOM      6  H   UNL     1     -40.179  18.132 -27.997  1.00  0.00     0.345 HD
ATOM      7  H   UNL     1     -39.319  19.477 -27.421  1.00  0.00     0.345 HD
ENDBRANCH   3   4
BRANCH   3   8
ATOM      8  C   UNL     1     -37.629  17.947 -28.842  1.00  0.00     0.099 C 
ATOM      9  O   UNL     1     -37.283  17.948 -27.631  1.00  0.00    -0.544 OA
ATOM     10  O   UNL     1     -36.934  17.156 -29.749  1.00  0.00    -0.544 OA
ENDBRANCH   3   8
ENDBRANCH   1   3
BRANCH   1  11
ATOM     11  C   UNL     1     -38.877  21.416 -29.325  1.00  0.00     0.006 C 
ATOM     12  C   UNL     1     -37.862  22.468 -28.878  1.00  0.00     0.004 C 
ENDBRANCH   1  11
TORSDOF 4
ENDMDL
MODEL 9
REMARK VINA RESULT:    -3.890      2.233      3.621
REMARK INTER + INTRA:          -4.822
REMARK INTER:                  -4.692
REMARK INTRA:                  -0.130
REMARK UNBOUND:                -0.136
REMARK SMILES CC[C@H](C)[C@H]([NH3+])C(=O)[O-]
REMARK SMILES IDX 3 1 4 2 5 3 6 4 7 8 8 9 9 10 2 11 1 12
REMARK H PARENT 6 5 6 6 6 7
REMARK Flexibility Score: inf
ROOT
ATOM      1  C   UNL     1     -38.182  18.886 -30.676  1.00  0.00     0.050 C 
ATOM      2  C   UNL     1     -38.784  17.665 -31.395  1.00  0.00     0.014 C 
ENDROOT
BRANCH   1   3
ATOM      3  C   UNL     1     -38.723  19.003 -29.217  1.00  0.00     0.230 C 
BRANCH   3   4
ATOM      4  N   UNL     1     -39.456  20.256 -28.977  1.00  0.00    -0.350 N 
ATOM      5  H   UNL     1     -39.816  20.285 -27.997  1.00  0.00     0.345 HD
ATOM      6  H   UNL     1     -38.808  21.067 -29.100  1.00  0.00     0.345 HD
ATOM      7  H   UNL     1     -40.255  20.365 -29.643  1.00  0.00     0.345 HD
ENDBRANCH   3   4
BRANCH   3   8
ATOM      8  C   UNL     1     -37.613  18.820 -28.210  1.00  0.00     0.099 C 
ATOM      9  O   UNL     1     -37.623  17.854 -27.402  1.00  0.00    -0.544 OA
ATOM     10  O   UNL     1     -36.588  19.755 -28.142  1.00  0.00    -0.544 OA
ENDBRANCH   3   8
ENDBRANCH   1   3
BRANCH   1  11
ATOM     11  C   UNL     1     -38.391  20.183 -31.501  1.00  0.00     0.006 C 
ATOM     12  C   UNL     1     -37.137  21.056 -31.556  1.00  0.00     0.004 C 
ENDBRANCH   1  11
TORSDOF 4
ENDMDL
