MODEL 1
REMARK VINA RESULT:    -0.014      0.000      0.000
REMARK INTER + INTRA:          -2.580
REMARK INTER:                  -0.038
REMARK INTRA:                  -2.543
REMARK UNBOUND:                -2.543
REMARK SMILES CCCCCCCCCCCCCCCCCCCCCCCCCCCCCC(=O)[O-]
REMARK SMILES IDX 16 1 17 2 18 3 19 4 20 5 21 6 22 7 23 8 24 9 25 10 26 11
REMARK SMILES IDX 27 12 28 13 29 14 30 15 31 16 32 17 15 18 14 19 13 20 12 21
REMARK SMILES IDX 11 22 10 23 9 24 8 25 7 26 6 27 5 28 4 29 3 30 2 31 1 32
REMARK H PARENT
REMARK Flexibility Score: inf
ROOT
ATOM      1  C   UNL     1     -15.730   8.843   7.674  1.00  0.00     0.000 C 
ENDROOT
BRANCH   1   2
ATOM      2  C   UNL     1     -16.251   8.382   9.046  1.00  0.00     0.000 C 
BRANCH   2   3
ATOM      3  C   UNL     1     -15.266   7.447   9.763  1.00  0.00     0.000 C 
BRANCH   3   4
ATOM      4  C   UNL     1     -15.480   7.478  11.285  1.00  0.00     0.000 C 
BRANCH   4   5
ATOM      5  C   UNL     1     -16.932   7.806  11.682  1.00  0.00     0.000 C 
BRANCH   5   6
ATOM      6  C   UNL     1     -17.101   9.056  12.564  1.00  0.00     0.000 C 
BRANCH   6   7
ATOM      7  C   UNL     1     -16.390  10.292  11.995  1.00  0.00     0.000 C 
BRANCH   7   8
ATOM      8  C   UNL     1     -15.963  11.243  13.125  1.00  0.00     0.000 C 
BRANCH   8   9
ATOM      9  C   UNL     1     -14.725  12.084  12.766  1.00  0.00     0.000 C 
BRANCH   9  10
ATOM     10  C   UNL     1     -15.029  13.382  11.995  1.00  0.00     0.000 C 
BRANCH  10  11
ATOM     11  C   UNL     1     -16.288  13.275  11.118  1.00  0.00     0.000 C 
BRANCH  11  12
ATOM     12  C   UNL     1     -15.990  13.460   9.620  1.00  0.00     0.000 C 
BRANCH  12  13
ATOM     13  C   UNL     1     -14.681  12.805   9.133  1.00  0.00     0.006 C 
BRANCH  13  14
ATOM     14  C   UNL     1     -13.817  13.702   8.232  1.00  0.00     0.053 C 
BRANCH  14  15
ATOM     15  C   UNL     1     -13.889  13.288   6.795  1.00  0.00     0.041 C 
ATOM     16  O   UNL     1     -12.854  12.885   6.198  1.00  0.00    -0.550 OA
ATOM     17  O   UNL     1     -15.090  13.376   6.104  1.00  0.00    -0.550 OA
ENDBRANCH  14  15
ENDBRANCH  13  14
ENDBRANCH  12  13
ENDBRANCH  11  12
ENDBRANCH  10  11
ENDBRANCH   9  10
ENDBRANCH   8   9
ENDBRANCH   7   8
ENDBRANCH   6   7
ENDBRANCH   5   6
ENDBRANCH   4   5
ENDBRANCH   3   4
ENDBRANCH   2   3
ENDBRANCH   1   2
BRANCH   1  18
ATOM     18  C   UNL     1     -16.357  10.174   7.222  1.00  0.00     0.000 C 
BRANCH  18  19
ATOM     19  C   UNL     1     -17.058  10.059   5.852  1.00  0.00     0.000 C 
BRANCH  19  20
ATOM     20  C   UNL     1     -16.351   9.111   4.864  1.00  0.00     0.000 C 
BRANCH  20  21
ATOM     21  C   UNL     1     -17.125   8.819   3.568  1.00  0.00     0.000 C 
BRANCH  21  22
ATOM     22  C   UNL     1     -16.356   7.892   2.611  1.00  0.00     0.000 C 
BRANCH  22  23
ATOM     23  C   UNL     1     -16.890   7.943   1.168  1.00  0.00     0.000 C 
BRANCH  23  24
ATOM     24  C   UNL     1     -17.066   6.575   0.484  1.00  0.00    -0.000 C 
BRANCH  24  25
ATOM     25  C   UNL     1     -15.745   5.798   0.345  1.00  0.00    -0.000 C 
BRANCH  25  26
ATOM     26  C   UNL     1     -15.521   5.264  -1.079  1.00  0.00    -0.000 C 
BRANCH  26  27
ATOM     27  C   UNL     1     -14.042   5.293  -1.493  1.00  0.00    -0.000 C 
BRANCH  27  28
ATOM     28  C   UNL     1     -13.173   5.898  -0.380  1.00  0.00    -0.000 C 
BRANCH  28  29
ATOM     29  C   UNL     1     -12.129   6.897  -0.910  1.00  0.00    -0.000 C 
BRANCH  29  30
ATOM     30  C   UNL     1     -12.282   8.340  -0.389  1.00  0.00    -0.000 C 
BRANCH  30  31
ATOM     31  C   UNL     1     -13.064   8.476   0.929  1.00  0.00    -0.003 C 
ATOM     32  C   UNL     1     -13.146   9.919   1.428  1.00  0.00     0.004 C 
ENDBRANCH  30  31
ENDBRANCH  29  30
ENDBRANCH  28  29
ENDBRANCH  27  28
ENDBRANCH  26  27
ENDBRANCH  25  26
ENDBRANCH  24  25
ENDBRANCH  23  24
ENDBRANCH  22  23
ENDBRANCH  21  22
ENDBRANCH  20  21
ENDBRANCH  19  20
ENDBRANCH  18  19
ENDBRANCH   1  18
TORSDOF 28
ENDMDL
MODEL 2
REMARK VINA RESULT:     0.067      1.107      2.702
REMARK INTER + INTRA:          -2.365
REMARK INTER:                  -0.215
REMARK INTRA:                  -2.151
REMARK UNBOUND:                -2.543
REMARK SMILES CCCCCCCCCCCCCCCCCCCCCCCCCCCCCC(=O)[O-]
REMARK SMILES IDX 16 1 17 2 18 3 19 4 20 5 21 6 22 7 23 8 24 9 25 10 26 11
REMARK SMILES IDX 27 12 28 13 29 14 30 15 31 16 32 17 15 18 14 19 13 20 12 21
REMARK SMILES IDX 11 22 10 23 9 24 8 25 7 26 6 27 5 28 4 29 3 30 2 31 1 32
REMARK H PARENT
REMARK Flexibility Score: inf
ROOT
ATOM      1  C   UNL     1     -15.631   9.215   9.055  1.00  0.00     0.000 C 
ENDROOT
BRANCH   1   2
ATOM      2  C   UNL     1     -15.623   7.698   9.307  1.00  0.00     0.000 C 
BRANCH   2   3
ATOM      3  C   UNL     1     -16.877   7.220  10.054  1.00  0.00     0.000 C 
BRANCH   3   4
ATOM      4  C   UNL     1     -16.637   7.181  11.572  1.00  0.00     0.000 C 
BRANCH   4   5
ATOM      5  C   UNL     1     -15.346   7.908  11.996  1.00  0.00     0.000 C 
BRANCH   5   6
ATOM      6  C   UNL     1     -15.526   8.964  13.101  1.00  0.00     0.000 C 
BRANCH   6   7
ATOM      7  C   UNL     1     -16.911   9.624  13.080  1.00  0.00     0.000 C 
BRANCH   7   8
ATOM      8  C   UNL     1     -16.947  10.784  12.072  1.00  0.00     0.000 C 
BRANCH   8   9
ATOM      9  C   UNL     1     -15.757  11.749  12.224  1.00  0.00     0.000 C 
BRANCH   9  10
ATOM     10  C   UNL     1     -16.139  13.188  12.613  1.00  0.00     0.000 C 
BRANCH  10  11
ATOM     11  C   UNL     1     -15.700  14.226  11.566  1.00  0.00     0.000 C 
BRANCH  11  12
ATOM     12  C   UNL     1     -14.189  14.187  11.282  1.00  0.00     0.000 C 
BRANCH  12  13
ATOM     13  C   UNL     1     -13.811  14.178   9.787  1.00  0.00     0.006 C 
BRANCH  13  14
ATOM     14  C   UNL     1     -14.646  13.218   8.923  1.00  0.00     0.053 C 
BRANCH  14  15
ATOM     15  C   UNL     1     -14.314  13.340   7.469  1.00  0.00     0.041 C 
ATOM     16  O   UNL     1     -15.232  13.473   6.617  1.00  0.00    -0.550 OA
ATOM     17  O   UNL     1     -12.991  13.273   7.048  1.00  0.00    -0.550 OA
ENDBRANCH  14  15
ENDBRANCH  13  14
ENDBRANCH  12  13
ENDBRANCH  11  12
ENDBRANCH  10  11
ENDBRANCH   9  10
ENDBRANCH   8   9
ENDBRANCH   7   8
ENDBRANCH   6   7
ENDBRANCH   5   6
ENDBRANCH   4   5
ENDBRANCH   3   4
ENDBRANCH   2   3
ENDBRANCH   1   2
BRANCH   1  18
ATOM     18  C   UNL     1     -17.056   9.785   8.937  1.00  0.00     0.000 C 
BRANCH  18  19
ATOM     19  C   UNL     1     -17.125  11.006   7.996  1.00  0.00     0.000 C 
BRANCH  19  20
ATOM     20  C   UNL     1     -17.056  10.646   6.499  1.00  0.00     0.000 C 
BRANCH  20  21
ATOM     21  C   UNL     1     -15.702  10.097   6.018  1.00  0.00     0.000 C 
BRANCH  21  22
ATOM     22  C   UNL     1     -15.750   9.575   4.572  1.00  0.00     0.000 C 
BRANCH  22  23
ATOM     23  C   UNL     1     -14.378   9.102   4.060  1.00  0.00     0.000 C 
BRANCH  23  24
ATOM     24  C   UNL     1     -14.274   8.919   2.534  1.00  0.00    -0.000 C 
BRANCH  24  25
ATOM     25  C   UNL     1     -13.305   9.915   1.874  1.00  0.00    -0.000 C 
BRANCH  25  26
ATOM     26  C   UNL     1     -12.987   9.551   0.415  1.00  0.00    -0.000 C 
BRANCH  26  27
ATOM     27  C   UNL     1     -12.297   8.185   0.285  1.00  0.00    -0.000 C 
BRANCH  27  28
ATOM     28  C   UNL     1     -12.914   7.367  -0.859  1.00  0.00    -0.000 C 
BRANCH  28  29
ATOM     29  C   UNL     1     -13.085   5.878  -0.507  1.00  0.00    -0.000 C 
BRANCH  29  30
ATOM     30  C   UNL     1     -14.204   5.149  -1.278  1.00  0.00    -0.000 C 
BRANCH  30  31
ATOM     31  C   UNL     1     -15.635   5.514  -0.847  1.00  0.00    -0.003 C 
ATOM     32  C   UNL     1     -15.675   6.417   0.385  1.00  0.00     0.004 C 
ENDBRANCH  30  31
ENDBRANCH  29  30
ENDBRANCH  28  29
ENDBRANCH  27  28
ENDBRANCH  26  27
ENDBRANCH  25  26
ENDBRANCH  24  25
ENDBRANCH  23  24
ENDBRANCH  22  23
ENDBRANCH  21  22
ENDBRANCH  20  21
ENDBRANCH  19  20
ENDBRANCH  18  19
ENDBRANCH   1  18
TORSDOF 28
ENDMDL
MODEL 3
REMARK VINA RESULT:     0.211      2.273     10.875
REMARK INTER + INTRA:          -1.987
REMARK INTER:                   0.111
REMARK INTRA:                  -2.098
REMARK UNBOUND:                -2.543
REMARK SMILES CCCCCCCCCCCCCCCCCCCCCCCCCCCCCC(=O)[O-]
REMARK SMILES IDX 16 1 17 2 18 3 19 4 20 5 21 6 22 7 23 8 24 9 25 10 26 11
REMARK SMILES IDX 27 12 28 13 29 14 30 15 31 16 32 17 15 18 14 19 13 20 12 21
REMARK SMILES IDX 11 22 10 23 9 24 8 25 7 26 6 27 5 28 4 29 3 30 2 31 1 32
REMARK H PARENT
REMARK Flexibility Score: inf
ROOT
ATOM      1  C   UNL     1     -16.262  10.379   6.771  1.00  0.00     0.000 C 
ENDROOT
BRANCH   1   2
ATOM      2  C   UNL     1     -15.744   9.723   5.481  1.00  0.00     0.000 C 
BRANCH   2   3
ATOM      3  C   UNL     1     -14.268  10.048   5.209  1.00  0.00     0.000 C 
BRANCH   3   4
ATOM      4  C   UNL     1     -13.711   9.186   4.064  1.00  0.00     0.000 C 
BRANCH   4   5
ATOM      5  C   UNL     1     -14.457   9.400   2.733  1.00  0.00     0.000 C 
BRANCH   5   6
ATOM      6  C   UNL     1     -15.567   8.377   2.436  1.00  0.00     0.000 C 
BRANCH   6   7
ATOM      7  C   UNL     1     -15.365   7.641   1.105  1.00  0.00     0.000 C 
BRANCH   7   8
ATOM      8  C   UNL     1     -16.701   7.482   0.361  1.00  0.00     0.000 C 
BRANCH   8   9
ATOM      9  C   UNL     1     -17.125   6.012   0.195  1.00  0.00     0.000 C 
BRANCH   9  10
ATOM     10  C   UNL     1     -15.966   4.999   0.226  1.00  0.00     0.000 C 
BRANCH  10  11
ATOM     11  C   UNL     1     -15.605   4.462  -1.170  1.00  0.00     0.000 C 
BRANCH  11  12
ATOM     12  C   UNL     1     -14.310   5.073  -1.729  1.00  0.00     0.000 C 
BRANCH  12  13
ATOM     13  C   UNL     1     -13.528   5.958  -0.736  1.00  0.00     0.006 C 
BRANCH  13  14
ATOM     14  C   UNL     1     -12.341   6.715  -1.355  1.00  0.00     0.053 C 
BRANCH  14  15
ATOM     15  C   UNL     1     -12.135   8.052  -0.714  1.00  0.00     0.041 C 
ATOM     16  O   UNL     1     -11.881   9.063  -1.422  1.00  0.00    -0.550 OA
ATOM     17  O   UNL     1     -12.189   8.178   0.669  1.00  0.00    -0.550 OA
ENDBRANCH  14  15
ENDBRANCH  13  14
ENDBRANCH  12  13
ENDBRANCH  11  12
ENDBRANCH  10  11
ENDBRANCH   9  10
ENDBRANCH   8   9
ENDBRANCH   7   8
ENDBRANCH   6   7
ENDBRANCH   5   6
ENDBRANCH   4   5
ENDBRANCH   3   4
ENDBRANCH   2   3
ENDBRANCH   1   2
BRANCH   1  18
ATOM     18  C   UNL     1     -17.018   9.388   7.674  1.00  0.00     0.000 C 
BRANCH  18  19
ATOM     19  C   UNL     1     -16.347   9.220   9.054  1.00  0.00     0.000 C 
BRANCH  19  20
ATOM     20  C   UNL     1     -16.451   7.795   9.631  1.00  0.00     0.000 C 
BRANCH  20  21
ATOM     21  C   UNL     1     -15.274   7.362  10.522  1.00  0.00     0.000 C 
BRANCH  21  22
ATOM     22  C   UNL     1     -15.646   7.303  12.013  1.00  0.00     0.000 C 
BRANCH  22  23
ATOM     23  C   UNL     1     -15.614   8.683  12.694  1.00  0.00     0.000 C 
BRANCH  23  24
ATOM     24  C   UNL     1     -16.954   9.441  12.705  1.00  0.00    -0.000 C 
BRANCH  24  25
ATOM     25  C   UNL     1     -16.795  10.947  12.427  1.00  0.00    -0.000 C 
BRANCH  25  26
ATOM     26  C   UNL     1     -15.488  11.518  13.000  1.00  0.00    -0.000 C 
BRANCH  26  27
ATOM     27  C   UNL     1     -15.421  13.050  12.903  1.00  0.00    -0.000 C 
BRANCH  27  28
ATOM     28  C   UNL     1     -14.150  13.497  12.167  1.00  0.00    -0.000 C 
BRANCH  28  29
ATOM     29  C   UNL     1     -14.443  14.146  10.802  1.00  0.00    -0.000 C 
BRANCH  29  30
ATOM     30  C   UNL     1     -15.127  13.223   9.773  1.00  0.00    -0.000 C 
BRANCH  30  31
ATOM     31  C   UNL     1     -14.189  12.628   8.709  1.00  0.00    -0.003 C 
ATOM     32  C   UNL     1     -14.383  13.251   7.327  1.00  0.00     0.004 C 
ENDBRANCH  30  31
ENDBRANCH  29  30
ENDBRANCH  28  29
ENDBRANCH  27  28
ENDBRANCH  26  27
ENDBRANCH  25  26
ENDBRANCH  24  25
ENDBRANCH  23  24
ENDBRANCH  22  23
ENDBRANCH  21  22
ENDBRANCH  20  21
ENDBRANCH  19  20
ENDBRANCH  18  19
ENDBRANCH   1  18
TORSDOF 28
ENDMDL
MODEL 4
REMARK VINA RESULT:     0.213      1.859      4.368
REMARK INTER + INTRA:          -1.982
REMARK INTER:                   0.054
REMARK INTRA:                  -2.036
REMARK UNBOUND:                -2.543
REMARK SMILES CCCCCCCCCCCCCCCCCCCCCCCCCCCCCC(=O)[O-]
REMARK SMILES IDX 16 1 17 2 18 3 19 4 20 5 21 6 22 7 23 8 24 9 25 10 26 11
REMARK SMILES IDX 27 12 28 13 29 14 30 15 31 16 32 17 15 18 14 19 13 20 12 21
REMARK SMILES IDX 11 22 10 23 9 24 8 25 7 26 6 27 5 28 4 29 3 30 2 31 1 32
REMARK H PARENT
REMARK Flexibility Score: inf
ROOT
ATOM      1  C   UNL     1     -14.602  12.634   7.444  1.00  0.00     0.000 C 
ENDROOT
BRANCH   1   2
ATOM      2  C   UNL     1     -15.994  13.126   7.015  1.00  0.00     0.000 C 
BRANCH   2   3
ATOM      3  C   UNL     1     -17.125  12.251   7.577  1.00  0.00     0.000 C 
BRANCH   3   4
ATOM      4  C   UNL     1     -17.038  10.816   7.033  1.00  0.00     0.000 C 
BRANCH   4   5
ATOM      5  C   UNL     1     -16.183   9.888   7.917  1.00  0.00     0.000 C 
BRANCH   5   6
ATOM      6  C   UNL     1     -16.980   8.977   8.868  1.00  0.00     0.000 C 
BRANCH   6   7
ATOM      7  C   UNL     1     -16.450   7.537   8.904  1.00  0.00     0.000 C 
BRANCH   7   8
ATOM      8  C   UNL     1     -16.634   6.923  10.301  1.00  0.00     0.000 C 
BRANCH   8   9
ATOM      9  C   UNL     1     -15.661   7.502  11.344  1.00  0.00     0.000 C 
BRANCH   9  10
ATOM     10  C   UNL     1     -16.330   8.033  12.625  1.00  0.00     0.000 C 
BRANCH  10  11
ATOM     11  C   UNL     1     -15.766   9.392  13.073  1.00  0.00     0.000 C 
BRANCH  11  12
ATOM     12  C   UNL     1     -16.282  10.565  12.222  1.00  0.00     0.000 C 
BRANCH  12  13
ATOM     13  C   UNL     1     -15.464  11.866  12.347  1.00  0.00     0.006 C 
BRANCH  13  14
ATOM     14  C   UNL     1     -15.230  12.601  11.017  1.00  0.00     0.053 C 
BRANCH  14  15
ATOM     15  C   UNL     1     -14.242  13.717  11.160  1.00  0.00     0.041 C 
ATOM     16  O   UNL     1     -14.334  14.744  10.436  1.00  0.00    -0.550 OA
ATOM     17  O   UNL     1     -13.197  13.610  12.071  1.00  0.00    -0.550 OA
ENDBRANCH  14  15
ENDBRANCH  13  14
ENDBRANCH  12  13
ENDBRANCH  11  12
ENDBRANCH  10  11
ENDBRANCH   9  10
ENDBRANCH   8   9
ENDBRANCH   7   8
ENDBRANCH   6   7
ENDBRANCH   5   6
ENDBRANCH   4   5
ENDBRANCH   3   4
ENDBRANCH   2   3
ENDBRANCH   1   2
BRANCH   1  18
ATOM     18  C   UNL     1     -13.629  12.509   6.257  1.00  0.00     0.000 C 
BRANCH  18  19
ATOM     19  C   UNL     1     -13.490  11.055   5.761  1.00  0.00     0.000 C 
BRANCH  19  20
ATOM     20  C   UNL     1     -13.882  10.857   4.284  1.00  0.00     0.000 C 
BRANCH  20  21
ATOM     21  C   UNL     1     -12.802  10.213   3.399  1.00  0.00     0.000 C 
BRANCH  21  22
ATOM     22  C   UNL     1     -13.215  10.128   1.920  1.00  0.00     0.000 C 
BRANCH  22  23
ATOM     23  C   UNL     1     -13.329   8.680   1.410  1.00  0.00     0.000 C 
BRANCH  23  24
ATOM     24  C   UNL     1     -12.238   8.248   0.412  1.00  0.00    -0.000 C 
BRANCH  24  25
ATOM     25  C   UNL     1     -12.813   7.723  -0.916  1.00  0.00    -0.000 C 
BRANCH  25  26
ATOM     26  C   UNL     1     -12.699   6.195  -1.045  1.00  0.00    -0.000 C 
BRANCH  26  27
ATOM     27  C   UNL     1     -13.948   5.465  -0.527  1.00  0.00    -0.000 C 
BRANCH  27  28
ATOM     28  C   UNL     1     -14.496   4.499  -1.588  1.00  0.00    -0.000 C 
BRANCH  28  29
ATOM     29  C   UNL     1     -16.029   4.551  -1.712  1.00  0.00    -0.000 C 
BRANCH  29  30
ATOM     30  C   UNL     1     -16.773   4.988  -0.434  1.00  0.00    -0.000 C 
BRANCH  30  31
ATOM     31  C   UNL     1     -17.124   6.484  -0.365  1.00  0.00    -0.003 C 
ATOM     32  C   UNL     1     -16.363   7.226   0.733  1.00  0.00     0.004 C 
ENDBRANCH  30  31
ENDBRANCH  29  30
ENDBRANCH  28  29
ENDBRANCH  27  28
ENDBRANCH  26  27
ENDBRANCH  25  26
ENDBRANCH  24  25
ENDBRANCH  23  24
ENDBRANCH  22  23
ENDBRANCH  21  22
ENDBRANCH  20  21
ENDBRANCH  19  20
ENDBRANCH  18  19
ENDBRANCH   1  18
TORSDOF 28
ENDMDL
MODEL 5
REMARK VINA RESULT:     0.242      1.869      4.073
REMARK INTER + INTRA:          -1.905
REMARK INTER:                   0.190
REMARK INTRA:                  -2.094
REMARK UNBOUND:                -2.543
REMARK SMILES CCCCCCCCCCCCCCCCCCCCCCCCCCCCCC(=O)[O-]
REMARK SMILES IDX 16 1 17 2 18 3 19 4 20 5 21 6 22 7 23 8 24 9 25 10 26 11
REMARK SMILES IDX 27 12 28 13 29 14 30 15 31 16 32 17 15 18 14 19 13 20 12 21
REMARK SMILES IDX 11 22 10 23 9 24 8 25 7 26 6 27 5 28 4 29 3 30 2 31 1 32
REMARK H PARENT
REMARK Flexibility Score: inf
ROOT
ATOM      1  C   UNL     1     -13.760  12.527   6.009  1.00  0.00     0.000 C 
ENDROOT
BRANCH   1   2
ATOM      2  C   UNL     1     -14.586  12.830   7.270  1.00  0.00     0.000 C 
BRANCH   2   3
ATOM      3  C   UNL     1     -16.076  13.038   6.959  1.00  0.00     0.000 C 
BRANCH   3   4
ATOM      4  C   UNL     1     -16.961  12.230   7.921  1.00  0.00     0.000 C 
BRANCH   4   5
ATOM      5  C   UNL     1     -16.732  10.709   7.816  1.00  0.00     0.000 C 
BRANCH   5   6
ATOM      6  C   UNL     1     -15.868  10.102   8.935  1.00  0.00     0.000 C 
BRANCH   6   7
ATOM      7  C   UNL     1     -15.698   8.582   8.804  1.00  0.00     0.000 C 
BRANCH   7   8
ATOM      8  C   UNL     1     -16.608   7.843   9.798  1.00  0.00     0.000 C 
BRANCH   8   9
ATOM      9  C   UNL     1     -15.821   7.024  10.837  1.00  0.00     0.000 C 
BRANCH   9  10
ATOM     10  C   UNL     1     -16.120   7.385  12.303  1.00  0.00     0.000 C 
BRANCH  10  11
ATOM     11  C   UNL     1     -15.845   8.865  12.622  1.00  0.00     0.000 C 
BRANCH  11  12
ATOM     12  C   UNL     1     -17.120   9.725  12.618  1.00  0.00     0.000 C 
BRANCH  12  13
ATOM     13  C   UNL     1     -16.906  11.205  12.995  1.00  0.00     0.006 C 
BRANCH  13  14
ATOM     14  C   UNL     1     -15.504  11.748  12.671  1.00  0.00     0.053 C 
BRANCH  14  15
ATOM     15  C   UNL     1     -15.535  12.754  11.563  1.00  0.00     0.041 C 
ATOM     16  O   UNL     1     -16.637  13.182  11.125  1.00  0.00    -0.550 OA
ATOM     17  O   UNL     1     -14.349  13.197  10.990  1.00  0.00    -0.550 OA
ENDBRANCH  14  15
ENDBRANCH  13  14
ENDBRANCH  12  13
ENDBRANCH  11  12
ENDBRANCH  10  11
ENDBRANCH   9  10
ENDBRANCH   8   9
ENDBRANCH   7   8
ENDBRANCH   6   7
ENDBRANCH   5   6
ENDBRANCH   4   5
ENDBRANCH   3   4
ENDBRANCH   2   3
ENDBRANCH   1   2
BRANCH   1  18
ATOM     18  C   UNL     1     -14.113  11.163   5.386  1.00  0.00     0.000 C 
BRANCH  18  19
ATOM     19  C   UNL     1     -12.955  10.582   4.548  1.00  0.00     0.000 C 
BRANCH  19  20
ATOM     20  C   UNL     1     -13.410   9.878   3.255  1.00  0.00     0.000 C 
BRANCH  20  21
ATOM     21  C   UNL     1     -14.769   9.163   3.341  1.00  0.00     0.000 C 
BRANCH  21  22
ATOM     22  C   UNL     1     -15.140   8.430   2.041  1.00  0.00     0.000 C 
BRANCH  22  23
ATOM     23  C   UNL     1     -16.625   8.029   1.981  1.00  0.00     0.000 C 
BRANCH  23  24
ATOM     24  C   UNL     1     -17.080   7.392   0.655  1.00  0.00    -0.000 C 
BRANCH  24  25
ATOM     25  C   UNL     1     -16.171   6.237   0.200  1.00  0.00    -0.000 C 
BRANCH  25  26
ATOM     26  C   UNL     1     -16.903   5.226  -0.698  1.00  0.00    -0.000 C 
BRANCH  26  27
ATOM     27  C   UNL     1     -15.985   4.093  -1.181  1.00  0.00    -0.000 C 
BRANCH  27  28
ATOM     28  C   UNL     1     -14.766   4.656  -1.925  1.00  0.00    -0.000 C 
BRANCH  28  29
ATOM     29  C   UNL     1     -13.637   5.102  -0.978  1.00  0.00    -0.000 C 
BRANCH  29  30
ATOM     30  C   UNL     1     -13.027   6.483  -1.292  1.00  0.00    -0.000 C 
BRANCH  30  31
ATOM     31  C   UNL     1     -12.594   7.297  -0.061  1.00  0.00    -0.003 C 
ATOM     32  C   UNL     1     -12.288   8.759  -0.390  1.00  0.00     0.004 C 
ENDBRANCH  30  31
ENDBRANCH  29  30
ENDBRANCH  28  29
ENDBRANCH  27  28
ENDBRANCH  26  27
ENDBRANCH  25  26
ENDBRANCH  24  25
ENDBRANCH  23  24
ENDBRANCH  22  23
ENDBRANCH  21  22
ENDBRANCH  20  21
ENDBRANCH  19  20
ENDBRANCH  18  19
ENDBRANCH   1  18
TORSDOF 28
ENDMDL
MODEL 6
REMARK VINA RESULT:     0.572      3.429     10.981
REMARK INTER + INTRA:          -1.034
REMARK INTER:                  -0.627
REMARK INTRA:                  -0.406
REMARK UNBOUND:                -2.543
REMARK SMILES CCCCCCCCCCCCCCCCCCCCCCCCCCCCCC(=O)[O-]
REMARK SMILES IDX 16 1 17 2 18 3 19 4 20 5 21 6 22 7 23 8 24 9 25 10 26 11
REMARK SMILES IDX 27 12 28 13 29 14 30 15 31 16 32 17 15 18 14 19 13 20 12 21
REMARK SMILES IDX 11 22 10 23 9 24 8 25 7 26 6 27 5 28 4 29 3 30 2 31 1 32
REMARK H PARENT
REMARK Flexibility Score: inf
ROOT
ATOM      1  C   UNL     1     -17.114   9.861   7.982  1.00  0.00     0.000 C 
ENDROOT
BRANCH   1   2
ATOM      2  C   UNL     1     -17.058  10.231   6.491  1.00  0.00     0.000 C 
BRANCH   2   3
ATOM      3  C   UNL     1     -16.600   9.057   5.612  1.00  0.00     0.000 C 
BRANCH   3   4
ATOM      4  C   UNL     1     -15.634   9.529   4.514  1.00  0.00     0.000 C 
BRANCH   4   5
ATOM      5  C   UNL     1     -14.189   9.707   5.019  1.00  0.00     0.000 C 
BRANCH   5   6
ATOM      6  C   UNL     1     -13.126   9.849   3.916  1.00  0.00     0.000 C 
BRANCH   6   7
ATOM      7  C   UNL     1     -13.722   9.829   2.502  1.00  0.00     0.000 C 
BRANCH   7   8
ATOM      8  C   UNL     1     -12.953   8.851   1.599  1.00  0.00     0.000 C 
BRANCH   8   9
ATOM      9  C   UNL     1     -13.815   8.283   0.458  1.00  0.00     0.000 C 
BRANCH   9  10
ATOM     10  C   UNL     1     -13.252   7.014  -0.206  1.00  0.00     0.000 C 
BRANCH  10  11
ATOM     11  C   UNL     1     -14.286   5.879  -0.300  1.00  0.00     0.000 C 
BRANCH  11  12
ATOM     12  C   UNL     1     -15.701   6.326   0.106  1.00  0.00     0.000 C 
BRANCH  12  13
ATOM     13  C   UNL     1     -16.827   5.346  -0.283  1.00  0.00     0.006 C 
BRANCH  13  14
ATOM     14  C   UNL     1     -16.338   3.960  -0.733  1.00  0.00     0.053 C 
BRANCH  14  15
ATOM     15  C   UNL     1     -16.014   3.928  -2.194  1.00  0.00     0.041 C 
ATOM     16  O   UNL     1     -16.939   3.906  -3.050  1.00  0.00    -0.550 OA
ATOM     17  O   UNL     1     -14.690   3.889  -2.613  1.00  0.00    -0.550 OA
ENDBRANCH  14  15
ENDBRANCH  13  14
ENDBRANCH  12  13
ENDBRANCH  11  12
ENDBRANCH  10  11
ENDBRANCH   9  10
ENDBRANCH   8   9
ENDBRANCH   7   8
ENDBRANCH   6   7
ENDBRANCH   5   6
ENDBRANCH   4   5
ENDBRANCH   3   4
ENDBRANCH   2   3
ENDBRANCH   1   2
BRANCH   1  18
ATOM     18  C   UNL     1     -17.125   8.339   8.212  1.00  0.00     0.000 C 
BRANCH  18  19
ATOM     19  C   UNL     1     -15.888   7.854   8.998  1.00  0.00     0.000 C 
BRANCH  19  20
ATOM     20  C   UNL     1     -15.771   8.452  10.413  1.00  0.00     0.000 C 
BRANCH  20  21
ATOM     21  C   UNL     1     -15.440   7.443  11.526  1.00  0.00     0.000 C 
BRANCH  21  22
ATOM     22  C   UNL     1     -16.415   7.523  12.713  1.00  0.00     0.000 C 
BRANCH  22  23
ATOM     23  C   UNL     1     -16.742   8.970  13.124  1.00  0.00     0.000 C 
BRANCH  23  24
ATOM     24  C   UNL     1     -16.735   9.996  11.975  1.00  0.00    -0.000 C 
BRANCH  24  25
ATOM     25  C   UNL     1     -16.610  11.449  12.468  1.00  0.00    -0.000 C 
BRANCH  25  26
ATOM     26  C   UNL     1     -15.152  11.863  12.721  1.00  0.00    -0.000 C 
BRANCH  26  27
ATOM     27  C   UNL     1     -14.923  13.369  12.520  1.00  0.00    -0.000 C 
BRANCH  27  28
ATOM     28  C   UNL     1     -16.055  13.988  11.686  1.00  0.00    -0.000 C 
BRANCH  28  29
ATOM     29  C   UNL     1     -15.965  13.628  10.192  1.00  0.00    -0.000 C 
BRANCH  29  30
ATOM     30  C   UNL     1     -14.556  13.243   9.696  1.00  0.00    -0.000 C 
BRANCH  30  31
ATOM     31  C   UNL     1     -14.527  12.411   8.402  1.00  0.00    -0.003 C 
ATOM     32  C   UNL     1     -14.146  13.234   7.172  1.00  0.00     0.004 C 
ENDBRANCH  30  31
ENDBRANCH  29  30
ENDBRANCH  28  29
ENDBRANCH  27  28
ENDBRANCH  26  27
ENDBRANCH  25  26
ENDBRANCH  24  25
ENDBRANCH  23  24
ENDBRANCH  22  23
ENDBRANCH  21  22
ENDBRANCH  20  21
ENDBRANCH  19  20
ENDBRANCH  18  19
ENDBRANCH   1  18
TORSDOF 28
ENDMDL
MODEL 7
REMARK VINA RESULT:     0.721      2.971     10.704
REMARK INTER + INTRA:          -0.642
REMARK INTER:                   1.227
REMARK INTRA:                  -1.869
REMARK UNBOUND:                -2.543
REMARK SMILES CCCCCCCCCCCCCCCCCCCCCCCCCCCCCC(=O)[O-]
REMARK SMILES IDX 16 1 17 2 18 3 19 4 20 5 21 6 22 7 23 8 24 9 25 10 26 11
REMARK SMILES IDX 27 12 28 13 29 14 30 15 31 16 32 17 15 18 14 19 13 20 12 21
REMARK SMILES IDX 11 22 10 23 9 24 8 25 7 26 6 27 5 28 4 29 3 30 2 31 1 32
REMARK H PARENT
REMARK Flexibility Score: inf
ROOT
ATOM      1  C   UNL     1     -15.402  11.504   8.726  1.00  0.00     0.000 C 
ENDROOT
BRANCH   1   2
ATOM      2  C   UNL     1     -14.806  12.921   8.756  1.00  0.00     0.000 C 
BRANCH   2   3
ATOM      3  C   UNL     1     -13.741  13.133   7.670  1.00  0.00     0.000 C 
BRANCH   3   4
ATOM      4  C   UNL     1     -14.380  13.581   6.346  1.00  0.00     0.000 C 
BRANCH   4   5
ATOM      5  C   UNL     1     -13.858  12.794   5.129  1.00  0.00     0.000 C 
BRANCH   5   6
ATOM      6  C   UNL     1     -13.395  11.358   5.431  1.00  0.00     0.000 C 
BRANCH   6   7
ATOM      7  C   UNL     1     -12.618  10.722   4.270  1.00  0.00     0.000 C 
BRANCH   7   8
ATOM      8  C   UNL     1     -13.516   9.761   3.475  1.00  0.00     0.000 C 
BRANCH   8   9
ATOM      9  C   UNL     1     -13.412   9.963   1.953  1.00  0.00     0.000 C 
BRANCH   9  10
ATOM     10  C   UNL     1     -13.475   8.667   1.124  1.00  0.00     0.000 C 
BRANCH  10  11
ATOM     11  C   UNL     1     -12.117   8.284   0.511  1.00  0.00     0.000 C 
BRANCH  11  12
ATOM     12  C   UNL     1     -12.145   8.247  -1.027  1.00  0.00     0.000 C 
BRANCH  12  13
ATOM     13  C   UNL     1     -12.229   6.834  -1.640  1.00  0.00     0.006 C 
BRANCH  13  14
ATOM     14  C   UNL     1     -12.753   5.753  -0.680  1.00  0.00     0.053 C 
BRANCH  14  15
ATOM     15  C   UNL     1     -14.223   5.521  -0.847  1.00  0.00     0.041 C 
ATOM     16  O   UNL     1     -14.670   5.029  -1.916  1.00  0.00    -0.550 OA
ATOM     17  O   UNL     1     -15.104   5.879   0.166  1.00  0.00    -0.550 OA
ENDBRANCH  14  15
ENDBRANCH  13  14
ENDBRANCH  12  13
ENDBRANCH  11  12
ENDBRANCH  10  11
ENDBRANCH   9  10
ENDBRANCH   8   9
ENDBRANCH   7   8
ENDBRANCH   6   7
ENDBRANCH   5   6
ENDBRANCH   4   5
ENDBRANCH   3   4
ENDBRANCH   2   3
ENDBRANCH   1   2
BRANCH   1  18
ATOM     18  C   UNL     1     -16.299  11.267   7.498  1.00  0.00     0.000 C 
BRANCH  18  19
ATOM     19  C   UNL     1     -16.983   9.884   7.527  1.00  0.00     0.000 C 
BRANCH  19  20
ATOM     20  C   UNL     1     -16.992   9.219   8.917  1.00  0.00     0.000 C 
BRANCH  20  21
ATOM     21  C   UNL     1     -17.005   7.681   8.908  1.00  0.00     0.000 C 
BRANCH  21  22
ATOM     22  C   UNL     1     -15.747   7.071   9.550  1.00  0.00     0.000 C 
BRANCH  22  23
ATOM     23  C   UNL     1     -15.960   6.664  11.019  1.00  0.00     0.000 C 
BRANCH  23  24
ATOM     24  C   UNL     1     -15.636   7.755  12.056  1.00  0.00    -0.000 C 
BRANCH  24  25
ATOM     25  C   UNL     1     -16.893   8.439  12.622  1.00  0.00    -0.000 C 
BRANCH  25  26
ATOM     26  C   UNL     1     -17.124   9.836  12.024  1.00  0.00    -0.000 C 
BRANCH  26  27
ATOM     27  C   UNL     1     -17.100  10.944  13.088  1.00  0.00    -0.000 C 
BRANCH  27  28
ATOM     28  C   UNL     1     -15.760  11.694  13.066  1.00  0.00    -0.000 C 
BRANCH  28  29
ATOM     29  C   UNL     1     -15.733  12.846  12.045  1.00  0.00    -0.000 C 
BRANCH  29  30
ATOM     30  C   UNL     1     -15.563  14.253  12.652  1.00  0.00    -0.000 C 
BRANCH  30  31
ATOM     31  C   UNL     1     -16.867  14.919  13.125  1.00  0.00    -0.003 C 
ATOM     32  C   UNL     1     -16.851  16.440  12.972  1.00  0.00     0.004 C 
ENDBRANCH  30  31
ENDBRANCH  29  30
ENDBRANCH  28  29
ENDBRANCH  27  28
ENDBRANCH  26  27
ENDBRANCH  25  26
ENDBRANCH  24  25
ENDBRANCH  23  24
ENDBRANCH  22  23
ENDBRANCH  21  22
ENDBRANCH  20  21
ENDBRANCH  19  20
ENDBRANCH  18  19
ENDBRANCH   1  18
TORSDOF 28
ENDMDL
