MODEL 1
REMARK VINA RESULT:    -2.869      0.000      0.000
REMARK INTER + INTRA:          -4.932
REMARK INTER:                  -4.378
REMARK INTRA:                  -0.554
REMARK UNBOUND:                -0.554
REMARK SMILES CC1=CCC[C@H](C)C(=O)C[C@H](C(C)C)C(=O)C1
REMARK SMILES IDX 8 1 9 2 6 3 7 4 5 5 4 6 3 7 2 8 1 9 10 11 11 12 15 13 16 14
REMARK SMILES IDX 17 15 12 17 13 18 14 19
REMARK H PARENT
REMARK Flexibility Score: 70.00
ROOT
ATOM      1  C   UNL     1      13.642  24.841  15.169  1.00  0.00     0.136 C 
ATOM      2  O   UNL     1      12.951  24.140  15.896  1.00  0.00    -0.299 OA
ENDROOT
BRANCH   1   3
ATOM      3  C   UNL     1      13.262  25.010  13.711  1.00  0.00     0.053 C 
ATOM      4  C   UNL     1      13.086  23.629  13.072  1.00  0.00     0.016 C 
BRANCH   3   5
ATOM      5  C   UNL     1      11.972  25.847  13.535  1.00  0.00     0.015 C 
BRANCH   5   6
ATOM      6  C   UNL     1      11.978  27.186  14.293  1.00  0.00     0.028 C 
BRANCH   6   7
ATOM      7  C   UNL     1      12.666  28.270  13.497  1.00  0.00    -0.028 C 
ATOM      8  C   UNL     1      13.849  28.841  13.824  1.00  0.00    -0.070 CG0
ATOM      9  C   UNL     1      14.416  29.924  12.941  1.00  0.00     0.039 C 
ATOM     10  G   UNL     1      14.635  28.468  15.066  1.00  0.00     0.000 G0
ENDBRANCH   6   7
ENDBRANCH   5   6
ENDBRANCH   3   5
ENDBRANCH   1   3
BRANCH   1  11
ATOM     11  C   UNL     1      14.890  25.482  15.737  1.00  0.00     0.087 C 
BRANCH  11  12
ATOM     12  C   UNL     1      15.797  26.114  14.651  1.00  0.00     0.066 C 
BRANCH  12  13
ATOM     13  C   UNL     1      15.881  27.626  14.803  1.00  0.00     0.140 C 
ATOM     14  O   UNL     1      16.958  28.185  14.652  1.00  0.00    -0.299 OA
BRANCH  13  15
ATOM     15  C   UNL     1      14.662  28.484  15.065  1.00  0.00     0.106 CG0
ATOM     16  G   UNL     1      13.864  28.815  13.818  1.00  0.00     0.000 G0
ENDBRANCH  13  15
ENDBRANCH  12  13
BRANCH  12  17
ATOM     17  C   UNL     1      17.223  25.487  14.574  1.00  0.00    -0.006 C 
ATOM     18  C   UNL     1      17.296  24.360  13.532  1.00  0.00     0.008 C 
ATOM     19  C   UNL     1      17.765  24.989  15.925  1.00  0.00     0.008 C 
ENDBRANCH  12  17
ENDBRANCH  11  12
ENDBRANCH   1  11
TORSDOF 1
ENDMDL
MODEL 2
REMARK VINA RESULT:    -2.781      6.760      8.948
REMARK INTER + INTRA:          -4.797
REMARK INTER:                  -4.728
REMARK INTRA:                  -0.069
REMARK UNBOUND:                -0.554
REMARK SMILES CC1=CCC[C@H](C)C(=O)C[C@H](C(C)C)C(=O)C1
REMARK SMILES IDX 8 1 9 2 6 3 7 4 5 5 4 6 3 7 2 8 1 9 10 11 11 12 15 13 16 14
REMARK SMILES IDX 17 15 12 17 13 18 14 19
REMARK H PARENT
REMARK Flexibility Score: 70.00
ROOT
ATOM      1  C   UNL     1       5.500  28.933  16.484  1.00  0.00     0.136 C 
ATOM      2  O   UNL     1       6.041  29.180  17.552  1.00  0.00    -0.299 OA
ENDROOT
BRANCH   1   3
ATOM      3  C   UNL     1       4.053  28.480  16.464  1.00  0.00     0.053 C 
ATOM      4  C   UNL     1       3.174  29.622  15.945  1.00  0.00     0.016 C 
BRANCH   3   5
ATOM      5  C   UNL     1       3.847  27.213  15.598  1.00  0.00     0.015 C 
BRANCH   5   6
ATOM      6  C   UNL     1       4.680  25.999  16.044  1.00  0.00     0.028 C 
BRANCH   6   7
ATOM      7  C   UNL     1       5.424  25.382  14.884  1.00  0.00    -0.028 C 
ATOM      8  C   UNL     1       6.761  25.464  14.686  1.00  0.00    -0.070 CG0
ATOM      9  C   UNL     1       7.372  24.807  13.474  1.00  0.00     0.039 C 
ATOM     10  G   UNL     1       7.692  26.219  15.616  1.00  0.00     0.000 G0
ENDBRANCH   6   7
ENDBRANCH   5   6
ENDBRANCH   3   5
ENDBRANCH   1   3
BRANCH   1  11
ATOM     11  C   UNL     1       6.309  29.039  15.209  1.00  0.00     0.087 C 
BRANCH  11  12
ATOM     12  C   UNL     1       7.833  28.880  15.442  1.00  0.00     0.066 C 
BRANCH  12  13
ATOM     13  C   UNL     1       8.313  27.484  15.070  1.00  0.00     0.140 C 
ATOM     14  O   UNL     1       9.275  27.359  14.326  1.00  0.00    -0.299 OA
BRANCH  13  15
ATOM     15  C   UNL     1       7.688  26.231  15.645  1.00  0.00     0.106 CG0
ATOM     16  G   UNL     1       6.786  25.493  14.674  1.00  0.00     0.000 G0
ENDBRANCH  13  15
ENDBRANCH  12  13
BRANCH  12  17
ATOM     17  C   UNL     1       8.699  29.967  14.736  1.00  0.00    -0.006 C 
ATOM     18  C   UNL     1       9.436  30.858  15.748  1.00  0.00     0.008 C 
ATOM     19  C   UNL     1       7.919  30.841  13.737  1.00  0.00     0.008 C 
ENDBRANCH  12  17
ENDBRANCH  11  12
ENDBRANCH   1  11
TORSDOF 1
ENDMDL
MODEL 3
REMARK VINA RESULT:    -2.680      5.016      7.601
REMARK INTER + INTRA:          -4.643
REMARK INTER:                  -4.268
REMARK INTRA:                  -0.375
REMARK UNBOUND:                -0.554
REMARK SMILES CC1=CCC[C@H](C)C(=O)C[C@H](C(C)C)C(=O)C1
REMARK SMILES IDX 8 1 9 2 6 3 7 4 5 5 4 6 3 7 2 8 1 9 10 11 11 12 15 13 16 14
REMARK SMILES IDX 17 15 12 17 13 18 14 19
REMARK H PARENT
REMARK Flexibility Score: 70.00
ROOT
ATOM      1  C   UNL     1       6.888  27.393  16.489  1.00  0.00     0.136 C 
ATOM      2  O   UNL     1       6.485  26.756  17.452  1.00  0.00    -0.299 OA
ENDROOT
BRANCH   1   3
ATOM      3  C   UNL     1       6.575  28.872  16.385  1.00  0.00     0.053 C 
ATOM      4  C   UNL     1       5.323  29.183  17.211  1.00  0.00     0.016 C 
BRANCH   3   5
ATOM      5  C   UNL     1       7.756  29.756  16.854  1.00  0.00     0.015 C 
BRANCH   5   6
ATOM      6  C   UNL     1       8.522  30.445  15.712  1.00  0.00     0.028 C 
BRANCH   6   7
ATOM      7  C   UNL     1       9.942  29.938  15.613  1.00  0.00    -0.028 C 
ATOM      8  C   UNL     1      10.454  29.263  14.557  1.00  0.00    -0.070 CG0
ATOM      9  C   UNL     1      11.889  28.804  14.598  1.00  0.00     0.039 C 
ATOM     10  G   UNL     1       9.641  28.910  13.326  1.00  0.00     0.000 G0
ENDBRANCH   6   7
ENDBRANCH   5   6
ENDBRANCH   3   5
ENDBRANCH   1   3
BRANCH   1  11
ATOM     11  C   UNL     1       7.651  26.671  15.399  1.00  0.00     0.087 C 
BRANCH  11  12
ATOM     12  C   UNL     1       7.565  27.382  14.024  1.00  0.00     0.066 C 
BRANCH  12  13
ATOM     13  C   UNL     1       8.941  27.552  13.396  1.00  0.00     0.140 C 
ATOM     14  O   UNL     1       9.486  26.589  12.875  1.00  0.00    -0.299 OA
BRANCH  13  15
ATOM     15  C   UNL     1       9.640  28.892  13.323  1.00  0.00     0.106 CG0
ATOM     16  G   UNL     1      10.464  29.223  14.553  1.00  0.00     0.000 G0
ENDBRANCH  13  15
ENDBRANCH  12  13
BRANCH  12  17
ATOM     17  C   UNL     1       6.580  26.705  13.021  1.00  0.00    -0.006 C 
ATOM     18  C   UNL     1       5.170  27.308  13.110  1.00  0.00     0.008 C 
ATOM     19  C   UNL     1       6.506  25.173  13.150  1.00  0.00     0.008 C 
ENDBRANCH  12  17
ENDBRANCH  11  12
ENDBRANCH   1  11
TORSDOF 1
ENDMDL
MODEL 4
REMARK VINA RESULT:    -2.574      7.154      9.641
REMARK INTER + INTRA:          -4.482
REMARK INTER:                  -4.278
REMARK INTRA:                  -0.204
REMARK UNBOUND:                -0.554
REMARK SMILES CC1=CCC[C@H](C)C(=O)C[C@H](C(C)C)C(=O)C1
REMARK SMILES IDX 8 1 9 2 6 3 7 4 5 5 4 6 3 7 2 8 1 9 10 11 11 12 15 13 16 14
REMARK SMILES IDX 17 15 12 17 13 18 14 19
REMARK H PARENT
REMARK Flexibility Score: 70.00
ROOT
ATOM      1  C   UNL     1       3.742  27.243  15.995  1.00  0.00     0.136 C 
ATOM      2  O   UNL     1       2.533  27.129  16.141  1.00  0.00    -0.299 OA
ENDROOT
BRANCH   1   3
ATOM      3  C   UNL     1       4.337  28.608  15.713  1.00  0.00     0.053 C 
ATOM      4  C   UNL     1       3.272  29.500  15.068  1.00  0.00     0.016 C 
BRANCH   3   5
ATOM      5  C   UNL     1       4.892  29.281  16.992  1.00  0.00     0.015 C 
BRANCH   5   6
ATOM      6  C   UNL     1       6.315  28.838  17.374  1.00  0.00     0.028 C 
BRANCH   6   7
ATOM      7  C   UNL     1       7.265  28.961  16.206  1.00  0.00    -0.028 C 
ATOM      8  C   UNL     1       7.796  27.921  15.522  1.00  0.00    -0.070 CG0
ATOM      9  C   UNL     1       8.744  28.191  14.381  1.00  0.00     0.039 C 
ATOM     10  G   UNL     1       7.509  26.471  15.865  1.00  0.00     0.000 G0
ENDBRANCH   6   7
ENDBRANCH   5   6
ENDBRANCH   3   5
ENDBRANCH   1   3
BRANCH   1  11
ATOM     11  C   UNL     1       4.608  26.003  16.052  1.00  0.00     0.087 C 
BRANCH  11  12
ATOM     12  C   UNL     1       5.278  25.666  14.695  1.00  0.00     0.066 C 
BRANCH  12  13
ATOM     13  C   UNL     1       6.796  25.683  14.801  1.00  0.00     0.140 C 
ATOM     14  O   UNL     1       7.464  25.107  13.954  1.00  0.00    -0.299 OA
BRANCH  13  15
ATOM     15  C   UNL     1       7.525  26.452  15.882  1.00  0.00     0.106 CG0
ATOM     16  G   UNL     1       7.781  27.907  15.536  1.00  0.00     0.000 G0
ENDBRANCH  13  15
ENDBRANCH  12  13
BRANCH  12  17
ATOM     17  C   UNL     1       4.784  24.331  14.059  1.00  0.00    -0.006 C 
ATOM     18  C   UNL     1       3.524  24.536  13.204  1.00  0.00     0.008 C 
ATOM     19  C   UNL     1       4.551  23.198  15.075  1.00  0.00     0.008 C 
ENDBRANCH  12  17
ENDBRANCH  11  12
ENDBRANCH   1  11
TORSDOF 1
ENDMDL
MODEL 5
REMARK VINA RESULT:    -2.554      6.780      8.809
REMARK INTER + INTRA:          -4.451
REMARK INTER:                  -4.277
REMARK INTRA:                  -0.174
REMARK UNBOUND:                -0.554
REMARK SMILES CC1=CCC[C@H](C)C(=O)C[C@H](C(C)C)C(=O)C1
REMARK SMILES IDX 8 1 9 2 6 3 7 4 5 5 4 6 3 7 2 8 1 9 10 11 11 12 15 13 16 14
REMARK SMILES IDX 17 15 12 17 13 18 14 19
REMARK H PARENT
REMARK Flexibility Score: 70.00
ROOT
ATOM      1  C   UNL     1       5.573  27.500  16.563  1.00  0.00     0.136 C 
ATOM      2  O   UNL     1       6.418  27.000  17.292  1.00  0.00    -0.299 OA
ENDROOT
BRANCH   1   3
ATOM      3  C   UNL     1       4.414  26.655  16.072  1.00  0.00     0.053 C 
ATOM      4  C   UNL     1       3.584  27.468  15.073  1.00  0.00     0.016 C 
BRANCH   3   5
ATOM      5  C   UNL     1       4.886  25.333  15.420  1.00  0.00     0.015 C 
BRANCH   5   6
ATOM      6  C   UNL     1       5.243  25.455  13.929  1.00  0.00     0.028 C 
BRANCH   6   7
ATOM      7  C   UNL     1       6.725  25.671  13.731  1.00  0.00    -0.028 C 
ATOM      8  C   UNL     1       7.295  26.835  13.340  1.00  0.00    -0.070 CG0
ATOM      9  C   UNL     1       8.792  26.906  13.170  1.00  0.00     0.039 C 
ATOM     10  G   UNL     1       6.496  28.086  13.028  1.00  0.00     0.000 G0
ENDBRANCH   6   7
ENDBRANCH   5   6
ENDBRANCH   3   5
ENDBRANCH   1   3
BRANCH   1  11
ATOM     11  C   UNL     1       5.737  28.941  16.131  1.00  0.00     0.087 C 
BRANCH  11  12
ATOM     12  C   UNL     1       7.077  29.207  15.398  1.00  0.00     0.066 C 
BRANCH  12  13
ATOM     13  C   UNL     1       6.880  29.304  13.891  1.00  0.00     0.140 C 
ATOM     14  O   UNL     1       7.094  30.367  13.326  1.00  0.00    -0.299 OA
BRANCH  13  15
ATOM     15  C   UNL     1       6.499  28.109  13.045  1.00  0.00     0.106 CG0
ATOM     16  G   UNL     1       7.303  26.859  13.347  1.00  0.00     0.000 G0
ENDBRANCH  13  15
ENDBRANCH  12  13
BRANCH  12  17
ATOM     17  C   UNL     1       7.855  30.447  15.934  1.00  0.00    -0.006 C 
ATOM     18  C   UNL     1       9.376  30.238  15.872  1.00  0.00     0.008 C 
ATOM     19  C   UNL     1       7.443  30.886  17.351  1.00  0.00     0.008 C 
ENDBRANCH  12  17
ENDBRANCH  11  12
ENDBRANCH   1  11
TORSDOF 1
ENDMDL
MODEL 6
REMARK VINA RESULT:    -2.495      7.561     10.524
REMARK INTER + INTRA:          -4.361
REMARK INTER:                  -4.143
REMARK INTRA:                  -0.218
REMARK UNBOUND:                -0.554
REMARK SMILES CC1=CCC[C@H](C)C(=O)C[C@H](C(C)C)C(=O)C1
REMARK SMILES IDX 8 1 9 2 6 3 7 4 5 5 4 6 3 7 2 8 1 9 10 11 11 12 15 13 16 14
REMARK SMILES IDX 17 15 12 17 13 18 14 19
REMARK H PARENT
REMARK Flexibility Score: 70.00
ROOT
ATOM      1  C   UNL     1       6.145  28.773  16.681  1.00  0.00     0.136 C 
ATOM      2  O   UNL     1       6.546  27.848  17.375  1.00  0.00    -0.299 OA
ENDROOT
BRANCH   1   3
ATOM      3  C   UNL     1       7.144  29.667  15.975  1.00  0.00     0.053 C 
ATOM      4  C   UNL     1       7.782  30.616  16.995  1.00  0.00     0.016 C 
BRANCH   3   5
ATOM      5  C   UNL     1       8.242  28.856  15.244  1.00  0.00     0.015 C 
BRANCH   5   6
ATOM      6  C   UNL     1       7.779  28.207  13.929  1.00  0.00     0.028 C 
BRANCH   6   7
ATOM      7  C   UNL     1       7.602  26.715  14.080  1.00  0.00    -0.028 C 
ATOM      8  C   UNL     1       6.428  26.054  13.945  1.00  0.00    -0.070 CG0
ATOM      9  C   UNL     1       6.394  24.558  14.135  1.00  0.00     0.039 C 
ATOM     10  G   UNL     1       5.115  26.750  13.638  1.00  0.00     0.000 G0
ENDBRANCH   6   7
ENDBRANCH   5   6
ENDBRANCH   3   5
ENDBRANCH   1   3
BRANCH   1  11
ATOM     11  C   UNL     1       4.656  29.028  16.587  1.00  0.00     0.087 C 
BRANCH  11  12
ATOM     12  C   UNL     1       4.055  28.623  15.217  1.00  0.00     0.066 C 
BRANCH  12  13
ATOM     13  C   UNL     1       4.337  27.163  14.892  1.00  0.00     0.140 C 
ATOM     14  O   UNL     1       3.888  26.289  15.621  1.00  0.00    -0.299 OA
BRANCH  13  15
ATOM     15  C   UNL     1       5.094  26.739  13.652  1.00  0.00     0.106 CG0
ATOM     16  G   UNL     1       6.426  26.074  13.944  1.00  0.00     0.000 G0
ENDBRANCH  13  15
ENDBRANCH  12  13
BRANCH  12  17
ATOM     17  C   UNL     1       2.534  28.937  15.075  1.00  0.00    -0.006 C 
ATOM     18  C   UNL     1       2.289  30.233  14.286  1.00  0.00     0.008 C 
ATOM     19  C   UNL     1       1.774  28.985  16.412  1.00  0.00     0.008 C 
ENDBRANCH  12  17
ENDBRANCH  11  12
ENDBRANCH   1  11
TORSDOF 1
ENDMDL
MODEL 7
REMARK VINA RESULT:    -2.385      6.002      8.315
REMARK INTER + INTRA:          -4.194
REMARK INTER:                  -4.234
REMARK INTRA:                   0.040
REMARK UNBOUND:                -0.554
REMARK SMILES CC1=CCC[C@H](C)C(=O)C[C@H](C(C)C)C(=O)C1
REMARK SMILES IDX 8 1 9 2 6 3 7 4 5 5 4 6 3 7 2 8 1 9 10 11 11 12 15 13 16 14
REMARK SMILES IDX 17 15 12 17 13 18 14 19
REMARK H PARENT
REMARK Flexibility Score: 70.00
ROOT
ATOM      1  C   UNL     1       8.453  29.243  15.587  1.00  0.00     0.136 C 
ATOM      2  O   UNL     1       9.489  29.865  15.776  1.00  0.00    -0.299 OA
ENDROOT
BRANCH   1   3
ATOM      3  C   UNL     1       7.336  29.321  16.609  1.00  0.00     0.053 C 
ATOM      4  C   UNL     1       7.441  30.645  17.372  1.00  0.00     0.016 C 
BRANCH   3   5
ATOM      5  C   UNL     1       5.937  29.190  15.960  1.00  0.00     0.015 C 
BRANCH   5   6
ATOM      6  C   UNL     1       5.108  28.002  16.477  1.00  0.00     0.028 C 
BRANCH   6   7
ATOM      7  C   UNL     1       4.467  27.239  15.342  1.00  0.00    -0.028 C 
ATOM      8  C   UNL     1       5.003  26.155  14.734  1.00  0.00    -0.070 CG0
ATOM      9  C   UNL     1       4.255  25.496  13.602  1.00  0.00     0.039 C 
ATOM     10  G   UNL     1       6.352  25.573  15.113  1.00  0.00     0.000 G0
ENDBRANCH   6   7
ENDBRANCH   5   6
ENDBRANCH   3   5
ENDBRANCH   1   3
BRANCH   1  11
ATOM     11  C   UNL     1       8.335  28.370  14.357  1.00  0.00     0.087 C 
BRANCH  11  12
ATOM     12  C   UNL     1       8.635  26.876  14.640  1.00  0.00     0.066 C 
BRANCH  12  13
ATOM     13  C   UNL     1       7.490  25.980  14.189  1.00  0.00     0.140 C 
ATOM     14  O   UNL     1       7.498  25.521  13.055  1.00  0.00    -0.299 OA
BRANCH  13  15
ATOM     15  C   UNL     1       6.367  25.570  15.117  1.00  0.00     0.106 CG0
ATOM     16  G   UNL     1       5.014  26.139  14.734  1.00  0.00     0.000 G0
ENDBRANCH  13  15
ENDBRANCH  12  13
BRANCH  12  17
ATOM     17  C   UNL     1       9.990  26.379  14.049  1.00  0.00    -0.006 C 
ATOM     18  C   UNL     1      10.368  24.987  14.578  1.00  0.00     0.008 C 
ATOM     19  C   UNL     1      11.162  27.356  14.255  1.00  0.00     0.008 C 
ENDBRANCH  12  17
ENDBRANCH  11  12
ENDBRANCH   1  11
TORSDOF 1
ENDMDL
MODEL 8
REMARK VINA RESULT:    -2.318      1.740      2.915
REMARK INTER + INTRA:          -4.092
REMARK INTER:                  -4.282
REMARK INTRA:                   0.190
REMARK UNBOUND:                -0.554
REMARK SMILES CC1=CCC[C@H](C)C(=O)C[C@H](C(C)C)C(=O)C1
REMARK SMILES IDX 8 1 9 2 6 3 7 4 5 5 4 6 3 7 2 8 1 9 10 11 11 12 15 13 16 14
REMARK SMILES IDX 17 15 12 17 13 18 14 19
REMARK H PARENT
REMARK Flexibility Score: 70.00
ROOT
ATOM      1  C   UNL     1      12.176  24.823  15.666  1.00  0.00     0.136 C 
ATOM      2  O   UNL     1      11.542  24.439  16.639  1.00  0.00    -0.299 OA
ENDROOT
BRANCH   1   3
ATOM      3  C   UNL     1      11.557  25.832  14.719  1.00  0.00     0.053 C 
ATOM      4  C   UNL     1      10.035  25.663  14.726  1.00  0.00     0.016 C 
BRANCH   3   5
ATOM      5  C   UNL     1      11.933  27.289  15.087  1.00  0.00     0.015 C 
BRANCH   5   6
ATOM      6  C   UNL     1      12.856  27.979  14.070  1.00  0.00     0.028 C 
BRANCH   6   7
ATOM      7  C   UNL     1      14.196  28.318  14.679  1.00  0.00    -0.028 C 
ATOM      8  C   UNL     1      15.368  27.718  14.363  1.00  0.00    -0.070 CG0
ATOM      9  C   UNL     1      16.633  28.150  15.061  1.00  0.00     0.039 C 
ATOM     10  G   UNL     1      15.477  26.594  13.349  1.00  0.00     0.000 G0
ENDBRANCH   6   7
ENDBRANCH   5   6
ENDBRANCH   3   5
ENDBRANCH   1   3
BRANCH   1  11
ATOM     11  C   UNL     1      13.549  24.240  15.408  1.00  0.00     0.087 C 
BRANCH  11  12
ATOM     12  C   UNL     1      14.037  24.457  13.953  1.00  0.00     0.066 C 
BRANCH  12  13
ATOM     13  C   UNL     1      15.364  25.203  13.914  1.00  0.00     0.140 C 
ATOM     14  O   UNL     1      16.378  24.645  14.308  1.00  0.00    -0.299 OA
BRANCH  13  15
ATOM     15  C   UNL     1      15.495  26.595  13.335  1.00  0.00     0.106 CG0
ATOM     16  G   UNL     1      15.386  27.702  14.366  1.00  0.00     0.000 G0
ENDBRANCH  13  15
ENDBRANCH  12  13
BRANCH  12  17
ATOM     17  C   UNL     1      14.116  23.147  13.110  1.00  0.00    -0.006 C 
ATOM     18  C   UNL     1      12.782  22.386  13.112  1.00  0.00     0.008 C 
ATOM     19  C   UNL     1      15.261  22.203  13.519  1.00  0.00     0.008 C 
ENDBRANCH  12  17
ENDBRANCH  11  12
ENDBRANCH   1  11
TORSDOF 1
ENDMDL
MODEL 9
REMARK VINA RESULT:    -2.272      1.600      3.732
REMARK INTER + INTRA:          -4.021
REMARK INTER:                  -4.220
REMARK INTRA:                   0.199
REMARK UNBOUND:                -0.554
REMARK SMILES CC1=CCC[C@H](C)C(=O)C[C@H](C(C)C)C(=O)C1
REMARK SMILES IDX 8 1 9 2 6 3 7 4 5 5 4 6 3 7 2 8 1 9 10 11 11 12 15 13 16 14
REMARK SMILES IDX 17 15 12 17 13 18 14 19
REMARK H PARENT
REMARK Flexibility Score: 70.00
ROOT
ATOM      1  C   UNL     1      16.607  25.652  15.167  1.00  0.00     0.136 C 
ATOM      2  O   UNL     1      16.811  25.155  16.266  1.00  0.00    -0.299 OA
ENDROOT
BRANCH   1   3
ATOM      3  C   UNL     1      17.392  26.877  14.743  1.00  0.00     0.053 C 
ATOM      4  C   UNL     1      17.774  26.746  13.265  1.00  0.00     0.016 C 
BRANCH   3   5
ATOM      5  C   UNL     1      16.603  28.189  14.974  1.00  0.00     0.015 C 
BRANCH   5   6
ATOM      6  C   UNL     1      15.859  28.707  13.731  1.00  0.00     0.028 C 
BRANCH   6   7
ATOM      7  C   UNL     1      14.440  29.105  14.062  1.00  0.00    -0.028 C 
ATOM      8  C   UNL     1      13.358  28.302  13.936  1.00  0.00    -0.070 CG0
ATOM      9  C   UNL     1      11.993  28.836  14.292  1.00  0.00     0.039 C 
ATOM     10  G   UNL     1      13.438  26.878  13.418  1.00  0.00     0.000 G0
ENDBRANCH   6   7
ENDBRANCH   5   6
ENDBRANCH   3   5
ENDBRANCH   1   3
BRANCH   1  11
ATOM     11  C   UNL     1      15.538  25.055  14.278  1.00  0.00     0.087 C 
BRANCH  11  12
ATOM     12  C   UNL     1      14.180  24.869  15.003  1.00  0.00     0.066 C 
BRANCH  12  13
ATOM     13  C   UNL     1      13.123  25.821  14.461  1.00  0.00     0.140 C 
ATOM     14  O   UNL     1      11.991  25.787  14.924  1.00  0.00    -0.299 OA
BRANCH  13  15
ATOM     15  C   UNL     1      13.434  26.869  13.415  1.00  0.00     0.106 CG0
ATOM     16  G   UNL     1      13.358  28.294  13.930  1.00  0.00     0.000 G0
ENDBRANCH  13  15
ENDBRANCH  12  13
BRANCH  12  17
ATOM     17  C   UNL     1      13.655  23.401  14.997  1.00  0.00    -0.006 C 
ATOM     18  C   UNL     1      14.778  22.391  15.280  1.00  0.00     0.008 C 
ATOM     19  C   UNL     1      12.905  23.005  13.712  1.00  0.00     0.008 C 
ENDBRANCH  12  17
ENDBRANCH  11  12
ENDBRANCH   1  11
TORSDOF 1
ENDMDL
