MODEL 1
REMARK VINA RESULT:    -4.141      0.000      0.000
REMARK INTER + INTRA:          -4.752
REMARK INTER:                  -4.504
REMARK INTRA:                  -0.248
REMARK UNBOUND:                -0.248
REMARK SMILES O=C([O-])c1ccccc1O
REMARK SMILES IDX 4 1 9 2 5 3 8 4 6 5 7 6 2 7 1 8 3 9 10 10
REMARK H PARENT 10 11
REMARK Flexibility Score: inf
ROOT
ATOM      1  C   UNL     1     113.182   0.297  62.302  1.00  0.00     0.039 A 
ATOM      2  C   UNL     1     113.703   1.107  63.344  1.00  0.00     0.124 A 
ATOM      3  C   UNL     1     111.975  -0.395  62.517  1.00  0.00     0.014 A 
ATOM      4  C   UNL     1     113.044   1.153  64.580  1.00  0.00     0.047 A 
ATOM      5  C   UNL     1     111.321  -0.321  63.749  1.00  0.00     0.001 A 
ATOM      6  C   UNL     1     111.860   0.444  64.783  1.00  0.00     0.004 A 
ENDROOT
BRANCH   1   7
ATOM      7  C   UNL     1     113.870   0.120  61.004  1.00  0.00     0.075 C 
ATOM      8  O   UNL     1     115.117  -0.043  60.950  1.00  0.00    -0.545 OA
ATOM      9  O   UNL     1     113.131   0.062  59.828  1.00  0.00    -0.545 OA
ENDBRANCH   1   7
BRANCH   2  10
ATOM     10  O   UNL     1     114.840   1.902  63.185  1.00  0.00    -0.507 OA
ATOM     11  H   UNL     1     115.228   2.476  63.921  1.00  0.00     0.293 HD
ENDBRANCH   2  10
TORSDOF 2
ENDMDL
MODEL 2
REMARK VINA RESULT:    -3.977      2.004      2.987
REMARK INTER + INTRA:          -4.574
REMARK INTER:                  -4.365
REMARK INTRA:                  -0.209
REMARK UNBOUND:                -0.248
REMARK SMILES O=C([O-])c1ccccc1O
REMARK SMILES IDX 4 1 9 2 5 3 8 4 6 5 7 6 2 7 1 8 3 9 10 10
REMARK H PARENT 10 11
REMARK Flexibility Score: inf
ROOT
ATOM      1  C   UNL     1     111.812   0.349  62.358  1.00  0.00     0.039 A 
ATOM      2  C   UNL     1     111.305  -0.456  63.412  1.00  0.00     0.124 A 
ATOM      3  C   UNL     1     112.799   1.309  62.650  1.00  0.00     0.014 A 
ATOM      4  C   UNL     1     111.747  -0.238  64.723  1.00  0.00     0.047 A 
ATOM      5  C   UNL     1     113.244   1.498  63.961  1.00  0.00     0.001 A 
ATOM      6  C   UNL     1     112.711   0.732  64.998  1.00  0.00     0.004 A 
ENDROOT
BRANCH   1   7
ATOM      7  C   UNL     1     111.325   0.247  60.965  1.00  0.00     0.075 C 
ATOM      8  O   UNL     1     110.107   0.409  60.692  1.00  0.00    -0.545 OA
ATOM      9  O   UNL     1     112.226   0.036  59.927  1.00  0.00    -0.545 OA
ENDBRANCH   1   7
BRANCH   2  10
ATOM     10  O   UNL     1     110.396  -1.495  63.197  1.00  0.00    -0.507 OA
ATOM     11  H   UNL     1     110.669  -2.428  62.923  1.00  0.00     0.293 HD
ENDBRANCH   2  10
TORSDOF 2
ENDMDL
MODEL 3
REMARK VINA RESULT:    -3.915      2.779      3.386
REMARK INTER + INTRA:          -4.507
REMARK INTER:                  -4.287
REMARK INTRA:                  -0.219
REMARK UNBOUND:                -0.248
REMARK SMILES O=C([O-])c1ccccc1O
REMARK SMILES IDX 4 1 9 2 5 3 8 4 6 5 7 6 2 7 1 8 3 9 10 10
REMARK H PARENT 10 11
REMARK Flexibility Score: inf
ROOT
ATOM      1  C   UNL     1     112.007   1.146  63.860  1.00  0.00     0.039 A 
ATOM      2  C   UNL     1     110.927   0.953  64.761  1.00  0.00     0.124 A 
ATOM      3  C   UNL     1     112.334   2.456  63.462  1.00  0.00     0.014 A 
ATOM      4  C   UNL     1     110.173   2.055  65.184  1.00  0.00     0.047 A 
ATOM      5  C   UNL     1     111.584   3.545  63.910  1.00  0.00     0.001 A 
ATOM      6  C   UNL     1     110.498   3.344  64.762  1.00  0.00     0.004 A 
ENDROOT
BRANCH   1   7
ATOM      7  C   UNL     1     112.789   0.025  63.293  1.00  0.00     0.075 C 
ATOM      8  O   UNL     1     112.406  -1.166  63.431  1.00  0.00    -0.545 OA
ATOM      9  O   UNL     1     113.927   0.285  62.537  1.00  0.00    -0.545 OA
ENDBRANCH   1   7
BRANCH   2  10
ATOM     10  O   UNL     1     110.595  -0.300  65.283  1.00  0.00    -0.507 OA
ATOM     11  H   UNL     1     109.738  -0.786  65.065  1.00  0.00     0.293 HD
ENDBRANCH   2  10
TORSDOF 2
ENDMDL
MODEL 4
REMARK VINA RESULT:    -3.908      1.440      2.667
REMARK INTER + INTRA:          -4.499
REMARK INTER:                  -4.246
REMARK INTRA:                  -0.253
REMARK UNBOUND:                -0.248
REMARK SMILES O=C([O-])c1ccccc1O
REMARK SMILES IDX 4 1 9 2 5 3 8 4 6 5 7 6 2 7 1 8 3 9 10 10
REMARK H PARENT 10 11
REMARK Flexibility Score: inf
ROOT
ATOM      1  C   UNL     1     114.035   1.743  62.898  1.00  0.00     0.039 A 
ATOM      2  C   UNL     1     113.993   0.374  62.528  1.00  0.00     0.124 A 
ATOM      3  C   UNL     1     113.079   2.231  63.809  1.00  0.00     0.014 A 
ATOM      4  C   UNL     1     112.970  -0.446  63.022  1.00  0.00     0.047 A 
ATOM      5  C   UNL     1     112.078   1.394  64.309  1.00  0.00     0.001 A 
ATOM      6  C   UNL     1     112.017   0.059  63.907  1.00  0.00     0.004 A 
ENDROOT
BRANCH   1   7
ATOM      7  C   UNL     1     115.023   2.694  62.344  1.00  0.00     0.075 C 
ATOM      8  O   UNL     1     115.574   3.556  63.078  1.00  0.00    -0.545 OA
ATOM      9  O   UNL     1     115.407   2.600  61.011  1.00  0.00    -0.545 OA
ENDBRANCH   1   7
BRANCH   2  10
ATOM     10  O   UNL     1     114.957  -0.216  61.707  1.00  0.00    -0.507 OA
ATOM     11  H   UNL     1     115.907  -0.393  62.000  1.00  0.00     0.293 HD
ENDBRANCH   2  10
TORSDOF 2
ENDMDL
MODEL 5
REMARK VINA RESULT:    -3.880      3.416      4.546
REMARK INTER + INTRA:          -4.468
REMARK INTER:                  -4.259
REMARK INTRA:                  -0.209
REMARK UNBOUND:                -0.248
REMARK SMILES O=C([O-])c1ccccc1O
REMARK SMILES IDX 4 1 9 2 5 3 8 4 6 5 7 6 2 7 1 8 3 9 10 10
REMARK H PARENT 10 11
REMARK Flexibility Score: inf
ROOT
ATOM      1  C   UNL     1     111.327   1.586  64.227  1.00  0.00     0.039 A 
ATOM      2  C   UNL     1     111.280   0.194  64.503  1.00  0.00     0.124 A 
ATOM      3  C   UNL     1     112.210   2.052  63.235  1.00  0.00     0.014 A 
ATOM      4  C   UNL     1     112.151  -0.674  63.832  1.00  0.00     0.047 A 
ATOM      5  C   UNL     1     113.057   1.169  62.562  1.00  0.00     0.001 A 
ATOM      6  C   UNL     1     113.035  -0.191  62.867  1.00  0.00     0.004 A 
ENDROOT
BRANCH   1   7
ATOM      7  C   UNL     1     110.510   2.577  64.961  1.00  0.00     0.075 C 
ATOM      8  O   UNL     1     109.690   2.213  65.843  1.00  0.00    -0.545 OA
ATOM      9  O   UNL     1     110.692   3.935  64.728  1.00  0.00    -0.545 OA
ENDBRANCH   1   7
BRANCH   2  10
ATOM     10  O   UNL     1     110.369  -0.367  65.400  1.00  0.00    -0.507 OA
ATOM     11  H   UNL     1     109.827   0.175  66.059  1.00  0.00     0.293 HD
ENDBRANCH   2  10
TORSDOF 2
ENDMDL
MODEL 6
REMARK VINA RESULT:    -3.840      2.357      4.048
REMARK INTER + INTRA:          -4.425
REMARK INTER:                  -4.172
REMARK INTRA:                  -0.253
REMARK UNBOUND:                -0.248
REMARK SMILES O=C([O-])c1ccccc1O
REMARK SMILES IDX 4 1 9 2 5 3 8 4 6 5 7 6 2 7 1 8 3 9 10 10
REMARK H PARENT 10 11
REMARK Flexibility Score: inf
ROOT
ATOM      1  C   UNL     1     112.393   0.262  62.896  1.00  0.00     0.039 A 
ATOM      2  C   UNL     1     111.326   0.214  61.961  1.00  0.00     0.124 A 
ATOM      3  C   UNL     1     113.716   0.303  62.417  1.00  0.00     0.014 A 
ATOM      4  C   UNL     1     111.610   0.145  60.591  1.00  0.00     0.047 A 
ATOM      5  C   UNL     1     113.979   0.254  61.046  1.00  0.00     0.001 A 
ATOM      6  C   UNL     1     112.928   0.164  60.135  1.00  0.00     0.004 A 
ENDROOT
BRANCH   1   7
ATOM      7  C   UNL     1     112.178   0.240  64.360  1.00  0.00     0.075 C 
ATOM      8  O   UNL     1     112.884   0.943  65.128  1.00  0.00    -0.545 OA
ATOM      9  O   UNL     1     111.141  -0.513  64.898  1.00  0.00    -0.545 OA
ENDBRANCH   1   7
BRANCH   2  10
ATOM     10  O   UNL     1     109.984   0.268  62.344  1.00  0.00    -0.507 OA
ATOM     11  H   UNL     1     109.217   0.303  61.688  1.00  0.00     0.293 HD
ENDBRANCH   2  10
TORSDOF 2
ENDMDL
MODEL 7
REMARK VINA RESULT:    -3.836      1.960      3.391
REMARK INTER + INTRA:          -4.421
REMARK INTER:                  -4.195
REMARK INTRA:                  -0.226
REMARK UNBOUND:                -0.248
REMARK SMILES O=C([O-])c1ccccc1O
REMARK SMILES IDX 4 1 9 2 5 3 8 4 6 5 7 6 2 7 1 8 3 9 10 10
REMARK H PARENT 10 11
REMARK Flexibility Score: inf
ROOT
ATOM      1  C   UNL     1     112.562   0.444  62.906  1.00  0.00     0.039 A 
ATOM      2  C   UNL     1     113.710   1.057  62.340  1.00  0.00     0.124 A 
ATOM      3  C   UNL     1     111.580  -0.085  62.047  1.00  0.00     0.014 A 
ATOM      4  C   UNL     1     113.815   1.178  60.948  1.00  0.00     0.047 A 
ATOM      5  C   UNL     1     111.710   0.027  60.661  1.00  0.00     0.001 A 
ATOM      6  C   UNL     1     112.822   0.667  60.112  1.00  0.00     0.004 A 
ENDROOT
BRANCH   1   7
ATOM      7  C   UNL     1     112.332   0.365  64.365  1.00  0.00     0.075 C 
ATOM      8  O   UNL     1     112.990   1.081  65.164  1.00  0.00    -0.545 OA
ATOM      9  O   UNL     1     111.331  -0.460  64.867  1.00  0.00    -0.545 OA
ENDBRANCH   1   7
BRANCH   2  10
ATOM     10  O   UNL     1     114.776   1.521  63.113  1.00  0.00    -0.507 OA
ATOM     11  H   UNL     1     114.760   1.557  64.123  1.00  0.00     0.293 HD
ENDBRANCH   2  10
TORSDOF 2
ENDMDL
MODEL 8
REMARK VINA RESULT:    -3.701      1.578      2.697
REMARK INTER + INTRA:          -4.274
REMARK INTER:                  -4.075
REMARK INTRA:                  -0.199
REMARK UNBOUND:                -0.248
REMARK SMILES O=C([O-])c1ccccc1O
REMARK SMILES IDX 4 1 9 2 5 3 8 4 6 5 7 6 2 7 1 8 3 9 10 10
REMARK H PARENT 10 11
REMARK Flexibility Score: inf
ROOT
ATOM      1  C   UNL     1     113.159   0.190  61.458  1.00  0.00     0.039 A 
ATOM      2  C   UNL     1     111.874   0.148  60.857  1.00  0.00     0.124 A 
ATOM      3  C   UNL     1     113.304  -0.255  62.785  1.00  0.00     0.014 A 
ATOM      4  C   UNL     1     110.771  -0.273  61.611  1.00  0.00     0.047 A 
ATOM      5  C   UNL     1     112.196  -0.691  63.516  1.00  0.00     0.001 A 
ATOM      6  C   UNL     1     110.929  -0.690  62.932  1.00  0.00     0.004 A 
ENDROOT
BRANCH   1   7
ATOM      7  C   UNL     1     114.355   0.713  60.760  1.00  0.00     0.075 C 
ATOM      8  O   UNL     1     114.388   1.896  60.331  1.00  0.00    -0.545 OA
ATOM      9  O   UNL     1     115.487  -0.082  60.631  1.00  0.00    -0.545 OA
ENDBRANCH   1   7
BRANCH   2  10
ATOM     10  O   UNL     1     111.657   0.479  59.517  1.00  0.00    -0.507 OA
ATOM     11  H   UNL     1     112.103   1.258  59.054  1.00  0.00     0.293 HD
ENDBRANCH   2  10
TORSDOF 2
ENDMDL
MODEL 9
REMARK VINA RESULT:    -3.519      1.705      2.471
REMARK INTER + INTRA:          -4.075
REMARK INTER:                  -3.828
REMARK INTRA:                  -0.247
REMARK UNBOUND:                -0.248
REMARK SMILES O=C([O-])c1ccccc1O
REMARK SMILES IDX 4 1 9 2 5 3 8 4 6 5 7 6 2 7 1 8 3 9 10 10
REMARK H PARENT 10 11
REMARK Flexibility Score: inf
ROOT
ATOM      1  C   UNL     1     114.547   1.350  61.117  1.00  0.00     0.039 A 
ATOM      2  C   UNL     1     114.359   1.578  62.506  1.00  0.00     0.124 A 
ATOM      3  C   UNL     1     113.550   0.661  60.401  1.00  0.00     0.014 A 
ATOM      4  C   UNL     1     113.224   1.063  63.144  1.00  0.00     0.047 A 
ATOM      5  C   UNL     1     112.415   0.172  61.050  1.00  0.00     0.001 A 
ATOM      6  C   UNL     1     112.257   0.363  62.423  1.00  0.00     0.004 A 
ENDROOT
BRANCH   1   7
ATOM      7  C   UNL     1     115.764   1.777  60.391  1.00  0.00     0.075 C 
ATOM      8  O   UNL     1     116.355   0.994  59.603  1.00  0.00    -0.545 OA
ATOM      9  O   UNL     1     116.229   3.080  60.522  1.00  0.00    -0.545 OA
ENDBRANCH   1   7
BRANCH   2  10
ATOM     10  O   UNL     1     115.249   2.334  63.273  1.00  0.00    -0.507 OA
ATOM     11  H   UNL     1     115.078   2.591  64.235  1.00  0.00     0.293 HD
ENDBRANCH   2  10
TORSDOF 2
ENDMDL
