MODEL 1
REMARK VINA RESULT:    -3.124      0.000      0.000
REMARK INTER + INTRA:          -6.404
REMARK INTER:                  -5.864
REMARK INTRA:                  -0.540
REMARK UNBOUND:                -0.540
REMARK SMILES CCCCCCCCC=CCCCCCCCC(=O)[O-]
REMARK SMILES IDX 10 1 9 2 11 3 12 4 13 5 14 6 15 7 16 8 17 9 18 10 19 11
REMARK SMILES IDX 20 12 8 13 7 14 6 15 5 16 4 17 3 18 2 19 1 20
REMARK H PARENT
REMARK Flexibility Score: inf
ROOT
ATOM      1  C   UNL     1       2.415  13.588  17.410  1.00  0.00    -0.031 C 
ATOM      2  C   UNL     1       1.653  14.685  17.244  1.00  0.00    -0.031 C 
ENDROOT
BRANCH   1   3
ATOM      3  C   UNL     1       2.709  12.939  18.739  1.00  0.00     0.027 C 
BRANCH   3   4
ATOM      4  C   UNL     1       2.840  11.417  18.587  1.00  0.00     0.004 C 
BRANCH   4   5
ATOM      5  C   UNL     1       4.155  10.865  19.168  1.00  0.00     0.000 C 
BRANCH   5   6
ATOM      6  C   UNL     1       5.407  11.710  18.869  1.00  0.00     0.000 C 
BRANCH   6   7
ATOM      7  C   UNL     1       6.290  11.107  17.766  1.00  0.00     0.000 C 
BRANCH   7   8
ATOM      8  C   UNL     1       6.301  12.003  16.519  1.00  0.00     0.006 C 
BRANCH   8   9
ATOM      9  C   UNL     1       4.886  12.400  16.078  1.00  0.00     0.053 C 
BRANCH   9  10
ATOM     10  C   UNL     1       4.826  12.704  14.612  1.00  0.00     0.041 C 
ATOM     11  O   UNL     1       5.885  12.922  13.966  1.00  0.00    -0.550 OA
ATOM     12  O   UNL     1       3.598  12.780  13.967  1.00  0.00    -0.550 OA
ENDBRANCH   9  10
ENDBRANCH   8   9
ENDBRANCH   7   8
ENDBRANCH   6   7
ENDBRANCH   5   6
ENDBRANCH   4   5
ENDBRANCH   3   4
ENDBRANCH   1   3
BRANCH   2  13
ATOM     13  C   UNL     1       0.910  15.393  18.351  1.00  0.00     0.027 C 
BRANCH  13  14
ATOM     14  C   UNL     1       0.885  16.916  18.149  1.00  0.00     0.004 C 
BRANCH  14  15
ATOM     15  C   UNL     1      -0.182  17.595  19.024  1.00  0.00     0.000 C 
BRANCH  15  16
ATOM     16  C   UNL     1      -1.588  17.011  18.806  1.00  0.00     0.000 C 
BRANCH  16  17
ATOM     17  C   UNL     1      -2.122  16.277  20.049  1.00  0.00    -0.000 C 
BRANCH  17  18
ATOM     18  C   UNL     1      -2.122  14.747  19.884  1.00  0.00    -0.000 C 
BRANCH  18  19
ATOM     19  C   UNL     1      -1.892  13.953  21.183  1.00  0.00    -0.003 C 
ATOM     20  C   UNL     1      -2.123  12.451  21.015  1.00  0.00     0.004 C 
ENDBRANCH  18  19
ENDBRANCH  17  18
ENDBRANCH  16  17
ENDBRANCH  15  16
ENDBRANCH  14  15
ENDBRANCH  13  14
ENDBRANCH   2  13
TORSDOF 15
ENDMDL
MODEL 2
REMARK VINA RESULT:    -2.901      1.879      2.943
REMARK INTER + INTRA:          -5.985
REMARK INTER:                  -5.139
REMARK INTRA:                  -0.846
REMARK UNBOUND:                -0.540
REMARK SMILES CCCCCCCCC=CCCCCCCCC(=O)[O-]
REMARK SMILES IDX 10 1 9 2 11 3 12 4 13 5 14 6 15 7 16 8 17 9 18 10 19 11
REMARK SMILES IDX 20 12 8 13 7 14 6 15 5 16 4 17 3 18 2 19 1 20
REMARK H PARENT
REMARK Flexibility Score: inf
ROOT
ATOM      1  C   UNL     1       2.861  13.366  15.569  1.00  0.00    -0.031 C 
ATOM      2  C   UNL     1       1.847  14.007  16.179  1.00  0.00    -0.031 C 
ENDROOT
BRANCH   1   3
ATOM      3  C   UNL     1       4.317  13.522  15.931  1.00  0.00     0.027 C 
BRANCH   3   4
ATOM      4  C   UNL     1       5.162  12.418  15.280  1.00  0.00     0.004 C 
BRANCH   4   5
ATOM      5  C   UNL     1       5.724  11.411  16.300  1.00  0.00     0.000 C 
BRANCH   5   6
ATOM      6  C   UNL     1       6.499  12.036  17.475  1.00  0.00     0.000 C 
BRANCH   6   7
ATOM      7  C   UNL     1       6.612  11.099  18.687  1.00  0.00     0.000 C 
BRANCH   7   8
ATOM      8  C   UNL     1       5.508  11.392  19.714  1.00  0.00     0.006 C 
BRANCH   8   9
ATOM      9  C   UNL     1       4.338  10.406  19.604  1.00  0.00     0.053 C 
BRANCH   9  10
ATOM     10  C   UNL     1       3.202  10.979  18.813  1.00  0.00     0.041 C 
ATOM     11  O   UNL     1       2.457  10.223  18.136  1.00  0.00    -0.550 OA
ATOM     12  O   UNL     1       2.987  12.351  18.797  1.00  0.00    -0.550 OA
ENDBRANCH   9  10
ENDBRANCH   8   9
ENDBRANCH   7   8
ENDBRANCH   6   7
ENDBRANCH   5   6
ENDBRANCH   4   5
ENDBRANCH   3   4
ENDBRANCH   1   3
BRANCH   2  13
ATOM     13  C   UNL     1       1.999  14.923  17.370  1.00  0.00     0.027 C 
BRANCH  13  14
ATOM     14  C   UNL     1       0.644  15.432  17.884  1.00  0.00     0.004 C 
BRANCH  14  15
ATOM     15  C   UNL     1       0.723  16.889  18.371  1.00  0.00     0.000 C 
BRANCH  15  16
ATOM     16  C   UNL     1      -0.657  17.476  18.712  1.00  0.00     0.000 C 
BRANCH  16  17
ATOM     17  C   UNL     1      -1.754  16.400  18.787  1.00  0.00    -0.000 C 
BRANCH  17  18
ATOM     18  C   UNL     1      -1.846  15.736  20.173  1.00  0.00    -0.000 C 
BRANCH  18  19
ATOM     19  C   UNL     1      -2.084  14.215  20.151  1.00  0.00    -0.003 C 
ATOM     20  C   UNL     1      -2.124  13.596  21.548  1.00  0.00     0.004 C 
ENDBRANCH  18  19
ENDBRANCH  17  18
ENDBRANCH  16  17
ENDBRANCH  15  16
ENDBRANCH  14  15
ENDBRANCH  13  14
ENDBRANCH   2  13
TORSDOF 15
ENDMDL
MODEL 3
REMARK VINA RESULT:    -2.819      3.017      7.568
REMARK INTER + INTRA:          -5.830
REMARK INTER:                  -4.660
REMARK INTRA:                  -1.170
REMARK UNBOUND:                -0.540
REMARK SMILES CCCCCCCCC=CCCCCCCCC(=O)[O-]
REMARK SMILES IDX 10 1 9 2 11 3 12 4 13 5 14 6 15 7 16 8 17 9 18 10 19 11
REMARK SMILES IDX 20 12 8 13 7 14 6 15 5 16 4 17 3 18 2 19 1 20
REMARK H PARENT
REMARK Flexibility Score: inf
ROOT
ATOM      1  C   UNL     1       2.226  13.438  15.726  1.00  0.00    -0.031 C 
ATOM      2  C   UNL     1       3.226  13.101  14.889  1.00  0.00    -0.031 C 
ENDROOT
BRANCH   1   3
ATOM      3  C   UNL     1       2.405  14.201  17.014  1.00  0.00     0.027 C 
BRANCH   3   4
ATOM      4  C   UNL     1       1.143  15.007  17.351  1.00  0.00     0.004 C 
BRANCH   4   5
ATOM      5  C   UNL     1       1.400  16.129  18.374  1.00  0.00     0.000 C 
BRANCH   5   6
ATOM      6  C   UNL     1       1.053  17.548  17.887  1.00  0.00     0.000 C 
BRANCH   6   7
ATOM      7  C   UNL     1       0.200  18.337  18.891  1.00  0.00     0.000 C 
BRANCH   7   8
ATOM      8  C   UNL     1      -1.283  17.962  18.767  1.00  0.00     0.006 C 
BRANCH   8   9
ATOM      9  C   UNL     1      -1.777  17.144  19.968  1.00  0.00     0.053 C 
BRANCH   9  10
ATOM     10  C   UNL     1      -1.975  15.702  19.614  1.00  0.00     0.041 C 
ATOM     11  O   UNL     1      -2.122  15.359  18.411  1.00  0.00    -0.550 OA
ATOM     12  O   UNL     1      -2.031  14.741  20.615  1.00  0.00    -0.550 OA
ENDBRANCH   9  10
ENDBRANCH   8   9
ENDBRANCH   7   8
ENDBRANCH   6   7
ENDBRANCH   5   6
ENDBRANCH   4   5
ENDBRANCH   3   4
ENDBRANCH   1   3
BRANCH   2  13
ATOM     13  C   UNL     1       4.671  13.501  15.069  1.00  0.00     0.027 C 
BRANCH  13  14
ATOM     14  C   UNL     1       5.591  12.282  15.237  1.00  0.00     0.004 C 
BRANCH  14  15
ATOM     15  C   UNL     1       5.386  11.587  16.594  1.00  0.00     0.000 C 
BRANCH  15  16
ATOM     16  C   UNL     1       6.671  11.541  17.436  1.00  0.00     0.000 C 
BRANCH  16  17
ATOM     17  C   UNL     1       6.408  11.121  18.893  1.00  0.00    -0.000 C 
BRANCH  17  18
ATOM     18  C   UNL     1       5.022  11.559  19.400  1.00  0.00    -0.000 C 
BRANCH  18  19
ATOM     19  C   UNL     1       3.964  10.443  19.449  1.00  0.00    -0.003 C 
ATOM     20  C   UNL     1       2.829  10.648  18.446  1.00  0.00     0.004 C 
ENDBRANCH  18  19
ENDBRANCH  17  18
ENDBRANCH  16  17
ENDBRANCH  15  16
ENDBRANCH  14  15
ENDBRANCH  13  14
ENDBRANCH   2  13
TORSDOF 15
ENDMDL
MODEL 4
REMARK VINA RESULT:    -2.687      3.121      7.514
REMARK INTER + INTRA:          -5.583
REMARK INTER:                  -5.243
REMARK INTRA:                  -0.340
REMARK UNBOUND:                -0.540
REMARK SMILES CCCCCCCCC=CCCCCCCCC(=O)[O-]
REMARK SMILES IDX 10 1 9 2 11 3 12 4 13 5 14 6 15 7 16 8 17 9 18 10 19 11
REMARK SMILES IDX 20 12 8 13 7 14 6 15 5 16 4 17 3 18 2 19 1 20
REMARK H PARENT
REMARK Flexibility Score: inf
ROOT
ATOM      1  C   UNL     1       2.014  13.414  15.056  1.00  0.00    -0.031 C 
ATOM      2  C   UNL     1       2.868  12.672  14.326  1.00  0.00    -0.031 C 
ENDROOT
BRANCH   1   3
ATOM      3  C   UNL     1       2.427  14.426  16.094  1.00  0.00     0.027 C 
BRANCH   3   4
ATOM      4  C   UNL     1       1.679  14.191  17.414  1.00  0.00     0.004 C 
BRANCH   4   5
ATOM      5  C   UNL     1       1.014  15.466  17.963  1.00  0.00     0.000 C 
BRANCH   5   6
ATOM      6  C   UNL     1      -0.286  15.235  18.756  1.00  0.00     0.000 C 
BRANCH   6   7
ATOM      7  C   UNL     1      -1.428  16.168  18.326  1.00  0.00     0.000 C 
BRANCH   7   8
ATOM      8  C   UNL     1      -2.010  16.917  19.533  1.00  0.00     0.006 C 
BRANCH   8   9
ATOM      9  C   UNL     1      -1.378  18.304  19.714  1.00  0.00     0.053 C 
BRANCH   9  10
ATOM     10  C   UNL     1      -0.809  18.826  18.431  1.00  0.00     0.041 C 
ATOM     11  O   UNL     1      -1.571  19.124  17.474  1.00  0.00    -0.550 OA
ATOM     12  O   UNL     1       0.566  18.952  18.280  1.00  0.00    -0.550 OA
ENDBRANCH   9  10
ENDBRANCH   8   9
ENDBRANCH   7   8
ENDBRANCH   6   7
ENDBRANCH   5   6
ENDBRANCH   4   5
ENDBRANCH   3   4
ENDBRANCH   1   3
BRANCH   2  13
ATOM     13  C   UNL     1       4.373  12.791  14.377  1.00  0.00     0.027 C 
BRANCH  13  14
ATOM     14  C   UNL     1       4.886  13.021  15.807  1.00  0.00     0.004 C 
BRANCH  14  15
ATOM     15  C   UNL     1       5.787  11.871  16.288  1.00  0.00     0.000 C 
BRANCH  15  16
ATOM     16  C   UNL     1       6.412  12.144  17.666  1.00  0.00     0.000 C 
BRANCH  16  17
ATOM     17  C   UNL     1       6.289  10.943  18.619  1.00  0.00    -0.000 C 
BRANCH  17  18
ATOM     18  C   UNL     1       5.080  11.054  19.566  1.00  0.00    -0.000 C 
BRANCH  18  19
ATOM     19  C   UNL     1       3.805  11.633  18.929  1.00  0.00    -0.003 C 
ATOM     20  C   UNL     1       2.869  10.558  18.378  1.00  0.00     0.004 C 
ENDBRANCH  18  19
ENDBRANCH  17  18
ENDBRANCH  16  17
ENDBRANCH  15  16
ENDBRANCH  14  15
ENDBRANCH  13  14
ENDBRANCH   2  13
TORSDOF 15
ENDMDL
MODEL 5
REMARK VINA RESULT:    -2.665      2.359      3.875
REMARK INTER + INTRA:          -5.541
REMARK INTER:                  -5.090
REMARK INTRA:                  -0.451
REMARK UNBOUND:                -0.540
REMARK SMILES CCCCCCCCC=CCCCCCCCC(=O)[O-]
REMARK SMILES IDX 10 1 9 2 11 3 12 4 13 5 14 6 15 7 16 8 17 9 18 10 19 11
REMARK SMILES IDX 20 12 8 13 7 14 6 15 5 16 4 17 3 18 2 19 1 20
REMARK H PARENT
REMARK Flexibility Score: inf
ROOT
ATOM      1  C   UNL     1       3.207  12.807  14.686  1.00  0.00    -0.031 C 
ATOM      2  C   UNL     1       2.196  13.353  15.388  1.00  0.00    -0.031 C 
ENDROOT
BRANCH   1   3
ATOM      3  C   UNL     1       4.605  13.367  14.616  1.00  0.00     0.027 C 
BRANCH   3   4
ATOM      4  C   UNL     1       5.633  12.328  15.085  1.00  0.00     0.004 C 
BRANCH   4   5
ATOM      5  C   UNL     1       5.516  12.001  16.586  1.00  0.00     0.000 C 
BRANCH   5   6
ATOM      6  C   UNL     1       6.843  11.647  17.283  1.00  0.00     0.000 C 
BRANCH   6   7
ATOM      7  C   UNL     1       6.646  10.866  18.591  1.00  0.00     0.000 C 
BRANCH   7   8
ATOM      8  C   UNL     1       5.560  11.515  19.461  1.00  0.00     0.006 C 
BRANCH   8   9
ATOM      9  C   UNL     1       4.371  10.575  19.700  1.00  0.00     0.053 C 
BRANCH   9  10
ATOM     10  C   UNL     1       3.189  10.951  18.861  1.00  0.00     0.041 C 
ATOM     11  O   UNL     1       2.648  10.097  18.110  1.00  0.00    -0.550 OA
ATOM     12  O   UNL     1       2.705  12.253  18.884  1.00  0.00    -0.550 OA
ENDBRANCH   9  10
ENDBRANCH   8   9
ENDBRANCH   7   8
ENDBRANCH   6   7
ENDBRANCH   5   6
ENDBRANCH   4   5
ENDBRANCH   3   4
ENDBRANCH   1   3
BRANCH   2  13
ATOM     13  C   UNL     1       2.322  14.568  16.277  1.00  0.00     0.027 C 
BRANCH  13  14
ATOM     14  C   UNL     1       1.463  14.448  17.545  1.00  0.00     0.004 C 
BRANCH  14  15
ATOM     15  C   UNL     1       0.838  15.795  17.946  1.00  0.00     0.000 C 
BRANCH  15  16
ATOM     16  C   UNL     1      -0.536  15.634  18.618  1.00  0.00     0.000 C 
BRANCH  16  17
ATOM     17  C   UNL     1      -1.492  16.795  18.293  1.00  0.00    -0.000 C 
BRANCH  17  18
ATOM     18  C   UNL     1      -1.834  17.650  19.527  1.00  0.00    -0.000 C 
BRANCH  18  19
ATOM     19  C   UNL     1      -1.207  19.056  19.539  1.00  0.00    -0.003 C 
ATOM     20  C   UNL     1       0.123  19.125  18.790  1.00  0.00     0.004 C 
ENDBRANCH  18  19
ENDBRANCH  17  18
ENDBRANCH  16  17
ENDBRANCH  15  16
ENDBRANCH  14  15
ENDBRANCH  13  14
ENDBRANCH   2  13
TORSDOF 15
ENDMDL
MODEL 6
REMARK VINA RESULT:    -2.552      1.821      3.308
REMARK INTER + INTRA:          -5.330
REMARK INTER:                  -4.427
REMARK INTRA:                  -0.904
REMARK UNBOUND:                -0.540
REMARK SMILES CCCCCCCCC=CCCCCCCCC(=O)[O-]
REMARK SMILES IDX 10 1 9 2 11 3 12 4 13 5 14 6 15 7 16 8 17 9 18 10 19 11
REMARK SMILES IDX 20 12 8 13 7 14 6 15 5 16 4 17 3 18 2 19 1 20
REMARK H PARENT
REMARK Flexibility Score: inf
ROOT
ATOM      1  C   UNL     1       3.577  10.806  18.389  1.00  0.00    -0.031 C 
ATOM      2  C   UNL     1       2.894  11.830  17.844  1.00  0.00    -0.031 C 
ENDROOT
BRANCH   1   3
ATOM      3  C   UNL     1       4.286  10.857  19.719  1.00  0.00     0.027 C 
BRANCH   3   4
ATOM      4  C   UNL     1       5.699  11.437  19.562  1.00  0.00     0.004 C 
BRANCH   4   5
ATOM      5  C   UNL     1       6.420  10.929  18.299  1.00  0.00     0.000 C 
BRANCH   5   6
ATOM      6  C   UNL     1       6.725  12.009  17.244  1.00  0.00     0.000 C 
BRANCH   6   7
ATOM      7  C   UNL     1       6.010  11.761  15.906  1.00  0.00     0.000 C 
BRANCH   7   8
ATOM      8  C   UNL     1       5.093  12.940  15.547  1.00  0.00     0.006 C 
BRANCH   8   9
ATOM      9  C   UNL     1       4.423  12.756  14.179  1.00  0.00     0.053 C 
BRANCH   9  10
ATOM     10  C   UNL     1       2.930  12.731  14.291  1.00  0.00     0.041 C 
ATOM     11  O   UNL     1       2.274  11.775  13.800  1.00  0.00    -0.550 OA
ATOM     12  O   UNL     1       2.260  13.780  14.909  1.00  0.00    -0.550 OA
ENDBRANCH   9  10
ENDBRANCH   8   9
ENDBRANCH   7   8
ENDBRANCH   6   7
ENDBRANCH   5   6
ENDBRANCH   4   5
ENDBRANCH   3   4
ENDBRANCH   1   3
BRANCH   2  13
ATOM     13  C   UNL     1       2.664  13.164  18.512  1.00  0.00     0.027 C 
BRANCH  13  14
ATOM     14  C   UNL     1       1.991  14.174  17.570  1.00  0.00     0.004 C 
BRANCH  14  15
ATOM     15  C   UNL     1       1.348  15.341  18.340  1.00  0.00     0.000 C 
BRANCH  15  16
ATOM     16  C   UNL     1      -0.145  15.512  18.018  1.00  0.00     0.000 C 
BRANCH  16  17
ATOM     17  C   UNL     1      -0.880  16.370  19.062  1.00  0.00    -0.000 C 
BRANCH  17  18
ATOM     18  C   UNL     1      -1.174  17.797  18.563  1.00  0.00    -0.000 C 
BRANCH  18  19
ATOM     19  C   UNL     1      -0.175  18.869  19.033  1.00  0.00    -0.003 C 
ATOM     20  C   UNL     1       0.977  19.084  18.052  1.00  0.00     0.004 C 
ENDBRANCH  18  19
ENDBRANCH  17  18
ENDBRANCH  16  17
ENDBRANCH  15  16
ENDBRANCH  14  15
ENDBRANCH  13  14
ENDBRANCH   2  13
TORSDOF 15
ENDMDL
MODEL 7
REMARK VINA RESULT:    -2.476      3.365      7.872
REMARK INTER + INTRA:          -5.187
REMARK INTER:                  -4.214
REMARK INTRA:                  -0.973
REMARK UNBOUND:                -0.540
REMARK SMILES CCCCCCCCC=CCCCCCCCC(=O)[O-]
REMARK SMILES IDX 10 1 9 2 11 3 12 4 13 5 14 6 15 7 16 8 17 9 18 10 19 11
REMARK SMILES IDX 20 12 8 13 7 14 6 15 5 16 4 17 3 18 2 19 1 20
REMARK H PARENT
REMARK Flexibility Score: inf
ROOT
ATOM      1  C   UNL     1       2.722  11.442  18.225  1.00  0.00    -0.031 C 
ATOM      2  C   UNL     1       3.541  10.503  18.736  1.00  0.00    -0.031 C 
ENDROOT
BRANCH   1   3
ATOM      3  C   UNL     1       2.596  12.850  18.750  1.00  0.00     0.027 C 
BRANCH   3   4
ATOM      4  C   UNL     1       2.743  13.871  17.613  1.00  0.00     0.004 C 
BRANCH   4   5
ATOM      5  C   UNL     1       1.420  14.578  17.265  1.00  0.00     0.000 C 
BRANCH   5   6
ATOM      6  C   UNL     1       0.856  15.489  18.371  1.00  0.00     0.000 C 
BRANCH   6   7
ATOM      7  C   UNL     1      -0.561  15.999  18.066  1.00  0.00     0.000 C 
BRANCH   7   8
ATOM      8  C   UNL     1      -1.506  15.738  19.248  1.00  0.00     0.006 C 
BRANCH   8   9
ATOM      9  C   UNL     1      -1.977  17.038  19.912  1.00  0.00     0.053 C 
BRANCH   9  10
ATOM     10  C   UNL     1      -1.531  18.246  19.146  1.00  0.00     0.041 C 
ATOM     11  O   UNL     1      -0.638  19.000  19.615  1.00  0.00    -0.550 OA
ATOM     12  O   UNL     1      -2.125  18.557  17.929  1.00  0.00    -0.550 OA
ENDBRANCH   9  10
ENDBRANCH   8   9
ENDBRANCH   7   8
ENDBRANCH   6   7
ENDBRANCH   5   6
ENDBRANCH   4   5
ENDBRANCH   3   4
ENDBRANCH   1   3
BRANCH   2  13
ATOM     13  C   UNL     1       4.518  10.735  19.864  1.00  0.00     0.027 C 
BRANCH  13  14
ATOM     14  C   UNL     1       5.656  11.684  19.457  1.00  0.00     0.004 C 
BRANCH  14  15
ATOM     15  C   UNL     1       6.717  10.976  18.598  1.00  0.00     0.000 C 
BRANCH  15  16
ATOM     16  C   UNL     1       6.932  11.660  17.238  1.00  0.00     0.000 C 
BRANCH  16  17
ATOM     17  C   UNL     1       5.699  11.557  16.324  1.00  0.00    -0.000 C 
BRANCH  17  18
ATOM     18  C   UNL     1       5.338  12.896  15.653  1.00  0.00    -0.000 C 
BRANCH  18  19
ATOM     19  C   UNL     1       4.654  12.772  14.280  1.00  0.00    -0.003 C 
ATOM     20  C   UNL     1       3.128  12.779  14.369  1.00  0.00     0.004 C 
ENDBRANCH  18  19
ENDBRANCH  17  18
ENDBRANCH  16  17
ENDBRANCH  15  16
ENDBRANCH  14  15
ENDBRANCH  13  14
ENDBRANCH   2  13
TORSDOF 15
ENDMDL
MODEL 8
REMARK VINA RESULT:    -2.459      1.376      2.553
REMARK INTER + INTRA:          -5.155
REMARK INTER:                  -4.500
REMARK INTRA:                  -0.655
REMARK UNBOUND:                -0.540
REMARK SMILES CCCCCCCCC=CCCCCCCCC(=O)[O-]
REMARK SMILES IDX 10 1 9 2 11 3 12 4 13 5 14 6 15 7 16 8 17 9 18 10 19 11
REMARK SMILES IDX 20 12 8 13 7 14 6 15 5 16 4 17 3 18 2 19 1 20
REMARK H PARENT
REMARK Flexibility Score: inf
ROOT
ATOM      1  C   UNL     1       2.591  13.306  17.273  1.00  0.00    -0.031 C 
ATOM      2  C   UNL     1       1.986  14.487  17.045  1.00  0.00    -0.031 C 
ENDROOT
BRANCH   1   3
ATOM      3  C   UNL     1       2.762  12.677  18.633  1.00  0.00     0.027 C 
BRANCH   3   4
ATOM      4  C   UNL     1       3.087  11.182  18.506  1.00  0.00     0.004 C 
BRANCH   4   5
ATOM      5  C   UNL     1       4.298  10.756  19.357  1.00  0.00     0.000 C 
BRANCH   5   6
ATOM      6  C   UNL     1       5.554  11.631  19.190  1.00  0.00     0.000 C 
BRANCH   6   7
ATOM      7  C   UNL     1       6.382  11.264  17.949  1.00  0.00     0.000 C 
BRANCH   7   8
ATOM      8  C   UNL     1       6.110  12.244  16.798  1.00  0.00     0.006 C 
BRANCH   8   9
ATOM      9  C   UNL     1       5.355  11.582  15.639  1.00  0.00     0.053 C 
BRANCH   9  10
ATOM     10  C   UNL     1       5.025  12.564  14.557  1.00  0.00     0.041 C 
ATOM     11  O   UNL     1       5.947  13.160  13.939  1.00  0.00    -0.550 OA
ATOM     12  O   UNL     1       3.699  12.848  14.255  1.00  0.00    -0.550 OA
ENDBRANCH   9  10
ENDBRANCH   8   9
ENDBRANCH   7   8
ENDBRANCH   6   7
ENDBRANCH   5   6
ENDBRANCH   4   5
ENDBRANCH   3   4
ENDBRANCH   1   3
BRANCH   2  13
ATOM     13  C   UNL     1       1.318  15.331  18.103  1.00  0.00     0.027 C 
BRANCH  13  14
ATOM     14  C   UNL     1      -0.181  15.016  18.231  1.00  0.00     0.004 C 
BRANCH  14  15
ATOM     15  C   UNL     1      -1.029  16.293  18.361  1.00  0.00     0.000 C 
BRANCH  15  16
ATOM     16  C   UNL     1      -1.732  16.402  19.723  1.00  0.00     0.000 C 
BRANCH  16  17
ATOM     17  C   UNL     1      -2.117  17.850  20.076  1.00  0.00    -0.000 C 
BRANCH  17  18
ATOM     18  C   UNL     1      -0.971  18.849  19.830  1.00  0.00    -0.000 C 
BRANCH  18  19
ATOM     19  C   UNL     1      -0.654  19.124  18.350  1.00  0.00    -0.003 C 
ATOM     20  C   UNL     1       0.844  19.124  18.048  1.00  0.00     0.004 C 
ENDBRANCH  18  19
ENDBRANCH  17  18
ENDBRANCH  16  17
ENDBRANCH  15  16
ENDBRANCH  14  15
ENDBRANCH  13  14
ENDBRANCH   2  13
TORSDOF 15
ENDMDL
MODEL 9
REMARK VINA RESULT:    -2.398      3.309      7.360
REMARK INTER + INTRA:          -5.040
REMARK INTER:                  -3.782
REMARK INTRA:                  -1.258
REMARK UNBOUND:                -0.540
REMARK SMILES CCCCCCCCC=CCCCCCCCC(=O)[O-]
REMARK SMILES IDX 10 1 9 2 11 3 12 4 13 5 14 6 15 7 16 8 17 9 18 10 19 11
REMARK SMILES IDX 20 12 8 13 7 14 6 15 5 16 4 17 3 18 2 19 1 20
REMARK H PARENT
REMARK Flexibility Score: inf
ROOT
ATOM      1  C   UNL     1       3.565  12.924  14.278  1.00  0.00    -0.031 C 
ATOM      2  C   UNL     1       4.792  12.550  14.686  1.00  0.00    -0.031 C 
ENDROOT
BRANCH   1   3
ATOM      3  C   UNL     1       2.379  13.116  15.189  1.00  0.00     0.027 C 
BRANCH   3   4
ATOM      4  C   UNL     1       2.606  14.302  16.137  1.00  0.00     0.004 C 
BRANCH   4   5
ATOM      5  C   UNL     1       1.739  14.230  17.408  1.00  0.00     0.000 C 
BRANCH   5   6
ATOM      6  C   UNL     1       0.871  15.473  17.678  1.00  0.00     0.000 C 
BRANCH   6   7
ATOM      7  C   UNL     1      -0.187  15.244  18.768  1.00  0.00     0.000 C 
BRANCH   7   8
ATOM      8  C   UNL     1      -1.427  16.116  18.522  1.00  0.00     0.006 C 
BRANCH   8   9
ATOM      9  C   UNL     1      -1.450  17.358  19.423  1.00  0.00     0.053 C 
BRANCH   9  10
ATOM     10  C   UNL     1      -0.848  18.548  18.741  1.00  0.00     0.041 C 
ATOM     11  O   UNL     1       0.224  19.050  19.170  1.00  0.00    -0.550 OA
ATOM     12  O   UNL     1      -1.491  19.125  17.653  1.00  0.00    -0.550 OA
ENDBRANCH   9  10
ENDBRANCH   8   9
ENDBRANCH   7   8
ENDBRANCH   6   7
ENDBRANCH   5   6
ENDBRANCH   4   5
ENDBRANCH   3   4
ENDBRANCH   1   3
BRANCH   2  13
ATOM     13  C   UNL     1       5.194  12.339  16.126  1.00  0.00     0.027 C 
BRANCH  13  14
ATOM     14  C   UNL     1       6.531  11.594  16.250  1.00  0.00     0.004 C 
BRANCH  14  15
ATOM     15  C   UNL     1       6.834  11.192  17.703  1.00  0.00     0.000 C 
BRANCH  15  16
ATOM     16  C   UNL     1       6.025  12.008  18.725  1.00  0.00     0.000 C 
BRANCH  16  17
ATOM     17  C   UNL     1       5.574  11.164  19.931  1.00  0.00    -0.000 C 
BRANCH  17  18
ATOM     18  C   UNL     1       4.243  10.431  19.682  1.00  0.00    -0.000 C 
BRANCH  18  19
ATOM     19  C   UNL     1       3.275  11.147  18.724  1.00  0.00    -0.003 C 
ATOM     20  C   UNL     1       2.352  10.185  17.976  1.00  0.00     0.004 C 
ENDBRANCH  18  19
ENDBRANCH  17  18
ENDBRANCH  16  17
ENDBRANCH  15  16
ENDBRANCH  14  15
ENDBRANCH  13  14
ENDBRANCH   2  13
TORSDOF 15
ENDMDL
