MODEL 1
REMARK VINA RESULT:    -4.038      0.000      0.000
REMARK INTER + INTRA:          -5.638
REMARK INTER:                  -5.455
REMARK INTRA:                  -0.183
REMARK UNBOUND:                -0.183
REMARK SMILES CCCCCCCC(=O)[O-]
REMARK SMILES IDX 5 1 6 2 7 3 8 4 9 5 10 6 4 7 3 8 2 9 1 10
REMARK H PARENT
REMARK Flexibility Score: inf
ROOT
ATOM      1  C   UNL     1      -9.144   5.556  -8.352  1.00  0.00     0.000 C 
ENDROOT
BRANCH   1   2
ATOM      2  C   UNL     1      -7.810   5.505  -7.591  1.00  0.00     0.006 C 
BRANCH   2   3
ATOM      3  C   UNL     1      -8.011   5.467  -6.070  1.00  0.00     0.053 C 
BRANCH   3   4
ATOM      4  C   UNL     1      -8.298   6.829  -5.516  1.00  0.00     0.041 C 
ATOM      5  O   UNL     1      -7.463   7.761  -5.655  1.00  0.00    -0.550 OA
ATOM      6  O   UNL     1      -9.475   7.061  -4.816  1.00  0.00    -0.550 OA
ENDBRANCH   3   4
ENDBRANCH   2   3
ENDBRANCH   1   2
BRANCH   1   7
ATOM      7  C   UNL     1      -9.202   4.463  -9.429  1.00  0.00     0.000 C 
BRANCH   7   8
ATOM      8  C   UNL     1      -9.456   5.025 -10.840  1.00  0.00    -0.000 C 
BRANCH   8   9
ATOM      9  C   UNL     1      -8.264   4.909 -11.807  1.00  0.00    -0.003 C 
ATOM     10  C   UNL     1      -8.671   4.441 -13.205  1.00  0.00     0.004 C 
ENDBRANCH   8   9
ENDBRANCH   7   8
ENDBRANCH   1   7
TORSDOF 6
ENDMDL
MODEL 2
REMARK VINA RESULT:    -3.962      1.783      2.156
REMARK INTER + INTRA:          -5.535
REMARK INTER:                  -5.354
REMARK INTRA:                  -0.181
REMARK UNBOUND:                -0.183
REMARK SMILES CCCCCCCC(=O)[O-]
REMARK SMILES IDX 5 1 6 2 7 3 8 4 9 5 10 6 4 7 3 8 2 9 1 10
REMARK H PARENT
REMARK Flexibility Score: inf
ROOT
ATOM      1  C   UNL     1      -9.061   5.595  -8.158  1.00  0.00     0.000 C 
ENDROOT
BRANCH   1   2
ATOM      2  C   UNL     1      -7.805   5.384  -7.298  1.00  0.00     0.006 C 
BRANCH   2   3
ATOM      3  C   UNL     1      -7.354   6.675  -6.604  1.00  0.00     0.053 C 
BRANCH   3   4
ATOM      4  C   UNL     1      -6.011   7.127  -7.093  1.00  0.00     0.041 C 
ATOM      5  O   UNL     1      -5.306   7.897  -6.389  1.00  0.00    -0.550 OA
ATOM      6  O   UNL     1      -5.554   6.723  -8.340  1.00  0.00    -0.550 OA
ENDBRANCH   3   4
ENDBRANCH   2   3
ENDBRANCH   1   2
BRANCH   1   7
ATOM      7  C   UNL     1      -9.119   4.573  -9.303  1.00  0.00     0.000 C 
BRANCH   7   8
ATOM      8  C   UNL     1      -9.405   5.221 -10.671  1.00  0.00    -0.000 C 
BRANCH   8   9
ATOM      9  C   UNL     1      -8.672   4.572 -11.859  1.00  0.00    -0.003 C 
ATOM     10  C   UNL     1      -7.574   5.462 -12.443  1.00  0.00     0.004 C 
ENDBRANCH   8   9
ENDBRANCH   7   8
ENDBRANCH   1   7
TORSDOF 6
ENDMDL
MODEL 3
REMARK VINA RESULT:    -3.832      4.818      6.799
REMARK INTER + INTRA:          -5.359
REMARK INTER:                  -5.195
REMARK INTRA:                  -0.164
REMARK UNBOUND:                -0.183
REMARK SMILES CCCCCCCC(=O)[O-]
REMARK SMILES IDX 5 1 6 2 7 3 8 4 9 5 10 6 4 7 3 8 2 9 1 10
REMARK H PARENT
REMARK Flexibility Score: inf
ROOT
ATOM      1  C   UNL     1      -8.694   4.456 -11.779  1.00  0.00     0.000 C 
ENDROOT
BRANCH   1   2
ATOM      2  C   UNL     1      -7.957   5.456 -12.682  1.00  0.00     0.006 C 
BRANCH   2   3
ATOM      3  C   UNL     1      -6.535   4.990 -13.024  1.00  0.00     0.053 C 
BRANCH   3   4
ATOM      4  C   UNL     1      -6.411   4.603 -14.466  1.00  0.00     0.041 C 
ATOM      5  O   UNL     1      -6.721   5.421 -15.372  1.00  0.00    -0.550 OA
ATOM      6  O   UNL     1      -5.982   3.327 -14.809  1.00  0.00    -0.550 OA
ENDBRANCH   3   4
ENDBRANCH   2   3
ENDBRANCH   1   2
BRANCH   1   7
ATOM      7  C   UNL     1      -9.458   5.185 -10.664  1.00  0.00     0.000 C 
BRANCH   7   8
ATOM      8  C   UNL     1      -9.262   4.538  -9.280  1.00  0.00    -0.000 C 
BRANCH   8   9
ATOM      9  C   UNL     1      -8.363   5.333  -8.317  1.00  0.00    -0.003 C 
ATOM     10  C   UNL     1      -9.061   5.692  -7.005  1.00  0.00     0.004 C 
ENDBRANCH   8   9
ENDBRANCH   7   8
ENDBRANCH   1   7
TORSDOF 6
ENDMDL
MODEL 4
REMARK VINA RESULT:    -3.682      1.285      2.228
REMARK INTER + INTRA:          -5.157
REMARK INTER:                  -4.852
REMARK INTRA:                  -0.305
REMARK UNBOUND:                -0.183
REMARK SMILES CCCCCCCC(=O)[O-]
REMARK SMILES IDX 5 1 6 2 7 3 8 4 9 5 10 6 4 7 3 8 2 9 1 10
REMARK H PARENT
REMARK Flexibility Score: inf
ROOT
ATOM      1  C   UNL     1      -6.922   6.459  -7.527  1.00  0.00     0.000 C 
ENDROOT
BRANCH   1   2
ATOM      2  C   UNL     1      -6.894   6.746  -6.018  1.00  0.00     0.006 C 
BRANCH   2   3
ATOM      3  C   UNL     1      -7.474   5.586  -5.196  1.00  0.00     0.053 C 
BRANCH   3   4
ATOM      4  C   UNL     1      -8.713   5.995  -4.459  1.00  0.00     0.041 C 
ATOM      5  O   UNL     1      -8.908   5.601  -3.279  1.00  0.00    -0.550 OA
ATOM      6  O   UNL     1      -9.666   6.786  -5.086  1.00  0.00    -0.550 OA
ENDBRANCH   3   4
ENDBRANCH   2   3
ENDBRANCH   1   2
BRANCH   1   7
ATOM      7  C   UNL     1      -7.775   5.220  -7.834  1.00  0.00     0.000 C 
BRANCH   7   8
ATOM      8  C   UNL     1      -9.125   5.569  -8.488  1.00  0.00    -0.000 C 
BRANCH   8   9
ATOM      9  C   UNL     1      -9.529   4.659  -9.662  1.00  0.00    -0.003 C 
ATOM     10  C   UNL     1      -8.838   5.031 -10.973  1.00  0.00     0.004 C 
ENDBRANCH   8   9
ENDBRANCH   7   8
ENDBRANCH   1   7
TORSDOF 6
ENDMDL
MODEL 5
REMARK VINA RESULT:    -3.669      1.909      3.021
REMARK INTER + INTRA:          -5.139
REMARK INTER:                  -4.880
REMARK INTRA:                  -0.259
REMARK UNBOUND:                -0.183
REMARK SMILES CCCCCCCC(=O)[O-]
REMARK SMILES IDX 5 1 6 2 7 3 8 4 9 5 10 6 4 7 3 8 2 9 1 10
REMARK H PARENT
REMARK Flexibility Score: inf
ROOT
ATOM      1  C   UNL     1      -7.748   5.285  -5.755  1.00  0.00     0.000 C 
ENDROOT
BRANCH   1   2
ATOM      2  C   UNL     1      -9.150   5.618  -5.222  1.00  0.00     0.006 C 
BRANCH   2   3
ATOM      3  C   UNL     1      -9.163   6.906  -4.387  1.00  0.00     0.053 C 
BRANCH   3   4
ATOM      4  C   UNL     1      -8.630   6.676  -3.006  1.00  0.00     0.041 C 
ATOM      5  O   UNL     1      -9.156   5.809  -2.259  1.00  0.00    -0.550 OA
ATOM      6  O   UNL     1      -7.573   7.441  -2.532  1.00  0.00    -0.550 OA
ENDBRANCH   3   4
ENDBRANCH   2   3
ENDBRANCH   1   2
BRANCH   1   7
ATOM      7  C   UNL     1      -7.653   5.566  -7.261  1.00  0.00     0.000 C 
BRANCH   7   8
ATOM      8  C   UNL     1      -9.027   5.576  -7.957  1.00  0.00    -0.000 C 
BRANCH   8   9
ATOM      9  C   UNL     1      -9.140   4.643  -9.177  1.00  0.00    -0.003 C 
ATOM     10  C   UNL     1      -9.889   5.279 -10.348  1.00  0.00     0.004 C 
ENDBRANCH   8   9
ENDBRANCH   7   8
ENDBRANCH   1   7
TORSDOF 6
ENDMDL
MODEL 6
REMARK VINA RESULT:    -3.619      3.507      5.651
REMARK INTER + INTRA:          -5.071
REMARK INTER:                  -4.878
REMARK INTRA:                  -0.194
REMARK UNBOUND:                -0.183
REMARK SMILES CCCCCCCC(=O)[O-]
REMARK SMILES IDX 5 1 6 2 7 3 8 4 9 5 10 6 4 7 3 8 2 9 1 10
REMARK H PARENT
REMARK Flexibility Score: inf
ROOT
ATOM      1  C   UNL     1      -9.213   5.601  -7.864  1.00  0.00     0.000 C 
ENDROOT
BRANCH   1   2
ATOM      2  C   UNL     1      -8.791   4.757  -9.076  1.00  0.00     0.006 C 
BRANCH   2   3
ATOM      3  C   UNL     1      -9.550   5.150 -10.351  1.00  0.00     0.053 C 
BRANCH   3   4
ATOM      4  C   UNL     1      -8.694   5.005 -11.572  1.00  0.00     0.041 C 
ATOM      5  O   UNL     1      -7.518   5.456 -11.580  1.00  0.00    -0.550 OA
ATOM      6  O   UNL     1      -9.206   4.400 -12.712  1.00  0.00    -0.550 OA
ENDBRANCH   3   4
ENDBRANCH   2   3
ENDBRANCH   1   2
BRANCH   1   7
ATOM      7  C   UNL     1      -8.072   5.702  -6.842  1.00  0.00     0.000 C 
BRANCH   7   8
ATOM      8  C   UNL     1      -6.762   6.230  -7.455  1.00  0.00    -0.000 C 
BRANCH   8   9
ATOM      9  C   UNL     1      -6.102   7.382  -6.676  1.00  0.00    -0.003 C 
ATOM     10  C   UNL     1      -5.378   6.913  -5.414  1.00  0.00     0.004 C 
ENDBRANCH   8   9
ENDBRANCH   7   8
ENDBRANCH   1   7
TORSDOF 6
ENDMDL
MODEL 7
REMARK VINA RESULT:    -3.615      5.114      7.229
REMARK INTER + INTRA:          -5.066
REMARK INTER:                  -4.948
REMARK INTRA:                  -0.118
REMARK UNBOUND:                -0.183
REMARK SMILES CCCCCCCC(=O)[O-]
REMARK SMILES IDX 5 1 6 2 7 3 8 4 9 5 10 6 4 7 3 8 2 9 1 10
REMARK H PARENT
REMARK Flexibility Score: inf
ROOT
ATOM      1  C   UNL     1      -8.626   4.526 -12.218  1.00  0.00     0.000 C 
ENDROOT
BRANCH   1   2
ATOM      2  C   UNL     1      -7.568   5.038 -13.207  1.00  0.00     0.006 C 
BRANCH   2   3
ATOM      3  C   UNL     1      -8.193   5.544 -14.514  1.00  0.00     0.053 C 
BRANCH   3   4
ATOM      4  C   UNL     1      -7.167   5.703 -15.594  1.00  0.00     0.041 C 
ATOM      5  O   UNL     1      -6.291   4.815 -15.772  1.00  0.00    -0.550 OA
ATOM      6  O   UNL     1      -7.158   6.845 -16.383  1.00  0.00    -0.550 OA
ENDBRANCH   3   4
ENDBRANCH   2   3
ENDBRANCH   1   2
BRANCH   1   7
ATOM      7  C   UNL     1      -8.584   5.327 -10.908  1.00  0.00     0.000 C 
BRANCH   7   8
ATOM      8  C   UNL     1      -9.300   4.615  -9.746  1.00  0.00    -0.000 C 
BRANCH   8   9
ATOM      9  C   UNL     1      -9.190   5.326  -8.385  1.00  0.00    -0.003 C 
ATOM     10  C   UNL     1      -7.745   5.502  -7.917  1.00  0.00     0.004 C 
ENDBRANCH   8   9
ENDBRANCH   7   8
ENDBRANCH   1   7
TORSDOF 6
ENDMDL
MODEL 8
REMARK VINA RESULT:    -3.558      2.206      3.206
REMARK INTER + INTRA:          -4.989
REMARK INTER:                  -4.779
REMARK INTRA:                  -0.210
REMARK UNBOUND:                -0.183
REMARK SMILES CCCCCCCC(=O)[O-]
REMARK SMILES IDX 5 1 6 2 7 3 8 4 9 5 10 6 4 7 3 8 2 9 1 10
REMARK H PARENT
REMARK Flexibility Score: inf
ROOT
ATOM      1  C   UNL     1      -7.089   6.083  -6.213  1.00  0.00     0.000 C 
ENDROOT
BRANCH   1   2
ATOM      2  C   UNL     1      -7.838   5.093  -5.307  1.00  0.00     0.006 C 
BRANCH   2   3
ATOM      3  C   UNL     1      -6.985   4.639  -4.115  1.00  0.00     0.053 C 
BRANCH   3   4
ATOM      4  C   UNL     1      -7.611   5.023  -2.809  1.00  0.00     0.041 C 
ATOM      5  O   UNL     1      -8.563   5.847  -2.779  1.00  0.00    -0.550 OA
ATOM      6  O   UNL     1      -7.122   4.494  -1.622  1.00  0.00    -0.550 OA
ENDBRANCH   3   4
ENDBRANCH   2   3
ENDBRANCH   1   2
BRANCH   1   7
ATOM      7  C   UNL     1      -7.422   5.834  -7.691  1.00  0.00     0.000 C 
BRANCH   7   8
ATOM      8  C   UNL     1      -8.894   5.442  -7.916  1.00  0.00    -0.000 C 
BRANCH   8   9
ATOM      9  C   UNL     1      -9.152   4.596  -9.176  1.00  0.00    -0.003 C 
ATOM     10  C   UNL     1      -9.965   5.337 -10.238  1.00  0.00     0.004 C 
ENDBRANCH   8   9
ENDBRANCH   7   8
ENDBRANCH   1   7
TORSDOF 6
ENDMDL
MODEL 9
REMARK VINA RESULT:    -3.513      4.722      6.711
REMARK INTER + INTRA:          -4.928
REMARK INTER:                  -4.587
REMARK INTRA:                  -0.341
REMARK UNBOUND:                -0.183
REMARK SMILES CCCCCCCC(=O)[O-]
REMARK SMILES IDX 5 1 6 2 7 3 8 4 9 5 10 6 4 7 3 8 2 9 1 10
REMARK H PARENT
REMARK Flexibility Score: inf
ROOT
ATOM      1  C   UNL     1      -5.630   5.531 -14.720  1.00  0.00     0.000 C 
ENDROOT
BRANCH   1   2
ATOM      2  C   UNL     1      -6.265   4.585 -13.689  1.00  0.00     0.006 C 
BRANCH   2   3
ATOM      3  C   UNL     1      -6.895   5.346 -12.514  1.00  0.00     0.053 C 
BRANCH   3   4
ATOM      4  C   UNL     1      -8.296   4.889 -12.247  1.00  0.00     0.041 C 
ATOM      5  O   UNL     1      -8.803   5.031 -11.102  1.00  0.00    -0.550 OA
ATOM      6  O   UNL     1      -9.032   4.277 -13.253  1.00  0.00    -0.550 OA
ENDBRANCH   3   4
ENDBRANCH   2   3
ENDBRANCH   1   2
BRANCH   1   7
ATOM      7  C   UNL     1      -6.385   5.473 -16.055  1.00  0.00     0.000 C 
BRANCH   7   8
ATOM      8  C   UNL     1      -7.793   6.093 -15.975  1.00  0.00    -0.000 C 
BRANCH   8   9
ATOM      9  C   UNL     1      -7.942   7.452 -16.683  1.00  0.00    -0.003 C 
ATOM     10  C   UNL     1      -6.692   7.862 -17.460  1.00  0.00     0.004 C 
ENDBRANCH   8   9
ENDBRANCH   7   8
ENDBRANCH   1   7
TORSDOF 6
ENDMDL
