MODEL 1
REMARK VINA RESULT:    -2.893      0.000      0.000
REMARK INTER + INTRA:          -2.977
REMARK INTER:                  -2.977
REMARK INTRA:                   0.000
REMARK UNBOUND:                 0.000
REMARK SMILES Oc1ccc2[nH]ccc2c1
REMARK SMILES IDX 3 1 4 2 5 3 9 4 8 5 7 6 6 7 10 8 2 9 1 11
REMARK H PARENT 6 10 1 12
REMARK Flexibility Score: inf
ROOT
ATOM      1  C   UNL     1       7.362  15.192   2.125  1.00  0.00     0.048 A 
ATOM      2  C   UNL     1       8.388  14.229   2.121  1.00  0.00     0.030 A 
ATOM      3  C   UNL     1       9.706  14.683   2.110  1.00  0.00     0.046 A 
ATOM      4  C   UNL     1      10.007  16.019   2.102  1.00  0.00     0.003 A 
ATOM      5  C   UNL     1      11.380  16.132   2.091  1.00  0.00     0.028 A 
ATOM      6  C   UNL     1      11.852  14.822   2.094  1.00  0.00     0.083 A 
ATOM      7  N   UNL     1      10.826  13.942   2.105  1.00  0.00    -0.361 N 
ATOM      8  C   UNL     1       9.016  16.998   2.105  1.00  0.00     0.056 A 
ATOM      9  C   UNL     1       7.670  16.572   2.117  1.00  0.00     0.116 A 
ATOM     10  H   UNL     1      10.894  12.900   2.108  1.00  0.00     0.166 HD
ENDROOT
BRANCH   9  11
ATOM     11  O   UNL     1       6.636  17.505   2.121  1.00  0.00    -0.508 OA
ATOM     12  H   UNL     1       6.822  18.501   2.118  1.00  0.00     0.293 HD
ENDBRANCH   9  11
TORSDOF 1
ENDMDL
MODEL 2
REMARK VINA RESULT:    -2.800      1.316      2.100
REMARK INTER + INTRA:          -2.882
REMARK INTER:                  -2.882
REMARK INTRA:                   0.000
REMARK UNBOUND:                 0.000
REMARK SMILES Oc1ccc2[nH]ccc2c1
REMARK SMILES IDX 3 1 4 2 5 3 9 4 8 5 7 6 6 7 10 8 2 9 1 11
REMARK H PARENT 6 10 1 12
REMARK Flexibility Score: inf
ROOT
ATOM      1  C   UNL     1       7.571  16.346   2.125  1.00  0.00     0.048 A 
ATOM      2  C   UNL     1       8.863  16.903   2.124  1.00  0.00     0.030 A 
ATOM      3  C   UNL     1       9.949  16.029   2.120  1.00  0.00     0.046 A 
ATOM      4  C   UNL     1       9.778  14.670   2.117  1.00  0.00     0.003 A 
ATOM      5  C   UNL     1      11.031  14.097   2.114  1.00  0.00     0.028 A 
ATOM      6  C   UNL     1      11.920  15.169   2.114  1.00  0.00     0.083 A 
ATOM      7  N   UNL     1      11.254  16.346   2.117  1.00  0.00    -0.361 N 
ATOM      8  C   UNL     1       8.514  14.086   2.119  1.00  0.00     0.056 A 
ATOM      9  C   UNL     1       7.392  14.943   2.122  1.00  0.00     0.116 A 
ATOM     10  H   UNL     1      11.672  17.303   2.119  1.00  0.00     0.166 HD
ENDROOT
BRANCH   9  11
ATOM     11  O   UNL     1       6.103  14.418   2.124  1.00  0.00    -0.508 OA
ATOM     12  H   UNL     1       5.685  14.045   2.969  1.00  0.00     0.293 HD
ENDBRANCH   9  11
TORSDOF 1
ENDMDL
MODEL 3
REMARK VINA RESULT:    -2.648      2.737      4.236
REMARK INTER + INTRA:          -2.726
REMARK INTER:                  -2.726
REMARK INTRA:                   0.000
REMARK UNBOUND:                 0.000
REMARK SMILES Oc1ccc2[nH]ccc2c1
REMARK SMILES IDX 3 1 4 2 5 3 9 4 8 5 7 6 6 7 10 8 2 9 1 11
REMARK H PARENT 6 10 1 12
REMARK Flexibility Score: inf
ROOT
ATOM      1  C   UNL     1      12.283  15.852   2.099  1.00  0.00     0.048 A 
ATOM      2  C   UNL     1      11.172  16.714   2.103  1.00  0.00     0.030 A 
ATOM      3  C   UNL     1       9.901  16.140   2.111  1.00  0.00     0.046 A 
ATOM      4  C   UNL     1       9.726  14.782   2.113  1.00  0.00     0.003 A 
ATOM      5  C   UNL     1       8.369  14.542   2.120  1.00  0.00     0.028 A 
ATOM      6  C   UNL     1       7.778  15.802   2.122  1.00  0.00     0.083 A 
ATOM      7  N   UNL     1       8.718  16.774   2.116  1.00  0.00    -0.361 N 
ATOM      8  C   UNL     1      10.804  13.900   2.108  1.00  0.00     0.056 A 
ATOM      9  C   UNL     1      12.104  14.449   2.101  1.00  0.00     0.116 A 
ATOM     10  H   UNL     1       8.553  17.805   2.116  1.00  0.00     0.166 HD
ENDROOT
BRANCH   9  11
ATOM     11  O   UNL     1      13.221  13.616   2.096  1.00  0.00    -0.508 OA
ATOM     12  H   UNL     1      13.382  12.952   1.348  1.00  0.00     0.293 HD
ENDBRANCH   9  11
TORSDOF 1
ENDMDL
MODEL 4
REMARK VINA RESULT:    -2.604      3.207      4.344
REMARK INTER + INTRA:          -2.680
REMARK INTER:                  -2.680
REMARK INTRA:                   0.000
REMARK UNBOUND:                 0.000
REMARK SMILES Oc1ccc2[nH]ccc2c1
REMARK SMILES IDX 3 1 4 2 5 3 9 4 8 5 7 6 6 7 10 8 2 9 1 11
REMARK H PARENT 6 10 1 12
REMARK Flexibility Score: inf
ROOT
ATOM      1  C   UNL     1      11.961  12.884   0.494  1.00  0.00     0.048 A 
ATOM      2  C   UNL     1      10.744  13.476   0.108  1.00  0.00     0.030 A 
ATOM      3  C   UNL     1      10.366  14.660   0.740  1.00  0.00     0.046 A 
ATOM      4  C   UNL     1      11.144  15.239   1.706  1.00  0.00     0.003 A 
ATOM      5  C   UNL     1      10.498  16.382   2.125  1.00  0.00     0.028 A 
ATOM      6  C   UNL     1       9.331  16.437   1.368  1.00  0.00     0.083 A 
ATOM      7  N   UNL     1       9.255  15.383   0.524  1.00  0.00    -0.361 N 
ATOM      8  C   UNL     1      12.353  14.680   2.113  1.00  0.00     0.056 A 
ATOM      9  C   UNL     1      12.766  13.481   1.492  1.00  0.00     0.116 A 
ATOM     10  H   UNL     1       8.489  15.176  -0.154  1.00  0.00     0.166 HD
ENDROOT
BRANCH   9  11
ATOM     11  O   UNL     1      13.966  12.875   1.857  1.00  0.00    -0.508 OA
ATOM     12  H   UNL     1      14.387  13.040   2.763  1.00  0.00     0.293 HD
ENDBRANCH   9  11
TORSDOF 1
ENDMDL
MODEL 5
REMARK VINA RESULT:    -2.576      2.238      2.961
REMARK INTER + INTRA:          -2.651
REMARK INTER:                  -2.651
REMARK INTRA:                   0.000
REMARK UNBOUND:                 0.000
REMARK SMILES Oc1ccc2[nH]ccc2c1
REMARK SMILES IDX 3 1 4 2 5 3 9 4 8 5 7 6 6 7 10 8 2 9 1 11
REMARK H PARENT 6 10 1 12
REMARK Flexibility Score: inf
ROOT
ATOM      1  C   UNL     1       9.318  14.273  -0.084  1.00  0.00     0.048 A 
ATOM      2  C   UNL     1      10.474  13.688  -0.634  1.00  0.00     0.030 A 
ATOM      3  C   UNL     1      11.551  13.448   0.218  1.00  0.00     0.046 A 
ATOM      4  C   UNL     1      11.499  13.766   1.549  1.00  0.00     0.003 A 
ATOM      5  C   UNL     1      12.708  13.408   2.105  1.00  0.00     0.028 A 
ATOM      6  C   UNL     1      13.448  12.875   1.053  1.00  0.00     0.083 A 
ATOM      7  N   UNL     1      12.737  12.902  -0.097  1.00  0.00    -0.361 N 
ATOM      8  C   UNL     1      10.372  14.347   2.125  1.00  0.00     0.056 A 
ATOM      9  C   UNL     1       9.263  14.603   1.290  1.00  0.00     0.116 A 
ATOM     10  H   UNL     1      13.049  12.567  -1.035  1.00  0.00     0.166 HD
ENDROOT
BRANCH   9  11
ATOM     11  O   UNL     1       8.108  15.182   1.809  1.00  0.00    -0.508 OA
ATOM     12  H   UNL     1       7.187  14.896   1.497  1.00  0.00     0.293 HD
ENDBRANCH   9  11
TORSDOF 1
ENDMDL
MODEL 6
REMARK VINA RESULT:    -2.283      1.252      2.326
REMARK INTER + INTRA:          -2.350
REMARK INTER:                  -2.350
REMARK INTRA:                   0.000
REMARK UNBOUND:                 0.000
REMARK SMILES Oc1ccc2[nH]ccc2c1
REMARK SMILES IDX 3 1 4 2 5 3 9 4 8 5 7 6 6 7 10 8 2 9 1 11
REMARK H PARENT 6 10 1 12
REMARK Flexibility Score: inf
ROOT
ATOM      1  C   UNL     1       9.748  16.957   2.090  1.00  0.00     0.048 A 
ATOM      2  C   UNL     1      11.116  16.625   2.081  1.00  0.00     0.030 A 
ATOM      3  C   UNL     1      11.458  15.274   2.094  1.00  0.00     0.046 A 
ATOM      4  C   UNL     1      10.505  14.291   2.114  1.00  0.00     0.003 A 
ATOM      5  C   UNL     1      11.163  13.080   2.123  1.00  0.00     0.028 A 
ATOM      6  C   UNL     1      12.517  13.402   2.104  1.00  0.00     0.083 A 
ATOM      7  N   UNL     1      12.692  14.743   2.087  1.00  0.00    -0.361 N 
ATOM      8  C   UNL     1       9.144  14.584   2.125  1.00  0.00     0.056 A 
ATOM      9  C   UNL     1       8.763  15.943   2.112  1.00  0.00     0.116 A 
ATOM     10  H   UNL     1      13.600  15.257   2.073  1.00  0.00     0.166 HD
ENDROOT
BRANCH   9  11
ATOM     11  O   UNL     1       7.416  16.298   2.121  1.00  0.00    -0.508 OA
ATOM     12  H   UNL     1       6.727  15.745   2.619  1.00  0.00     0.293 HD
ENDBRANCH   9  11
TORSDOF 1
ENDMDL
MODEL 7
REMARK VINA RESULT:    -2.136      2.277      3.538
REMARK INTER + INTRA:          -2.198
REMARK INTER:                  -2.198
REMARK INTRA:                   0.000
REMARK UNBOUND:                 0.000
REMARK SMILES Oc1ccc2[nH]ccc2c1
REMARK SMILES IDX 3 1 4 2 5 3 9 4 8 5 7 6 6 7 10 8 2 9 1 11
REMARK H PARENT 6 10 1 12
REMARK Flexibility Score: inf
ROOT
ATOM      1  C   UNL     1      11.760  14.798   2.123  1.00  0.00     0.048 A 
ATOM      2  C   UNL     1      10.537  14.103   2.122  1.00  0.00     0.030 A 
ATOM      3  C   UNL     1       9.362  14.853   2.121  1.00  0.00     0.046 A 
ATOM      4  C   UNL     1       9.383  16.222   2.122  1.00  0.00     0.003 A 
ATOM      5  C   UNL     1       8.074  16.654   2.122  1.00  0.00     0.028 A 
ATOM      6  C   UNL     1       7.308  15.491   2.120  1.00  0.00     0.083 A 
ATOM      7  N   UNL     1       8.099  14.394   2.120  1.00  0.00    -0.361 N 
ATOM      8  C   UNL     1      10.575  16.941   2.124  1.00  0.00     0.056 A 
ATOM      9  C   UNL     1      11.784  16.212   2.123  1.00  0.00     0.116 A 
ATOM     10  H   UNL     1       7.789  13.398   2.119  1.00  0.00     0.166 HD
ENDROOT
BRANCH   9  11
ATOM     11  O   UNL     1      13.008  16.876   2.125  1.00  0.00    -0.508 OA
ATOM     12  H   UNL     1      13.871  16.395   1.898  1.00  0.00     0.293 HD
ENDBRANCH   9  11
TORSDOF 1
ENDMDL
