MODEL 1
REMARK VINA RESULT:    -4.139      0.000      0.000
REMARK INTER + INTRA:          -6.085
REMARK INTER:                  -5.590
REMARK INTRA:                  -0.495
REMARK UNBOUND:                -0.495
REMARK SMILES [NH3+]CCCC[C@H]([NH3+])C(=O)[O-]
REMARK SMILES IDX 4 1 3 2 2 3 1 4 5 8 6 9 7 10 8 14 9 15 10 16
REMARK H PARENT 1 5 1 6 1 7 7 11 7 12 7 13
REMARK Flexibility Score: inf
ROOT
ATOM      1  C   UNL     1     -18.220 -28.440  -7.428  1.00  0.00     0.012 C 
ENDROOT
BRANCH   1   2
ATOM      2  C   UNL     1     -17.464 -29.185  -6.317  1.00  0.00     0.061 C 
BRANCH   2   3
ATOM      3  C   UNL     1     -15.963 -28.868  -6.361  1.00  0.00     0.258 C 
BRANCH   3   4
ATOM      4  N   UNL     1     -15.615 -27.847  -5.374  1.00  0.00    -0.358 N 
ATOM      5  H   UNL     1     -14.619 -27.978  -5.084  1.00  0.00     0.344 HD
ATOM      6  H   UNL     1     -16.228 -27.939  -4.531  1.00  0.00     0.344 HD
ATOM      7  H   UNL     1     -15.725 -26.893  -5.788  1.00  0.00     0.344 HD
ENDBRANCH   3   4
ENDBRANCH   2   3
ENDBRANCH   1   2
BRANCH   1   8
ATOM      8  C   UNL     1     -19.584 -27.901  -6.950  1.00  0.00     0.072 C 
BRANCH   8   9
ATOM      9  C   UNL     1     -19.590 -27.455  -5.470  1.00  0.00     0.227 C 
BRANCH   9  10
ATOM     10  N   UNL     1     -20.933 -27.523  -4.881  1.00  0.00    -0.350 N 
ATOM     11  H   UNL     1     -21.471 -26.657  -5.116  1.00  0.00     0.345 HD
ATOM     12  H   UNL     1     -20.864 -27.575  -3.839  1.00  0.00     0.345 HD
ATOM     13  H   UNL     1     -21.455 -28.356  -5.241  1.00  0.00     0.345 HD
ENDBRANCH   9  10
BRANCH   9  14
ATOM     14  C   UNL     1     -19.045 -26.055  -5.361  1.00  0.00     0.099 C 
ATOM     15  O   UNL     1     -17.869 -25.857  -4.954  1.00  0.00    -0.544 OA
ATOM     16  O   UNL     1     -19.848 -24.970  -5.689  1.00  0.00    -0.544 OA
ENDBRANCH   9  14
ENDBRANCH   8   9
ENDBRANCH   1   8
TORSDOF 7
ENDMDL
MODEL 2
REMARK VINA RESULT:    -4.037      2.551      3.384
REMARK INTER + INTRA:          -5.948
REMARK INTER:                  -5.810
REMARK INTRA:                  -0.138
REMARK UNBOUND:                -0.495
REMARK SMILES [NH3+]CCCC[C@H]([NH3+])C(=O)[O-]
REMARK SMILES IDX 4 1 3 2 2 3 1 4 5 8 6 9 7 10 8 14 9 15 10 16
REMARK H PARENT 1 5 1 6 1 7 7 11 7 12 7 13
REMARK Flexibility Score: inf
ROOT
ATOM      1  C   UNL     1     -19.103 -27.870  -7.831  1.00  0.00     0.012 C 
ENDROOT
BRANCH   1   2
ATOM      2  C   UNL     1     -19.036 -27.497  -9.321  1.00  0.00     0.061 C 
BRANCH   2   3
ATOM      3  C   UNL     1     -17.799 -28.113  -9.989  1.00  0.00     0.258 C 
BRANCH   3   4
ATOM      4  N   UNL     1     -17.121 -27.133 -10.836  1.00  0.00    -0.358 N 
ATOM      5  H   UNL     1     -17.043 -27.515 -11.806  1.00  0.00     0.344 HD
ATOM      6  H   UNL     1     -16.159 -26.945 -10.469  1.00  0.00     0.344 HD
ATOM      7  H   UNL     1     -17.668 -26.243 -10.866  1.00  0.00     0.344 HD
ENDBRANCH   3   4
ENDBRANCH   2   3
ENDBRANCH   1   2
BRANCH   1   8
ATOM      8  C   UNL     1     -17.851 -28.641  -7.363  1.00  0.00     0.072 C 
BRANCH   8   9
ATOM      9  C   UNL     1     -17.807 -28.882  -5.837  1.00  0.00     0.227 C 
BRANCH   9  10
ATOM     10  N   UNL     1     -19.153 -28.974  -5.256  1.00  0.00    -0.350 N 
ATOM     11  H   UNL     1     -19.483 -28.024  -4.968  1.00  0.00     0.345 HD
ATOM     12  H   UNL     1     -19.132 -29.572  -4.400  1.00  0.00     0.345 HD
ATOM     13  H   UNL     1     -19.830 -29.374  -5.948  1.00  0.00     0.345 HD
ENDBRANCH   9  10
BRANCH   9  14
ATOM     14  C   UNL     1     -17.028 -27.777  -5.172  1.00  0.00     0.099 C 
ATOM     15  O   UNL     1     -17.590 -26.689  -4.875  1.00  0.00    -0.544 OA
ATOM     16  O   UNL     1     -15.676 -27.946  -4.904  1.00  0.00    -0.544 OA
ENDBRANCH   9  14
ENDBRANCH   8   9
ENDBRANCH   1   8
TORSDOF 7
ENDMDL
MODEL 3
REMARK VINA RESULT:    -3.895     18.495     19.404
REMARK INTER + INTRA:          -5.755
REMARK INTER:                  -5.662
REMARK INTRA:                  -0.094
REMARK UNBOUND:                -0.495
REMARK SMILES [NH3+]CCCC[C@H]([NH3+])C(=O)[O-]
REMARK SMILES IDX 4 1 3 2 2 3 1 4 5 8 6 9 7 10 8 14 9 15 10 16
REMARK H PARENT 1 5 1 6 1 7 7 11 7 12 7 13
REMARK Flexibility Score: inf
ROOT
ATOM      1  C   UNL     1     -19.706 -34.663 -24.994  1.00  0.00     0.012 C 
ENDROOT
BRANCH   1   2
ATOM      2  C   UNL     1     -21.189 -34.281 -25.125  1.00  0.00     0.061 C 
BRANCH   2   3
ATOM      3  C   UNL     1     -22.085 -35.525 -25.082  1.00  0.00     0.258 C 
BRANCH   3   4
ATOM      4  N   UNL     1     -23.014 -35.463 -23.954  1.00  0.00    -0.358 N 
ATOM      5  H   UNL     1     -22.959 -34.513 -23.519  1.00  0.00     0.344 HD
ATOM      6  H   UNL     1     -22.755 -36.179 -23.236  1.00  0.00     0.344 HD
ATOM      7  H   UNL     1     -23.992 -35.629 -24.282  1.00  0.00     0.344 HD
ENDBRANCH   3   4
ENDBRANCH   2   3
ENDBRANCH   1   2
BRANCH   1   8
ATOM      8  C   UNL     1     -18.799 -33.430 -24.793  1.00  0.00     0.072 C 
BRANCH   8   9
ATOM      9  C   UNL     1     -17.877 -33.535 -23.557  1.00  0.00     0.227 C 
BRANCH   9  10
ATOM     10  N   UNL     1     -18.525 -34.248 -22.448  1.00  0.00    -0.350 N 
ATOM     11  H   UNL     1     -18.081 -33.974 -21.540  1.00  0.00     0.345 HD
ATOM     12  H   UNL     1     -18.393 -35.279 -22.561  1.00  0.00     0.345 HD
ATOM     13  H   UNL     1     -19.546 -34.025 -22.408  1.00  0.00     0.345 HD
ENDBRANCH   9  10
BRANCH   9  14
ATOM     14  C   UNL     1     -17.461 -32.156 -23.117  1.00  0.00     0.099 C 
ATOM     15  O   UNL     1     -16.729 -31.444 -23.854  1.00  0.00    -0.544 OA
ATOM     16  O   UNL     1     -17.866 -31.672 -21.879  1.00  0.00    -0.544 OA
ENDBRANCH   9  14
ENDBRANCH   8   9
ENDBRANCH   1   8
TORSDOF 7
ENDMDL
MODEL 4
REMARK VINA RESULT:    -3.876      1.967      2.431
REMARK INTER + INTRA:          -5.730
REMARK INTER:                  -5.503
REMARK INTRA:                  -0.227
REMARK UNBOUND:                -0.495
REMARK SMILES [NH3+]CCCC[C@H]([NH3+])C(=O)[O-]
REMARK SMILES IDX 4 1 3 2 2 3 1 4 5 8 6 9 7 10 8 14 9 15 10 16
REMARK H PARENT 1 5 1 6 1 7 7 11 7 12 7 13
REMARK Flexibility Score: inf
ROOT
ATOM      1  C   UNL     1     -17.899 -29.354  -6.144  1.00  0.00     0.012 C 
ENDROOT
BRANCH   1   2
ATOM      2  C   UNL     1     -17.435 -28.622  -4.875  1.00  0.00     0.061 C 
BRANCH   2   3
ATOM      3  C   UNL     1     -16.473 -27.477  -5.220  1.00  0.00     0.258 C 
BRANCH   3   4
ATOM      4  N   UNL     1     -15.084 -27.938  -5.200  1.00  0.00    -0.358 N 
ATOM      5  H   UNL     1     -15.067 -28.961  -4.987  1.00  0.00     0.344 HD
ATOM      6  H   UNL     1     -14.547 -27.429  -4.461  1.00  0.00     0.344 HD
ATOM      7  H   UNL     1     -14.640 -27.779  -6.133  1.00  0.00     0.344 HD
ENDBRANCH   3   4
ENDBRANCH   2   3
ENDBRANCH   1   2
BRANCH   1   8
ATOM      8  C   UNL     1     -17.924 -28.429  -7.379  1.00  0.00     0.072 C 
BRANCH   8   9
ATOM      9  C   UNL     1     -19.350 -28.037  -7.829  1.00  0.00     0.227 C 
BRANCH   9  10
ATOM     10  N   UNL     1     -19.347 -27.354  -9.130  1.00  0.00    -0.350 N 
ATOM     11  H   UNL     1     -18.365 -27.252  -9.477  1.00  0.00     0.345 HD
ATOM     12  H   UNL     1     -19.745 -26.393  -9.030  1.00  0.00     0.345 HD
ATOM     13  H   UNL     1     -19.902 -27.894  -9.835  1.00  0.00     0.345 HD
ENDBRANCH   9  10
BRANCH   9  14
ATOM     14  C   UNL     1     -19.989 -27.161  -6.784  1.00  0.00     0.099 C 
ATOM     15  O   UNL     1     -21.072 -27.504  -6.239  1.00  0.00    -0.544 OA
ATOM     16  O   UNL     1     -19.396 -25.955  -6.432  1.00  0.00    -0.544 OA
ENDBRANCH   9  14
ENDBRANCH   8   9
ENDBRANCH   1   8
TORSDOF 7
ENDMDL
MODEL 5
REMARK VINA RESULT:    -3.843      2.215      2.546
REMARK INTER + INTRA:          -5.685
REMARK INTER:                  -5.551
REMARK INTRA:                  -0.134
REMARK UNBOUND:                -0.495
REMARK SMILES [NH3+]CCCC[C@H]([NH3+])C(=O)[O-]
REMARK SMILES IDX 4 1 3 2 2 3 1 4 5 8 6 9 7 10 8 14 9 15 10 16
REMARK H PARENT 1 5 1 6 1 7 7 11 7 12 7 13
REMARK Flexibility Score: inf
ROOT
ATOM      1  C   UNL     1     -19.412 -27.874  -7.843  1.00  0.00     0.012 C 
ENDROOT
BRANCH   1   2
ATOM      2  C   UNL     1     -18.223 -28.200  -8.760  1.00  0.00     0.061 C 
BRANCH   2   3
ATOM      3  C   UNL     1     -18.389 -27.539 -10.135  1.00  0.00     0.258 C 
BRANCH   3   4
ATOM      4  N   UNL     1     -17.100 -27.414 -10.814  1.00  0.00    -0.358 N 
ATOM      5  H   UNL     1     -16.665 -28.361 -10.899  1.00  0.00     0.344 HD
ATOM      6  H   UNL     1     -16.461 -26.797 -10.262  1.00  0.00     0.344 HD
ATOM      7  H   UNL     1     -17.235 -27.017 -11.772  1.00  0.00     0.344 HD
ENDBRANCH   3   4
ENDBRANCH   2   3
ENDBRANCH   1   2
BRANCH   1   8
ATOM      8  C   UNL     1     -19.205 -28.399  -6.406  1.00  0.00     0.072 C 
BRANCH   8   9
ATOM      9  C   UNL     1     -19.735 -27.441  -5.315  1.00  0.00     0.227 C 
BRANCH   9  10
ATOM     10  N   UNL     1     -21.168 -27.163  -5.477  1.00  0.00    -0.350 N 
ATOM     11  H   UNL     1     -21.515 -26.596  -4.668  1.00  0.00     0.345 HD
ATOM     12  H   UNL     1     -21.707 -28.058  -5.485  1.00  0.00     0.345 HD
ATOM     13  H   UNL     1     -21.347 -26.635  -6.363  1.00  0.00     0.345 HD
ENDBRANCH   9  10
BRANCH   9  14
ATOM     14  C   UNL     1     -18.949 -26.156  -5.344  1.00  0.00     0.099 C 
ATOM     15  O   UNL     1     -17.780 -26.112  -4.875  1.00  0.00    -0.544 OA
ATOM     16  O   UNL     1     -19.522 -25.004  -5.868  1.00  0.00    -0.544 OA
ENDBRANCH   9  14
ENDBRANCH   8   9
ENDBRANCH   1   8
TORSDOF 7
ENDMDL
MODEL 6
REMARK VINA RESULT:    -3.673     12.828     13.819
REMARK INTER + INTRA:          -5.455
REMARK INTER:                  -5.067
REMARK INTRA:                  -0.388
REMARK UNBOUND:                -0.495
REMARK SMILES [NH3+]CCCC[C@H]([NH3+])C(=O)[O-]
REMARK SMILES IDX 4 1 3 2 2 3 1 4 5 8 6 9 7 10 8 14 9 15 10 16
REMARK H PARENT 1 5 1 6 1 7 7 11 7 12 7 13
REMARK Flexibility Score: inf
ROOT
ATOM      1  C   UNL     1     -14.262 -41.602  -7.726  1.00  0.00     0.012 C 
ENDROOT
BRANCH   1   2
ATOM      2  C   UNL     1     -14.363 -40.950  -9.114  1.00  0.00     0.061 C 
BRANCH   2   3
ATOM      3  C   UNL     1     -15.533 -39.959  -9.174  1.00  0.00     0.258 C 
BRANCH   3   4
ATOM      4  N   UNL     1     -15.047 -38.582  -9.263  1.00  0.00    -0.358 N 
ATOM      5  H   UNL     1     -14.975 -38.309 -10.270  1.00  0.00     0.344 HD
ATOM      6  H   UNL     1     -14.101 -38.506  -8.824  1.00  0.00     0.344 HD
ATOM      7  H   UNL     1     -15.713 -37.934  -8.783  1.00  0.00     0.344 HD
ENDBRANCH   3   4
ENDBRANCH   2   3
ENDBRANCH   1   2
BRANCH   1   8
ATOM      8  C   UNL     1     -12.904 -41.327  -7.047  1.00  0.00     0.072 C 
BRANCH   8   9
ATOM      9  C   UNL     1     -13.030 -40.649  -5.663  1.00  0.00     0.227 C 
BRANCH   9  10
ATOM     10  N   UNL     1     -14.292 -40.992  -4.996  1.00  0.00    -0.350 N 
ATOM     11  H   UNL     1     -14.684 -41.872  -5.405  1.00  0.00     0.345 HD
ATOM     12  H   UNL     1     -14.996 -40.235  -5.152  1.00  0.00     0.345 HD
ATOM     13  H   UNL     1     -14.145 -41.130  -3.969  1.00  0.00     0.345 HD
ENDBRANCH   9  10
BRANCH   9  14
ATOM     14  C   UNL     1     -12.913 -39.155  -5.819  1.00  0.00     0.099 C 
ATOM     15  O   UNL     1     -13.719 -38.525  -6.554  1.00  0.00    -0.544 OA
ATOM     16  O   UNL     1     -11.896 -38.467  -5.169  1.00  0.00    -0.544 OA
ENDBRANCH   9  14
ENDBRANCH   8   9
ENDBRANCH   1   8
TORSDOF 7
ENDMDL
MODEL 7
REMARK VINA RESULT:    -3.534     17.238     18.078
REMARK INTER + INTRA:          -5.268
REMARK INTER:                  -5.103
REMARK INTRA:                  -0.164
REMARK UNBOUND:                -0.495
REMARK SMILES [NH3+]CCCC[C@H]([NH3+])C(=O)[O-]
REMARK SMILES IDX 4 1 3 2 2 3 1 4 5 8 6 9 7 10 8 14 9 15 10 16
REMARK H PARENT 1 5 1 6 1 7 7 11 7 12 7 13
REMARK Flexibility Score: inf
ROOT
ATOM      1  C   UNL     1     -16.472 -32.256 -22.430  1.00  0.00     0.012 C 
ENDROOT
BRANCH   1   2
ATOM      2  C   UNL     1     -17.433 -31.135 -22.004  1.00  0.00     0.061 C 
BRANCH   2   3
ATOM      3  C   UNL     1     -16.760 -30.177 -21.012  1.00  0.00     0.258 C 
BRANCH   3   4
ATOM      4  N   UNL     1     -15.773 -30.882 -20.194  1.00  0.00    -0.358 N 
ATOM      5  H   UNL     1     -15.004 -30.220 -19.941  1.00  0.00     0.344 HD
ATOM      6  H   UNL     1     -15.368 -31.683 -20.731  1.00  0.00     0.344 HD
ATOM      7  H   UNL     1     -16.219 -31.233 -19.316  1.00  0.00     0.344 HD
ENDBRANCH   3   4
ENDBRANCH   2   3
ENDBRANCH   1   2
BRANCH   1   8
ATOM      8  C   UNL     1     -17.150 -33.292 -23.350  1.00  0.00     0.072 C 
BRANCH   8   9
ATOM      9  C   UNL     1     -18.635 -33.549 -23.004  1.00  0.00     0.227 C 
BRANCH   9  10
ATOM     10  N   UNL     1     -18.803 -34.730 -22.147  1.00  0.00    -0.350 N 
ATOM     11  H   UNL     1     -19.305 -35.483 -22.671  1.00  0.00     0.345 HD
ATOM     12  H   UNL     1     -19.386 -34.487 -21.314  1.00  0.00     0.345 HD
ATOM     13  H   UNL     1     -17.874 -35.096 -21.832  1.00  0.00     0.345 HD
ENDBRANCH   9  10
BRANCH   9  14
ATOM     14  C   UNL     1     -19.430 -33.710 -24.273  1.00  0.00     0.099 C 
ATOM     15  O   UNL     1     -19.468 -32.783 -25.125  1.00  0.00    -0.544 OA
ATOM     16  O   UNL     1     -20.148 -34.878 -24.498  1.00  0.00    -0.544 OA
ENDBRANCH   9  14
ENDBRANCH   8   9
ENDBRANCH   1   8
TORSDOF 7
ENDMDL
MODEL 8
REMARK VINA RESULT:    -3.424      2.234      4.236
REMARK INTER + INTRA:          -5.120
REMARK INTER:                  -4.803
REMARK INTRA:                  -0.317
REMARK UNBOUND:                -0.495
REMARK SMILES [NH3+]CCCC[C@H]([NH3+])C(=O)[O-]
REMARK SMILES IDX 4 1 3 2 2 3 1 4 5 8 6 9 7 10 8 14 9 15 10 16
REMARK H PARENT 1 5 1 6 1 7 7 11 7 12 7 13
REMARK Flexibility Score: inf
ROOT
ATOM      1  C   UNL     1     -18.410 -27.443  -4.995  1.00  0.00     0.012 C 
ENDROOT
BRANCH   1   2
ATOM      2  C   UNL     1     -19.415 -26.281  -5.030  1.00  0.00     0.061 C 
BRANCH   2   3
ATOM      3  C   UNL     1     -20.855 -26.792  -4.886  1.00  0.00     0.258 C 
BRANCH   3   4
ATOM      4  N   UNL     1     -21.601 -26.612  -6.131  1.00  0.00    -0.358 N 
ATOM      5  H   UNL     1     -21.114 -25.899  -6.721  1.00  0.00     0.344 HD
ATOM      6  H   UNL     1     -22.569 -26.274  -5.924  1.00  0.00     0.344 HD
ATOM      7  H   UNL     1     -21.646 -27.514  -6.658  1.00  0.00     0.344 HD
ENDBRANCH   3   4
ENDBRANCH   2   3
ENDBRANCH   1   2
BRANCH   1   8
ATOM      8  C   UNL     1     -18.834 -28.613  -5.907  1.00  0.00     0.072 C 
BRANCH   8   9
ATOM      9  C   UNL     1     -17.864 -28.863  -7.085  1.00  0.00     0.227 C 
BRANCH   9  10
ATOM     10  N   UNL     1     -16.466 -28.613  -6.708  1.00  0.00    -0.350 N 
ATOM     11  H   UNL     1     -16.355 -27.622  -6.389  1.00  0.00     0.345 HD
ATOM     12  H   UNL     1     -15.844 -28.747  -7.536  1.00  0.00     0.345 HD
ATOM     13  H   UNL     1     -16.169 -29.254  -5.936  1.00  0.00     0.345 HD
ENDBRANCH   9  10
BRANCH   9  14
ATOM     14  C   UNL     1     -18.251 -27.994  -8.253  1.00  0.00     0.099 C 
ATOM     15  O   UNL     1     -19.353 -27.385  -8.258  1.00  0.00    -0.544 OA
ATOM     16  O   UNL     1     -17.400 -27.881  -9.345  1.00  0.00    -0.544 OA
ENDBRANCH   9  14
ENDBRANCH   8   9
ENDBRANCH   1   8
TORSDOF 7
ENDMDL
MODEL 9
REMARK VINA RESULT:    -3.347      1.786      2.108
REMARK INTER + INTRA:          -5.016
REMARK INTER:                  -4.887
REMARK INTRA:                  -0.129
REMARK UNBOUND:                -0.495
REMARK SMILES [NH3+]CCCC[C@H]([NH3+])C(=O)[O-]
REMARK SMILES IDX 4 1 3 2 2 3 1 4 5 8 6 9 7 10 8 14 9 15 10 16
REMARK H PARENT 1 5 1 6 1 7 7 11 7 12 7 13
REMARK Flexibility Score: inf
ROOT
ATOM      1  C   UNL     1     -18.514 -28.509  -6.838  1.00  0.00     0.012 C 
ENDROOT
BRANCH   1   2
ATOM      2  C   UNL     1     -17.172 -29.057  -6.328  1.00  0.00     0.061 C 
BRANCH   2   3
ATOM      3  C   UNL     1     -16.487 -28.054  -5.390  1.00  0.00     0.258 C 
BRANCH   3   4
ATOM      4  N   UNL     1     -15.033 -28.108  -5.540  1.00  0.00    -0.358 N 
ATOM      5  H   UNL     1     -14.601 -28.323  -4.612  1.00  0.00     0.344 HD
ATOM      6  H   UNL     1     -14.672 -27.185  -5.876  1.00  0.00     0.344 HD
ATOM      7  H   UNL     1     -14.768 -28.859  -6.218  1.00  0.00     0.344 HD
ENDBRANCH   3   4
ENDBRANCH   2   3
ENDBRANCH   1   2
BRANCH   1   8
ATOM      8  C   UNL     1     -19.387 -27.943  -5.698  1.00  0.00     0.072 C 
BRANCH   8   9
ATOM      9  C   UNL     1     -19.734 -26.446  -5.868  1.00  0.00     0.227 C 
BRANCH   9  10
ATOM     10  N   UNL     1     -19.048 -25.607  -4.876  1.00  0.00    -0.350 N 
ATOM     11  H   UNL     1     -19.598 -25.585  -3.987  1.00  0.00     0.345 HD
ATOM     12  H   UNL     1     -18.979 -24.625  -5.226  1.00  0.00     0.345 HD
ATOM     13  H   UNL     1     -18.090 -25.978  -4.675  1.00  0.00     0.345 HD
ENDBRANCH   9  10
BRANCH   9  14
ATOM     14  C   UNL     1     -21.225 -26.257  -5.768  1.00  0.00     0.099 C 
ATOM     15  O   UNL     1     -21.718 -25.099  -5.702  1.00  0.00    -0.544 OA
ATOM     16  O   UNL     1     -22.063 -27.363  -5.723  1.00  0.00    -0.544 OA
ENDBRANCH   9  14
ENDBRANCH   8   9
ENDBRANCH   1   8
TORSDOF 7
ENDMDL
