MODEL 1
REMARK VINA RESULT:    -4.607      0.000      0.000
REMARK INTER + INTRA:          -5.032
REMARK INTER:                  -5.011
REMARK INTRA:                  -0.021
REMARK UNBOUND:                -0.021
REMARK SMILES OCc1ccco1
REMARK SMILES IDX 2 1 3 2 5 3 6 4 4 5 7 6 1 7
REMARK H PARENT 1 8
REMARK Flexibility Score: inf
ROOT
ATOM      1  C   UNL     1      12.025 111.132  19.116  1.00  0.00     0.231 C 
ENDROOT
BRANCH   1   2
ATOM      2  C   UNL     1      11.293 111.306  17.824  1.00  0.00     0.129 A 
ATOM      3  C   UNL     1      10.234 110.909  15.941  1.00  0.00     0.042 A 
ATOM      4  C   UNL     1      10.425 112.263  16.129  1.00  0.00     0.195 A 
ATOM      5  C   UNL     1      10.798 110.287  17.034  1.00  0.00     0.048 A 
ATOM      6  O   UNL     1      11.062 112.468  17.260  1.00  0.00    -0.467 OA
ENDBRANCH   1   2
BRANCH   1   7
ATOM      7  O   UNL     1      12.810 112.263  19.378  1.00  0.00    -0.388 OA
ATOM      8  H   UNL     1      13.381 112.037  20.157  1.00  0.00     0.211 HD
ENDBRANCH   1   7
TORSDOF 2
ENDMDL
MODEL 2
REMARK VINA RESULT:    -4.420     16.063     16.628
REMARK INTER + INTRA:          -4.829
REMARK INTER:                  -4.808
REMARK INTRA:                  -0.021
REMARK UNBOUND:                -0.021
REMARK SMILES OCc1ccco1
REMARK SMILES IDX 2 1 3 2 5 3 6 4 4 5 7 6 1 7
REMARK H PARENT 1 8
REMARK Flexibility Score: inf
ROOT
ATOM      1  C   UNL     1      18.805 127.953  17.916  1.00  0.00     0.231 C 
ENDROOT
BRANCH   1   2
ATOM      2  C   UNL     1      18.803 126.591  17.297  1.00  0.00     0.129 A 
ATOM      3  C   UNL     1      19.238 124.876  15.997  1.00  0.00     0.042 A 
ATOM      4  C   UNL     1      18.242 124.574  16.902  1.00  0.00     0.195 A 
ATOM      5  C   UNL     1      19.600 126.182  16.247  1.00  0.00     0.048 A 
ATOM      6  O   UNL     1      18.002 125.618  17.663  1.00  0.00    -0.467 OA
ENDBRANCH   1   2
BRANCH   1   7
ATOM      7  O   UNL     1      18.043 127.946  19.092  1.00  0.00    -0.388 OA
ATOM      8  H   UNL     1      18.401 127.213  19.657  1.00  0.00     0.211 HD
ENDBRANCH   1   7
TORSDOF 2
ENDMDL
MODEL 3
REMARK VINA RESULT:    -4.227      1.518      2.989
REMARK INTER + INTRA:          -4.618
REMARK INTER:                  -4.603
REMARK INTRA:                  -0.015
REMARK UNBOUND:                -0.021
REMARK SMILES OCc1ccco1
REMARK SMILES IDX 2 1 3 2 5 3 6 4 4 5 7 6 1 7
REMARK H PARENT 1 8
REMARK Flexibility Score: inf
ROOT
ATOM      1  C   UNL     1      11.658 112.552  15.419  1.00  0.00     0.231 C 
ENDROOT
BRANCH   1   2
ATOM      2  C   UNL     1      11.643 111.847  16.737  1.00  0.00     0.129 A 
ATOM      3  C   UNL     1      11.391 110.326  18.301  1.00  0.00     0.042 A 
ATOM      4  C   UNL     1      11.804 111.529  18.838  1.00  0.00     0.195 A 
ATOM      5  C   UNL     1      11.283 110.530  16.943  1.00  0.00     0.048 A 
ATOM      6  O   UNL     1      11.943 112.417  17.880  1.00  0.00    -0.467 OA
ENDBRANCH   1   2
BRANCH   1   7
ATOM      7  O   UNL     1      11.721 111.618  14.376  1.00  0.00    -0.388 OA
ATOM      8  H   UNL     1      11.363 112.070  13.568  1.00  0.00     0.211 HD
ENDBRANCH   1   7
TORSDOF 2
ENDMDL
MODEL 4
REMARK VINA RESULT:    -4.188     16.351     16.982
REMARK INTER + INTRA:          -4.576
REMARK INTER:                  -4.558
REMARK INTRA:                  -0.018
REMARK UNBOUND:                -0.021
REMARK SMILES OCc1ccco1
REMARK SMILES IDX 2 1 3 2 5 3 6 4 4 5 7 6 1 7
REMARK H PARENT 1 8
REMARK Flexibility Score: inf
ROOT
ATOM      1  C   UNL     1      19.114 124.656  16.492  1.00  0.00     0.231 C 
ENDROOT
BRANCH   1   2
ATOM      2  C   UNL     1      19.092 126.125  16.770  1.00  0.00     0.129 A 
ATOM      3  C   UNL     1      19.302 128.302  16.572  1.00  0.00     0.042 A 
ATOM      4  C   UNL     1      18.874 127.957  17.838  1.00  0.00     0.195 A 
ATOM      5  C   UNL     1      19.448 127.119  15.880  1.00  0.00     0.048 A 
ATOM      6  O   UNL     1      18.761 126.650  17.926  1.00  0.00    -0.467 OA
ENDBRANCH   1   2
BRANCH   1   7
ATOM      7  O   UNL     1      17.970 124.050  17.029  1.00  0.00    -0.388 OA
ATOM      8  H   UNL     1      18.098 124.023  18.013  1.00  0.00     0.211 HD
ENDBRANCH   1   7
TORSDOF 2
ENDMDL
MODEL 5
REMARK VINA RESULT:    -4.092     13.934     14.516
REMARK INTER + INTRA:          -4.472
REMARK INTER:                  -4.453
REMARK INTRA:                  -0.019
REMARK UNBOUND:                -0.021
REMARK SMILES OCc1ccco1
REMARK SMILES IDX 2 1 3 2 5 3 6 4 4 5 7 6 1 7
REMARK H PARENT 1 8
REMARK Flexibility Score: inf
ROOT
ATOM      1  C   UNL     1      18.618 125.767  17.027  1.00  0.00     0.231 C 
ENDROOT
BRANCH   1   2
ATOM      2  C   UNL     1      18.368 124.380  16.527  1.00  0.00     0.129 A 
ATOM      3  C   UNL     1      18.119 122.633  15.221  1.00  0.00     0.042 A 
ATOM      4  C   UNL     1      17.833 122.317  16.534  1.00  0.00     0.195 A 
ATOM      5  C   UNL     1      18.461 123.967  15.213  1.00  0.00     0.048 A 
ATOM      6  O   UNL     1      17.988 123.381  17.289  1.00  0.00    -0.467 OA
ENDBRANCH   1   2
BRANCH   1   7
ATOM      7  O   UNL     1      17.615 126.139  17.932  1.00  0.00    -0.388 OA
ATOM      8  H   UNL     1      17.430 127.100  17.771  1.00  0.00     0.211 HD
ENDBRANCH   1   7
TORSDOF 2
ENDMDL
MODEL 6
REMARK VINA RESULT:    -4.064     16.702     17.380
REMARK INTER + INTRA:          -4.441
REMARK INTER:                  -4.426
REMARK INTRA:                  -0.016
REMARK UNBOUND:                -0.021
REMARK SMILES OCc1ccco1
REMARK SMILES IDX 2 1 3 2 5 3 6 4 4 5 7 6 1 7
REMARK H PARENT 1 8
REMARK Flexibility Score: inf
ROOT
ATOM      1  C   UNL     1      18.375 125.965  15.279  1.00  0.00     0.231 C 
ENDROOT
BRANCH   1   2
ATOM      2  C   UNL     1      18.469 126.657  16.602  1.00  0.00     0.129 A 
ATOM      3  C   UNL     1      18.869 128.139  18.172  1.00  0.00     0.042 A 
ATOM      4  C   UNL     1      18.372 126.969  18.708  1.00  0.00     0.195 A 
ATOM      5  C   UNL     1      18.937 127.939  16.810  1.00  0.00     0.048 A 
ATOM      6  O   UNL     1      18.145 126.102  17.746  1.00  0.00    -0.467 OA
ENDBRANCH   1   2
BRANCH   1   7
ATOM      7  O   UNL     1      18.695 126.859  14.248  1.00  0.00    -0.388 OA
ATOM      8  H   UNL     1      19.000 127.697  14.683  1.00  0.00     0.211 HD
ENDBRANCH   1   7
TORSDOF 2
ENDMDL
MODEL 7
REMARK VINA RESULT:    -4.004     12.835     13.447
REMARK INTER + INTRA:          -4.376
REMARK INTER:                  -4.362
REMARK INTRA:                  -0.014
REMARK UNBOUND:                -0.021
REMARK SMILES OCc1ccco1
REMARK SMILES IDX 2 1 3 2 5 3 6 4 4 5 7 6 1 7
REMARK H PARENT 1 8
REMARK Flexibility Score: inf
ROOT
ATOM      1  C   UNL     1      17.673 121.121  14.604  1.00  0.00     0.231 C 
ENDROOT
BRANCH   1   2
ATOM      2  C   UNL     1      18.018 122.396  15.307  1.00  0.00     0.129 A 
ATOM      3  C   UNL     1      18.364 123.909  16.860  1.00  0.00     0.042 A 
ATOM      4  C   UNL     1      18.552 124.438  15.599  1.00  0.00     0.195 A 
ATOM      5  C   UNL     1      18.014 122.590  16.674  1.00  0.00     0.048 A 
ATOM      6  O   UNL     1      18.336 123.511  14.693  1.00  0.00    -0.467 OA
ENDBRANCH   1   2
BRANCH   1   7
ATOM      7  O   UNL     1      16.381 120.712  14.960  1.00  0.00    -0.388 OA
ATOM      8  H   UNL     1      16.485 120.042  15.685  1.00  0.00     0.211 HD
ENDBRANCH   1   7
TORSDOF 2
ENDMDL
MODEL 8
REMARK VINA RESULT:    -3.998      1.386      2.653
REMARK INTER + INTRA:          -4.370
REMARK INTER:                  -4.356
REMARK INTRA:                  -0.014
REMARK UNBOUND:                -0.021
REMARK SMILES OCc1ccco1
REMARK SMILES IDX 2 1 3 2 5 3 6 4 4 5 7 6 1 7
REMARK H PARENT 1 8
REMARK Flexibility Score: inf
ROOT
ATOM      1  C   UNL     1      11.233 113.783  16.605  1.00  0.00     0.231 C 
ENDROOT
BRANCH   1   2
ATOM      2  C   UNL     1      11.145 112.311  16.854  1.00  0.00     0.129 A 
ATOM      3  C   UNL     1      10.693 110.171  16.652  1.00  0.00     0.042 A 
ATOM      4  C   UNL     1      11.322 110.436  17.851  1.00  0.00     0.195 A 
ATOM      5  C   UNL     1      10.573 111.383  16.006  1.00  0.00     0.048 A 
ATOM      6  O   UNL     1      11.576 111.722  17.944  1.00  0.00    -0.467 OA
ENDBRANCH   1   2
BRANCH   1   7
ATOM      7  O   UNL     1      11.608 114.023  15.277  1.00  0.00    -0.388 OA
ATOM      8  H   UNL     1      10.901 114.596  14.881  1.00  0.00     0.211 HD
ENDBRANCH   1   7
TORSDOF 2
ENDMDL
MODEL 9
REMARK VINA RESULT:    -3.969      9.496     10.200
REMARK INTER + INTRA:          -4.338
REMARK INTER:                  -4.324
REMARK INTRA:                  -0.013
REMARK UNBOUND:                -0.021
REMARK SMILES OCc1ccco1
REMARK SMILES IDX 2 1 3 2 5 3 6 4 4 5 7 6 1 7
REMARK H PARENT 1 8
REMARK Flexibility Score: inf
ROOT
ATOM      1  C   UNL     1      12.844 120.519  23.428  1.00  0.00     0.231 C 
ENDROOT
BRANCH   1   2
ATOM      2  C   UNL     1      13.807 120.062  22.378  1.00  0.00     0.129 A 
ATOM      3  C   UNL     1      14.716 119.010  20.678  1.00  0.00     0.042 A 
ATOM      4  C   UNL     1      15.624 119.854  21.284  1.00  0.00     0.195 A 
ATOM      5  C   UNL     1      13.540 119.139  21.386  1.00  0.00     0.048 A 
ATOM      6  O   UNL     1      15.053 120.466  22.297  1.00  0.00    -0.467 OA
ENDBRANCH   1   2
BRANCH   1   7
ATOM      7  O   UNL     1      11.627 120.882  22.836  1.00  0.00    -0.388 OA
ATOM      8  H   UNL     1      11.537 121.864  22.951  1.00  0.00     0.211 HD
ENDBRANCH   1   7
TORSDOF 2
ENDMDL
