MODEL 1
REMARK VINA RESULT:    -3.084      0.000      0.000
REMARK INTER + INTRA:          -3.724
REMARK INTER:                  -3.534
REMARK INTRA:                  -0.190
REMARK UNBOUND:                -0.190
REMARK SMILES COc1ccc(C(C)=O)c(O)c1
REMARK SMILES IDX 6 1 10 2 12 3 3 4 4 5 5 6 7 7 8 8 9 9 11 10 2 12 1 13
REMARK H PARENT 11 11
REMARK Flexibility Score: inf
ROOT
ATOM      1  C   UNL     1      -2.990 -15.063  -6.214  1.00  0.00     0.059 A 
ATOM      2  C   UNL     1      -1.616 -15.112  -6.553  1.00  0.00     0.130 A 
ATOM      3  C   UNL     1      -1.228 -15.125  -7.901  1.00  0.00     0.093 A 
ATOM      4  C   UNL     1      -2.178 -15.074  -8.924  1.00  0.00     0.122 A 
ATOM      5  C   UNL     1      -3.542 -15.008  -8.590  1.00  0.00     0.047 A 
ATOM      6  C   UNL     1      -3.939 -15.000  -7.250  1.00  0.00     0.019 A 
ENDROOT
BRANCH   1   7
ATOM      7  C   UNL     1      -3.466 -15.065  -4.805  1.00  0.00     0.163 C 
ATOM      8  C   UNL     1      -4.920 -15.028  -4.446  1.00  0.00     0.093 C 
ATOM      9  O   UNL     1      -2.622 -15.098  -3.868  1.00  0.00    -0.294 OA
ENDBRANCH   1   7
BRANCH   2  10
ATOM     10  O   UNL     1      -0.635 -15.124  -5.562  1.00  0.00    -0.507 OA
ATOM     11  H   UNL     1       0.007 -15.900  -5.456  1.00  0.00     0.293 HD
ENDBRANCH   2  10
BRANCH   4  12
ATOM     12  O   UNL     1      -1.730 -15.088 -10.253  1.00  0.00    -0.497 OA
ATOM     13  C   UNL     1      -2.555 -14.826 -11.384  1.00  0.00     0.278 C 
ENDBRANCH   4  12
TORSDOF 3
ENDMDL
MODEL 2
REMARK VINA RESULT:    -1.747      6.676      8.402
REMARK INTER + INTRA:          -2.192
REMARK INTER:                  -1.854
REMARK INTRA:                  -0.338
REMARK UNBOUND:                -0.190
REMARK SMILES COc1ccc(C(C)=O)c(O)c1
REMARK SMILES IDX 6 1 10 2 12 3 3 4 4 5 5 6 7 7 8 8 9 9 11 10 2 12 1 13
REMARK H PARENT 11 11
REMARK Flexibility Score: inf
ROOT
ATOM      1  C   UNL     1      -1.947 -13.962 -14.829  1.00  0.00     0.059 A 
ATOM      2  C   UNL     1      -2.361 -14.716 -13.706  1.00  0.00     0.130 A 
ATOM      3  C   UNL     1      -3.708 -15.083 -13.568  1.00  0.00     0.093 A 
ATOM      4  C   UNL     1      -4.653 -14.728 -14.534  1.00  0.00     0.122 A 
ATOM      5  C   UNL     1      -4.240 -13.995 -15.659  1.00  0.00     0.047 A 
ATOM      6  C   UNL     1      -2.902 -13.620 -15.803  1.00  0.00     0.019 A 
ENDROOT
BRANCH   1   7
ATOM      7  C   UNL     1      -0.538 -13.527 -15.024  1.00  0.00     0.163 C 
ATOM      8  C   UNL     1      -0.171 -12.117 -15.374  1.00  0.00     0.093 C 
ATOM      9  O   UNL     1       0.392 -14.370 -14.894  1.00  0.00    -0.294 OA
ENDBRANCH   1   7
BRANCH   2  10
ATOM     10  O   UNL     1      -1.443 -15.125 -12.739  1.00  0.00    -0.507 OA
ATOM     11  H   UNL     1      -1.661 -15.853 -12.070  1.00  0.00     0.293 HD
ENDBRANCH   2  10
BRANCH   4  12
ATOM     12  O   UNL     1      -5.985 -15.125 -14.342  1.00  0.00    -0.497 OA
ATOM     13  C   UNL     1      -7.115 -14.288 -14.568  1.00  0.00     0.278 C 
ENDBRANCH   4  12
TORSDOF 3
ENDMDL
MODEL 3
REMARK VINA RESULT:    -1.192      5.253      9.162
REMARK INTER + INTRA:          -1.557
REMARK INTER:                  -1.218
REMARK INTRA:                  -0.339
REMARK UNBOUND:                -0.190
REMARK SMILES COc1ccc(C(C)=O)c(O)c1
REMARK SMILES IDX 6 1 10 2 12 3 3 4 4 5 5 6 7 7 8 8 9 9 11 10 2 12 1 13
REMARK H PARENT 11 11
REMARK Flexibility Score: inf
ROOT
ATOM      1  C   UNL     1      -5.270 -14.425 -15.724  1.00  0.00     0.059 A 
ATOM      2  C   UNL     1      -5.648 -14.899 -14.446  1.00  0.00     0.130 A 
ATOM      3  C   UNL     1      -4.670 -15.125 -13.466  1.00  0.00     0.093 A 
ATOM      4  C   UNL     1      -3.321 -14.873 -13.725  1.00  0.00     0.122 A 
ATOM      5  C   UNL     1      -2.945 -14.385 -14.988  1.00  0.00     0.047 A 
ATOM      6  C   UNL     1      -3.911 -14.162 -15.972  1.00  0.00     0.019 A 
ENDROOT
BRANCH   1   7
ATOM      7  C   UNL     1      -6.256 -14.183 -16.811  1.00  0.00     0.163 C 
ATOM      8  C   UNL     1      -6.336 -12.883 -17.553  1.00  0.00     0.093 C 
ATOM      9  O   UNL     1      -7.063 -15.099 -17.129  1.00  0.00    -0.294 OA
ENDBRANCH   1   7
BRANCH   2  10
ATOM     10  O   UNL     1      -6.988 -15.125 -14.134  1.00  0.00    -0.507 OA
ATOM     11  H   UNL     1      -7.324 -15.110 -13.179  1.00  0.00     0.293 HD
ENDBRANCH   2  10
BRANCH   4  12
ATOM     12  O   UNL     1      -2.389 -15.116 -12.705  1.00  0.00    -0.497 OA
ATOM     13  C   UNL     1      -2.620 -14.854 -11.324  1.00  0.00     0.278 C 
ENDBRANCH   4  12
TORSDOF 3
ENDMDL
