MODEL 1
REMARK VINA RESULT:    -6.130      0.000      0.000
REMARK INTER + INTRA:         -10.801
REMARK INTER:                  -9.355
REMARK INTRA:                  -1.446
REMARK UNBOUND:                -1.446
REMARK SMILES CC(=O)CCC=C(C)CCC=C(C)CCC=C(C)C
REMARK SMILES IDX 10 1 11 2 12 3 13 4 14 5 15 6 16 7 18 8 17 9 19 10 9 11 7 12
REMARK SMILES IDX 6 13 8 14 5 15 4 16 2 17 3 18 1 19
REMARK H PARENT
REMARK Flexibility Score: inf
ROOT
ATOM      1  C   UNL     1      -2.644 -13.303  31.870  1.00  0.00     0.032 C 
ENDROOT
BRANCH   1   2
ATOM      2  C   UNL     1      -1.619 -13.576  30.796  1.00  0.00    -0.028 C 
ATOM      3  C   UNL     1      -1.360 -12.782  29.730  1.00  0.00    -0.077 C 
ATOM      4  C   UNL     1      -0.319 -13.243  28.743  1.00  0.00     0.039 C 
BRANCH   3   5
ATOM      5  C   UNL     1      -2.055 -11.451  29.489  1.00  0.00     0.034 C 
BRANCH   5   6
ATOM      6  C   UNL     1      -2.969 -11.474  28.254  1.00  0.00     0.032 C 
BRANCH   6   7
ATOM      7  C   UNL     1      -4.246 -12.240  28.509  1.00  0.00    -0.028 C 
ATOM      8  C   UNL     1      -5.873 -14.085  28.251  1.00  0.00     0.039 C 
ATOM      9  C   UNL     1      -4.583 -13.395  27.891  1.00  0.00    -0.080 C 
ATOM     10  C   UNL     1      -3.737 -13.997  26.798  1.00  0.00     0.039 C 
ENDBRANCH   6   7
ENDBRANCH   5   6
ENDBRANCH   3   5
ENDBRANCH   1   2
BRANCH   1  11
ATOM     11  C   UNL     1      -4.009 -13.857  31.450  1.00  0.00     0.034 C 
BRANCH  11  12
ATOM     12  C   UNL     1      -4.865 -14.157  32.662  1.00  0.00    -0.077 C 
ATOM     13  C   UNL     1      -5.154 -13.157  33.524  1.00  0.00    -0.028 C 
ATOM     14  C   UNL     1      -5.387 -15.561  32.861  1.00  0.00     0.039 C 
BRANCH  13  15
ATOM     15  C   UNL     1      -5.965 -13.324  34.787  1.00  0.00     0.035 C 
BRANCH  15  16
ATOM     16  C   UNL     1      -6.321 -11.955  35.386  1.00  0.00     0.079 C 
BRANCH  16  17
ATOM     17  C   UNL     1      -7.325 -12.009  36.515  1.00  0.00     0.130 C 
ATOM     18  O   UNL     1      -6.912 -12.198  37.649  1.00  0.00    -0.300 OA
ATOM     19  C   UNL     1      -8.807 -11.848  36.304  1.00  0.00     0.087 C 
ENDBRANCH  16  17
ENDBRANCH  15  16
ENDBRANCH  13  15
ENDBRANCH  11  12
ENDBRANCH   1  11
TORSDOF 9
ENDMDL
MODEL 2
REMARK VINA RESULT:    -5.921      0.967      2.753
REMARK INTER + INTRA:         -10.482
REMARK INTER:                  -9.235
REMARK INTRA:                  -1.247
REMARK UNBOUND:                -1.446
REMARK SMILES CC(=O)CCC=C(C)CCC=C(C)CCC=C(C)C
REMARK SMILES IDX 10 1 11 2 12 3 13 4 14 5 15 6 16 7 18 8 17 9 19 10 9 11 7 12
REMARK SMILES IDX 6 13 8 14 5 15 4 16 2 17 3 18 1 19
REMARK H PARENT
REMARK Flexibility Score: inf
ROOT
ATOM      1  C   UNL     1      -4.335 -12.652  30.940  1.00  0.00     0.032 C 
ENDROOT
BRANCH   1   2
ATOM      2  C   UNL     1      -4.712 -13.477  29.734  1.00  0.00    -0.028 C 
ATOM      3  C   UNL     1      -4.496 -13.133  28.442  1.00  0.00    -0.077 C 
ATOM      4  C   UNL     1      -4.976 -14.078  27.370  1.00  0.00     0.039 C 
BRANCH   3   5
ATOM      5  C   UNL     1      -3.786 -11.856  28.023  1.00  0.00     0.034 C 
BRANCH   5   6
ATOM      6  C   UNL     1      -2.272 -12.051  27.839  1.00  0.00     0.032 C 
BRANCH   6   7
ATOM      7  C   UNL     1      -1.541 -12.090  29.161  1.00  0.00    -0.028 C 
ATOM      8  C   UNL     1      -0.004 -12.992  30.875  1.00  0.00     0.039 C 
ATOM      9  C   UNL     1      -0.699 -13.077  29.542  1.00  0.00    -0.080 C 
ATOM     10  C   UNL     1      -0.472 -14.308  28.700  1.00  0.00     0.039 C 
ENDBRANCH   6   7
ENDBRANCH   5   6
ENDBRANCH   3   5
ENDBRANCH   1   2
BRANCH   1  11
ATOM     11  C   UNL     1      -3.808 -13.559  32.056  1.00  0.00     0.034 C 
BRANCH  11  12
ATOM     12  C   UNL     1      -4.919 -13.946  33.008  1.00  0.00    -0.077 C 
ATOM     13  C   UNL     1      -5.260 -13.092  33.999  1.00  0.00    -0.028 C 
ATOM     14  C   UNL     1      -5.627 -15.266  32.811  1.00  0.00     0.039 C 
BRANCH  13  15
ATOM     15  C   UNL     1      -6.321 -13.366  35.037  1.00  0.00     0.035 C 
BRANCH  15  16
ATOM     16  C   UNL     1      -6.717 -12.070  35.762  1.00  0.00     0.079 C 
BRANCH  16  17
ATOM     17  C   UNL     1      -8.047 -12.136  36.478  1.00  0.00     0.130 C 
ATOM     18  O   UNL     1      -8.118 -12.784  37.511  1.00  0.00    -0.300 OA
ATOM     19  C   UNL     1      -9.285 -11.445  35.973  1.00  0.00     0.087 C 
ENDBRANCH  16  17
ENDBRANCH  15  16
ENDBRANCH  13  15
ENDBRANCH  11  12
ENDBRANCH   1  11
TORSDOF 9
ENDMDL
MODEL 3
REMARK VINA RESULT:    -5.899      3.126      6.237
REMARK INTER + INTRA:         -10.448
REMARK INTER:                  -9.088
REMARK INTRA:                  -1.360
REMARK UNBOUND:                -1.446
REMARK SMILES CC(=O)CCC=C(C)CCC=C(C)CCC=C(C)C
REMARK SMILES IDX 10 1 11 2 12 3 13 4 14 5 15 6 16 7 18 8 17 9 19 10 9 11 7 12
REMARK SMILES IDX 6 13 8 14 5 15 4 16 2 17 3 18 1 19
REMARK H PARENT
REMARK Flexibility Score: inf
ROOT
ATOM      1  C   UNL     1      -1.676 -10.899  31.115  1.00  0.00     0.032 C 
ENDROOT
BRANCH   1   2
ATOM      2  C   UNL     1      -0.895 -11.894  30.292  1.00  0.00    -0.028 C 
ATOM      3  C   UNL     1      -0.997 -13.241  30.375  1.00  0.00    -0.077 C 
ATOM      4  C   UNL     1      -0.105 -14.073  29.489  1.00  0.00     0.039 C 
BRANCH   3   5
ATOM      5  C   UNL     1      -1.969 -13.952  31.303  1.00  0.00     0.034 C 
BRANCH   5   6
ATOM      6  C   UNL     1      -3.437 -13.617  30.995  1.00  0.00     0.032 C 
BRANCH   6   7
ATOM      7  C   UNL     1      -4.196 -13.204  32.234  1.00  0.00    -0.028 C 
ATOM      8  C   UNL     1      -5.641 -13.516  34.217  1.00  0.00     0.039 C 
ATOM      9  C   UNL     1      -4.953 -14.037  32.983  1.00  0.00    -0.080 C 
ATOM     10  C   UNL     1      -5.190 -15.475  32.592  1.00  0.00     0.039 C 
ENDBRANCH   6   7
ENDBRANCH   5   6
ENDBRANCH   3   5
ENDBRANCH   1   2
BRANCH   1  11
ATOM     11  C   UNL     1      -2.356  -9.875  30.200  1.00  0.00     0.034 C 
BRANCH  11  12
ATOM     12  C   UNL     1      -3.225 -10.564  29.170  1.00  0.00    -0.077 C 
ATOM     13  C   UNL     1      -2.635 -11.182  28.122  1.00  0.00    -0.028 C 
ATOM     14  C   UNL     1      -4.725 -10.557  29.353  1.00  0.00     0.039 C 
BRANCH  13  15
ATOM     15  C   UNL     1      -3.381 -11.875  27.007  1.00  0.00     0.035 C 
BRANCH  15  16
ATOM     16  C   UNL     1      -3.332 -13.400  27.189  1.00  0.00     0.079 C 
BRANCH  16  17
ATOM     17  C   UNL     1      -4.686 -14.072  27.196  1.00  0.00     0.130 C 
ATOM     18  O   UNL     1      -5.010 -14.733  26.221  1.00  0.00    -0.300 OA
ATOM     19  C   UNL     1      -5.652 -13.959  28.345  1.00  0.00     0.087 C 
ENDBRANCH  16  17
ENDBRANCH  15  16
ENDBRANCH  13  15
ENDBRANCH  11  12
ENDBRANCH   1  11
TORSDOF 9
ENDMDL
MODEL 4
REMARK VINA RESULT:    -5.847      1.348      3.335
REMARK INTER + INTRA:         -10.369
REMARK INTER:                  -8.843
REMARK INTRA:                  -1.526
REMARK UNBOUND:                -1.446
REMARK SMILES CC(=O)CCC=C(C)CCC=C(C)CCC=C(C)C
REMARK SMILES IDX 10 1 11 2 12 3 13 4 14 5 15 6 16 7 18 8 17 9 19 10 9 11 7 12
REMARK SMILES IDX 6 13 8 14 5 15 4 16 2 17 3 18 1 19
REMARK H PARENT
REMARK Flexibility Score: inf
ROOT
ATOM      1  C   UNL     1      -3.977 -13.788  32.131  1.00  0.00     0.032 C 
ENDROOT
BRANCH   1   2
ATOM      2  C   UNL     1      -4.438 -13.922  30.700  1.00  0.00    -0.028 C 
ATOM      3  C   UNL     1      -4.438 -12.934  29.774  1.00  0.00    -0.077 C 
ATOM      4  C   UNL     1      -4.970 -13.254  28.400  1.00  0.00     0.039 C 
BRANCH   3   5
ATOM      5  C   UNL     1      -3.919 -11.531  30.046  1.00  0.00     0.034 C 
BRANCH   5   6
ATOM      6  C   UNL     1      -2.484 -11.320  29.539  1.00  0.00     0.032 C 
BRANCH   6   7
ATOM      7  C   UNL     1      -1.470 -11.405  30.657  1.00  0.00    -0.028 C 
ATOM      8  C   UNL     1       0.431 -12.347  31.926  1.00  0.00     0.039 C 
ATOM      9  C   UNL     1      -0.548 -12.385  30.782  1.00  0.00    -0.080 C 
ATOM     10  C   UNL     1      -0.499 -13.566  29.845  1.00  0.00     0.039 C 
ENDBRANCH   6   7
ENDBRANCH   5   6
ENDBRANCH   3   5
ENDBRANCH   1   2
BRANCH   1  11
ATOM     11  C   UNL     1      -5.117 -14.149  33.088  1.00  0.00     0.034 C 
BRANCH  11  12
ATOM     12  C   UNL     1      -5.486 -12.968  33.959  1.00  0.00    -0.077 C 
ATOM     13  C   UNL     1      -6.171 -13.186  35.104  1.00  0.00    -0.028 C 
ATOM     14  C   UNL     1      -5.060 -11.582  33.534  1.00  0.00     0.039 C 
BRANCH  13  15
ATOM     15  C   UNL     1      -6.633 -12.099  36.044  1.00  0.00     0.035 C 
BRANCH  15  16
ATOM     16  C   UNL     1      -8.091 -12.335  36.470  1.00  0.00     0.079 C 
BRANCH  16  17
ATOM     17  C   UNL     1      -8.920 -11.076  36.580  1.00  0.00     0.130 C 
ATOM     18  O   UNL     1      -8.967 -10.505  37.659  1.00  0.00    -0.300 OA
ATOM     19  C   UNL     1      -9.694 -10.500  35.425  1.00  0.00     0.087 C 
ENDBRANCH  16  17
ENDBRANCH  15  16
ENDBRANCH  13  15
ENDBRANCH  11  12
ENDBRANCH   1  11
TORSDOF 9
ENDMDL
MODEL 5
REMARK VINA RESULT:    -5.840      3.138      5.948
REMARK INTER + INTRA:         -10.359
REMARK INTER:                  -8.397
REMARK INTRA:                  -1.962
REMARK UNBOUND:                -1.446
REMARK SMILES CC(=O)CCC=C(C)CCC=C(C)CCC=C(C)C
REMARK SMILES IDX 10 1 11 2 12 3 13 4 14 5 15 6 16 7 18 8 17 9 19 10 9 11 7 12
REMARK SMILES IDX 6 13 8 14 5 15 4 16 2 17 3 18 1 19
REMARK H PARENT
REMARK Flexibility Score: inf
ROOT
ATOM      1  C   UNL     1      -2.852 -10.227  29.907  1.00  0.00     0.032 C 
ENDROOT
BRANCH   1   2
ATOM      2  C   UNL     1      -3.556  -9.956  31.214  1.00  0.00    -0.028 C 
ATOM      3  C   UNL     1      -4.168 -10.882  31.990  1.00  0.00    -0.077 C 
ATOM      4  C   UNL     1      -4.849 -10.410  33.249  1.00  0.00     0.039 C 
BRANCH   3   5
ATOM      5  C   UNL     1      -4.192 -12.366  31.660  1.00  0.00     0.034 C 
BRANCH   5   6
ATOM      6  C   UNL     1      -2.871 -13.072  32.001  1.00  0.00     0.032 C 
BRANCH   6   7
ATOM      7  C   UNL     1      -2.153 -13.559  30.764  1.00  0.00    -0.028 C 
ATOM      8  C   UNL     1      -0.235 -13.890  29.238  1.00  0.00     0.039 C 
ATOM      9  C   UNL     1      -0.849 -13.326  30.492  1.00  0.00    -0.080 C 
ATOM     10  C   UNL     1       0.013 -12.461  31.377  1.00  0.00     0.039 C 
ENDBRANCH   6   7
ENDBRANCH   5   6
ENDBRANCH   3   5
ENDBRANCH   1   2
BRANCH   1  11
ATOM     11  C   UNL     1      -3.862 -10.236  28.756  1.00  0.00     0.034 C 
BRANCH  11  12
ATOM     12  C   UNL     1      -3.899 -11.589  28.079  1.00  0.00    -0.077 C 
ATOM     13  C   UNL     1      -4.768 -12.523  28.527  1.00  0.00    -0.028 C 
ATOM     14  C   UNL     1      -2.975 -11.851  26.912  1.00  0.00     0.039 C 
BRANCH  13  15
ATOM     15  C   UNL     1      -4.884 -13.921  27.969  1.00  0.00     0.035 C 
BRANCH  15  16
ATOM     16  C   UNL     1      -6.352 -14.374  27.947  1.00  0.00     0.079 C 
BRANCH  16  17
ATOM     17  C   UNL     1      -6.753 -15.250  29.111  1.00  0.00     0.130 C 
ATOM     18  O   UNL     1      -7.601 -16.110  28.925  1.00  0.00    -0.300 OA
ATOM     19  C   UNL     1      -6.161 -15.107  30.488  1.00  0.00     0.087 C 
ENDBRANCH  16  17
ENDBRANCH  15  16
ENDBRANCH  13  15
ENDBRANCH  11  12
ENDBRANCH   1  11
TORSDOF 9
ENDMDL
MODEL 6
REMARK VINA RESULT:    -5.811      3.102      6.161
REMARK INTER + INTRA:         -10.314
REMARK INTER:                  -8.468
REMARK INTRA:                  -1.846
REMARK UNBOUND:                -1.446
REMARK SMILES CC(=O)CCC=C(C)CCC=C(C)CCC=C(C)C
REMARK SMILES IDX 10 1 11 2 12 3 13 4 14 5 15 6 16 7 18 8 17 9 19 10 9 11 7 12
REMARK SMILES IDX 6 13 8 14 5 15 4 16 2 17 3 18 1 19
REMARK H PARENT
REMARK Flexibility Score: inf
ROOT
ATOM      1  C   UNL     1      -4.322 -13.995  32.126  1.00  0.00     0.032 C 
ENDROOT
BRANCH   1   2
ATOM      2  C   UNL     1      -4.706 -12.746  32.881  1.00  0.00    -0.028 C 
ATOM      3  C   UNL     1      -4.474 -11.475  32.476  1.00  0.00    -0.077 C 
ATOM      4  C   UNL     1      -4.904 -10.354  33.387  1.00  0.00     0.039 C 
BRANCH   3   5
ATOM      5  C   UNL     1      -3.815 -11.125  31.151  1.00  0.00     0.034 C 
BRANCH   5   6
ATOM      6  C   UNL     1      -2.321 -10.797  31.299  1.00  0.00     0.032 C 
BRANCH   6   7
ATOM      7  C   UNL     1      -1.492 -11.426  30.203  1.00  0.00    -0.028 C 
ATOM      8  C   UNL     1      -0.148 -13.187  29.104  1.00  0.00     0.039 C 
ATOM      9  C   UNL     1      -0.930 -12.653  30.275  1.00  0.00    -0.080 C 
ATOM     10  C   UNL     1      -1.003 -13.496  31.523  1.00  0.00     0.039 C 
ENDBRANCH   6   7
ENDBRANCH   5   6
ENDBRANCH   3   5
ENDBRANCH   1   2
BRANCH   1  11
ATOM     11  C   UNL     1      -5.579 -14.731  31.649  1.00  0.00     0.034 C 
BRANCH  11  12
ATOM     12  C   UNL     1      -5.732 -14.620  30.148  1.00  0.00    -0.077 C 
ATOM     13  C   UNL     1      -4.892 -13.814  29.460  1.00  0.00    -0.028 C 
ATOM     14  C   UNL     1      -6.809 -15.427  29.459  1.00  0.00     0.039 C 
BRANCH  13  15
ATOM     15  C   UNL     1      -4.957 -13.584  27.970  1.00  0.00     0.035 C 
BRANCH  15  16
ATOM     16  C   UNL     1      -3.574 -13.199  27.422  1.00  0.00     0.079 C 
BRANCH  16  17
ATOM     17  C   UNL     1      -3.445 -11.748  27.015  1.00  0.00     0.130 C 
ATOM     18  O   UNL     1      -3.672 -10.889  27.854  1.00  0.00    -0.300 OA
ATOM     19  C   UNL     1      -3.056 -11.317  25.627  1.00  0.00     0.087 C 
ENDBRANCH  16  17
ENDBRANCH  15  16
ENDBRANCH  13  15
ENDBRANCH  11  12
ENDBRANCH   1  11
TORSDOF 9
ENDMDL
MODEL 7
REMARK VINA RESULT:    -5.766      2.835      4.513
REMARK INTER + INTRA:         -10.245
REMARK INTER:                  -7.869
REMARK INTRA:                  -2.377
REMARK UNBOUND:                -1.446
REMARK SMILES CC(=O)CCC=C(C)CCC=C(C)CCC=C(C)C
REMARK SMILES IDX 10 1 11 2 12 3 13 4 14 5 15 6 16 7 18 8 17 9 19 10 9 11 7 12
REMARK SMILES IDX 6 13 8 14 5 15 4 16 2 17 3 18 1 19
REMARK H PARENT
REMARK Flexibility Score: inf
ROOT
ATOM      1  C   UNL     1      -5.071 -10.730  29.127  1.00  0.00     0.032 C 
ENDROOT
BRANCH   1   2
ATOM      2  C   UNL     1      -4.150 -10.615  27.937  1.00  0.00    -0.028 C 
ATOM      3  C   UNL     1      -3.632 -11.651  27.236  1.00  0.00    -0.077 C 
ATOM      4  C   UNL     1      -2.701 -11.335  26.093  1.00  0.00     0.039 C 
BRANCH   3   5
ATOM      5  C   UNL     1      -3.949 -13.108  27.536  1.00  0.00     0.034 C 
BRANCH   5   6
ATOM      6  C   UNL     1      -2.692 -13.943  27.823  1.00  0.00     0.032 C 
BRANCH   6   7
ATOM      7  C   UNL     1      -2.022 -13.533  29.114  1.00  0.00    -0.028 C 
ATOM      8  C   UNL     1      -0.142 -13.189  30.683  1.00  0.00     0.039 C 
ATOM      9  C   UNL     1      -0.701 -13.662  29.367  1.00  0.00    -0.080 C 
ATOM     10  C   UNL     1       0.241 -14.326  28.394  1.00  0.00     0.039 C 
ENDBRANCH   6   7
ENDBRANCH   5   6
ENDBRANCH   3   5
ENDBRANCH   1   2
BRANCH   1  11
ATOM     11  C   UNL     1      -4.470  -9.997  30.331  1.00  0.00     0.034 C 
BRANCH  11  12
ATOM     12  C   UNL     1      -3.611 -10.929  31.158  1.00  0.00    -0.077 C 
ATOM     13  C   UNL     1      -4.138 -12.096  31.591  1.00  0.00    -0.028 C 
ATOM     14  C   UNL     1      -2.183 -10.536  31.459  1.00  0.00     0.039 C 
BRANCH  13  15
ATOM     15  C   UNL     1      -3.407 -13.099  32.450  1.00  0.00     0.035 C 
BRANCH  15  16
ATOM     16  C   UNL     1      -3.821 -14.531  32.082  1.00  0.00     0.079 C 
BRANCH  16  17
ATOM     17  C   UNL     1      -5.313 -14.775  32.103  1.00  0.00     0.130 C 
ATOM     18  O   UNL     1      -5.893 -14.731  33.178  1.00  0.00    -0.300 OA
ATOM     19  C   UNL     1      -6.113 -15.073  30.863  1.00  0.00     0.087 C 
ENDBRANCH  16  17
ENDBRANCH  15  16
ENDBRANCH  13  15
ENDBRANCH  11  12
ENDBRANCH   1  11
TORSDOF 9
ENDMDL
MODEL 8
REMARK VINA RESULT:    -5.735      3.016      5.880
REMARK INTER + INTRA:         -10.198
REMARK INTER:                  -8.239
REMARK INTRA:                  -1.958
REMARK UNBOUND:                -1.446
REMARK SMILES CC(=O)CCC=C(C)CCC=C(C)CCC=C(C)C
REMARK SMILES IDX 10 1 11 2 12 3 13 4 14 5 15 6 16 7 18 8 17 9 19 10 9 11 7 12
REMARK SMILES IDX 6 13 8 14 5 15 4 16 2 17 3 18 1 19
REMARK H PARENT
REMARK Flexibility Score: inf
ROOT
ATOM      1  C   UNL     1      -2.630 -11.083  27.359  1.00  0.00     0.032 C 
ENDROOT
BRANCH   1   2
ATOM      2  C   UNL     1      -3.369 -12.207  26.675  1.00  0.00    -0.028 C 
ATOM      3  C   UNL     1      -3.811 -13.340  27.271  1.00  0.00    -0.077 C 
ATOM      4  C   UNL     1      -4.504 -14.366  26.411  1.00  0.00     0.039 C 
BRANCH   3   5
ATOM      5  C   UNL     1      -3.655 -13.620  28.757  1.00  0.00     0.034 C 
BRANCH   5   6
ATOM      6  C   UNL     1      -4.947 -13.364  29.549  1.00  0.00     0.032 C 
BRANCH   6   7
ATOM      7  C   UNL     1      -5.198 -14.435  30.585  1.00  0.00    -0.028 C 
ATOM      8  C   UNL     1      -5.311 -15.413  32.853  1.00  0.00     0.039 C 
ATOM      9  C   UNL     1      -4.995 -14.281  31.912  1.00  0.00    -0.080 C 
ATOM     10  C   UNL     1      -4.399 -13.022  32.491  1.00  0.00     0.039 C 
ENDBRANCH   6   7
ENDBRANCH   5   6
ENDBRANCH   3   5
ENDBRANCH   1   2
BRANCH   1  11
ATOM     11  C   UNL     1      -3.605 -10.230  28.176  1.00  0.00     0.034 C 
BRANCH  11  12
ATOM     12  C   UNL     1      -3.271 -10.291  29.651  1.00  0.00    -0.077 C 
ATOM     13  C   UNL     1      -2.039 -10.701  30.028  1.00  0.00    -0.028 C 
ATOM     14  C   UNL     1      -4.318  -9.875  30.658  1.00  0.00     0.039 C 
BRANCH  13  15
ATOM     15  C   UNL     1      -1.586 -10.843  31.461  1.00  0.00     0.035 C 
BRANCH  15  16
ATOM     16  C   UNL     1      -0.399 -11.813  31.559  1.00  0.00     0.079 C 
BRANCH  16  17
ATOM     17  C   UNL     1      -0.666 -13.188  30.990  1.00  0.00     0.130 C 
ATOM     18  O   UNL     1      -1.339 -13.967  31.647  1.00  0.00    -0.300 OA
ATOM     19  C   UNL     1      -0.138 -13.639  29.654  1.00  0.00     0.087 C 
ENDBRANCH  16  17
ENDBRANCH  15  16
ENDBRANCH  13  15
ENDBRANCH  11  12
ENDBRANCH   1  11
TORSDOF 9
ENDMDL
MODEL 9
REMARK VINA RESULT:    -5.679      3.312      5.829
REMARK INTER + INTRA:         -10.113
REMARK INTER:                  -7.853
REMARK INTRA:                  -2.260
REMARK UNBOUND:                -1.446
REMARK SMILES CC(=O)CCC=C(C)CCC=C(C)CCC=C(C)C
REMARK SMILES IDX 10 1 11 2 12 3 13 4 14 5 15 6 16 7 18 8 17 9 19 10 9 11 7 12
REMARK SMILES IDX 6 13 8 14 5 15 4 16 2 17 3 18 1 19
REMARK H PARENT
REMARK Flexibility Score: inf
ROOT
ATOM      1  C   UNL     1      -6.546 -14.349  29.171  1.00  0.00     0.032 C 
ENDROOT
BRANCH   1   2
ATOM      2  C   UNL     1      -6.223 -15.128  30.422  1.00  0.00    -0.028 C 
ATOM      3  C   UNL     1      -5.355 -14.746  31.389  1.00  0.00    -0.077 C 
ATOM      4  C   UNL     1      -5.139 -15.679  32.553  1.00  0.00     0.039 C 
BRANCH   3   5
ATOM      5  C   UNL     1      -4.602 -13.425  31.364  1.00  0.00     0.034 C 
BRANCH   5   6
ATOM      6  C   UNL     1      -3.122 -13.578  31.749  1.00  0.00     0.032 C 
BRANCH   6   7
ATOM      7  C   UNL     1      -2.222 -13.609  30.535  1.00  0.00    -0.028 C 
ATOM      8  C   UNL     1      -0.128 -13.299  29.258  1.00  0.00     0.039 C 
ATOM      9  C   UNL     1      -0.937 -13.191  30.523  1.00  0.00    -0.080 C 
ATOM     10  C   UNL     1      -0.289 -12.554  31.727  1.00  0.00     0.039 C 
ENDBRANCH   6   7
ENDBRANCH   5   6
ENDBRANCH   3   5
ENDBRANCH   1   2
BRANCH   1  11
ATOM     11  C   UNL     1      -5.583 -14.737  28.044  1.00  0.00     0.034 C 
BRANCH  11  12
ATOM     12  C   UNL     1      -4.594 -13.624  27.771  1.00  0.00    -0.077 C 
ATOM     13  C   UNL     1      -4.775 -12.425  28.369  1.00  0.00    -0.028 C 
ATOM     14  C   UNL     1      -3.424 -13.892  26.853  1.00  0.00     0.039 C 
BRANCH  13  15
ATOM     15  C   UNL     1      -3.889 -11.222  28.157  1.00  0.00     0.035 C 
BRANCH  15  16
ATOM     16  C   UNL     1      -4.268 -10.094  29.129  1.00  0.00     0.079 C 
BRANCH  16  17
ATOM     17  C   UNL     1      -3.375  -9.991  30.345  1.00  0.00     0.130 C 
ATOM     18  O   UNL     1      -2.165 -10.007  30.179  1.00  0.00    -0.300 OA
ATOM     19  C   UNL     1      -3.910  -9.875  31.748  1.00  0.00     0.087 C 
ENDBRANCH  16  17
ENDBRANCH  15  16
ENDBRANCH  13  15
ENDBRANCH  11  12
ENDBRANCH   1  11
TORSDOF 9
ENDMDL
