MODEL 1
REMARK VINA RESULT:    -2.496      0.000      0.000
REMARK INTER + INTRA:          -3.934
REMARK INTER:                  -3.371
REMARK INTRA:                  -0.564
REMARK UNBOUND:                -0.564
REMARK SMILES CCCCCCCC(C)=O
REMARK SMILES IDX 5 1 4 2 3 3 2 4 1 5 6 6 7 7 8 8 10 9 9 10
REMARK H PARENT
REMARK Flexibility Score: inf
ROOT
ATOM      1  C   UNL     1     109.226 108.885 104.669  1.00  0.00     0.000 C 
ENDROOT
BRANCH   1   2
ATOM      2  C   UNL     1     107.843 109.149 104.055  1.00  0.00     0.000 C 
BRANCH   2   3
ATOM      3  C   UNL     1     107.395 110.610 104.211  1.00  0.00    -0.000 C 
BRANCH   3   4
ATOM      4  C   UNL     1     107.692 111.127 105.623  1.00  0.00    -0.003 C 
ATOM      5  C   UNL     1     106.826 112.338 105.961  1.00  0.00     0.004 C 
ENDBRANCH   3   4
ENDBRANCH   2   3
ENDBRANCH   1   2
BRANCH   1   6
ATOM      6  C   UNL     1     109.217 107.723 105.673  1.00  0.00     0.008 C 
BRANCH   6   7
ATOM      7  C   UNL     1     107.885 106.966 105.624  1.00  0.00     0.075 C 
BRANCH   7   8
ATOM      8  C   UNL     1     107.230 106.953 106.981  1.00  0.00     0.129 C 
ATOM      9  O   UNL     1     106.504 106.020 107.288  1.00  0.00    -0.300 OA
ATOM     10  C   UNL     1     107.441 108.067 107.962  1.00  0.00     0.087 C 
ENDBRANCH   7   8
ENDBRANCH   6   7
ENDBRANCH   1   6
TORSDOF 6
ENDMDL
MODEL 2
REMARK VINA RESULT:    -2.444      4.826      5.443
REMARK INTER + INTRA:          -3.865
REMARK INTER:                  -3.399
REMARK INTRA:                  -0.467
REMARK UNBOUND:                -0.564
REMARK SMILES CCCCCCCC(C)=O
REMARK SMILES IDX 5 1 4 2 3 3 2 4 1 5 6 6 7 7 8 8 10 9 9 10
REMARK H PARENT
REMARK Flexibility Score: inf
ROOT
ATOM      1  C   UNL     1     112.133 111.067 104.193  1.00  0.00     0.000 C 
ENDROOT
BRANCH   1   2
ATOM      2  C   UNL     1     111.320 112.284 104.662  1.00  0.00     0.000 C 
BRANCH   2   3
ATOM      3  C   UNL     1     112.198 113.380 105.284  1.00  0.00    -0.000 C 
BRANCH   3   4
ATOM      4  C   UNL     1     112.596 113.015 106.718  1.00  0.00    -0.003 C 
ATOM      5  C   UNL     1     111.380 112.587 107.536  1.00  0.00     0.004 C 
ENDBRANCH   3   4
ENDBRANCH   2   3
ENDBRANCH   1   2
BRANCH   1   6
ATOM      6  C   UNL     1     111.552 109.738 104.695  1.00  0.00     0.008 C 
BRANCH   6   7
ATOM      7  C   UNL     1     112.264 109.273 105.970  1.00  0.00     0.075 C 
BRANCH   7   8
ATOM      8  C   UNL     1     113.195 108.127 105.673  1.00  0.00     0.129 C 
ATOM      9  O   UNL     1     113.742 108.063 104.583  1.00  0.00    -0.300 OA
ATOM     10  C   UNL     1     113.458 107.051 106.685  1.00  0.00     0.087 C 
ENDBRANCH   7   8
ENDBRANCH   6   7
ENDBRANCH   1   6
TORSDOF 6
ENDMDL
MODEL 3
REMARK VINA RESULT:    -2.430      3.961      5.656
REMARK INTER + INTRA:          -3.846
REMARK INTER:                  -3.062
REMARK INTRA:                  -0.783
REMARK UNBOUND:                -0.564
REMARK SMILES CCCCCCCC(C)=O
REMARK SMILES IDX 5 1 4 2 3 3 2 4 1 5 6 6 7 7 8 8 10 9 9 10
REMARK H PARENT
REMARK Flexibility Score: inf
ROOT
ATOM      1  C   UNL     1     113.382 108.544 104.168  1.00  0.00     0.000 C 
ENDROOT
BRANCH   1   2
ATOM      2  C   UNL     1     112.540 107.620 105.062  1.00  0.00     0.000 C 
BRANCH   2   3
ATOM      3  C   UNL     1     113.174 107.394 106.443  1.00  0.00    -0.000 C 
BRANCH   3   4
ATOM      4  C   UNL     1     112.642 108.406 107.462  1.00  0.00    -0.003 C 
ATOM      5  C   UNL     1     111.154 108.192 107.729  1.00  0.00     0.004 C 
ENDBRANCH   3   4
ENDBRANCH   2   3
ENDBRANCH   1   2
BRANCH   1   6
ATOM      6  C   UNL     1     112.686 109.881 103.875  1.00  0.00     0.008 C 
BRANCH   6   7
ATOM      7  C   UNL     1     111.219 109.844 104.314  1.00  0.00     0.075 C 
BRANCH   7   8
ATOM      8  C   UNL     1     110.916 110.975 105.261  1.00  0.00     0.129 C 
ATOM      9  O   UNL     1     109.757 111.214 105.562  1.00  0.00    -0.300 OA
ATOM     10  C   UNL     1     112.009 111.826 105.837  1.00  0.00     0.087 C 
ENDBRANCH   7   8
ENDBRANCH   6   7
ENDBRANCH   1   6
TORSDOF 6
ENDMDL
MODEL 4
REMARK VINA RESULT:    -2.408      3.656      4.982
REMARK INTER + INTRA:          -3.816
REMARK INTER:                  -3.153
REMARK INTRA:                  -0.663
REMARK UNBOUND:                -0.564
REMARK SMILES CCCCCCCC(C)=O
REMARK SMILES IDX 5 1 4 2 3 3 2 4 1 5 6 6 7 7 8 8 10 9 9 10
REMARK H PARENT
REMARK Flexibility Score: inf
ROOT
ATOM      1  C   UNL     1     108.968 112.567 104.185  1.00  0.00     0.000 C 
ENDROOT
BRANCH   1   2
ATOM      2  C   UNL     1     107.853 111.630 104.673  1.00  0.00     0.000 C 
BRANCH   2   3
ATOM      3  C   UNL     1     106.948 112.285 105.727  1.00  0.00    -0.000 C 
BRANCH   3   4
ATOM      4  C   UNL     1     107.374 111.880 107.142  1.00  0.00    -0.003 C 
ATOM      5  C   UNL     1     107.818 110.420 107.189  1.00  0.00     0.004 C 
ENDBRANCH   3   4
ENDBRANCH   2   3
ENDBRANCH   1   2
BRANCH   1   6
ATOM      6  C   UNL     1     110.309 111.843 103.992  1.00  0.00     0.008 C 
BRANCH   6   7
ATOM      7  C   UNL     1     110.833 111.295 105.323  1.00  0.00     0.075 C 
BRANCH   7   8
ATOM      8  C   UNL     1     111.288 112.417 106.220  1.00  0.00     0.129 C 
ATOM      9  O   UNL     1     110.751 112.573 107.306  1.00  0.00    -0.300 OA
ATOM     10  C   UNL     1     112.380 113.357 105.804  1.00  0.00     0.087 C 
ENDBRANCH   7   8
ENDBRANCH   6   7
ENDBRANCH   1   6
TORSDOF 6
ENDMDL
MODEL 5
REMARK VINA RESULT:    -2.378      4.318      5.769
REMARK INTER + INTRA:          -3.775
REMARK INTER:                  -3.260
REMARK INTRA:                  -0.515
REMARK UNBOUND:                -0.564
REMARK SMILES CCCCCCCC(C)=O
REMARK SMILES IDX 5 1 4 2 3 3 2 4 1 5 6 6 7 7 8 8 10 9 9 10
REMARK H PARENT
REMARK Flexibility Score: inf
ROOT
ATOM      1  C   UNL     1     112.261 109.640 104.555  1.00  0.00     0.000 C 
ENDROOT
BRANCH   1   2
ATOM      2  C   UNL     1     111.394 108.605 105.288  1.00  0.00     0.000 C 
BRANCH   2   3
ATOM      3  C   UNL     1     110.338 107.965 104.375  1.00  0.00    -0.000 C 
BRANCH   3   4
ATOM      4  C   UNL     1     109.030 107.722 105.136  1.00  0.00    -0.003 C 
ATOM      5  C   UNL     1     108.166 108.981 105.164  1.00  0.00     0.004 C 
ENDBRANCH   3   4
ENDBRANCH   2   3
ENDBRANCH   1   2
BRANCH   1   6
ATOM      6  C   UNL     1     111.429 110.737 103.875  1.00  0.00     0.008 C 
BRANCH   6   7
ATOM      7  C   UNL     1     110.898 111.741 104.904  1.00  0.00     0.075 C 
BRANCH   7   8
ATOM      8  C   UNL     1     111.782 112.958 104.967  1.00  0.00     0.129 C 
ATOM      9  O   UNL     1     111.876 113.685 103.990  1.00  0.00    -0.300 OA
ATOM     10  C   UNL     1     112.563 113.295 106.203  1.00  0.00     0.087 C 
ENDBRANCH   7   8
ENDBRANCH   6   7
ENDBRANCH   1   6
TORSDOF 6
ENDMDL
MODEL 6
REMARK VINA RESULT:    -2.370      2.654      4.651
REMARK INTER + INTRA:          -3.765
REMARK INTER:                  -3.258
REMARK INTRA:                  -0.508
REMARK UNBOUND:                -0.564
REMARK SMILES CCCCCCCC(C)=O
REMARK SMILES IDX 5 1 4 2 3 3 2 4 1 5 6 6 7 7 8 8 10 9 9 10
REMARK H PARENT
REMARK Flexibility Score: inf
ROOT
ATOM      1  C   UNL     1     108.387 108.897 105.443  1.00  0.00     0.000 C 
ENDROOT
BRANCH   1   2
ATOM      2  C   UNL     1     109.690 108.094 105.576  1.00  0.00     0.000 C 
BRANCH   2   3
ATOM      3  C   UNL     1     110.328 107.772 104.218  1.00  0.00    -0.000 C 
BRANCH   3   4
ATOM      4  C   UNL     1     111.842 108.008 104.254  1.00  0.00    -0.003 C 
ATOM      5  C   UNL     1     112.166 109.496 104.358  1.00  0.00     0.004 C 
ENDBRANCH   3   4
ENDBRANCH   2   3
ENDBRANCH   1   2
BRANCH   1   6
ATOM      6  C   UNL     1     108.345 109.752 104.168  1.00  0.00     0.008 C 
BRANCH   6   7
ATOM      7  C   UNL     1     108.468 111.243 104.503  1.00  0.00     0.075 C 
BRANCH   7   8
ATOM      8  C   UNL     1     107.115 111.835 104.804  1.00  0.00     0.129 C 
ATOM      9  O   UNL     1     106.260 111.855 103.932  1.00  0.00    -0.300 OA
ATOM     10  C   UNL     1     106.797 112.413 106.151  1.00  0.00     0.087 C 
ENDBRANCH   7   8
ENDBRANCH   6   7
ENDBRANCH   1   6
TORSDOF 6
ENDMDL
MODEL 7
REMARK VINA RESULT:    -2.352      2.929      4.537
REMARK INTER + INTRA:          -3.740
REMARK INTER:                  -2.873
REMARK INTRA:                  -0.867
REMARK UNBOUND:                -0.564
REMARK SMILES CCCCCCCC(C)=O
REMARK SMILES IDX 5 1 4 2 3 3 2 4 1 5 6 6 7 7 8 8 10 9 9 10
REMARK H PARENT
REMARK Flexibility Score: inf
ROOT
ATOM      1  C   UNL     1     110.042 107.814 107.341  1.00  0.00     0.000 C 
ENDROOT
BRANCH   1   2
ATOM      2  C   UNL     1     108.733 107.472 106.613  1.00  0.00     0.000 C 
BRANCH   2   3
ATOM      3  C   UNL     1     108.105 108.691 105.921  1.00  0.00    -0.000 C 
BRANCH   3   4
ATOM      4  C   UNL     1     107.824 108.397 104.443  1.00  0.00    -0.003 C 
ATOM      5  C   UNL     1     108.226 106.970 104.077  1.00  0.00     0.004 C 
ENDBRANCH   3   4
ENDBRANCH   2   3
ENDBRANCH   1   2
BRANCH   1   6
ATOM      6  C   UNL     1     110.671 109.125 106.846  1.00  0.00     0.008 C 
BRANCH   6   7
ATOM      7  C   UNL     1     111.951 108.853 106.050  1.00  0.00     0.075 C 
BRANCH   7   8
ATOM      8  C   UNL     1     111.642 108.676 104.586  1.00  0.00     0.129 C 
ATOM      9  O   UNL     1     111.131 109.595 103.965  1.00  0.00    -0.300 OA
ATOM     10  C   UNL     1     111.936 107.389 103.875  1.00  0.00     0.087 C 
ENDBRANCH   7   8
ENDBRANCH   6   7
ENDBRANCH   1   6
TORSDOF 6
ENDMDL
MODEL 8
REMARK VINA RESULT:    -2.350      3.404      4.277
REMARK INTER + INTRA:          -3.738
REMARK INTER:                  -3.222
REMARK INTRA:                  -0.516
REMARK UNBOUND:                -0.564
REMARK SMILES CCCCCCCC(C)=O
REMARK SMILES IDX 5 1 4 2 3 3 2 4 1 5 6 6 7 7 8 8 10 9 9 10
REMARK H PARENT
REMARK Flexibility Score: inf
ROOT
ATOM      1  C   UNL     1     109.665 108.110 106.130  1.00  0.00     0.000 C 
ENDROOT
BRANCH   1   2
ATOM      2  C   UNL     1     108.238 108.638 105.911  1.00  0.00     0.000 C 
BRANCH   2   3
ATOM      3  C   UNL     1     108.112 109.499 104.646  1.00  0.00    -0.000 C 
BRANCH   3   4
ATOM      4  C   UNL     1     107.885 110.971 105.006  1.00  0.00    -0.003 C 
ATOM      5  C   UNL     1     109.127 111.810 104.713  1.00  0.00     0.004 C 
ENDBRANCH   3   4
ENDBRANCH   2   3
ENDBRANCH   1   2
BRANCH   1   6
ATOM      6  C   UNL     1     110.551 108.267 104.886  1.00  0.00     0.008 C 
BRANCH   6   7
ATOM      7  C   UNL     1     111.798 109.100 105.201  1.00  0.00     0.075 C 
BRANCH   7   8
ATOM      8  C   UNL     1     113.033 108.236 105.192  1.00  0.00     0.129 C 
ATOM      9  O   UNL     1     113.753 108.227 104.205  1.00  0.00    -0.300 OA
ATOM     10  C   UNL     1     113.393 107.375 106.366  1.00  0.00     0.087 C 
ENDBRANCH   7   8
ENDBRANCH   6   7
ENDBRANCH   1   6
TORSDOF 6
ENDMDL
MODEL 9
REMARK VINA RESULT:    -2.149      3.338      5.128
REMARK INTER + INTRA:          -3.466
REMARK INTER:                  -2.923
REMARK INTRA:                  -0.543
REMARK UNBOUND:                -0.564
REMARK SMILES CCCCCCCC(C)=O
REMARK SMILES IDX 5 1 4 2 3 3 2 4 1 5 6 6 7 7 8 8 10 9 9 10
REMARK H PARENT
REMARK Flexibility Score: inf
ROOT
ATOM      1  C   UNL     1     111.186 112.436 104.727  1.00  0.00     0.000 C 
ENDROOT
BRANCH   1   2
ATOM      2  C   UNL     1     112.426 111.556 104.505  1.00  0.00     0.000 C 
BRANCH   2   3
ATOM      3  C   UNL     1     112.084 110.198 103.875  1.00  0.00    -0.000 C 
BRANCH   3   4
ATOM      4  C   UNL     1     112.283 109.060 104.882  1.00  0.00    -0.003 C 
ATOM      5  C   UNL     1     111.017 108.219 105.022  1.00  0.00     0.004 C 
ENDBRANCH   3   4
ENDBRANCH   2   3
ENDBRANCH   1   2
BRANCH   1   6
ATOM      6  C   UNL     1     109.956 111.929 103.960  1.00  0.00     0.008 C 
BRANCH   6   7
ATOM      7  C   UNL     1     108.706 111.960 104.847  1.00  0.00     0.075 C 
BRANCH   7   8
ATOM      8  C   UNL     1     107.585 111.177 104.215  1.00  0.00     0.129 C 
ATOM      9  O   UNL     1     106.550 111.748 103.909  1.00  0.00    -0.300 OA
ATOM     10  C   UNL     1     107.706 109.703 103.962  1.00  0.00     0.087 C 
ENDBRANCH   7   8
ENDBRANCH   6   7
ENDBRANCH   1   6
TORSDOF 6
ENDMDL
