MODEL 1
REMARK VINA RESULT:    -3.716      0.000      0.000
REMARK INTER + INTRA:          -3.825
REMARK INTER:                  -3.825
REMARK INTRA:                   0.000
REMARK UNBOUND:                 0.000
REMARK SMILES Nc1ncnc2nc[nH]c12
REMARK SMILES IDX 8 1 7 2 6 3 5 4 4 5 3 6 2 7 10 8 9 9 1 11
REMARK H PARENT 9 10 1 12 1 13
REMARK Flexibility Score: inf
ROOT
ATOM      1  C   UNL     1     174.647 169.903 151.005  1.00  0.00     0.199 A 
ATOM      2  N   UNL     1     174.992 170.261 152.272  1.00  0.00    -0.217 NA
ATOM      3  C   UNL     1     174.997 171.602 152.198  1.00  0.00     0.182 A 
ATOM      4  N   UNL     1     175.281 172.467 153.202  1.00  0.00    -0.215 NA
ATOM      5  C   UNL     1     175.234 173.806 152.933  1.00  0.00     0.226 A 
ATOM      6  N   UNL     1     174.907 174.254 151.678  1.00  0.00    -0.217 NA
ATOM      7  C   UNL     1     174.620 173.384 150.664  1.00  0.00     0.152 A 
ATOM      8  C   UNL     1     174.673 172.023 150.954  1.00  0.00     0.127 A 
ATOM      9  N   UNL     1     174.445 170.958 150.175  1.00  0.00    -0.340 N 
ATOM     10  H   UNL     1     174.175 170.932 149.168  1.00  0.00     0.168 HD
ENDROOT
BRANCH   7  11
ATOM     11  N   UNL     1     174.283 173.872 149.365  1.00  0.00    -0.382 N 
ATOM     12  H   UNL     1     174.803 173.563 148.515  1.00  0.00     0.158 HD
ATOM     13  H   UNL     1     173.500 174.553 149.251  1.00  0.00     0.158 HD
ENDBRANCH   7  11
TORSDOF 1
ENDMDL
MODEL 2
REMARK VINA RESULT:    -3.690      1.121      3.287
REMARK INTER + INTRA:          -3.798
REMARK INTER:                  -3.798
REMARK INTRA:                   0.000
REMARK UNBOUND:                 0.000
REMARK SMILES Nc1ncnc2nc[nH]c12
REMARK SMILES IDX 8 1 7 2 6 3 5 4 4 5 3 6 2 7 10 8 9 9 1 11
REMARK H PARENT 9 10 1 12 1 13
REMARK Flexibility Score: inf
ROOT
ATOM      1  C   UNL     1     174.997 173.236 154.340  1.00  0.00     0.199 A 
ATOM      2  N   UNL     1     174.579 174.253 153.537  1.00  0.00    -0.217 NA
ATOM      3  C   UNL     1     174.552 173.668 152.328  1.00  0.00     0.182 A 
ATOM      4  N   UNL     1     174.199 174.250 151.156  1.00  0.00    -0.215 NA
ATOM      5  C   UNL     1     174.235 173.489 150.021  1.00  0.00     0.226 A 
ATOM      6  N   UNL     1     174.617 172.172 150.077  1.00  0.00    -0.217 NA
ATOM      7  C   UNL     1     174.973 171.584 151.258  1.00  0.00     0.152 A 
ATOM      8  C   UNL     1     174.933 172.372 152.404  1.00  0.00     0.127 A 
ATOM      9  N   UNL     1     175.221 172.074 153.677  1.00  0.00    -0.340 N 
ATOM     10  H   UNL     1     175.543 171.165 154.078  1.00  0.00     0.168 HD
ENDROOT
BRANCH   7  11
ATOM     11  N   UNL     1     175.369 170.211 151.292  1.00  0.00    -0.382 N 
ATOM     12  H   UNL     1     175.519 169.666 150.415  1.00  0.00     0.158 HD
ATOM     13  H   UNL     1     175.515 169.733 152.209  1.00  0.00     0.158 HD
ENDBRANCH   7  11
TORSDOF 1
ENDMDL
MODEL 3
REMARK VINA RESULT:    -3.686     19.459     20.312
REMARK INTER + INTRA:          -3.794
REMARK INTER:                  -3.794
REMARK INTRA:                   0.000
REMARK UNBOUND:                 0.000
REMARK SMILES Nc1ncnc2nc[nH]c12
REMARK SMILES IDX 8 1 7 2 6 3 5 4 4 5 3 6 2 7 10 8 9 9 1 11
REMARK H PARENT 9 10 1 12 1 13
REMARK Flexibility Score: inf
ROOT
ATOM      1  C   UNL     1     161.663 156.781 150.715  1.00  0.00     0.199 A 
ATOM      2  N   UNL     1     161.466 157.978 150.097  1.00  0.00    -0.217 NA
ATOM      3  C   UNL     1     160.652 158.612 150.957  1.00  0.00     0.182 A 
ATOM      4  N   UNL     1     160.144 159.860 150.818  1.00  0.00    -0.215 NA
ATOM      5  C   UNL     1     159.328 160.338 151.806  1.00  0.00     0.226 A 
ATOM      6  N   UNL     1     159.038 159.568 152.903  1.00  0.00    -0.217 NA
ATOM      7  C   UNL     1     159.549 158.308 153.045  1.00  0.00     0.152 A 
ATOM      8  C   UNL     1     160.378 157.836 152.031  1.00  0.00     0.127 A 
ATOM      9  N   UNL     1     161.011 156.664 151.899  1.00  0.00    -0.340 N 
ATOM     10  H   UNL     1     161.012 155.846 152.547  1.00  0.00     0.168 HD
ENDROOT
BRANCH   7  11
ATOM     11  N   UNL     1     159.233 157.524 154.196  1.00  0.00    -0.382 N 
ATOM     12  H   UNL     1     159.935 157.352 154.948  1.00  0.00     0.158 HD
ATOM     13  H   UNL     1     158.280 157.108 154.298  1.00  0.00     0.158 HD
ENDBRANCH   7  11
TORSDOF 1
ENDMDL
MODEL 4
REMARK VINA RESULT:    -3.683      0.765      2.829
REMARK INTER + INTRA:          -3.790
REMARK INTER:                  -3.790
REMARK INTRA:                   0.000
REMARK UNBOUND:                 0.000
REMARK SMILES Nc1ncnc2nc[nH]c12
REMARK SMILES IDX 8 1 7 2 6 3 5 4 4 5 3 6 2 7 10 8 9 9 1 11
REMARK H PARENT 9 10 1 12 1 13
REMARK Flexibility Score: inf
ROOT
ATOM      1  C   UNL     1     174.986 173.893 153.829  1.00  0.00     0.199 A 
ATOM      2  N   UNL     1     175.110 172.549 154.009  1.00  0.00    -0.217 NA
ATOM      3  C   UNL     1     174.968 172.080 152.759  1.00  0.00     0.182 A 
ATOM      4  N   UNL     1     175.010 170.781 152.373  1.00  0.00    -0.215 NA
ATOM      5  C   UNL     1     174.843 170.497 151.046  1.00  0.00     0.226 A 
ATOM      6  N   UNL     1     174.641 171.505 150.138  1.00  0.00    -0.217 NA
ATOM      7  C   UNL     1     174.599 172.815 150.525  1.00  0.00     0.152 A 
ATOM      8  C   UNL     1     174.770 173.088 151.879  1.00  0.00     0.127 A 
ATOM      9  N   UNL     1     174.777 174.253 152.537  1.00  0.00    -0.340 N 
ATOM     10  H   UNL     1     174.653 175.218 152.159  1.00  0.00     0.168 HD
ENDROOT
BRANCH   7  11
ATOM     11  N   UNL     1     174.387 173.848 149.561  1.00  0.00    -0.382 N 
ATOM     12  H   UNL     1     173.442 174.264 149.409  1.00  0.00     0.158 HD
ATOM     13  H   UNL     1     175.187 174.203 148.992  1.00  0.00     0.158 HD
ENDBRANCH   7  11
TORSDOF 1
ENDMDL
MODEL 5
REMARK VINA RESULT:    -3.635     14.209     15.287
REMARK INTER + INTRA:          -3.741
REMARK INTER:                  -3.741
REMARK INTRA:                   0.000
REMARK UNBOUND:                 0.000
REMARK SMILES Nc1ncnc2nc[nH]c12
REMARK SMILES IDX 8 1 7 2 6 3 5 4 4 5 3 6 2 7 10 8 9 9 1 11
REMARK H PARENT 9 10 1 12 1 13
REMARK Flexibility Score: inf
ROOT
ATOM      1  C   UNL     1     168.248 157.589 152.127  1.00  0.00     0.199 A 
ATOM      2  N   UNL     1     168.778 158.061 150.965  1.00  0.00    -0.217 NA
ATOM      3  C   UNL     1     170.089 158.119 151.253  1.00  0.00     0.182 A 
ATOM      4  N   UNL     1     171.081 158.529 150.425  1.00  0.00    -0.215 NA
ATOM      5  C   UNL     1     172.363 158.518 150.900  1.00  0.00     0.226 A 
ATOM      6  N   UNL     1     172.628 158.100 152.180  1.00  0.00    -0.217 NA
ATOM      7  C   UNL     1     171.629 157.686 153.015  1.00  0.00     0.152 A 
ATOM      8  C   UNL     1     170.330 157.704 152.517  1.00  0.00     0.127 A 
ATOM      9  N   UNL     1     169.172 157.361 153.095  1.00  0.00    -0.340 N 
ATOM     10  H   UNL     1     169.004 157.001 154.060  1.00  0.00     0.168 HD
ENDROOT
BRANCH   7  11
ATOM     11  N   UNL     1     171.929 157.256 154.344  1.00  0.00    -0.382 N 
ATOM     12  H   UNL     1     172.910 157.220 154.696  1.00  0.00     0.158 HD
ATOM     13  H   UNL     1     171.157 156.971 154.987  1.00  0.00     0.158 HD
ENDBRANCH   7  11
TORSDOF 1
ENDMDL
MODEL 6
REMARK VINA RESULT:    -3.634      2.937      5.032
REMARK INTER + INTRA:          -3.740
REMARK INTER:                  -3.740
REMARK INTRA:                   0.000
REMARK UNBOUND:                 0.000
REMARK SMILES Nc1ncnc2nc[nH]c12
REMARK SMILES IDX 8 1 7 2 6 3 5 4 4 5 3 6 2 7 10 8 9 9 1 11
REMARK H PARENT 9 10 1 12 1 13
REMARK Flexibility Score: inf
ROOT
ATOM      1  C   UNL     1     175.184 169.970 155.362  1.00  0.00     0.199 A 
ATOM      2  N   UNL     1     175.166 170.828 154.305  1.00  0.00    -0.217 NA
ATOM      3  C   UNL     1     175.115 169.989 153.257  1.00  0.00     0.182 A 
ATOM      4  N   UNL     1     175.078 170.333 151.947  1.00  0.00    -0.215 NA
ATOM      5  C   UNL     1     175.028 169.332 151.018  1.00  0.00     0.226 A 
ATOM      6  N   UNL     1     175.014 168.017 151.411  1.00  0.00    -0.217 NA
ATOM      7  C   UNL     1     175.051 167.668 152.732  1.00  0.00     0.152 A 
ATOM      8  C   UNL     1     175.103 168.700 153.665  1.00  0.00     0.127 A 
ATOM      9  N   UNL     1     175.146 168.661 155.003  1.00  0.00    -0.340 N 
ATOM     10  H   UNL     1     175.150 167.830 155.633  1.00  0.00     0.168 HD
ENDROOT
BRANCH   7  11
ATOM     11  N   UNL     1     175.037 166.293 153.118  1.00  0.00    -0.382 N 
ATOM     12  H   UNL     1     174.168 165.835 153.469  1.00  0.00     0.158 HD
ATOM     13  H   UNL     1     175.909 165.723 153.050  1.00  0.00     0.158 HD
ENDBRANCH   7  11
TORSDOF 1
ENDMDL
MODEL 7
REMARK VINA RESULT:    -3.631     14.103     14.897
REMARK INTER + INTRA:          -3.737
REMARK INTER:                  -3.737
REMARK INTRA:                   0.000
REMARK UNBOUND:                 0.000
REMARK SMILES Nc1ncnc2nc[nH]c12
REMARK SMILES IDX 8 1 7 2 6 3 5 4 4 5 3 6 2 7 10 8 9 9 1 11
REMARK H PARENT 9 10 1 12 1 13
REMARK Flexibility Score: inf
ROOT
ATOM      1  C   UNL     1     172.772 158.281 155.330  1.00  0.00     0.199 A 
ATOM      2  N   UNL     1     173.558 158.576 154.259  1.00  0.00    -0.217 NA
ATOM      3  C   UNL     1     172.720 158.379 153.228  1.00  0.00     0.182 A 
ATOM      4  N   UNL     1     173.006 158.537 151.912  1.00  0.00    -0.215 NA
ATOM      5  C   UNL     1     172.016 158.287 151.003  1.00  0.00     0.226 A 
ATOM      6  N   UNL     1     170.771 157.890 151.420  1.00  0.00    -0.217 NA
ATOM      7  C   UNL     1     170.481 157.730 152.745  1.00  0.00     0.152 A 
ATOM      8  C   UNL     1     171.499 157.988 153.659  1.00  0.00     0.127 A 
ATOM      9  N   UNL     1     171.508 157.918 154.996  1.00  0.00    -0.340 N 
ATOM     10  H   UNL     1     170.732 157.650 155.640  1.00  0.00     0.168 HD
ENDROOT
BRANCH   7  11
ATOM     11  N   UNL     1     169.177 157.315 153.157  1.00  0.00    -0.382 N 
ATOM     12  H   UNL     1     168.490 157.992 153.551  1.00  0.00     0.158 HD
ATOM     13  H   UNL     1     168.896 156.314 153.064  1.00  0.00     0.158 HD
ENDBRANCH   7  11
TORSDOF 1
ENDMDL
MODEL 8
REMARK VINA RESULT:    -3.625     19.522     20.471
REMARK INTER + INTRA:          -3.731
REMARK INTER:                  -3.731
REMARK INTRA:                   0.000
REMARK UNBOUND:                 0.000
REMARK SMILES Nc1ncnc2nc[nH]c12
REMARK SMILES IDX 8 1 7 2 6 3 5 4 4 5 3 6 2 7 10 8 9 9 1 11
REMARK H PARENT 9 10 1 12 1 13
REMARK Flexibility Score: inf
ROOT
ATOM      1  C   UNL     1     158.805 160.919 152.080  1.00  0.00     0.199 A 
ATOM      2  N   UNL     1     159.529 160.525 150.996  1.00  0.00    -0.217 NA
ATOM      3  C   UNL     1     159.981 159.319 151.378  1.00  0.00     0.182 A 
ATOM      4  N   UNL     1     160.765 158.484 150.654  1.00  0.00    -0.215 NA
ATOM      5  C   UNL     1     161.125 157.290 151.215  1.00  0.00     0.226 A 
ATOM      6  N   UNL     1     160.700 156.956 152.476  1.00  0.00    -0.217 NA
ATOM      7  C   UNL     1     159.909 157.797 153.207  1.00  0.00     0.152 A 
ATOM      8  C   UNL     1     159.551 159.009 152.623  1.00  0.00     0.127 A 
ATOM      9  N   UNL     1     158.800 160.013 153.091  1.00  0.00    -0.340 N 
ATOM     10  H   UNL     1     158.318 160.092 154.013  1.00  0.00     0.168 HD
ENDROOT
BRANCH   7  11
ATOM     11  N   UNL     1     159.479 157.429 154.518  1.00  0.00    -0.382 N 
ATOM     12  H   UNL     1     158.537 157.012 154.685  1.00  0.00     0.158 HD
ATOM     13  H   UNL     1     160.112 157.574 155.335  1.00  0.00     0.158 HD
ENDBRANCH   7  11
TORSDOF 1
ENDMDL
MODEL 9
REMARK VINA RESULT:    -3.586      3.206      5.028
REMARK INTER + INTRA:          -3.691
REMARK INTER:                  -3.691
REMARK INTRA:                   0.000
REMARK UNBOUND:                 0.000
REMARK SMILES Nc1ncnc2nc[nH]c12
REMARK SMILES IDX 8 1 7 2 6 3 5 4 4 5 3 6 2 7 10 8 9 9 1 11
REMARK H PARENT 9 10 1 12 1 13
REMARK Flexibility Score: inf
ROOT
ATOM      1  C   UNL     1     174.390 165.566 152.217  1.00  0.00     0.199 A 
ATOM      2  N   UNL     1     174.012 166.222 151.085  1.00  0.00    -0.217 NA
ATOM      3  C   UNL     1     174.414 167.479 151.336  1.00  0.00     0.182 A 
ATOM      4  N   UNL     1     174.277 168.550 150.518  1.00  0.00    -0.215 NA
ATOM      5  C   UNL     1     174.753 169.757 150.950  1.00  0.00     0.226 A 
ATOM      6  N   UNL     1     175.352 169.870 152.179  1.00  0.00    -0.217 NA
ATOM      7  C   UNL     1     175.492 168.791 153.005  1.00  0.00     0.152 A 
ATOM      8  C   UNL     1     175.002 167.570 152.551  1.00  0.00     0.127 A 
ATOM      9  N   UNL     1     174.998 166.364 153.132  1.00  0.00    -0.340 N 
ATOM     10  H   UNL     1     175.372 166.087 154.066  1.00  0.00     0.168 HD
ENDROOT
BRANCH   7  11
ATOM     11  N   UNL     1     176.118 168.932 154.281  1.00  0.00    -0.382 N 
ATOM     12  H   UNL     1     177.065 168.536 154.469  1.00  0.00     0.158 HD
ATOM     13  H   UNL     1     175.629 169.443 155.049  1.00  0.00     0.158 HD
ENDBRANCH   7  11
TORSDOF 1
ENDMDL
