MODEL 1
REMARK VINA RESULT:    -6.950      0.000      0.000
REMARK INTER + INTRA:          -7.612
REMARK INTER:                  -7.356
REMARK INTRA:                  -0.256
REMARK UNBOUND:                -0.256
REMARK SMILES O=c1cc(-c2ccccc2)oc2ccccc12
REMARK SMILES IDX 4 1 3 2 2 3 1 4 17 5 16 6 15 7 14 8 13 9 12 10 11 11 5 12
REMARK SMILES IDX 8 13 7 14 9 15 6 16 10 17
REMARK H PARENT
REMARK Flexibility Score: inf
ROOT
ATOM      1  C   UNL     1      -4.668  -6.338   5.630  1.00  0.00     0.138 A 
ATOM      2  C   UNL     1      -5.656  -5.613   4.930  1.00  0.00     0.100 A 
ATOM      3  C   UNL     1      -6.236  -4.490   5.524  1.00  0.00     0.193 A 
ATOM      4  O   UNL     1      -7.119  -3.842   4.898  1.00  0.00    -0.289 OA
ATOM      5  C   UNL     1      -5.828  -4.100   6.807  1.00  0.00     0.065 A 
ATOM      6  C   UNL     1      -6.371  -2.979   7.462  1.00  0.00     0.016 A 
ATOM      7  C   UNL     1      -5.927  -2.634   8.743  1.00  0.00     0.001 A 
ATOM      8  C   UNL     1      -4.944  -3.399   9.376  1.00  0.00     0.004 A 
ATOM      9  C   UNL     1      -4.399  -4.514   8.733  1.00  0.00     0.048 A 
ATOM     10  C   UNL     1      -4.836  -4.869   7.452  1.00  0.00     0.138 A 
ATOM     11  O   UNL     1      -4.311  -5.930   6.848  1.00  0.00    -0.456 OA
ENDROOT
BRANCH   1  12
ATOM     12  C   UNL     1      -3.998  -7.551   5.067  1.00  0.00     0.017 A 
ATOM     13  C   UNL     1      -2.816  -9.859   3.951  1.00  0.00     0.000 A 
ATOM     14  C   UNL     1      -4.124  -9.512   3.614  1.00  0.00     0.001 A 
ATOM     15  C   UNL     1      -2.092  -9.064   4.840  1.00  0.00     0.001 A 
ATOM     16  C   UNL     1      -4.712  -8.370   4.165  1.00  0.00     0.012 A 
ATOM     17  C   UNL     1      -2.673  -7.919   5.396  1.00  0.00     0.012 A 
ENDBRANCH   1  12
TORSDOF 1
ENDMDL
MODEL 2
REMARK VINA RESULT:    -6.905      1.343      1.797
REMARK INTER + INTRA:          -7.564
REMARK INTER:                  -7.299
REMARK INTRA:                  -0.265
REMARK UNBOUND:                -0.256
REMARK SMILES O=c1cc(-c2ccccc2)oc2ccccc12
REMARK SMILES IDX 4 1 3 2 2 3 1 4 17 5 16 6 15 7 14 8 13 9 12 10 11 11 5 12
REMARK SMILES IDX 8 13 7 14 9 15 6 16 10 17
REMARK H PARENT
REMARK Flexibility Score: inf
ROOT
ATOM      1  C   UNL     1      -5.413  -6.014   5.233  1.00  0.00     0.138 A 
ATOM      2  C   UNL     1      -6.548  -5.965   4.395  1.00  0.00     0.100 A 
ATOM      3  C   UNL     1      -7.433  -4.890   4.498  1.00  0.00     0.193 A 
ATOM      4  O   UNL     1      -8.447  -4.845   3.749  1.00  0.00    -0.289 OA
ATOM      5  C   UNL     1      -7.181  -3.875   5.432  1.00  0.00     0.065 A 
ATOM      6  C   UNL     1      -8.032  -2.765   5.587  1.00  0.00     0.016 A 
ATOM      7  C   UNL     1      -7.733  -1.781   6.535  1.00  0.00     0.001 A 
ATOM      8  C   UNL     1      -6.591  -1.896   7.331  1.00  0.00     0.004 A 
ATOM      9  C   UNL     1      -5.740  -2.996   7.185  1.00  0.00     0.048 A 
ATOM     10  C   UNL     1      -6.029  -3.986   6.239  1.00  0.00     0.138 A 
ATOM     11  O   UNL     1      -5.214  -5.027   6.107  1.00  0.00    -0.456 OA
ENDROOT
BRANCH   1  12
ATOM     12  C   UNL     1      -4.417  -7.128   5.187  1.00  0.00     0.017 A 
ATOM     13  C   UNL     1      -2.598  -9.282   5.039  1.00  0.00     0.000 A 
ATOM     14  C   UNL     1      -3.805  -9.339   4.342  1.00  0.00     0.001 A 
ATOM     15  C   UNL     1      -2.290  -8.160   5.808  1.00  0.00     0.001 A 
ATOM     16  C   UNL     1      -4.708  -8.274   4.414  1.00  0.00     0.012 A 
ATOM     17  C   UNL     1      -3.188  -7.090   5.885  1.00  0.00     0.012 A 
ENDBRANCH   1  12
TORSDOF 1
ENDMDL
MODEL 3
REMARK VINA RESULT:    -6.693      1.153      2.397
REMARK INTER + INTRA:          -7.341
REMARK INTER:                  -7.081
REMARK INTRA:                  -0.260
REMARK UNBOUND:                -0.256
REMARK SMILES O=c1cc(-c2ccccc2)oc2ccccc12
REMARK SMILES IDX 4 1 3 2 2 3 1 4 17 5 16 6 15 7 14 8 13 9 12 10 11 11 5 12
REMARK SMILES IDX 8 13 7 14 9 15 6 16 10 17
REMARK H PARENT
REMARK Flexibility Score: inf
ROOT
ATOM      1  C   UNL     1      -4.597  -6.215   5.931  1.00  0.00     0.138 A 
ATOM      2  C   UNL     1      -4.096  -5.710   7.150  1.00  0.00     0.100 A 
ATOM      3  C   UNL     1      -4.673  -4.568   7.710  1.00  0.00     0.193 A 
ATOM      4  O   UNL     1      -4.225  -4.117   8.800  1.00  0.00    -0.289 OA
ATOM      5  C   UNL     1      -5.741  -3.941   7.054  1.00  0.00     0.065 A 
ATOM      6  C   UNL     1      -6.366  -2.788   7.565  1.00  0.00     0.016 A 
ATOM      7  C   UNL     1      -7.428  -2.202   6.869  1.00  0.00     0.001 A 
ATOM      8  C   UNL     1      -7.872  -2.758   5.666  1.00  0.00     0.004 A 
ATOM      9  C   UNL     1      -7.257  -3.903   5.151  1.00  0.00     0.048 A 
ATOM     10  C   UNL     1      -6.193  -4.497   5.839  1.00  0.00     0.138 A 
ATOM     11  O   UNL     1      -5.615  -5.586   5.342  1.00  0.00    -0.456 OA
ENDROOT
BRANCH   1  12
ATOM     12  C   UNL     1      -4.039  -7.431   5.264  1.00  0.00     0.017 A 
ATOM     13  C   UNL     1      -3.071  -9.738   3.957  1.00  0.00     0.000 A 
ATOM     14  C   UNL     1      -4.372  -9.297   3.721  1.00  0.00     0.001 A 
ATOM     15  C   UNL     1      -2.247  -9.038   4.838  1.00  0.00     0.001 A 
ATOM     16  C   UNL     1      -4.854  -8.155   4.367  1.00  0.00     0.012 A 
ATOM     17  C   UNL     1      -2.722  -7.894   5.489  1.00  0.00     0.012 A 
ENDBRANCH   1  12
TORSDOF 1
ENDMDL
MODEL 4
REMARK VINA RESULT:    -6.598      1.416      5.908
REMARK INTER + INTRA:          -7.239
REMARK INTER:                  -7.014
REMARK INTRA:                  -0.226
REMARK UNBOUND:                -0.256
REMARK SMILES O=c1cc(-c2ccccc2)oc2ccccc12
REMARK SMILES IDX 4 1 3 2 2 3 1 4 17 5 16 6 15 7 14 8 13 9 12 10 11 11 5 12
REMARK SMILES IDX 8 13 7 14 9 15 6 16 10 17
REMARK H PARENT
REMARK Flexibility Score: inf
ROOT
ATOM      1  C   UNL     1      -5.190  -6.149   6.624  1.00  0.00     0.138 A 
ATOM      2  C   UNL     1      -6.245  -6.672   5.847  1.00  0.00     0.100 A 
ATOM      3  C   UNL     1      -5.976  -7.661   4.897  1.00  0.00     0.193 A 
ATOM      4  O   UNL     1      -6.919  -8.128   4.202  1.00  0.00    -0.289 OA
ATOM      5  C   UNL     1      -4.662  -8.119   4.732  1.00  0.00     0.065 A 
ATOM      6  C   UNL     1      -4.322  -9.112   3.794  1.00  0.00     0.016 A 
ATOM      7  C   UNL     1      -2.994  -9.533   3.670  1.00  0.00     0.001 A 
ATOM      8  C   UNL     1      -2.000  -8.969   4.474  1.00  0.00     0.004 A 
ATOM      9  C   UNL     1      -2.328  -7.982   5.408  1.00  0.00     0.048 A 
ATOM     10  C   UNL     1      -3.653  -7.553   5.541  1.00  0.00     0.138 A 
ATOM     11  O   UNL     1      -3.955  -6.615   6.432  1.00  0.00    -0.456 OA
ENDROOT
BRANCH   1  12
ATOM     12  C   UNL     1      -5.392  -5.091   7.661  1.00  0.00     0.017 A 
ATOM     13  C   UNL     1      -5.765  -3.162   9.689  1.00  0.00     0.000 A 
ATOM     14  C   UNL     1      -5.578  -4.503  10.025  1.00  0.00     0.001 A 
ATOM     15  C   UNL     1      -5.766  -2.775   8.349  1.00  0.00     0.001 A 
ATOM     16  C   UNL     1      -5.393  -5.460   9.024  1.00  0.00     0.012 A 
ATOM     17  C   UNL     1      -5.582  -3.727   7.339  1.00  0.00     0.012 A 
ENDBRANCH   1  12
TORSDOF 1
ENDMDL
MODEL 5
REMARK VINA RESULT:    -6.539      1.760      5.990
REMARK INTER + INTRA:          -7.177
REMARK INTER:                  -6.919
REMARK INTRA:                  -0.258
REMARK UNBOUND:                -0.256
REMARK SMILES O=c1cc(-c2ccccc2)oc2ccccc12
REMARK SMILES IDX 4 1 3 2 2 3 1 4 17 5 16 6 15 7 14 8 13 9 12 10 11 11 5 12
REMARK SMILES IDX 8 13 7 14 9 15 6 16 10 17
REMARK H PARENT
REMARK Flexibility Score: inf
ROOT
ATOM      1  C   UNL     1      -6.148  -5.277   5.547  1.00  0.00     0.138 A 
ATOM      2  C   UNL     1      -7.000  -6.271   5.018  1.00  0.00     0.100 A 
ATOM      3  C   UNL     1      -6.480  -7.529   4.709  1.00  0.00     0.193 A 
ATOM      4  O   UNL     1      -7.241  -8.417   4.236  1.00  0.00    -0.289 OA
ATOM      5  C   UNL     1      -5.119  -7.787   4.928  1.00  0.00     0.065 A 
ATOM      6  C   UNL     1      -4.532  -9.033   4.638  1.00  0.00     0.016 A 
ATOM      7  C   UNL     1      -3.169  -9.237   4.877  1.00  0.00     0.001 A 
ATOM      8  C   UNL     1      -2.386  -8.206   5.402  1.00  0.00     0.004 A 
ATOM      9  C   UNL     1      -2.960  -6.965   5.693  1.00  0.00     0.048 A 
ATOM     10  C   UNL     1      -4.323  -6.750   5.459  1.00  0.00     0.138 A 
ATOM     11  O   UNL     1      -4.860  -5.567   5.739  1.00  0.00    -0.456 OA
ENDROOT
BRANCH   1  12
ATOM     12  C   UNL     1      -6.623  -3.906   5.905  1.00  0.00     0.017 A 
ATOM     13  C   UNL     1      -7.447  -1.310   6.648  1.00  0.00     0.000 A 
ATOM     14  C   UNL     1      -6.346  -1.898   7.270  1.00  0.00     0.001 A 
ATOM     15  C   UNL     1      -8.140  -2.005   5.657  1.00  0.00     0.001 A 
ATOM     16  C   UNL     1      -5.937  -3.183   6.905  1.00  0.00     0.012 A 
ATOM     17  C   UNL     1      -7.736  -3.292   5.285  1.00  0.00     0.012 A 
ENDBRANCH   1  12
TORSDOF 1
ENDMDL
MODEL 6
REMARK VINA RESULT:    -6.497      2.591      6.863
REMARK INTER + INTRA:          -7.133
REMARK INTER:                  -6.867
REMARK INTRA:                  -0.266
REMARK UNBOUND:                -0.256
REMARK SMILES O=c1cc(-c2ccccc2)oc2ccccc12
REMARK SMILES IDX 4 1 3 2 2 3 1 4 17 5 16 6 15 7 14 8 13 9 12 10 11 11 5 12
REMARK SMILES IDX 8 13 7 14 9 15 6 16 10 17
REMARK H PARENT
REMARK Flexibility Score: inf
ROOT
ATOM      1  C   UNL     1      -6.721  -2.500   6.799  1.00  0.00     0.138 A 
ATOM      2  C   UNL     1      -6.112  -2.543   8.072  1.00  0.00     0.100 A 
ATOM      3  C   UNL     1      -5.254  -3.599   8.388  1.00  0.00     0.193 A 
ATOM      4  O   UNL     1      -4.710  -3.638   9.525  1.00  0.00    -0.289 OA
ATOM      5  C   UNL     1      -5.010  -4.599   7.436  1.00  0.00     0.065 A 
ATOM      6  C   UNL     1      -4.157  -5.689   7.690  1.00  0.00     0.016 A 
ATOM      7  C   UNL     1      -3.949  -6.660   6.705  1.00  0.00     0.001 A 
ATOM      8  C   UNL     1      -4.586  -6.551   5.466  1.00  0.00     0.004 A 
ATOM      9  C   UNL     1      -5.435  -5.472   5.205  1.00  0.00     0.048 A 
ATOM     10  C   UNL     1      -5.651  -4.495   6.183  1.00  0.00     0.138 A 
ATOM     11  O   UNL     1      -6.459  -3.473   5.925  1.00  0.00    -0.456 OA
ENDROOT
BRANCH   1  12
ATOM     12  C   UNL     1      -7.650  -1.406   6.381  1.00  0.00     0.017 A 
ATOM     13  C   UNL     1      -9.390   0.704   5.678  1.00  0.00     0.000 A 
ATOM     14  C   UNL     1      -8.753   0.707   6.919  1.00  0.00     0.001 A 
ATOM     15  C   UNL     1      -9.165  -0.343   4.784  1.00  0.00     0.001 A 
ATOM     16  C   UNL     1      -7.892  -0.336   7.270  1.00  0.00     0.012 A 
ATOM     17  C   UNL     1      -8.304  -1.392   5.127  1.00  0.00     0.012 A 
ENDBRANCH   1  12
TORSDOF 1
ENDMDL
MODEL 7
REMARK VINA RESULT:    -6.388      1.642      6.218
REMARK INTER + INTRA:          -7.017
REMARK INTER:                  -6.797
REMARK INTRA:                  -0.221
REMARK UNBOUND:                -0.256
REMARK SMILES O=c1cc(-c2ccccc2)oc2ccccc12
REMARK SMILES IDX 4 1 3 2 2 3 1 4 17 5 16 6 15 7 14 8 13 9 12 10 11 11 5 12
REMARK SMILES IDX 8 13 7 14 9 15 6 16 10 17
REMARK H PARENT
REMARK Flexibility Score: inf
ROOT
ATOM      1  C   UNL     1      -5.197  -5.742   7.093  1.00  0.00     0.138 A 
ATOM      2  C   UNL     1      -3.858  -5.980   6.716  1.00  0.00     0.100 A 
ATOM      3  C   UNL     1      -3.570  -7.003   5.810  1.00  0.00     0.193 A 
ATOM      4  O   UNL     1      -2.373  -7.216   5.474  1.00  0.00    -0.289 OA
ATOM      5  C   UNL     1      -4.615  -7.777   5.287  1.00  0.00     0.065 A 
ATOM      6  C   UNL     1      -4.394  -8.822   4.371  1.00  0.00     0.016 A 
ATOM      7  C   UNL     1      -5.474  -9.563   3.880  1.00  0.00     0.001 A 
ATOM      8  C   UNL     1      -6.775  -9.271   4.298  1.00  0.00     0.004 A 
ATOM      9  C   UNL     1      -7.004  -8.235   5.208  1.00  0.00     0.048 A 
ATOM     10  C   UNL     1      -5.931  -7.487   5.706  1.00  0.00     0.138 A 
ATOM     11  O   UNL     1      -6.160  -6.503   6.570  1.00  0.00    -0.456 OA
ENDROOT
BRANCH   1  12
ATOM     12  C   UNL     1      -5.592  -4.669   8.056  1.00  0.00     0.017 A 
ATOM     13  C   UNL     1      -6.324  -2.707   9.949  1.00  0.00     0.000 A 
ATOM     14  C   UNL     1      -5.984  -3.992  10.371  1.00  0.00     0.001 A 
ATOM     15  C   UNL     1      -6.300  -2.391   8.591  1.00  0.00     0.001 A 
ATOM     16  C   UNL     1      -5.622  -4.965   9.436  1.00  0.00     0.012 A 
ATOM     17  C   UNL     1      -5.938  -3.360   7.648  1.00  0.00     0.012 A 
ENDBRANCH   1  12
TORSDOF 1
ENDMDL
MODEL 8
REMARK VINA RESULT:    -6.322      2.282      3.951
REMARK INTER + INTRA:          -6.947
REMARK INTER:                  -6.686
REMARK INTRA:                  -0.261
REMARK UNBOUND:                -0.256
REMARK SMILES O=c1cc(-c2ccccc2)oc2ccccc12
REMARK SMILES IDX 4 1 3 2 2 3 1 4 17 5 16 6 15 7 14 8 13 9 12 10 11 11 5 12
REMARK SMILES IDX 8 13 7 14 9 15 6 16 10 17
REMARK H PARENT
REMARK Flexibility Score: inf
ROOT
ATOM      1  C   UNL     1      -6.002  -4.052   6.740  1.00  0.00     0.138 A 
ATOM      2  C   UNL     1      -5.846  -3.744   8.108  1.00  0.00     0.100 A 
ATOM      3  C   UNL     1      -6.371  -2.550   8.608  1.00  0.00     0.193 A 
ATOM      4  O   UNL     1      -6.232  -2.274   9.831  1.00  0.00    -0.289 OA
ATOM      5  C   UNL     1      -7.046  -1.677   7.743  1.00  0.00     0.065 A 
ATOM      6  C   UNL     1      -7.599  -0.459   8.182  1.00  0.00     0.016 A 
ATOM      7  C   UNL     1      -8.262   0.375   7.276  1.00  0.00     0.001 A 
ATOM      8  C   UNL     1      -8.378   0.004   5.934  1.00  0.00     0.004 A 
ATOM      9  C   UNL     1      -7.832  -1.204   5.489  1.00  0.00     0.048 A 
ATOM     10  C   UNL     1      -7.166  -2.046   6.386  1.00  0.00     0.138 A 
ATOM     11  O   UNL     1      -6.651  -3.192   5.954  1.00  0.00    -0.456 OA
ENDROOT
BRANCH   1  12
ATOM     12  C   UNL     1      -5.471  -5.307   6.125  1.00  0.00     0.017 A 
ATOM     13  C   UNL     1      -4.404  -7.686   5.040  1.00  0.00     0.000 A 
ATOM     14  C   UNL     1      -3.909  -7.183   6.243  1.00  0.00     0.001 A 
ATOM     15  C   UNL     1      -5.428  -7.013   4.374  1.00  0.00     0.001 A 
ATOM     16  C   UNL     1      -4.434  -6.006   6.782  1.00  0.00     0.012 A 
ATOM     17  C   UNL     1      -5.960  -5.833   4.907  1.00  0.00     0.012 A 
ENDBRANCH   1  12
TORSDOF 1
ENDMDL
MODEL 9
REMARK VINA RESULT:    -6.234      2.430      6.635
REMARK INTER + INTRA:          -6.854
REMARK INTER:                  -6.593
REMARK INTRA:                  -0.261
REMARK UNBOUND:                -0.256
REMARK SMILES O=c1cc(-c2ccccc2)oc2ccccc12
REMARK SMILES IDX 4 1 3 2 2 3 1 4 17 5 16 6 15 7 14 8 13 9 12 10 11 11 5 12
REMARK SMILES IDX 8 13 7 14 9 15 6 16 10 17
REMARK H PARENT
REMARK Flexibility Score: inf
ROOT
ATOM      1  C   UNL     1      -7.042  -2.795   6.292  1.00  0.00     0.138 A 
ATOM      2  C   UNL     1      -7.522  -3.573   5.217  1.00  0.00     0.100 A 
ATOM      3  C   UNL     1      -7.033  -4.868   5.032  1.00  0.00     0.193 A 
ATOM      4  O   UNL     1      -7.462  -5.563   4.070  1.00  0.00    -0.289 OA
ATOM      5  C   UNL     1      -6.072  -5.376   5.918  1.00  0.00     0.065 A 
ATOM      6  C   UNL     1      -5.538  -6.671   5.788  1.00  0.00     0.016 A 
ATOM      7  C   UNL     1      -4.582  -7.129   6.700  1.00  0.00     0.001 A 
ATOM      8  C   UNL     1      -4.153  -6.302   7.742  1.00  0.00     0.004 A 
ATOM      9  C   UNL     1      -4.677  -5.013   7.879  1.00  0.00     0.048 A 
ATOM     10  C   UNL     1      -5.635  -4.545   6.972  1.00  0.00     0.138 A 
ATOM     11  O   UNL     1      -6.129  -3.320   7.110  1.00  0.00    -0.456 OA
ENDROOT
BRANCH   1  12
ATOM     12  C   UNL     1      -7.513  -1.402   6.561  1.00  0.00     0.017 A 
ATOM     13  C   UNL     1      -8.370   1.220   7.163  1.00  0.00     0.000 A 
ATOM     14  C   UNL     1      -7.771   0.437   8.149  1.00  0.00     0.001 A 
ATOM     15  C   UNL     1      -8.544   0.706   5.878  1.00  0.00     0.001 A 
ATOM     16  C   UNL     1      -7.346  -0.861   7.855  1.00  0.00     0.012 A 
ATOM     17  C   UNL     1      -8.121  -0.593   5.574  1.00  0.00     0.012 A 
ENDBRANCH   1  12
TORSDOF 1
ENDMDL
