MODEL 1
REMARK VINA RESULT:    -3.429      0.000      0.000
REMARK INTER + INTRA:          -7.017
REMARK INTER:                  -5.433
REMARK INTRA:                  -1.583
REMARK UNBOUND:                -1.583
REMARK SMILES CCCCCCCCCCCC(=O)[O-]
REMARK SMILES IDX 7 1 8 2 9 3 10 4 11 5 12 6 13 7 14 8 6 9 5 10 4 11 3 12 2 13
REMARK SMILES IDX 1 14
REMARK H PARENT
REMARK Flexibility Score: inf
ROOT
ATOM      1  C   UNL     1      -2.631   8.188  39.315  1.00  0.00     0.000 C 
ENDROOT
BRANCH   1   2
ATOM      2  C   UNL     1      -2.305   9.415  38.440  1.00  0.00     0.000 C 
BRANCH   2   3
ATOM      3  C   UNL     1      -1.684   9.058  37.070  1.00  0.00     0.000 C 
BRANCH   3   4
ATOM      4  C   UNL     1      -1.446   7.550  36.879  1.00  0.00     0.006 C 
BRANCH   4   5
ATOM      5  C   UNL     1      -0.008   7.227  36.458  1.00  0.00     0.053 C 
BRANCH   5   6
ATOM      6  C   UNL     1       0.187   7.505  35.002  1.00  0.00     0.041 C 
ATOM      7  O   UNL     1       0.831   8.522  34.631  1.00  0.00    -0.550 OA
ATOM      8  O   UNL     1      -0.300   6.615  34.052  1.00  0.00    -0.550 OA
ENDBRANCH   5   6
ENDBRANCH   4   5
ENDBRANCH   3   4
ENDBRANCH   2   3
ENDBRANCH   1   2
BRANCH   1   9
ATOM      9  C   UNL     1      -1.737   8.010  40.561  1.00  0.00     0.000 C 
BRANCH   9  10
ATOM     10  C   UNL     1      -0.579   7.005  40.415  1.00  0.00    -0.000 C 
BRANCH  10  11
ATOM     11  C   UNL     1       0.801   7.682  40.381  1.00  0.00    -0.000 C 
BRANCH  11  12
ATOM     12  C   UNL     1       0.737   9.190  40.682  1.00  0.00    -0.000 C 
BRANCH  12  13
ATOM     13  C   UNL     1       1.044  10.108  39.486  1.00  0.00    -0.003 C 
ATOM     14  C   UNL     1       1.969   9.463  38.456  1.00  0.00     0.004 C 
ENDBRANCH  12  13
ENDBRANCH  11  12
ENDBRANCH  10  11
ENDBRANCH   9  10
ENDBRANCH   1   9
TORSDOF 10
ENDMDL
MODEL 2
REMARK VINA RESULT:    -3.418      3.501      5.619
REMARK INTER + INTRA:          -6.999
REMARK INTER:                  -5.588
REMARK INTRA:                  -1.411
REMARK UNBOUND:                -1.583
REMARK SMILES CCCCCCCCCCCC(=O)[O-]
REMARK SMILES IDX 7 1 8 2 9 3 10 4 11 5 12 6 13 7 14 8 6 9 5 10 4 11 3 12 2 13
REMARK SMILES IDX 1 14
REMARK H PARENT
REMARK Flexibility Score: inf
ROOT
ATOM      1  C   UNL     1       1.169   9.257  37.601  1.00  0.00     0.000 C 
ENDROOT
BRANCH   1   2
ATOM      2  C   UNL     1       1.718   9.973  38.852  1.00  0.00     0.000 C 
BRANCH   2   3
ATOM      3  C   UNL     1       0.699  10.074  40.010  1.00  0.00     0.000 C 
BRANCH   3   4
ATOM      4  C   UNL     1       0.643   8.814  40.889  1.00  0.00     0.006 C 
BRANCH   4   5
ATOM      5  C   UNL     1      -0.008   9.072  42.253  1.00  0.00     0.053 C 
BRANCH   5   6
ATOM      6  C   UNL     1      -0.946   7.962  42.604  1.00  0.00     0.041 C 
ATOM      7  O   UNL     1      -2.170   8.199  42.785  1.00  0.00    -0.550 OA
ATOM      8  O   UNL     1      -0.480   6.655  42.681  1.00  0.00    -0.550 OA
ENDBRANCH   5   6
ENDBRANCH   4   5
ENDBRANCH   3   4
ENDBRANCH   2   3
ENDBRANCH   1   2
BRANCH   1   9
ATOM      9  C   UNL     1      -0.106   9.877  36.991  1.00  0.00     0.000 C 
BRANCH   9  10
ATOM     10  C   UNL     1      -1.381   9.020  37.095  1.00  0.00    -0.000 C 
BRANCH  10  11
ATOM     11  C   UNL     1      -2.385   9.562  38.126  1.00  0.00    -0.000 C 
BRANCH  11  12
ATOM     12  C   UNL     1      -2.654   8.575  39.277  1.00  0.00    -0.000 C 
BRANCH  12  13
ATOM     13  C   UNL     1      -2.164   7.136  39.031  1.00  0.00    -0.003 C 
ATOM     14  C   UNL     1      -2.834   6.111  39.943  1.00  0.00     0.004 C 
ENDBRANCH  12  13
ENDBRANCH  11  12
ENDBRANCH  10  11
ENDBRANCH   9  10
ENDBRANCH   1   9
TORSDOF 10
ENDMDL
MODEL 3
REMARK VINA RESULT:    -3.375      1.637      2.218
REMARK INTER + INTRA:          -6.932
REMARK INTER:                  -5.528
REMARK INTRA:                  -1.403
REMARK UNBOUND:                -1.583
REMARK SMILES CCCCCCCCCCCC(=O)[O-]
REMARK SMILES IDX 7 1 8 2 9 3 10 4 11 5 12 6 13 7 14 8 6 9 5 10 4 11 3 12 2 13
REMARK SMILES IDX 1 14
REMARK H PARENT
REMARK Flexibility Score: inf
ROOT
ATOM      1  C   UNL     1      -2.867   7.032  39.732  1.00  0.00     0.000 C 
ENDROOT
BRANCH   1   2
ATOM      2  C   UNL     1      -2.208   7.770  38.548  1.00  0.00     0.000 C 
BRANCH   2   3
ATOM      3  C   UNL     1      -2.299   9.310  38.644  1.00  0.00     0.000 C 
BRANCH   3   4
ATOM      4  C   UNL     1      -1.862  10.031  37.358  1.00  0.00     0.006 C 
BRANCH   4   5
ATOM      5  C   UNL     1      -1.415   9.062  36.258  1.00  0.00     0.053 C 
BRANCH   5   6
ATOM      6  C   UNL     1       0.017   9.300  35.900  1.00  0.00     0.041 C 
ATOM      7  O   UNL     1       0.363   9.385  34.692  1.00  0.00    -0.550 OA
ATOM      8  O   UNL     1       0.964   9.480  36.901  1.00  0.00    -0.550 OA
ENDBRANCH   5   6
ENDBRANCH   4   5
ENDBRANCH   3   4
ENDBRANCH   2   3
ENDBRANCH   1   2
BRANCH   1   9
ATOM      9  C   UNL     1      -3.016   7.861  41.025  1.00  0.00     0.000 C 
BRANCH   9  10
ATOM     10  C   UNL     1      -2.305   7.294  42.268  1.00  0.00    -0.000 C 
BRANCH  10  11
ATOM     11  C   UNL     1      -0.780   7.483  42.225  1.00  0.00    -0.000 C 
BRANCH  11  12
ATOM     12  C   UNL     1      -0.363   8.908  41.819  1.00  0.00    -0.000 C 
BRANCH  12  13
ATOM     13  C   UNL     1       0.689   8.986  40.699  1.00  0.00    -0.003 C 
ATOM     14  C   UNL     1       1.074   7.618  40.140  1.00  0.00     0.004 C 
ENDBRANCH  12  13
ENDBRANCH  11  12
ENDBRANCH  10  11
ENDBRANCH   9  10
ENDBRANCH   1   9
TORSDOF 10
ENDMDL
MODEL 4
REMARK VINA RESULT:    -3.369      2.929      4.254
REMARK INTER + INTRA:          -6.922
REMARK INTER:                  -5.370
REMARK INTRA:                  -1.551
REMARK UNBOUND:                -1.583
REMARK SMILES CCCCCCCCCCCC(=O)[O-]
REMARK SMILES IDX 7 1 8 2 9 3 10 4 11 5 12 6 13 7 14 8 6 9 5 10 4 11 3 12 2 13
REMARK SMILES IDX 1 14
REMARK H PARENT
REMARK Flexibility Score: inf
ROOT
ATOM      1  C   UNL     1      -0.393   9.908  35.793  1.00  0.00     0.000 C 
ENDROOT
BRANCH   1   2
ATOM      2  C   UNL     1      -1.585   9.237  36.504  1.00  0.00     0.000 C 
BRANCH   2   3
ATOM      3  C   UNL     1      -2.156  10.063  37.679  1.00  0.00     0.000 C 
BRANCH   3   4
ATOM      4  C   UNL     1      -2.340   9.248  38.970  1.00  0.00     0.006 C 
BRANCH   4   5
ATOM      5  C   UNL     1      -2.411   7.739  38.712  1.00  0.00     0.053 C 
BRANCH   5   6
ATOM      6  C   UNL     1      -3.123   7.049  39.831  1.00  0.00     0.041 C 
ATOM      7  O   UNL     1      -3.296   7.636  40.932  1.00  0.00    -0.550 OA
ATOM      8  O   UNL     1      -3.643   5.774  39.643  1.00  0.00    -0.550 OA
ENDBRANCH   5   6
ENDBRANCH   4   5
ENDBRANCH   3   4
ENDBRANCH   2   3
ENDBRANCH   1   2
BRANCH   1   9
ATOM      9  C   UNL     1       0.759   8.958  35.398  1.00  0.00     0.000 C 
BRANCH   9  10
ATOM     10  C   UNL     1       0.906   7.691  36.260  1.00  0.00    -0.000 C 
BRANCH  10  11
ATOM     11  C   UNL     1       1.877   7.875  37.438  1.00  0.00    -0.000 C 
BRANCH  11  12
ATOM     12  C   UNL     1       1.226   7.585  38.802  1.00  0.00    -0.000 C 
BRANCH  12  13
ATOM     13  C   UNL     1       1.081   8.805  39.729  1.00  0.00    -0.003 C 
ATOM     14  C   UNL     1       1.426  10.125  39.041  1.00  0.00     0.004 C 
ENDBRANCH  12  13
ENDBRANCH  11  12
ENDBRANCH  10  11
ENDBRANCH   9  10
ENDBRANCH   1   9
TORSDOF 10
ENDMDL
MODEL 5
REMARK VINA RESULT:    -3.355      1.610      2.701
REMARK INTER + INTRA:          -6.900
REMARK INTER:                  -5.188
REMARK INTRA:                  -1.712
REMARK UNBOUND:                -1.583
REMARK SMILES CCCCCCCCCCCC(=O)[O-]
REMARK SMILES IDX 7 1 8 2 9 3 10 4 11 5 12 6 13 7 14 8 6 9 5 10 4 11 3 12 2 13
REMARK SMILES IDX 1 14
REMARK H PARENT
REMARK Flexibility Score: inf
ROOT
ATOM      1  C   UNL     1      -2.958   7.798  40.078  1.00  0.00     0.000 C 
ENDROOT
BRANCH   1   2
ATOM      2  C   UNL     1      -3.371   6.372  39.662  1.00  0.00     0.000 C 
BRANCH   2   3
ATOM      3  C   UNL     1      -2.175   5.435  39.376  1.00  0.00     0.000 C 
BRANCH   3   4
ATOM      4  C   UNL     1      -1.871   5.269  37.877  1.00  0.00     0.006 C 
BRANCH   4   5
ATOM      5  C   UNL     1      -0.543   5.914  37.468  1.00  0.00     0.053 C 
BRANCH   5   6
ATOM      6  C   UNL     1      -0.747   6.851  36.321  1.00  0.00     0.041 C 
ATOM      7  O   UNL     1       0.040   7.818  36.143  1.00  0.00    -0.550 OA
ATOM      8  O   UNL     1      -1.778   6.628  35.415  1.00  0.00    -0.550 OA
ENDBRANCH   5   6
ENDBRANCH   4   5
ENDBRANCH   3   4
ENDBRANCH   2   3
ENDBRANCH   1   2
BRANCH   1   9
ATOM      9  C   UNL     1      -2.617   8.753  38.914  1.00  0.00     0.000 C 
BRANCH   9  10
ATOM     10  C   UNL     1      -1.234   9.426  38.984  1.00  0.00    -0.000 C 
BRANCH  10  11
ATOM     11  C   UNL     1      -0.462   9.079  40.267  1.00  0.00    -0.000 C 
BRANCH  11  12
ATOM     12  C   UNL     1       0.854   8.330  39.991  1.00  0.00    -0.000 C 
BRANCH  12  13
ATOM     13  C   UNL     1       0.990   6.968  40.696  1.00  0.00    -0.003 C 
ATOM     14  C   UNL     1       0.178   6.877  41.986  1.00  0.00     0.004 C 
ENDBRANCH  12  13
ENDBRANCH  11  12
ENDBRANCH  10  11
ENDBRANCH   9  10
ENDBRANCH   1   9
TORSDOF 10
ENDMDL
MODEL 6
REMARK VINA RESULT:    -3.325      2.784      3.814
REMARK INTER + INTRA:          -6.852
REMARK INTER:                  -5.184
REMARK INTRA:                  -1.668
REMARK UNBOUND:                -1.583
REMARK SMILES CCCCCCCCCCCC(=O)[O-]
REMARK SMILES IDX 7 1 8 2 9 3 10 4 11 5 12 6 13 7 14 8 6 9 5 10 4 11 3 12 2 13
REMARK SMILES IDX 1 14
REMARK H PARENT
REMARK Flexibility Score: inf
ROOT
ATOM      1  C   UNL     1      -0.724   9.664  37.973  1.00  0.00     0.000 C 
ENDROOT
BRANCH   1   2
ATOM      2  C   UNL     1      -1.997   8.794  37.956  1.00  0.00     0.000 C 
BRANCH   2   3
ATOM      3  C   UNL     1      -2.662   8.633  39.342  1.00  0.00     0.000 C 
BRANCH   3   4
ATOM      4  C   UNL     1      -2.938   7.169  39.723  1.00  0.00     0.006 C 
BRANCH   4   5
ATOM      5  C   UNL     1      -2.307   6.173  38.744  1.00  0.00     0.053 C 
BRANCH   5   6
ATOM      6  C   UNL     1      -1.918   4.915  39.454  1.00  0.00     0.041 C 
ATOM      7  O   UNL     1      -2.431   4.631  40.568  1.00  0.00    -0.550 OA
ATOM      8  O   UNL     1      -1.026   4.030  38.861  1.00  0.00    -0.550 OA
ENDBRANCH   5   6
ENDBRANCH   4   5
ENDBRANCH   3   4
ENDBRANCH   2   3
ENDBRANCH   1   2
BRANCH   1   9
ATOM      9  C   UNL     1      -0.259  10.125  39.371  1.00  0.00     0.000 C 
BRANCH   9  10
ATOM     10  C   UNL     1       1.059   9.508  39.875  1.00  0.00    -0.000 C 
BRANCH  10  11
ATOM     11  C   UNL     1       0.840   8.330  40.839  1.00  0.00    -0.000 C 
BRANCH  11  12
ATOM     12  C   UNL     1       1.130   6.964  40.191  1.00  0.00    -0.000 C 
BRANCH  12  13
ATOM     13  C   UNL     1       1.947   7.019  38.888  1.00  0.00    -0.003 C 
ATOM     14  C   UNL     1       1.231   6.373  37.704  1.00  0.00     0.004 C 
ENDBRANCH  12  13
ENDBRANCH  11  12
ENDBRANCH  10  11
ENDBRANCH   9  10
ENDBRANCH   1   9
TORSDOF 10
ENDMDL
MODEL 7
REMARK VINA RESULT:    -3.312      1.818      2.834
REMARK INTER + INTRA:          -6.831
REMARK INTER:                  -5.315
REMARK INTRA:                  -1.516
REMARK UNBOUND:                -1.583
REMARK SMILES CCCCCCCCCCCC(=O)[O-]
REMARK SMILES IDX 7 1 8 2 9 3 10 4 11 5 12 6 13 7 14 8 6 9 5 10 4 11 3 12 2 13
REMARK SMILES IDX 1 14
REMARK H PARENT
REMARK Flexibility Score: inf
ROOT
ATOM      1  C   UNL     1      -1.685   8.257  40.232  1.00  0.00     0.000 C 
ENDROOT
BRANCH   1   2
ATOM      2  C   UNL     1      -1.219   9.330  39.227  1.00  0.00     0.000 C 
BRANCH   2   3
ATOM      3  C   UNL     1      -2.173   9.516  38.025  1.00  0.00     0.000 C 
BRANCH   3   4
ATOM      4  C   UNL     1      -1.638   8.909  36.718  1.00  0.00     0.006 C 
BRANCH   4   5
ATOM      5  C   UNL     1      -0.804   9.903  35.902  1.00  0.00     0.053 C 
BRANCH   5   6
ATOM      6  C   UNL     1       0.543   9.330  35.596  1.00  0.00     0.041 C 
ATOM      7  O   UNL     1       1.383   9.155  36.518  1.00  0.00    -0.550 OA
ATOM      8  O   UNL     1       0.855   8.941  34.299  1.00  0.00    -0.550 OA
ENDBRANCH   5   6
ENDBRANCH   4   5
ENDBRANCH   3   4
ENDBRANCH   2   3
ENDBRANCH   1   2
BRANCH   1   9
ATOM      9  C   UNL     1      -3.031   7.579  39.896  1.00  0.00     0.000 C 
BRANCH   9  10
ATOM     10  C   UNL     1      -2.980   6.053  39.697  1.00  0.00    -0.000 C 
BRANCH  10  11
ATOM     11  C   UNL     1      -2.347   5.644  38.357  1.00  0.00    -0.000 C 
BRANCH  11  12
ATOM     12  C   UNL     1      -0.921   5.086  38.513  1.00  0.00    -0.000 C 
BRANCH  12  13
ATOM     13  C   UNL     1       0.185   5.929  37.854  1.00  0.00    -0.003 C 
ATOM     14  C   UNL     1       1.218   6.450  38.852  1.00  0.00     0.004 C 
ENDBRANCH  12  13
ENDBRANCH  11  12
ENDBRANCH  10  11
ENDBRANCH   9  10
ENDBRANCH   1   9
TORSDOF 10
ENDMDL
MODEL 8
REMARK VINA RESULT:    -3.304      1.634      3.230
REMARK INTER + INTRA:          -6.819
REMARK INTER:                  -5.435
REMARK INTRA:                  -1.384
REMARK UNBOUND:                -1.583
REMARK SMILES CCCCCCCCCCCC(=O)[O-]
REMARK SMILES IDX 7 1 8 2 9 3 10 4 11 5 12 6 13 7 14 8 6 9 5 10 4 11 3 12 2 13
REMARK SMILES IDX 1 14
REMARK H PARENT
REMARK Flexibility Score: inf
ROOT
ATOM      1  C   UNL     1      -0.278   8.848  39.613  1.00  0.00     0.000 C 
ENDROOT
BRANCH   1   2
ATOM      2  C   UNL     1      -0.911  10.072  38.922  1.00  0.00     0.000 C 
BRANCH   2   3
ATOM      3  C   UNL     1      -2.052   9.716  37.943  1.00  0.00     0.000 C 
BRANCH   3   4
ATOM      4  C   UNL     1      -1.568   8.995  36.673  1.00  0.00     0.006 C 
BRANCH   4   5
ATOM      5  C   UNL     1      -0.491   9.784  35.920  1.00  0.00     0.053 C 
BRANCH   5   6
ATOM      6  C   UNL     1       0.785   9.006  35.863  1.00  0.00     0.041 C 
ATOM      7  O   UNL     1       0.932   8.088  35.013  1.00  0.00    -0.550 OA
ATOM      8  O   UNL     1       1.834   9.328  36.716  1.00  0.00    -0.550 OA
ENDBRANCH   5   6
ENDBRANCH   4   5
ENDBRANCH   3   4
ENDBRANCH   2   3
ENDBRANCH   1   2
BRANCH   1   9
ATOM      9  C   UNL     1      -0.647   8.665  41.101  1.00  0.00     0.000 C 
BRANCH   9  10
ATOM     10  C   UNL     1      -1.580   7.481  41.417  1.00  0.00    -0.000 C 
BRANCH  10  11
ATOM     11  C   UNL     1      -3.004   7.676  40.871  1.00  0.00    -0.000 C 
BRANCH  11  12
ATOM     12  C   UNL     1      -3.348   6.699  39.733  1.00  0.00    -0.000 C 
BRANCH  12  13
ATOM     13  C   UNL     1      -2.296   5.606  39.469  1.00  0.00    -0.003 C 
ATOM     14  C   UNL     1      -1.847   5.545  38.011  1.00  0.00     0.004 C 
ENDBRANCH  12  13
ENDBRANCH  11  12
ENDBRANCH  10  11
ENDBRANCH   9  10
ENDBRANCH   1   9
TORSDOF 10
ENDMDL
MODEL 9
REMARK VINA RESULT:    -3.265      1.400      3.381
REMARK INTER + INTRA:          -6.757
REMARK INTER:                  -5.204
REMARK INTRA:                  -1.553
REMARK UNBOUND:                -1.583
REMARK SMILES CCCCCCCCCCCC(=O)[O-]
REMARK SMILES IDX 7 1 8 2 9 3 10 4 11 5 12 6 13 7 14 8 6 9 5 10 4 11 3 12 2 13
REMARK SMILES IDX 1 14
REMARK H PARENT
REMARK Flexibility Score: inf
ROOT
ATOM      1  C   UNL     1       1.085   8.600  39.188  1.00  0.00     0.000 C 
ENDROOT
BRANCH   1   2
ATOM      2  C   UNL     1       1.371   8.952  37.714  1.00  0.00     0.000 C 
BRANCH   2   3
ATOM      3  C   UNL     1       0.926   7.861  36.714  1.00  0.00     0.000 C 
BRANCH   3   4
ATOM      4  C   UNL     1      -0.131   8.346  35.707  1.00  0.00     0.006 C 
BRANCH   4   5
ATOM      5  C   UNL     1      -1.301   7.367  35.560  1.00  0.00     0.053 C 
BRANCH   5   6
ATOM      6  C   UNL     1      -0.850   6.108  34.890  1.00  0.00     0.041 C 
ATOM      7  O   UNL     1      -1.153   4.987  35.376  1.00  0.00    -0.550 OA
ATOM      8  O   UNL     1      -0.136   6.171  33.699  1.00  0.00    -0.550 OA
ENDBRANCH   5   6
ENDBRANCH   4   5
ENDBRANCH   3   4
ENDBRANCH   2   3
ENDBRANCH   1   2
BRANCH   1   9
ATOM      9  C   UNL     1      -0.052   9.408  39.850  1.00  0.00     0.000 C 
BRANCH   9  10
ATOM     10  C   UNL     1      -1.060  10.059  38.885  1.00  0.00    -0.000 C 
BRANCH  10  11
ATOM     11  C   UNL     1      -2.291   9.177  38.619  1.00  0.00    -0.000 C 
BRANCH  11  12
ATOM     12  C   UNL     1      -2.639   8.260  39.805  1.00  0.00    -0.000 C 
BRANCH  12  13
ATOM     13  C   UNL     1      -2.903   6.789  39.438  1.00  0.00    -0.003 C 
ATOM     14  C   UNL     1      -1.642   6.043  39.006  1.00  0.00     0.004 C 
ENDBRANCH  12  13
ENDBRANCH  11  12
ENDBRANCH  10  11
ENDBRANCH   9  10
ENDBRANCH   1   9
TORSDOF 10
ENDMDL
