MODEL 1
REMARK VINA RESULT:    -3.244      0.000      0.000
REMARK INTER + INTRA:          -4.275
REMARK INTER:                  -3.908
REMARK INTRA:                  -0.368
REMARK UNBOUND:                -0.368
REMARK SMILES Oc1cc(O)c2c(c1)O[C@H](c1ccc(O)c(O)c1)[C@@H](O)C2
REMARK SMILES IDX 21 1 19 2 10 3 9 4 7 5 8 6 2 7 3 8 4 9 6 10 20 11 11 13
REMARK SMILES IDX 18 14 12 15 16 16 13 17 14 18 17 19 15 21 5 23 1 25
REMARK H PARENT 20 12 17 20 15 22 5 24 1 26
REMARK Flexibility Score: inf
ROOT
ATOM      1  C   UNL     1      -0.234  13.086  13.508  1.00  0.00     0.079 C 
ATOM      2  C   UNL     1       0.029  14.153  14.587  1.00  0.00     0.164 C 
ATOM      3  C   UNL     1       1.198  15.054  14.156  1.00  0.00     0.232 C 
ATOM      4  O   UNL     1       2.356  14.259  13.904  1.00  0.00    -0.482 OA
ATOM      5  C   UNL     1       2.282  13.008  13.282  1.00  0.00     0.131 A 
ATOM      6  C   UNL     1       3.465  12.371  12.898  1.00  0.00     0.093 A 
ATOM      7  C   UNL     1       3.420  11.127  12.260  1.00  0.00     0.122 A 
ATOM      8  C   UNL     1       2.187  10.525  11.997  1.00  0.00     0.092 A 
ATOM      9  C   UNL     1       0.993  11.150  12.375  1.00  0.00     0.126 A 
ATOM     10  C   UNL     1       1.034  12.388  13.060  1.00  0.00     0.039 A 
ENDROOT
BRANCH   2  11
ATOM     11  O   UNL     1      -1.125  14.931  14.776  1.00  0.00    -0.389 OA
ATOM     12  H   UNL     1      -0.826  15.875  14.836  1.00  0.00     0.211 HD
ENDBRANCH   2  11
BRANCH   3  13
ATOM     13  C   UNL     1       1.512  16.086  15.215  1.00  0.00    -0.001 A 
ATOM     14  C   UNL     1       1.840  15.689  16.524  1.00  0.00     0.057 A 
ATOM     15  C   UNL     1       1.433  17.455  14.914  1.00  0.00     0.012 A 
ATOM     16  C   UNL     1       2.103  16.648  17.512  1.00  0.00     0.157 A 
ATOM     17  C   UNL     1       1.696  18.411  15.900  1.00  0.00     0.050 A 
ATOM     18  C   UNL     1       2.033  18.011  17.200  1.00  0.00     0.157 A 
BRANCH  16  19
ATOM     19  O   UNL     1       2.434  16.253  18.808  1.00  0.00    -0.504 OA
ATOM     20  H   UNL     1       3.231  15.655  18.993  1.00  0.00     0.293 HD
ENDBRANCH  16  19
BRANCH  18  21
ATOM     21  O   UNL     1       2.297  18.961  18.184  1.00  0.00    -0.504 OA
ATOM     22  H   UNL     1       2.495  18.691  19.141  1.00  0.00     0.293 HD
ENDBRANCH  18  21
ENDBRANCH   3  13
BRANCH   9  23
ATOM     23  O   UNL     1      -0.210  10.521  12.044  1.00  0.00    -0.507 OA
ATOM     24  H   UNL     1      -1.092  10.741  12.486  1.00  0.00     0.293 HD
ENDBRANCH   9  23
BRANCH   7  25
ATOM     25  O   UNL     1       4.595  10.484  11.875  1.00  0.00    -0.508 OA
ATOM     26  H   UNL     1       4.601   9.791  11.135  1.00  0.00     0.293 HD
ENDBRANCH   7  25
TORSDOF 6
ENDMDL
MODEL 2
REMARK VINA RESULT:    -3.121      1.552      6.779
REMARK INTER + INTRA:          -4.127
REMARK INTER:                  -3.776
REMARK INTRA:                  -0.351
REMARK UNBOUND:                -0.368
REMARK SMILES Oc1cc(O)c2c(c1)O[C@H](c1ccc(O)c(O)c1)[C@@H](O)C2
REMARK SMILES IDX 21 1 19 2 10 3 9 4 7 5 8 6 2 7 3 8 4 9 6 10 20 11 11 13
REMARK SMILES IDX 18 14 12 15 16 16 13 17 14 18 17 19 15 21 5 23 1 25
REMARK H PARENT 20 12 17 20 15 22 5 24 1 26
REMARK Flexibility Score: inf
ROOT
ATOM      1  C   UNL     1      -0.617  16.259  13.658  1.00  0.00     0.079 C 
ATOM      2  C   UNL     1       0.092  15.042  13.034  1.00  0.00     0.164 C 
ATOM      3  C   UNL     1       0.532  14.069  14.140  1.00  0.00     0.232 C 
ATOM      4  O   UNL     1       1.369  14.747  15.076  1.00  0.00    -0.482 OA
ATOM      5  C   UNL     1       1.126  16.065  15.478  1.00  0.00     0.131 A 
ATOM      6  C   UNL     1       1.869  16.600  16.534  1.00  0.00     0.093 A 
ATOM      7  C   UNL     1       1.636  17.910  16.967  1.00  0.00     0.122 A 
ATOM      8  C   UNL     1       0.650  18.681  16.347  1.00  0.00     0.092 A 
ATOM      9  C   UNL     1      -0.103  18.161  15.288  1.00  0.00     0.126 A 
ATOM     10  C   UNL     1       0.158  16.851  14.817  1.00  0.00     0.039 A 
ENDROOT
BRANCH   2  11
ATOM     11  O   UNL     1      -0.778  14.390  12.146  1.00  0.00    -0.389 OA
ATOM     12  H   UNL     1      -1.013  15.047  11.440  1.00  0.00     0.211 HD
ENDBRANCH   2  11
BRANCH   3  13
ATOM     13  C   UNL     1       1.273  12.885  13.563  1.00  0.00    -0.001 A 
ATOM     14  C   UNL     1       2.549  13.049  12.994  1.00  0.00     0.057 A 
ATOM     15  C   UNL     1       0.674  11.616  13.546  1.00  0.00     0.012 A 
ATOM     16  C   UNL     1       3.223  11.955  12.434  1.00  0.00     0.157 A 
ATOM     17  C   UNL     1       1.347  10.524  12.988  1.00  0.00     0.050 A 
ATOM     18  C   UNL     1       2.622  10.690  12.432  1.00  0.00     0.157 A 
BRANCH  16  19
ATOM     19  O   UNL     1       4.490  12.118  11.875  1.00  0.00    -0.504 OA
ATOM     20  H   UNL     1       4.817  11.525  11.121  1.00  0.00     0.293 HD
ENDBRANCH  16  19
BRANCH  18  21
ATOM     21  O   UNL     1       3.296   9.604  11.876  1.00  0.00    -0.504 OA
ATOM     22  H   UNL     1       3.370   8.720  12.365  1.00  0.00     0.293 HD
ENDBRANCH  18  21
ENDBRANCH   3  13
BRANCH   9  23
ATOM     23  O   UNL     1      -1.106  18.963  14.739  1.00  0.00    -0.507 OA
ATOM     24  H   UNL     1      -0.997  19.955  14.574  1.00  0.00     0.293 HD
ENDBRANCH   9  23
BRANCH   7  25
ATOM     25  O   UNL     1       2.373  18.452  18.018  1.00  0.00    -0.508 OA
ATOM     26  H   UNL     1       3.381  18.363  18.057  1.00  0.00     0.293 HD
ENDBRANCH   7  25
TORSDOF 6
ENDMDL
MODEL 3
REMARK VINA RESULT:    -1.804      3.102      4.409
REMARK INTER + INTRA:          -2.541
REMARK INTER:                  -2.961
REMARK INTRA:                   0.420
REMARK UNBOUND:                -0.368
REMARK SMILES Oc1cc(O)c2c(c1)O[C@H](c1ccc(O)c(O)c1)[C@@H](O)C2
REMARK SMILES IDX 21 1 19 2 10 3 9 4 7 5 8 6 2 7 3 8 4 9 6 10 20 11 11 13
REMARK SMILES IDX 18 14 12 15 16 16 13 17 14 18 17 19 15 21 5 23 1 25
REMARK H PARENT 20 12 17 20 15 22 5 24 1 26
REMARK Flexibility Score: inf
ROOT
ATOM      1  C   UNL     1       1.265  16.552  14.509  1.00  0.00     0.079 C 
ATOM      2  C   UNL     1       0.528  15.790  15.628  1.00  0.00     0.164 C 
ATOM      3  C   UNL     1       1.544  15.061  16.521  1.00  0.00     0.232 C 
ATOM      4  O   UNL     1       2.348  14.189  15.728  1.00  0.00    -0.482 OA
ATOM      5  C   UNL     1       2.794  14.540  14.449  1.00  0.00     0.131 A 
ATOM      6  C   UNL     1       3.728  13.723  13.808  1.00  0.00     0.093 A 
ATOM      7  C   UNL     1       4.204  14.059  12.536  1.00  0.00     0.122 A 
ATOM      8  C   UNL     1       3.749  15.221  11.909  1.00  0.00     0.092 A 
ATOM      9  C   UNL     1       2.814  16.052  12.537  1.00  0.00     0.126 A 
ATOM     10  C   UNL     1       2.296  15.694  13.806  1.00  0.00     0.039 A 
ENDROOT
BRANCH   2  11
ATOM     11  O   UNL     1      -0.222  16.692  16.400  1.00  0.00    -0.389 OA
ATOM     12  H   UNL     1      -1.003  16.188  16.750  1.00  0.00     0.211 HD
ENDBRANCH   2  11
BRANCH   3  13
ATOM     13  C   UNL     1       0.850  14.266  17.603  1.00  0.00    -0.001 A 
ATOM     14  C   UNL     1       1.467  13.133  18.163  1.00  0.00     0.057 A 
ATOM     15  C   UNL     1      -0.440  14.623  18.025  1.00  0.00     0.012 A 
ATOM     16  C   UNL     1       0.809  12.380  19.147  1.00  0.00     0.157 A 
ATOM     17  C   UNL     1      -1.095  13.872  19.006  1.00  0.00     0.050 A 
ATOM     18  C   UNL     1      -0.473  12.751  19.570  1.00  0.00     0.157 A 
BRANCH  16  19
ATOM     19  O   UNL     1       1.424  11.261  19.706  1.00  0.00    -0.504 OA
ATOM     20  H   UNL     1       2.404  11.058  19.544  1.00  0.00     0.293 HD
ENDBRANCH  16  19
BRANCH  18  21
ATOM     21  O   UNL     1      -1.122  12.001  20.549  1.00  0.00    -0.504 OA
ATOM     22  H   UNL     1      -1.324  11.017  20.415  1.00  0.00     0.293 HD
ENDBRANCH  18  21
ENDBRANCH   3  13
BRANCH   9  23
ATOM     23  O   UNL     1       2.432  17.224  11.881  1.00  0.00    -0.507 OA
ATOM     24  H   UNL     1       1.780  17.892  12.270  1.00  0.00     0.293 HD
ENDBRANCH   9  23
BRANCH   7  25
ATOM     25  O   UNL     1       5.134  13.248  11.888  1.00  0.00    -0.508 OA
ATOM     26  H   UNL     1       5.404  12.347  12.266  1.00  0.00     0.293 HD
ENDBRANCH   7  25
TORSDOF 6
ENDMDL
MODEL 4
REMARK VINA RESULT:    -1.787      1.739      6.970
REMARK INTER + INTRA:          -2.520
REMARK INTER:                  -2.334
REMARK INTRA:                  -0.186
REMARK UNBOUND:                -0.368
REMARK SMILES Oc1cc(O)c2c(c1)O[C@H](c1ccc(O)c(O)c1)[C@@H](O)C2
REMARK SMILES IDX 21 1 19 2 10 3 9 4 7 5 8 6 2 7 3 8 4 9 6 10 20 11 11 13
REMARK SMILES IDX 18 14 12 15 16 16 13 17 14 18 17 19 15 21 5 23 1 25
REMARK H PARENT 20 12 17 20 15 22 5 24 1 26
REMARK Flexibility Score: inf
ROOT
ATOM      1  C   UNL     1       1.353  15.029  17.424  1.00  0.00     0.079 C 
ATOM      2  C   UNL     1       0.731  13.868  16.627  1.00  0.00     0.164 C 
ATOM      3  C   UNL     1       1.447  13.718  15.275  1.00  0.00     0.232 C 
ATOM      4  O   UNL     1       1.383  14.949  14.555  1.00  0.00    -0.482 OA
ATOM      5  C   UNL     1       1.512  16.191  15.185  1.00  0.00     0.131 A 
ATOM      6  C   UNL     1       1.629  17.341  14.400  1.00  0.00     0.093 A 
ATOM      7  C   UNL     1       1.774  18.595  15.004  1.00  0.00     0.122 A 
ATOM      8  C   UNL     1       1.814  18.695  16.396  1.00  0.00     0.092 A 
ATOM      9  C   UNL     1       1.698  17.553  17.198  1.00  0.00     0.126 A 
ATOM     10  C   UNL     1       1.507  16.287  16.593  1.00  0.00     0.039 A 
ENDROOT
BRANCH   2  11
ATOM     11  O   UNL     1       0.846  12.674  17.359  1.00  0.00    -0.389 OA
ATOM     12  H   UNL     1       1.033  11.953  16.702  1.00  0.00     0.211 HD
ENDBRANCH   2  11
BRANCH   3  13
ATOM     13  C   UNL     1       0.830  12.615  14.447  1.00  0.00    -0.001 A 
ATOM     14  C   UNL     1       1.616  11.871  13.548  1.00  0.00     0.057 A 
ATOM     15  C   UNL     1      -0.547  12.353  14.532  1.00  0.00     0.012 A 
ATOM     16  C   UNL     1       1.036  10.867  12.761  1.00  0.00     0.157 A 
ATOM     17  C   UNL     1      -1.125  11.351  13.746  1.00  0.00     0.050 A 
ATOM     18  C   UNL     1      -0.336  10.605  12.861  1.00  0.00     0.157 A 
BRANCH  16  19
ATOM     19  O   UNL     1       1.817  10.126  11.875  1.00  0.00    -0.504 OA
ATOM     20  H   UNL     1       2.703   9.723  12.159  1.00  0.00     0.293 HD
ENDBRANCH  16  19
BRANCH  18  21
ATOM     21  O   UNL     1      -0.908   9.604  12.077  1.00  0.00    -0.504 OA
ATOM     22  H   UNL     1      -1.549   8.925  12.471  1.00  0.00     0.293 HD
ENDBRANCH  18  21
ENDBRANCH   3  13
BRANCH   9  23
ATOM     23  O   UNL     1       1.790  17.710  18.582  1.00  0.00    -0.507 OA
ATOM     24  H   UNL     1       1.659  18.596  19.051  1.00  0.00     0.293 HD
ENDBRANCH   9  23
BRANCH   7  25
ATOM     25  O   UNL     1       1.889  19.747  14.228  1.00  0.00    -0.508 OA
ATOM     26  H   UNL     1       1.116  20.392  14.122  1.00  0.00     0.293 HD
ENDBRANCH   7  25
TORSDOF 6
ENDMDL
MODEL 5
REMARK VINA RESULT:    -1.663      3.443      5.437
REMARK INTER + INTRA:          -2.371
REMARK INTER:                  -2.428
REMARK INTRA:                   0.057
REMARK UNBOUND:                -0.368
REMARK SMILES Oc1cc(O)c2c(c1)O[C@H](c1ccc(O)c(O)c1)[C@@H](O)C2
REMARK SMILES IDX 21 1 19 2 10 3 9 4 7 5 8 6 2 7 3 8 4 9 6 10 20 11 11 13
REMARK SMILES IDX 18 14 12 15 16 16 13 17 14 18 17 19 15 21 5 23 1 25
REMARK H PARENT 20 12 17 20 15 22 5 24 1 26
REMARK Flexibility Score: inf
ROOT
ATOM      1  C   UNL     1       2.619  14.671  14.274  1.00  0.00     0.079 C 
ATOM      2  C   UNL     1       2.193  14.285  15.703  1.00  0.00     0.164 C 
ATOM      3  C   UNL     1       0.708  13.888  15.718  1.00  0.00     0.232 C 
ATOM      4  O   UNL     1      -0.084  14.956  15.200  1.00  0.00    -0.482 OA
ATOM      5  C   UNL     1       0.333  15.739  14.118  1.00  0.00     0.131 A 
ATOM      6  C   UNL     1      -0.569  16.639  13.544  1.00  0.00     0.093 A 
ATOM      7  C   UNL     1      -0.184  17.423  12.452  1.00  0.00     0.122 A 
ATOM      8  C   UNL     1       1.104  17.296  11.926  1.00  0.00     0.092 A 
ATOM      9  C   UNL     1       2.020  16.399  12.488  1.00  0.00     0.126 A 
ATOM     10  C   UNL     1       1.650  15.635  13.621  1.00  0.00     0.039 A 
ENDROOT
BRANCH   2  11
ATOM     11  O   UNL     1       2.976  13.211  16.158  1.00  0.00    -0.389 OA
ATOM     12  H   UNL     1       2.533  12.859  16.973  1.00  0.00     0.211 HD
ENDBRANCH   2  11
BRANCH   3  13
ATOM     13  C   UNL     1       0.247  13.547  17.115  1.00  0.00    -0.001 A 
ATOM     14  C   UNL     1       0.695  12.374  17.750  1.00  0.00     0.057 A 
ATOM     15  C   UNL     1      -0.675  14.374  17.778  1.00  0.00     0.012 A 
ATOM     16  C   UNL     1       0.243  12.045  19.035  1.00  0.00     0.157 A 
ATOM     17  C   UNL     1      -1.125  14.045  19.060  1.00  0.00     0.050 A 
ATOM     18  C   UNL     1      -0.667  12.882  19.693  1.00  0.00     0.157 A 
BRANCH  16  19
ATOM     19  O   UNL     1       0.693  10.885  19.665  1.00  0.00    -0.504 OA
ATOM     20  H   UNL     1       1.682  10.692  19.777  1.00  0.00     0.293 HD
ENDBRANCH  16  19
BRANCH  18  21
ATOM     21  O   UNL     1      -1.112  12.552  20.971  1.00  0.00    -0.504 OA
ATOM     22  H   UNL     1      -0.748  13.016  21.795  1.00  0.00     0.293 HD
ENDBRANCH  18  21
ENDBRANCH   3  13
BRANCH   9  23
ATOM     23  O   UNL     1       3.277  16.284  11.890  1.00  0.00    -0.507 OA
ATOM     24  H   UNL     1       3.472  16.582  10.944  1.00  0.00     0.293 HD
ENDBRANCH   9  23
BRANCH   7  25
ATOM     25  O   UNL     1      -1.076  18.325  11.875  1.00  0.00    -0.508 OA
ATOM     26  H   UNL     1      -1.726  18.037  11.153  1.00  0.00     0.293 HD
ENDBRANCH   7  25
TORSDOF 6
ENDMDL
MODEL 6
REMARK VINA RESULT:    -1.205      3.529      5.257
REMARK INTER + INTRA:          -1.820
REMARK INTER:                  -2.045
REMARK INTRA:                   0.226
REMARK UNBOUND:                -0.368
REMARK SMILES Oc1cc(O)c2c(c1)O[C@H](c1ccc(O)c(O)c1)[C@@H](O)C2
REMARK SMILES IDX 21 1 19 2 10 3 9 4 7 5 8 6 2 7 3 8 4 9 6 10 20 11 11 13
REMARK SMILES IDX 18 14 12 15 16 16 13 17 14 18 17 19 15 21 5 23 1 25
REMARK H PARENT 20 12 17 20 15 22 5 24 1 26
REMARK Flexibility Score: inf
ROOT
ATOM      1  C   UNL     1       2.608   8.849  13.021  1.00  0.00     0.079 C 
ATOM      2  C   UNL     1       2.411  10.372  13.142  1.00  0.00     0.164 C 
ATOM      3  C   UNL     1       3.072  11.081  11.948  1.00  0.00     0.232 C 
ATOM      4  O   UNL     1       4.454  10.729  11.881  1.00  0.00    -0.482 OA
ATOM      5  C   UNL     1       4.910   9.436  12.159  1.00  0.00     0.131 A 
ATOM      6  C   UNL     1       6.244   9.115  11.891  1.00  0.00     0.093 A 
ATOM      7  C   UNL     1       6.723   7.826  12.144  1.00  0.00     0.122 A 
ATOM      8  C   UNL     1       5.861   6.853  12.656  1.00  0.00     0.092 A 
ATOM      9  C   UNL     1       4.522   7.157  12.929  1.00  0.00     0.126 A 
ATOM     10  C   UNL     1       4.043   8.472  12.716  1.00  0.00     0.039 A 
ENDROOT
BRANCH   2  11
ATOM     11  O   UNL     1       1.039  10.672  13.171  1.00  0.00    -0.389 OA
ATOM     12  H   UNL     1       0.561   9.851  12.885  1.00  0.00     0.211 HD
ENDBRANCH   2  11
BRANCH   3  13
ATOM     13  C   UNL     1       2.937  12.581  12.059  1.00  0.00    -0.001 A 
ATOM     14  C   UNL     1       4.079  13.401  12.102  1.00  0.00     0.057 A 
ATOM     15  C   UNL     1       1.667  13.171  12.171  1.00  0.00     0.012 A 
ATOM     16  C   UNL     1       3.952  14.791  12.233  1.00  0.00     0.157 A 
ATOM     17  C   UNL     1       1.540  14.557  12.302  1.00  0.00     0.050 A 
ATOM     18  C   UNL     1       2.680  15.370  12.332  1.00  0.00     0.157 A 
BRANCH  16  19
ATOM     19  O   UNL     1       5.085  15.603  12.269  1.00  0.00    -0.504 OA
ATOM     20  H   UNL     1       5.012  16.613  12.294  1.00  0.00     0.293 HD
ENDBRANCH  16  19
BRANCH  18  21
ATOM     21  O   UNL     1       2.558  16.753  12.461  1.00  0.00    -0.504 OA
ATOM     22  H   UNL     1       1.826  17.267  11.985  1.00  0.00     0.293 HD
ENDBRANCH  18  21
ENDBRANCH   3  13
BRANCH   9  23
ATOM     23  O   UNL     1       3.698   6.130  13.396  1.00  0.00    -0.507 OA
ATOM     24  H   UNL     1       3.634   5.224  12.953  1.00  0.00     0.293 HD
ENDBRANCH   9  23
BRANCH   7  25
ATOM     25  O   UNL     1       8.052   7.498  11.882  1.00  0.00    -0.508 OA
ATOM     26  H   UNL     1       8.306   6.607  11.473  1.00  0.00     0.293 HD
ENDBRANCH   7  25
TORSDOF 6
ENDMDL
MODEL 7
REMARK VINA RESULT:    -1.183      2.142      3.563
REMARK INTER + INTRA:          -1.793
REMARK INTER:                  -1.485
REMARK INTRA:                  -0.308
REMARK UNBOUND:                -0.368
REMARK SMILES Oc1cc(O)c2c(c1)O[C@H](c1ccc(O)c(O)c1)[C@@H](O)C2
REMARK SMILES IDX 21 1 19 2 10 3 9 4 7 5 8 6 2 7 3 8 4 9 6 10 20 11 11 13
REMARK SMILES IDX 18 14 12 15 16 16 13 17 14 18 17 19 15 21 5 23 1 25
REMARK H PARENT 20 12 17 20 15 22 5 24 1 26
REMARK Flexibility Score: inf
ROOT
ATOM      1  C   UNL     1       2.935  13.441  12.851  1.00  0.00     0.079 C 
ATOM      2  C   UNL     1       2.290  14.828  13.037  1.00  0.00     0.164 C 
ATOM      3  C   UNL     1       1.386  14.821  14.281  1.00  0.00     0.232 C 
ATOM      4  O   UNL     1       0.404  13.792  14.160  1.00  0.00    -0.482 OA
ATOM      5  C   UNL     1       0.697  12.541  13.605  1.00  0.00     0.131 A 
ATOM      6  C   UNL     1      -0.255  11.522  13.690  1.00  0.00     0.093 A 
ATOM      7  C   UNL     1       0.017  10.257  13.158  1.00  0.00     0.122 A 
ATOM      8  C   UNL     1       1.250  10.010  12.550  1.00  0.00     0.092 A 
ATOM      9  C   UNL     1       2.215  11.020  12.456  1.00  0.00     0.126 A 
ATOM     10  C   UNL     1       1.928  12.314  12.953  1.00  0.00     0.039 A 
ENDROOT
BRANCH   2  11
ATOM     11  O   UNL     1       3.292  15.801  13.184  1.00  0.00    -0.389 OA
ATOM     12  H   UNL     1       3.664  15.692  14.098  1.00  0.00     0.211 HD
ENDBRANCH   2  11
BRANCH   3  13
ATOM     13  C   UNL     1       0.701  16.155  14.466  1.00  0.00    -0.001 A 
ATOM     14  C   UNL     1       0.094  16.804  13.376  1.00  0.00     0.057 A 
ATOM     15  C   UNL     1       0.706  16.784  15.722  1.00  0.00     0.012 A 
ATOM     16  C   UNL     1      -0.516  18.055  13.545  1.00  0.00     0.157 A 
ATOM     17  C   UNL     1       0.097  18.031  15.889  1.00  0.00     0.050 A 
ATOM     18  C   UNL     1      -0.516  18.669  14.803  1.00  0.00     0.157 A 
BRANCH  16  19
ATOM     19  O   UNL     1      -1.122  18.695  12.464  1.00  0.00    -0.504 OA
ATOM     20  H   UNL     1      -0.838  19.623  12.170  1.00  0.00     0.293 HD
ENDBRANCH  16  19
BRANCH  18  21
ATOM     21  O   UNL     1      -1.125  19.912  14.967  1.00  0.00    -0.504 OA
ATOM     22  H   UNL     1      -1.210  20.344  15.879  1.00  0.00     0.293 HD
ENDBRANCH  18  21
ENDBRANCH   3  13
BRANCH   9  23
ATOM     23  O   UNL     1       3.445  10.700  11.877  1.00  0.00    -0.507 OA
ATOM     24  H   UNL     1       4.335  10.921  12.304  1.00  0.00     0.293 HD
ENDBRANCH   9  23
BRANCH   7  25
ATOM     25  O   UNL     1      -0.927   9.235  13.237  1.00  0.00    -0.508 OA
ATOM     26  H   UNL     1      -0.737   8.377  13.740  1.00  0.00     0.293 HD
ENDBRANCH   7  25
TORSDOF 6
ENDMDL
MODEL 8
REMARK VINA RESULT:    -0.882      1.897      6.849
REMARK INTER + INTRA:          -1.430
REMARK INTER:                  -1.209
REMARK INTRA:                  -0.221
REMARK UNBOUND:                -0.368
REMARK SMILES Oc1cc(O)c2c(c1)O[C@H](c1ccc(O)c(O)c1)[C@@H](O)C2
REMARK SMILES IDX 21 1 19 2 10 3 9 4 7 5 8 6 2 7 3 8 4 9 6 10 20 11 11 13
REMARK SMILES IDX 18 14 12 15 16 16 13 17 14 18 17 19 15 21 5 23 1 25
REMARK H PARENT 20 12 17 20 15 22 5 24 1 26
REMARK Flexibility Score: inf
ROOT
ATOM      1  C   UNL     1       1.807  15.899  16.150  1.00  0.00     0.079 C 
ATOM      2  C   UNL     1       2.044  14.492  15.570  1.00  0.00     0.164 C 
ATOM      3  C   UNL     1       2.579  14.603  14.133  1.00  0.00     0.232 C 
ATOM      4  O   UNL     1       1.670  15.359  13.334  1.00  0.00    -0.482 OA
ATOM      5  C   UNL     1       0.997  16.482  13.828  1.00  0.00     0.131 A 
ATOM      6  C   UNL     1       0.272  17.282  12.942  1.00  0.00     0.093 A 
ATOM      7  C   UNL     1      -0.397  18.420  13.405  1.00  0.00     0.122 A 
ATOM      8  C   UNL     1      -0.330  18.762  14.758  1.00  0.00     0.092 A 
ATOM      9  C   UNL     1       0.393  17.972  15.659  1.00  0.00     0.126 A 
ATOM     10  C   UNL     1       1.035  16.795  15.204  1.00  0.00     0.039 A 
ENDROOT
BRANCH   2  11
ATOM     11  O   UNL     1       2.968  13.799  16.369  1.00  0.00    -0.389 OA
ATOM     12  H   UNL     1       2.869  14.151  17.291  1.00  0.00     0.211 HD
ENDBRANCH   2  11
BRANCH   3  13
ATOM     13  C   UNL     1       2.779  13.238  13.517  1.00  0.00    -0.001 A 
ATOM     14  C   UNL     1       1.892  12.186  13.808  1.00  0.00     0.057 A 
ATOM     15  C   UNL     1       3.884  12.991  12.686  1.00  0.00     0.012 A 
ATOM     16  C   UNL     1       2.095  10.912  13.258  1.00  0.00     0.157 A 
ATOM     17  C   UNL     1       4.086  11.721  12.137  1.00  0.00     0.050 A 
ATOM     18  C   UNL     1       3.193  10.679  12.421  1.00  0.00     0.157 A 
BRANCH  16  19
ATOM     19  O   UNL     1       1.211   9.872  13.543  1.00  0.00    -0.504 OA
ATOM     20  H   UNL     1       1.542   8.939  13.761  1.00  0.00     0.293 HD
ENDBRANCH  16  19
BRANCH  18  21
ATOM     21  O   UNL     1       3.391   9.412  11.875  1.00  0.00    -0.504 OA
ATOM     22  H   UNL     1       4.014   9.265  11.090  1.00  0.00     0.293 HD
ENDBRANCH  18  21
ENDBRANCH   3  13
BRANCH   9  23
ATOM     23  O   UNL     1       0.461  18.390  16.990  1.00  0.00    -0.507 OA
ATOM     24  H   UNL     1      -0.329  18.367  17.621  1.00  0.00     0.293 HD
ENDBRANCH   9  23
BRANCH   7  25
ATOM     25  O   UNL     1      -1.125  19.223  12.529  1.00  0.00    -0.508 OA
ATOM     26  H   UNL     1      -1.604  18.830  11.727  1.00  0.00     0.293 HD
ENDBRANCH   7  25
TORSDOF 6
ENDMDL
