MODEL 1
REMARK VINA RESULT:    -5.393      0.000      0.000
REMARK INTER + INTRA:          -6.286
REMARK INTER:                  -6.181
REMARK INTRA:                  -0.104
REMARK UNBOUND:                -0.104
REMARK SMILES COc1ccc(C(C)=O)cc1O
REMARK SMILES IDX 6 1 10 2 11 3 3 4 4 5 5 6 7 7 8 8 9 9 12 10 2 12 1 13
REMARK H PARENT 12 11
REMARK Flexibility Score: inf
ROOT
ATOM      1  C   UNL     1      -8.328  20.811  69.718  1.00  0.00     0.021 A 
ATOM      2  C   UNL     1      -7.418  19.825  69.295  1.00  0.00     0.062 A 
ATOM      3  C   UNL     1      -7.304  19.483  67.943  1.00  0.00     0.158 A 
ATOM      4  C   UNL     1      -8.103  20.126  66.982  1.00  0.00     0.160 A 
ATOM      5  C   UNL     1      -9.014  21.113  67.400  1.00  0.00     0.051 A 
ATOM      6  C   UNL     1      -9.125  21.451  68.751  1.00  0.00     0.016 A 
ENDROOT
BRANCH   1   7
ATOM      7  C   UNL     1      -8.433  21.158  71.161  1.00  0.00     0.159 C 
ATOM      8  C   UNL     1      -7.929  20.241  72.235  1.00  0.00     0.093 C 
ATOM      9  O   UNL     1      -8.960  22.251  71.505  1.00  0.00    -0.295 OA
ENDBRANCH   1   7
BRANCH   3  10
ATOM     10  O   UNL     1      -6.387  18.498  67.574  1.00  0.00    -0.504 OA
ATOM     11  H   UNL     1      -5.397  18.691  67.474  1.00  0.00     0.293 HD
ENDBRANCH   3  10
BRANCH   4  12
ATOM     12  O   UNL     1      -7.967  19.762  65.632  1.00  0.00    -0.493 OA
ATOM     13  C   UNL     1      -9.047  19.382  64.787  1.00  0.00     0.278 C 
ENDBRANCH   4  12
TORSDOF 3
ENDMDL
MODEL 2
REMARK VINA RESULT:    -5.388      1.763      4.991
REMARK INTER + INTRA:          -6.280
REMARK INTER:                  -6.154
REMARK INTRA:                  -0.126
REMARK UNBOUND:                -0.104
REMARK SMILES COc1ccc(C(C)=O)cc1O
REMARK SMILES IDX 6 1 10 2 11 3 3 4 4 5 5 6 7 7 8 8 9 9 12 10 2 12 1 13
REMARK H PARENT 12 11
REMARK Flexibility Score: inf
ROOT
ATOM      1  C   UNL     1      -7.428  20.323  68.060  1.00  0.00     0.021 A 
ATOM      2  C   UNL     1      -7.355  21.581  68.686  1.00  0.00     0.062 A 
ATOM      3  C   UNL     1      -7.437  21.700  70.077  1.00  0.00     0.158 A 
ATOM      4  C   UNL     1      -7.593  20.553  70.876  1.00  0.00     0.160 A 
ATOM      5  C   UNL     1      -7.666  19.293  70.255  1.00  0.00     0.051 A 
ATOM      6  C   UNL     1      -7.584  19.180  68.865  1.00  0.00     0.016 A 
ENDROOT
BRANCH   1   7
ATOM      7  C   UNL     1      -7.340  20.222  66.579  1.00  0.00     0.159 C 
ATOM      8  C   UNL     1      -6.982  18.938  65.892  1.00  0.00     0.093 C 
ATOM      9  O   UNL     1      -7.568  21.237  65.866  1.00  0.00    -0.295 OA
ENDBRANCH   1   7
BRANCH   3  10
ATOM     10  O   UNL     1      -7.360  22.969  70.650  1.00  0.00    -0.504 OA
ATOM     11  H   UNL     1      -7.049  23.780  70.128  1.00  0.00     0.293 HD
ENDBRANCH   3  10
BRANCH   4  12
ATOM     12  O   UNL     1      -7.672  20.701  72.270  1.00  0.00    -0.493 OA
ATOM     13  C   UNL     1      -8.884  20.879  72.995  1.00  0.00     0.278 C 
ENDBRANCH   4  12
TORSDOF 3
ENDMDL
MODEL 3
REMARK VINA RESULT:    -5.292      3.044      3.847
REMARK INTER + INTRA:          -6.170
REMARK INTER:                  -6.085
REMARK INTRA:                  -0.085
REMARK UNBOUND:                -0.104
REMARK SMILES COc1ccc(C(C)=O)cc1O
REMARK SMILES IDX 6 1 10 2 11 3 3 4 4 5 5 6 7 7 8 8 9 9 12 10 2 12 1 13
REMARK H PARENT 12 11
REMARK Flexibility Score: inf
ROOT
ATOM      1  C   UNL     1      -8.067  21.220  70.917  1.00  0.00     0.021 A 
ATOM      2  C   UNL     1      -8.690  22.481  70.912  1.00  0.00     0.062 A 
ATOM      3  C   UNL     1      -8.415  23.416  69.908  1.00  0.00     0.158 A 
ATOM      4  C   UNL     1      -7.504  23.105  68.883  1.00  0.00     0.160 A 
ATOM      5  C   UNL     1      -6.879  21.845  68.884  1.00  0.00     0.051 A 
ATOM      6  C   UNL     1      -7.157  20.914  69.889  1.00  0.00     0.016 A 
ENDROOT
BRANCH   1   7
ATOM      7  C   UNL     1      -8.374  20.242  71.996  1.00  0.00     0.159 C 
ATOM      8  C   UNL     1      -9.124  20.636  73.233  1.00  0.00     0.093 C 
ATOM      9  O   UNL     1      -7.999  19.044  71.880  1.00  0.00    -0.295 OA
ENDBRANCH   1   7
BRANCH   3  10
ATOM     10  O   UNL     1      -9.059  24.654  69.947  1.00  0.00    -0.504 OA
ATOM     11  H   UNL     1      -9.473  25.021  70.795  1.00  0.00     0.293 HD
ENDBRANCH   3  10
BRANCH   4  12
ATOM     12  O   UNL     1      -7.248  24.062  67.889  1.00  0.00    -0.493 OA
ATOM     13  C   UNL     1      -8.029  24.232  66.712  1.00  0.00     0.278 C 
ENDBRANCH   4  12
TORSDOF 3
ENDMDL
MODEL 4
REMARK VINA RESULT:    -5.217      1.640      4.783
REMARK INTER + INTRA:          -6.084
REMARK INTER:                  -5.955
REMARK INTRA:                  -0.129
REMARK UNBOUND:                -0.104
REMARK SMILES COc1ccc(C(C)=O)cc1O
REMARK SMILES IDX 6 1 10 2 11 3 3 4 4 5 5 6 7 7 8 8 9 9 12 10 2 12 1 13
REMARK H PARENT 12 11
REMARK Flexibility Score: inf
ROOT
ATOM      1  C   UNL     1      -7.351  20.240  67.473  1.00  0.00     0.021 A 
ATOM      2  C   UNL     1      -7.460  19.107  68.300  1.00  0.00     0.062 A 
ATOM      3  C   UNL     1      -7.510  19.234  69.693  1.00  0.00     0.158 A 
ATOM      4  C   UNL     1      -7.451  20.507  70.288  1.00  0.00     0.160 A 
ATOM      5  C   UNL     1      -7.342  21.642  69.465  1.00  0.00     0.051 A 
ATOM      6  C   UNL     1      -7.292  21.510  68.075  1.00  0.00     0.016 A 
ENDROOT
BRANCH   1   7
ATOM      7  C   UNL     1      -7.299  20.080  65.995  1.00  0.00     0.159 C 
ATOM      8  C   UNL     1      -7.734  21.172  65.064  1.00  0.00     0.093 C 
ATOM      9  O   UNL     1      -6.880  19.000  65.496  1.00  0.00    -0.295 OA
ENDBRANCH   1   7
BRANCH   3  10
ATOM     10  O   UNL     1      -7.619  18.081  70.470  1.00  0.00    -0.504 OA
ATOM     11  H   UNL     1      -8.506  17.760  70.841  1.00  0.00     0.293 HD
ENDBRANCH   3  10
BRANCH   4  12
ATOM     12  O   UNL     1      -7.503  20.605  71.688  1.00  0.00    -0.493 OA
ATOM     13  C   UNL     1      -8.697  20.788  72.440  1.00  0.00     0.278 C 
ENDBRANCH   4  12
TORSDOF 3
ENDMDL
MODEL 5
REMARK VINA RESULT:    -5.157      1.664      1.792
REMARK INTER + INTRA:          -6.015
REMARK INTER:                  -5.912
REMARK INTRA:                  -0.102
REMARK UNBOUND:                -0.104
REMARK SMILES COc1ccc(C(C)=O)cc1O
REMARK SMILES IDX 6 1 10 2 11 3 3 4 4 5 5 6 7 7 8 8 9 9 12 10 2 12 1 13
REMARK H PARENT 12 11
REMARK Flexibility Score: inf
ROOT
ATOM      1  C   UNL     1      -7.466  21.320  68.434  1.00  0.00     0.021 A 
ATOM      2  C   UNL     1      -6.977  20.082  67.979  1.00  0.00     0.062 A 
ATOM      3  C   UNL     1      -7.005  19.751  66.620  1.00  0.00     0.158 A 
ATOM      4  C   UNL     1      -7.528  20.660  65.683  1.00  0.00     0.160 A 
ATOM      5  C   UNL     1      -8.018  21.899  66.134  1.00  0.00     0.051 A 
ATOM      6  C   UNL     1      -7.988  22.225  67.492  1.00  0.00     0.016 A 
ENDROOT
BRANCH   1   7
ATOM      7  C   UNL     1      -7.426  21.649  69.885  1.00  0.00     0.159 C 
ATOM      8  C   UNL     1      -7.601  20.599  70.941  1.00  0.00     0.093 C 
ATOM      9  O   UNL     1      -7.243  22.841  70.252  1.00  0.00    -0.295 OA
ENDBRANCH   1   7
BRANCH   3  10
ATOM     10  O   UNL     1      -6.508  18.511  66.219  1.00  0.00    -0.504 OA
ATOM     11  H   UNL     1      -6.418  18.255  65.243  1.00  0.00     0.293 HD
ENDBRANCH   3  10
BRANCH   4  12
ATOM     12  O   UNL     1      -7.544  20.302  64.326  1.00  0.00    -0.493 OA
ATOM     13  C   UNL     1      -7.044  21.117  63.271  1.00  0.00     0.278 C 
ENDBRANCH   4  12
TORSDOF 3
ENDMDL
MODEL 6
REMARK VINA RESULT:    -5.130      1.308      2.081
REMARK INTER + INTRA:          -5.985
REMARK INTER:                  -5.860
REMARK INTRA:                  -0.125
REMARK UNBOUND:                -0.104
REMARK SMILES COc1ccc(C(C)=O)cc1O
REMARK SMILES IDX 6 1 10 2 11 3 3 4 4 5 5 6 7 7 8 8 9 9 12 10 2 12 1 13
REMARK H PARENT 12 11
REMARK Flexibility Score: inf
ROOT
ATOM      1  C   UNL     1      -7.737  20.315  69.561  1.00  0.00     0.021 A 
ATOM      2  C   UNL     1      -7.961  21.456  68.770  1.00  0.00     0.062 A 
ATOM      3  C   UNL     1      -7.721  21.435  67.391  1.00  0.00     0.158 A 
ATOM      4  C   UNL     1      -7.250  20.262  66.775  1.00  0.00     0.160 A 
ATOM      5  C   UNL     1      -7.025  19.119  67.562  1.00  0.00     0.051 A 
ATOM      6  C   UNL     1      -7.266  19.146  68.938  1.00  0.00     0.016 A 
ENDROOT
BRANCH   1   7
ATOM      7  C   UNL     1      -7.998  20.362  71.025  1.00  0.00     0.159 C 
ATOM      8  C   UNL     1      -8.025  19.120  71.865  1.00  0.00     0.093 C 
ATOM      9  O   UNL     1      -8.206  21.470  71.590  1.00  0.00    -0.295 OA
ENDBRANCH   1   7
BRANCH   3  10
ATOM     10  O   UNL     1      -7.959  22.592  66.649  1.00  0.00    -0.504 OA
ATOM     11  H   UNL     1      -7.664  23.508  66.967  1.00  0.00     0.293 HD
ENDBRANCH   3  10
BRANCH   4  12
ATOM     12  O   UNL     1      -7.019  20.270  65.390  1.00  0.00    -0.493 OA
ATOM     13  C   UNL     1      -7.989  19.924  64.408  1.00  0.00     0.278 C 
ENDBRANCH   4  12
TORSDOF 3
ENDMDL
MODEL 7
REMARK VINA RESULT:    -5.092      2.872      4.665
REMARK INTER + INTRA:          -5.941
REMARK INTER:                  -5.815
REMARK INTRA:                  -0.126
REMARK UNBOUND:                -0.104
REMARK SMILES COc1ccc(C(C)=O)cc1O
REMARK SMILES IDX 6 1 10 2 11 3 3 4 4 5 5 6 7 7 8 8 9 9 12 10 2 12 1 13
REMARK H PARENT 12 11
REMARK Flexibility Score: inf
ROOT
ATOM      1  C   UNL     1      -7.363  21.143  67.731  1.00  0.00     0.021 A 
ATOM      2  C   UNL     1      -7.964  21.780  66.630  1.00  0.00     0.062 A 
ATOM      3  C   UNL     1      -8.106  23.172  66.593  1.00  0.00     0.158 A 
ATOM      4  C   UNL     1      -7.645  23.957  67.664  1.00  0.00     0.160 A 
ATOM      5  C   UNL     1      -7.044  23.324  68.767  1.00  0.00     0.051 A 
ATOM      6  C   UNL     1      -6.905  21.934  68.799  1.00  0.00     0.016 A 
ENDROOT
BRANCH   1   7
ATOM      7  C   UNL     1      -7.224  19.662  67.749  1.00  0.00     0.159 C 
ATOM      8  C   UNL     1      -7.412  18.863  69.004  1.00  0.00     0.093 C 
ATOM      9  O   UNL     1      -6.939  19.046  66.686  1.00  0.00    -0.295 OA
ENDBRANCH   1   7
BRANCH   3  10
ATOM     10  O   UNL     1      -8.708  23.757  65.479  1.00  0.00    -0.504 OA
ATOM     11  H   UNL     1      -9.609  23.453  65.129  1.00  0.00     0.293 HD
ENDBRANCH   3  10
BRANCH   4  12
ATOM     12  O   UNL     1      -7.800  25.351  67.600  1.00  0.00    -0.493 OA
ATOM     13  C   UNL     1      -8.572  26.120  68.516  1.00  0.00     0.278 C 
ENDBRANCH   4  12
TORSDOF 3
ENDMDL
MODEL 8
REMARK VINA RESULT:    -5.014      1.625      4.754
REMARK INTER + INTRA:          -5.851
REMARK INTER:                  -5.739
REMARK INTRA:                  -0.112
REMARK UNBOUND:                -0.104
REMARK SMILES COc1ccc(C(C)=O)cc1O
REMARK SMILES IDX 6 1 10 2 11 3 3 4 4 5 5 6 7 7 8 8 9 9 12 10 2 12 1 13
REMARK H PARENT 12 11
REMARK Flexibility Score: inf
ROOT
ATOM      1  C   UNL     1      -7.648  20.846  66.541  1.00  0.00     0.021 A 
ATOM      2  C   UNL     1      -7.479  19.553  67.068  1.00  0.00     0.062 A 
ATOM      3  C   UNL     1      -7.480  19.332  68.450  1.00  0.00     0.158 A 
ATOM      4  C   UNL     1      -7.652  20.410  69.336  1.00  0.00     0.160 A 
ATOM      5  C   UNL     1      -7.822  21.705  68.814  1.00  0.00     0.051 A 
ATOM      6  C   UNL     1      -7.820  21.920  67.433  1.00  0.00     0.016 A 
ENDROOT
BRANCH   1   7
ATOM      7  C   UNL     1      -7.642  21.056  65.068  1.00  0.00     0.159 C 
ATOM      8  C   UNL     1      -8.548  22.050  64.406  1.00  0.00     0.093 C 
ATOM      9  O   UNL     1      -6.858  20.386  64.342  1.00  0.00    -0.295 OA
ENDBRANCH   1   7
BRANCH   3  10
ATOM     10  O   UNL     1      -7.309  18.032  68.924  1.00  0.00    -0.504 OA
ATOM     11  H   UNL     1      -8.063  17.509  69.352  1.00  0.00     0.293 HD
ENDBRANCH   3  10
BRANCH   4  12
ATOM     12  O   UNL     1      -7.650  20.160  70.718  1.00  0.00    -0.493 OA
ATOM     13  C   UNL     1      -8.229  21.019  71.694  1.00  0.00     0.278 C 
ENDBRANCH   4  12
TORSDOF 3
ENDMDL
MODEL 9
REMARK VINA RESULT:    -4.854      2.161      4.578
REMARK INTER + INTRA:          -5.668
REMARK INTER:                  -5.533
REMARK INTRA:                  -0.134
REMARK UNBOUND:                -0.104
REMARK SMILES COc1ccc(C(C)=O)cc1O
REMARK SMILES IDX 6 1 10 2 11 3 3 4 4 5 5 6 7 7 8 8 9 9 12 10 2 12 1 13
REMARK H PARENT 12 11
REMARK Flexibility Score: inf
ROOT
ATOM      1  C   UNL     1      -7.967  22.618  68.215  1.00  0.00     0.021 A 
ATOM      2  C   UNL     1      -7.806  21.223  68.129  1.00  0.00     0.062 A 
ATOM      3  C   UNL     1      -7.728  20.435  69.282  1.00  0.00     0.158 A 
ATOM      4  C   UNL     1      -7.810  21.032  70.552  1.00  0.00     0.160 A 
ATOM      5  C   UNL     1      -7.971  22.426  70.643  1.00  0.00     0.051 A 
ATOM      6  C   UNL     1      -8.048  23.209  69.489  1.00  0.00     0.016 A 
ENDROOT
BRANCH   1   7
ATOM      7  C   UNL     1      -8.046  23.437  66.975  1.00  0.00     0.159 C 
ATOM      8  C   UNL     1      -7.971  24.934  67.008  1.00  0.00     0.093 C 
ATOM      9  O   UNL     1      -8.183  22.869  65.857  1.00  0.00    -0.295 OA
ENDBRANCH   1   7
BRANCH   3  10
ATOM     10  O   UNL     1      -7.569  19.056  69.144  1.00  0.00    -0.504 OA
ATOM     11  H   UNL     1      -8.016  18.395  69.768  1.00  0.00     0.293 HD
ENDBRANCH   3  10
BRANCH   4  12
ATOM     12  O   UNL     1      -7.729  20.216  71.692  1.00  0.00    -0.493 OA
ATOM     13  C   UNL     1      -8.800  19.992  72.602  1.00  0.00     0.278 C 
ENDBRANCH   4  12
TORSDOF 3
ENDMDL
