MODEL 1
REMARK VINA RESULT:    -3.454      0.000      0.000
REMARK INTER + INTRA:          -4.085
REMARK INTER:                  -4.060
REMARK INTRA:                  -0.025
REMARK UNBOUND:                -0.025
REMARK SMILES CCCCC(=O)[O-]
REMARK SMILES IDX 4 1 5 2 6 3 7 4 3 5 2 6 1 7
REMARK H PARENT
REMARK Flexibility Score: inf
ROOT
ATOM      1  C   UNL     1      -3.020 -36.136  21.725  1.00  0.00     0.053 C 
ENDROOT
BRANCH   1   2
ATOM      2  C   UNL     1      -1.919 -35.162  22.010  1.00  0.00     0.041 C 
ATOM      3  O   UNL     1      -2.080 -34.255  22.868  1.00  0.00    -0.550 OA
ATOM      4  O   UNL     1      -0.701 -35.276  21.350  1.00  0.00    -0.550 OA
ENDBRANCH   1   2
BRANCH   1   5
ATOM      5  C   UNL     1      -2.502 -37.385  20.999  1.00  0.00     0.006 C 
BRANCH   5   6
ATOM      6  C   UNL     1      -3.619 -38.125  20.248  1.00  0.00    -0.003 C 
ATOM      7  C   UNL     1      -3.671 -37.702  18.783  1.00  0.00     0.004 C 
ENDBRANCH   5   6
ENDBRANCH   1   5
TORSDOF 3
ENDMDL
MODEL 2
REMARK VINA RESULT:    -3.391      2.248      3.063
REMARK INTER + INTRA:          -4.010
REMARK INTER:                  -3.992
REMARK INTRA:                  -0.018
REMARK UNBOUND:                -0.025
REMARK SMILES CCCCC(=O)[O-]
REMARK SMILES IDX 4 1 5 2 6 3 7 4 3 5 2 6 1 7
REMARK H PARENT
REMARK Flexibility Score: inf
ROOT
ATOM      1  C   UNL     1      -1.440 -33.967  22.874  1.00  0.00     0.053 C 
ENDROOT
BRANCH   1   2
ATOM      2  C   UNL     1      -1.944 -32.940  23.840  1.00  0.00     0.041 C 
ATOM      3  O   UNL     1      -2.893 -32.178  23.518  1.00  0.00    -0.550 OA
ATOM      4  O   UNL     1      -1.386 -32.846  25.110  1.00  0.00    -0.550 OA
ENDBRANCH   1   2
BRANCH   1   5
ATOM      5  C   UNL     1      -2.525 -34.990  22.512  1.00  0.00     0.006 C 
BRANCH   5   6
ATOM      6  C   UNL     1      -2.101 -35.900  21.350  1.00  0.00    -0.003 C 
ATOM      7  C   UNL     1      -3.085 -37.051  21.165  1.00  0.00     0.004 C 
ENDBRANCH   5   6
ENDBRANCH   1   5
TORSDOF 3
ENDMDL
MODEL 3
REMARK VINA RESULT:    -3.212      2.066      2.867
REMARK INTER + INTRA:          -3.800
REMARK INTER:                  -3.775
REMARK INTRA:                  -0.025
REMARK UNBOUND:                -0.025
REMARK SMILES CCCCC(=O)[O-]
REMARK SMILES IDX 4 1 5 2 6 3 7 4 3 5 2 6 1 7
REMARK H PARENT
REMARK Flexibility Score: inf
ROOT
ATOM      1  C   UNL     1      -0.364 -36.467  21.013  1.00  0.00     0.053 C 
ENDROOT
BRANCH   1   2
ATOM      2  C   UNL     1       0.959 -35.780  20.870  1.00  0.00     0.041 C 
ATOM      3  O   UNL     1       1.566 -35.354  21.888  1.00  0.00    -0.550 OA
ATOM      4  O   UNL     1       1.539 -35.638  19.615  1.00  0.00    -0.550 OA
ENDBRANCH   1   2
BRANCH   1   5
ATOM      5  C   UNL     1      -1.504 -35.464  21.236  1.00  0.00     0.006 C 
BRANCH   5   6
ATOM      6  C   UNL     1      -2.805 -36.153  21.674  1.00  0.00    -0.003 C 
ATOM      7  C   UNL     1      -3.029 -37.450  20.902  1.00  0.00     0.004 C 
ENDBRANCH   5   6
ENDBRANCH   1   5
TORSDOF 3
ENDMDL
MODEL 4
REMARK VINA RESULT:    -3.184      2.252      3.252
REMARK INTER + INTRA:          -3.768
REMARK INTER:                  -3.713
REMARK INTRA:                  -0.055
REMARK UNBOUND:                -0.025
REMARK SMILES CCCCC(=O)[O-]
REMARK SMILES IDX 4 1 5 2 6 3 7 4 3 5 2 6 1 7
REMARK H PARENT
REMARK Flexibility Score: inf
ROOT
ATOM      1  C   UNL     1      -1.068 -35.445  21.073  1.00  0.00     0.053 C 
ENDROOT
BRANCH   1   2
ATOM      2  C   UNL     1      -2.102 -35.153  22.117  1.00  0.00     0.041 C 
ATOM      3  O   UNL     1      -1.944 -34.192  22.915  1.00  0.00    -0.550 OA
ATOM      4  O   UNL     1      -3.257 -35.923  22.187  1.00  0.00    -0.550 OA
ENDBRANCH   1   2
BRANCH   1   5
ATOM      5  C   UNL     1      -0.711 -36.937  21.029  1.00  0.00     0.006 C 
BRANCH   5   6
ATOM      6  C   UNL     1       0.807 -37.169  21.001  1.00  0.00    -0.003 C 
ATOM      7  C   UNL     1       1.567 -35.881  21.306  1.00  0.00     0.004 C 
ENDBRANCH   5   6
ENDBRANCH   1   5
TORSDOF 3
ENDMDL
MODEL 5
REMARK VINA RESULT:    -3.162      5.022      5.563
REMARK INTER + INTRA:          -3.741
REMARK INTER:                  -3.701
REMARK INTRA:                  -0.041
REMARK UNBOUND:                -0.025
REMARK SMILES CCCCC(=O)[O-]
REMARK SMILES IDX 4 1 5 2 6 3 7 4 3 5 2 6 1 7
REMARK H PARENT
REMARK Flexibility Score: inf
ROOT
ATOM      1  C   UNL     1       1.973 -35.801  19.573  1.00  0.00     0.053 C 
ENDROOT
BRANCH   1   2
ATOM      2  C   UNL     1       1.533 -35.915  21.000  1.00  0.00     0.041 C 
ATOM      3  O   UNL     1       0.450 -36.491  21.285  1.00  0.00    -0.550 OA
ATOM      4  O   UNL     1       2.334 -35.413  22.019  1.00  0.00    -0.550 OA
ENDBRANCH   1   2
BRANCH   1   5
ATOM      5  C   UNL     1       3.500 -35.880  19.441  1.00  0.00     0.006 C 
BRANCH   5   6
ATOM      6  C   UNL     1       3.937 -36.385  18.058  1.00  0.00    -0.003 C 
ATOM      7  C   UNL     1       2.788 -37.086  17.339  1.00  0.00     0.004 C 
ENDBRANCH   5   6
ENDBRANCH   1   5
TORSDOF 3
ENDMDL
MODEL 6
REMARK VINA RESULT:    -3.050      2.787      3.619
REMARK INTER + INTRA:          -3.610
REMARK INTER:                  -3.594
REMARK INTRA:                  -0.016
REMARK UNBOUND:                -0.025
REMARK SMILES CCCCC(=O)[O-]
REMARK SMILES IDX 4 1 5 2 6 3 7 4 3 5 2 6 1 7
REMARK H PARENT
REMARK Flexibility Score: inf
ROOT
ATOM      1  C   UNL     1      -1.249 -35.483  21.388  1.00  0.00     0.053 C 
ENDROOT
BRANCH   1   2
ATOM      2  C   UNL     1      -2.612 -36.069  21.184  1.00  0.00     0.041 C 
ATOM      3  O   UNL     1      -3.433 -36.115  22.139  1.00  0.00    -0.550 OA
ATOM      4  O   UNL     1      -2.990 -36.537  19.931  1.00  0.00    -0.550 OA
ENDBRANCH   1   2
BRANCH   1   5
ATOM      5  C   UNL     1      -0.142 -36.457  20.964  1.00  0.00     0.006 C 
BRANCH   5   6
ATOM      6  C   UNL     1       1.248 -35.804  20.992  1.00  0.00    -0.003 C 
ATOM      7  C   UNL     1       1.917 -35.874  19.622  1.00  0.00     0.004 C 
ENDBRANCH   5   6
ENDBRANCH   1   5
TORSDOF 3
ENDMDL
MODEL 7
REMARK VINA RESULT:    -3.026      5.100      5.743
REMARK INTER + INTRA:          -3.581
REMARK INTER:                  -3.545
REMARK INTRA:                  -0.037
REMARK UNBOUND:                -0.025
REMARK SMILES CCCCC(=O)[O-]
REMARK SMILES IDX 4 1 5 2 6 3 7 4 3 5 2 6 1 7
REMARK H PARENT
REMARK Flexibility Score: inf
ROOT
ATOM      1  C   UNL     1       2.397 -36.545  21.110  1.00  0.00     0.053 C 
ENDROOT
BRANCH   1   2
ATOM      2  C   UNL     1       3.206 -35.595  21.938  1.00  0.00     0.041 C 
ATOM      3  O   UNL     1       4.460 -35.568  21.829  1.00  0.00    -0.550 OA
ATOM      4  O   UNL     1       2.572 -34.716  22.808  1.00  0.00    -0.550 OA
ENDBRANCH   1   2
BRANCH   1   5
ATOM      5  C   UNL     1       1.937 -35.904  19.794  1.00  0.00     0.006 C 
BRANCH   5   6
ATOM      6  C   UNL     1       3.013 -35.986  18.701  1.00  0.00    -0.003 C 
ATOM      7  C   UNL     1       2.621 -36.986  17.617  1.00  0.00     0.004 C 
ENDBRANCH   5   6
ENDBRANCH   1   5
TORSDOF 3
ENDMDL
MODEL 8
REMARK VINA RESULT:    -2.997      2.230      4.372
REMARK INTER + INTRA:          -3.548
REMARK INTER:                  -3.523
REMARK INTRA:                  -0.025
REMARK UNBOUND:                -0.025
REMARK SMILES CCCCC(=O)[O-]
REMARK SMILES IDX 4 1 5 2 6 3 7 4 3 5 2 6 1 7
REMARK H PARENT
REMARK Flexibility Score: inf
ROOT
ATOM      1  C   UNL     1      -2.900 -35.474  22.359  1.00  0.00     0.053 C 
ENDROOT
BRANCH   1   2
ATOM      2  C   UNL     1      -2.685 -36.371  21.180  1.00  0.00     0.041 C 
ATOM      3  O   UNL     1      -1.803 -36.095  20.325  1.00  0.00    -0.550 OA
ATOM      4  O   UNL     1      -3.437 -37.531  21.041  1.00  0.00    -0.550 OA
ENDBRANCH   1   2
BRANCH   1   5
ATOM      5  C   UNL     1      -1.757 -34.463  22.521  1.00  0.00     0.006 C 
BRANCH   5   6
ATOM      6  C   UNL     1      -2.206 -33.192  23.258  1.00  0.00    -0.003 C 
ATOM      7  C   UNL     1      -1.054 -32.579  24.050  1.00  0.00     0.004 C 
ENDBRANCH   5   6
ENDBRANCH   1   5
TORSDOF 3
ENDMDL
