MODEL 1
REMARK VINA RESULT:    -3.868      0.000      0.000
REMARK INTER + INTRA:          -6.288
REMARK INTER:                  -5.903
REMARK INTRA:                  -0.384
REMARK UNBOUND:                -0.384
REMARK SMILES CCCCCCCCCCC(=O)[O-]
REMARK SMILES IDX 7 1 8 2 9 3 10 4 11 5 12 6 13 7 6 8 5 9 4 10 3 11 2 12 1 13
REMARK H PARENT
REMARK Flexibility Score: inf
ROOT
ATOM      1  C   UNL     1     119.910 109.617 109.802  1.00  0.00     0.000 C 
ENDROOT
BRANCH   1   2
ATOM      2  C   UNL     1     118.926 110.338 110.738  1.00  0.00     0.000 C 
BRANCH   2   3
ATOM      3  C   UNL     1     119.626 110.995 111.941  1.00  0.00     0.006 C 
BRANCH   3   4
ATOM      4  C   UNL     1     120.659 110.063 112.590  1.00  0.00     0.053 C 
BRANCH   4   5
ATOM      5  C   UNL     1     121.426 110.752 113.678  1.00  0.00     0.041 C 
ATOM      6  O   UNL     1     122.639 110.476 113.869  1.00  0.00    -0.550 OA
ATOM      7  O   UNL     1     120.792 111.675 114.500  1.00  0.00    -0.550 OA
ENDBRANCH   4   5
ENDBRANCH   3   4
ENDBRANCH   2   3
ENDBRANCH   1   2
BRANCH   1   8
ATOM      8  C   UNL     1     120.131 110.376 108.481  1.00  0.00     0.000 C 
BRANCH   8   9
ATOM      9  C   UNL     1     119.985 109.468 107.248  1.00  0.00    -0.000 C 
BRANCH   9  10
ATOM     10  C   UNL     1     121.330 108.914 106.756  1.00  0.00    -0.000 C 
BRANCH  10  11
ATOM     11  C   UNL     1     121.228 107.413 106.454  1.00  0.00    -0.000 C 
BRANCH  11  12
ATOM     12  C   UNL     1     119.972 107.102 105.633  1.00  0.00    -0.003 C 
ATOM     13  C   UNL     1     120.330 106.732 104.196  1.00  0.00     0.004 C 
ENDBRANCH  11  12
ENDBRANCH  10  11
ENDBRANCH   9  10
ENDBRANCH   8   9
ENDBRANCH   1   8
TORSDOF 9
ENDMDL
MODEL 2
REMARK VINA RESULT:    -3.834      1.621      2.786
REMARK INTER + INTRA:          -6.236
REMARK INTER:                  -5.241
REMARK INTRA:                  -0.996
REMARK UNBOUND:                -0.384
REMARK SMILES CCCCCCCCCCC(=O)[O-]
REMARK SMILES IDX 7 1 8 2 9 3 10 4 11 5 12 6 13 7 6 8 5 9 4 10 3 11 2 12 1 13
REMARK H PARENT
REMARK Flexibility Score: inf
ROOT
ATOM      1  C   UNL     1     120.754 109.829 107.388  1.00  0.00     0.000 C 
ENDROOT
BRANCH   1   2
ATOM      2  C   UNL     1     120.457 110.515 108.731  1.00  0.00     0.000 C 
BRANCH   2   3
ATOM      3  C   UNL     1     120.234 109.509 109.874  1.00  0.00     0.006 C 
BRANCH   3   4
ATOM      4  C   UNL     1     119.272 110.049 110.941  1.00  0.00     0.053 C 
BRANCH   4   5
ATOM      5  C   UNL     1     120.004 110.705 112.072  1.00  0.00     0.041 C 
ATOM      6  O   UNL     1     120.647 110.006 112.900  1.00  0.00    -0.550 OA
ATOM      7  O   UNL     1     119.952 112.084 112.230  1.00  0.00    -0.550 OA
ENDBRANCH   4   5
ENDBRANCH   3   4
ENDBRANCH   2   3
ENDBRANCH   1   2
BRANCH   1   8
ATOM      8  C   UNL     1     119.657 108.830 106.979  1.00  0.00     0.000 C 
BRANCH   8   9
ATOM      9  C   UNL     1     120.218 107.615 106.222  1.00  0.00    -0.000 C 
BRANCH   9  10
ATOM     10  C   UNL     1     121.715 107.390 106.486  1.00  0.00    -0.000 C 
BRANCH  10  11
ATOM     11  C   UNL     1     121.952 106.046 107.187  1.00  0.00    -0.000 C 
BRANCH  11  12
ATOM     12  C   UNL     1     122.410 106.254 108.635  1.00  0.00    -0.003 C 
ATOM     13  C   UNL     1     123.274 107.505 108.765  1.00  0.00     0.004 C 
ENDBRANCH  11  12
ENDBRANCH  10  11
ENDBRANCH   9  10
ENDBRANCH   8   9
ENDBRANCH   1   8
TORSDOF 9
ENDMDL
MODEL 3
REMARK VINA RESULT:    -3.823      5.591      7.328
REMARK INTER + INTRA:          -6.220
REMARK INTER:                  -5.846
REMARK INTRA:                  -0.374
REMARK UNBOUND:                -0.384
REMARK SMILES CCCCCCCCCCC(=O)[O-]
REMARK SMILES IDX 7 1 8 2 9 3 10 4 11 5 12 6 13 7 6 8 5 9 4 10 3 11 2 12 1 13
REMARK H PARENT
REMARK Flexibility Score: inf
ROOT
ATOM      1  C   UNL     1     122.164 112.362 106.359  1.00  0.00     0.000 C 
ENDROOT
BRANCH   1   2
ATOM      2  C   UNL     1     121.089 113.434 106.603  1.00  0.00     0.000 C 
BRANCH   2   3
ATOM      3  C   UNL     1     120.789 114.270 105.346  1.00  0.00     0.006 C 
BRANCH   3   4
ATOM      4  C   UNL     1     119.978 115.532 105.669  1.00  0.00     0.053 C 
BRANCH   4   5
ATOM      5  C   UNL     1     120.535 116.743 104.986  1.00  0.00     0.041 C 
ATOM      6  O   UNL     1     121.748 117.049 105.128  1.00  0.00    -0.550 OA
ATOM      7  O   UNL     1     119.707 117.551 104.216  1.00  0.00    -0.550 OA
ENDBRANCH   4   5
ENDBRANCH   3   4
ENDBRANCH   2   3
ENDBRANCH   1   2
BRANCH   1   8
ATOM      8  C   UNL     1     121.761 110.984 106.914  1.00  0.00     0.000 C 
BRANCH   8   9
ATOM      9  C   UNL     1     120.337 110.977 107.494  1.00  0.00    -0.000 C 
BRANCH   9  10
ATOM     10  C   UNL     1     119.982 109.649 108.181  1.00  0.00    -0.000 C 
BRANCH  10  11
ATOM     11  C   UNL     1     120.495 109.625 109.626  1.00  0.00    -0.000 C 
BRANCH  11  12
ATOM     12  C   UNL     1     119.390 110.027 110.609  1.00  0.00    -0.003 C 
ATOM     13  C   UNL     1     119.916 110.071 112.041  1.00  0.00     0.004 C 
ENDBRANCH  11  12
ENDBRANCH  10  11
ENDBRANCH   9  10
ENDBRANCH   8   9
ENDBRANCH   1   8
TORSDOF 9
ENDMDL
MODEL 4
REMARK VINA RESULT:    -3.808      3.938      6.933
REMARK INTER + INTRA:          -6.196
REMARK INTER:                  -5.582
REMARK INTRA:                  -0.615
REMARK UNBOUND:                -0.384
REMARK SMILES CCCCCCCCCCC(=O)[O-]
REMARK SMILES IDX 7 1 8 2 9 3 10 4 11 5 12 6 13 7 6 8 5 9 4 10 3 11 2 12 1 13
REMARK H PARENT
REMARK Flexibility Score: inf
ROOT
ATOM      1  C   UNL     1     121.525 110.572 107.324  1.00  0.00     0.000 C 
ENDROOT
BRANCH   1   2
ATOM      2  C   UNL     1     122.016 109.303 106.609  1.00  0.00     0.000 C 
BRANCH   2   3
ATOM      3  C   UNL     1     121.736 108.022 107.414  1.00  0.00     0.006 C 
BRANCH   3   4
ATOM      4  C   UNL     1     121.415 106.826 106.507  1.00  0.00     0.053 C 
BRANCH   4   5
ATOM      5  C   UNL     1     120.263 107.113 105.592  1.00  0.00     0.041 C 
ATOM      6  O   UNL     1     119.139 107.425 106.067  1.00  0.00    -0.550 OA
ATOM      7  O   UNL     1     120.423 107.007 104.216  1.00  0.00    -0.550 OA
ENDBRANCH   4   5
ENDBRANCH   3   4
ENDBRANCH   2   3
ENDBRANCH   1   2
BRANCH   1   8
ATOM      8  C   UNL     1     120.005 110.564 107.564  1.00  0.00     0.000 C 
BRANCH   8   9
ATOM      9  C   UNL     1     119.631 111.000 108.991  1.00  0.00    -0.000 C 
BRANCH   9  10
ATOM     10  C   UNL     1     119.807 109.874 110.021  1.00  0.00    -0.000 C 
BRANCH  10  11
ATOM     11  C   UNL     1     119.341 110.325 111.411  1.00  0.00    -0.000 C 
BRANCH  11  12
ATOM     12  C   UNL     1     120.371 109.953 112.484  1.00  0.00    -0.003 C 
ATOM     13  C   UNL     1     120.728 111.160 113.347  1.00  0.00     0.004 C 
ENDBRANCH  11  12
ENDBRANCH  10  11
ENDBRANCH   9  10
ENDBRANCH   8   9
ENDBRANCH   1   8
TORSDOF 9
ENDMDL
MODEL 5
REMARK VINA RESULT:    -3.802      3.825      6.538
REMARK INTER + INTRA:          -6.186
REMARK INTER:                  -5.373
REMARK INTRA:                  -0.813
REMARK UNBOUND:                -0.384
REMARK SMILES CCCCCCCCCCC(=O)[O-]
REMARK SMILES IDX 7 1 8 2 9 3 10 4 11 5 12 6 13 7 6 8 5 9 4 10 3 11 2 12 1 13
REMARK H PARENT
REMARK Flexibility Score: inf
ROOT
ATOM      1  C   UNL     1     119.840 111.251 109.220  1.00  0.00     0.000 C 
ENDROOT
BRANCH   1   2
ATOM      2  C   UNL     1     120.325 110.938 107.795  1.00  0.00     0.000 C 
BRANCH   2   3
ATOM      3  C   UNL     1     119.992 109.501 107.358  1.00  0.00     0.006 C 
BRANCH   3   4
ATOM      4  C   UNL     1     121.248 108.706 106.976  1.00  0.00     0.053 C 
BRANCH   4   5
ATOM      5  C   UNL     1     120.930 107.573 106.047  1.00  0.00     0.041 C 
ATOM      6  O   UNL     1     121.855 106.981 105.431  1.00  0.00    -0.550 OA
ATOM      7  O   UNL     1     119.610 107.192 105.839  1.00  0.00    -0.550 OA
ENDBRANCH   4   5
ENDBRANCH   3   4
ENDBRANCH   2   3
ENDBRANCH   1   2
BRANCH   1   8
ATOM      8  C   UNL     1     119.298 110.008 109.947  1.00  0.00     0.000 C 
BRANCH   8   9
ATOM      9  C   UNL     1     118.877 110.308 111.395  1.00  0.00    -0.000 C 
BRANCH   9  10
ATOM     10  C   UNL     1     119.922 111.136 112.157  1.00  0.00    -0.000 C 
BRANCH  10  11
ATOM     11  C   UNL     1     121.032 110.237 112.717  1.00  0.00    -0.000 C 
BRANCH  11  12
ATOM     12  C   UNL     1     122.418 110.783 112.352  1.00  0.00    -0.003 C 
ATOM     13  C   UNL     1     122.915 110.189 111.038  1.00  0.00     0.004 C 
ENDBRANCH  11  12
ENDBRANCH  10  11
ENDBRANCH   9  10
ENDBRANCH   8   9
ENDBRANCH   1   8
TORSDOF 9
ENDMDL
MODEL 6
REMARK VINA RESULT:    -3.785      2.308      3.557
REMARK INTER + INTRA:          -6.161
REMARK INTER:                  -5.664
REMARK INTRA:                  -0.497
REMARK UNBOUND:                -0.384
REMARK SMILES CCCCCCCCCCC(=O)[O-]
REMARK SMILES IDX 7 1 8 2 9 3 10 4 11 5 12 6 13 7 6 8 5 9 4 10 3 11 2 12 1 13
REMARK H PARENT
REMARK Flexibility Score: inf
ROOT
ATOM      1  C   UNL     1     120.673 109.389 109.872  1.00  0.00     0.000 C 
ENDROOT
BRANCH   1   2
ATOM      2  C   UNL     1     119.372 110.156 110.161  1.00  0.00     0.000 C 
BRANCH   2   3
ATOM      3  C   UNL     1     119.101 110.317 111.667  1.00  0.00     0.006 C 
BRANCH   3   4
ATOM      4  C   UNL     1     120.354 110.051 112.513  1.00  0.00     0.053 C 
BRANCH   4   5
ATOM      5  C   UNL     1     120.716 111.233 113.359  1.00  0.00     0.041 C 
ATOM      6  O   UNL     1     120.710 112.392 112.865  1.00  0.00    -0.550 OA
ATOM      7  O   UNL     1     121.090 111.053 114.685  1.00  0.00    -0.550 OA
ENDBRANCH   4   5
ENDBRANCH   3   4
ENDBRANCH   2   3
ENDBRANCH   1   2
BRANCH   1   8
ATOM      8  C   UNL     1     120.950 109.243 108.365  1.00  0.00     0.000 C 
BRANCH   8   9
ATOM      9  C   UNL     1     120.297 110.360 107.534  1.00  0.00    -0.000 C 
BRANCH   9  10
ATOM     10  C   UNL     1     121.309 111.410 107.051  1.00  0.00    -0.000 C 
BRANCH  10  11
ATOM     11  C   UNL     1     120.689 112.812 107.055  1.00  0.00    -0.000 C 
BRANCH  11  12
ATOM     12  C   UNL     1     121.036 113.571 105.769  1.00  0.00    -0.003 C 
ATOM     13  C   UNL     1     120.450 114.980 105.785  1.00  0.00     0.004 C 
ENDBRANCH  11  12
ENDBRANCH  10  11
ENDBRANCH   9  10
ENDBRANCH   8   9
ENDBRANCH   1   8
TORSDOF 9
ENDMDL
MODEL 7
REMARK VINA RESULT:    -3.747      2.678      4.446
REMARK INTER + INTRA:          -6.103
REMARK INTER:                  -5.625
REMARK INTRA:                  -0.478
REMARK UNBOUND:                -0.384
REMARK SMILES CCCCCCCCCCC(=O)[O-]
REMARK SMILES IDX 7 1 8 2 9 3 10 4 11 5 12 6 13 7 6 8 5 9 4 10 3 11 2 12 1 13
REMARK H PARENT
REMARK Flexibility Score: inf
ROOT
ATOM      1  C   UNL     1     121.101 110.745 113.461  1.00  0.00     0.000 C 
ENDROOT
BRANCH   1   2
ATOM      2  C   UNL     1     121.039 112.270 113.271  1.00  0.00     0.000 C 
BRANCH   2   3
ATOM      3  C   UNL     1     120.221 112.972 114.369  1.00  0.00     0.006 C 
BRANCH   3   4
ATOM      4  C   UNL     1     119.739 114.362 113.933  1.00  0.00     0.053 C 
BRANCH   4   5
ATOM      5  C   UNL     1     118.800 114.966 114.932  1.00  0.00     0.041 C 
ATOM      6  O   UNL     1     118.399 114.288 115.915  1.00  0.00    -0.550 OA
ATOM      7  O   UNL     1     118.344 116.267 114.763  1.00  0.00    -0.550 OA
ENDBRANCH   4   5
ENDBRANCH   3   4
ENDBRANCH   2   3
ENDBRANCH   1   2
BRANCH   1   8
ATOM      8  C   UNL     1     120.517 109.976 112.263  1.00  0.00     0.000 C 
BRANCH   8   9
ATOM      9  C   UNL     1     119.160 110.538 111.807  1.00  0.00    -0.000 C 
BRANCH   9  10
ATOM     10  C   UNL     1     118.916 110.353 110.302  1.00  0.00    -0.000 C 
BRANCH  10  11
ATOM     11  C   UNL     1     120.128 109.700 109.626  1.00  0.00    -0.000 C 
BRANCH  11  12
ATOM     12  C   UNL     1     120.275 110.181 108.177  1.00  0.00    -0.003 C 
ATOM     13  C   UNL     1     119.888 109.083 107.191  1.00  0.00     0.004 C 
ENDBRANCH  11  12
ENDBRANCH  10  11
ENDBRANCH   9  10
ENDBRANCH   8   9
ENDBRANCH   1   8
TORSDOF 9
ENDMDL
MODEL 8
REMARK VINA RESULT:    -3.708      2.470      3.693
REMARK INTER + INTRA:          -6.043
REMARK INTER:                  -5.606
REMARK INTRA:                  -0.437
REMARK UNBOUND:                -0.384
REMARK SMILES CCCCCCCCCCC(=O)[O-]
REMARK SMILES IDX 7 1 8 2 9 3 10 4 11 5 12 6 13 7 6 8 5 9 4 10 3 11 2 12 1 13
REMARK H PARENT
REMARK Flexibility Score: inf
ROOT
ATOM      1  C   UNL     1     120.384 110.080 112.359  1.00  0.00     0.000 C 
ENDROOT
BRANCH   1   2
ATOM      2  C   UNL     1     120.948 111.363 112.992  1.00  0.00     0.000 C 
BRANCH   2   3
ATOM      3  C   UNL     1     121.450 111.143 114.430  1.00  0.00     0.006 C 
BRANCH   3   4
ATOM      4  C   UNL     1     120.680 111.994 115.448  1.00  0.00     0.053 C 
BRANCH   4   5
ATOM      5  C   UNL     1     120.767 111.424 116.831  1.00  0.00     0.041 C 
ATOM      6  O   UNL     1     119.719 111.099 117.450  1.00  0.00    -0.550 OA
ATOM      7  O   UNL     1     122.003 111.279 117.449  1.00  0.00    -0.550 OA
ENDBRANCH   4   5
ENDBRANCH   3   4
ENDBRANCH   2   3
ENDBRANCH   1   2
BRANCH   1   8
ATOM      8  C   UNL     1     119.025 110.308 111.673  1.00  0.00     0.000 C 
BRANCH   8   9
ATOM      9  C   UNL     1     119.111 110.191 110.142  1.00  0.00    -0.000 C 
BRANCH   9  10
ATOM     10  C   UNL     1     120.383 109.469 109.672  1.00  0.00    -0.000 C 
BRANCH  10  11
ATOM     11  C   UNL     1     120.642 109.729 108.183  1.00  0.00    -0.000 C 
BRANCH  11  12
ATOM     12  C   UNL     1     120.014 111.054 107.737  1.00  0.00    -0.003 C 
ATOM     13  C   UNL     1     121.052 111.966 107.090  1.00  0.00     0.004 C 
ENDBRANCH  11  12
ENDBRANCH  10  11
ENDBRANCH   9  10
ENDBRANCH   8   9
ENDBRANCH   1   8
TORSDOF 9
ENDMDL
MODEL 9
REMARK VINA RESULT:    -3.687      3.402      6.013
REMARK INTER + INTRA:          -6.011
REMARK INTER:                  -4.856
REMARK INTRA:                  -1.156
REMARK UNBOUND:                -0.384
REMARK SMILES CCCCCCCCCCC(=O)[O-]
REMARK SMILES IDX 7 1 8 2 9 3 10 4 11 5 12 6 13 7 6 8 5 9 4 10 3 11 2 12 1 13
REMARK H PARENT
REMARK Flexibility Score: inf
ROOT
ATOM      1  C   UNL     1     119.338 109.994 109.918  1.00  0.00     0.000 C 
ENDROOT
BRANCH   1   2
ATOM      2  C   UNL     1     119.629 111.271 109.113  1.00  0.00     0.000 C 
BRANCH   2   3
ATOM      3  C   UNL     1     120.129 110.973 107.689  1.00  0.00     0.006 C 
BRANCH   3   4
ATOM      4  C   UNL     1     120.078 109.475 107.358  1.00  0.00     0.053 C 
BRANCH   4   5
ATOM      5  C   UNL     1     121.364 108.993 106.759  1.00  0.00     0.041 C 
ATOM      6  O   UNL     1     121.510 107.776 106.466  1.00  0.00    -0.550 OA
ATOM      7  O   UNL     1     122.413 109.880 106.552  1.00  0.00    -0.550 OA
ENDBRANCH   4   5
ENDBRANCH   3   4
ENDBRANCH   2   3
ENDBRANCH   1   2
BRANCH   1   8
ATOM      8  C   UNL     1     118.993 110.288 111.389  1.00  0.00     0.000 C 
BRANCH   8   9
ATOM      9  C   UNL     1     120.211 110.156 112.318  1.00  0.00    -0.000 C 
BRANCH   9  10
ATOM     10  C   UNL     1     120.827 111.514 112.686  1.00  0.00    -0.000 C 
BRANCH  10  11
ATOM     11  C   UNL     1     122.132 111.752 111.915  1.00  0.00    -0.000 C 
BRANCH  11  12
ATOM     12  C   UNL     1     122.748 110.425 111.455  1.00  0.00    -0.003 C 
ATOM     13  C   UNL     1     123.142 110.482 109.982  1.00  0.00     0.004 C 
ENDBRANCH  11  12
ENDBRANCH  10  11
ENDBRANCH   9  10
ENDBRANCH   8   9
ENDBRANCH   1   8
TORSDOF 9
ENDMDL
