MODEL 1
REMARK VINA RESULT:    -7.787      0.000      0.000
REMARK INTER + INTRA:          -8.225
REMARK INTER:                  -8.242
REMARK INTRA:                   0.017
REMARK UNBOUND:                 0.017
REMARK SMILES CC1=CC[C@@]23[C@@H]([C@H](C(C)C)CC[C@H]2C)[C@H]13
REMARK SMILES IDX 14 1 13 2 12 3 11 4 7 5 6 6 5 7 15 8 2 9 3 10 4 11 1 12 8 13
REMARK SMILES IDX 9 14 10 15
REMARK H PARENT
REMARK Flexibility Score: inf
ROOT
ATOM      1  C   UNL     1      -1.610 -12.670  10.266  1.00  0.00     0.008 C 
ATOM      2  C   UNL     1      -1.855 -14.156   9.957  1.00  0.00    -0.007 C 
ATOM      3  C   UNL     1      -2.703 -14.260   8.681  1.00  0.00     0.004 C 
ATOM      4  C   UNL     1      -3.009 -15.714   8.337  1.00  0.00     0.004 C 
ATOM      5  C   UNL     1      -3.954 -16.354   9.380  1.00  0.00    -0.004 C 
ATOM      6  C   UNL     1      -3.572 -16.011  10.844  1.00  0.00     0.007 C 
ATOM      7  C   UNL     1      -2.525 -14.919  11.143  1.00  0.00    -0.013 C 
ATOM      8  C   UNL     1      -2.155 -16.407  11.240  1.00  0.00     0.025 C 
ATOM      9  C   UNL     1      -1.947 -16.656  12.693  1.00  0.00    -0.073 C 
ATOM     10  C   UNL     1      -2.121 -15.567  13.428  1.00  0.00    -0.027 C 
ATOM     11  C   UNL     1      -2.479 -14.385  12.594  1.00  0.00     0.035 C 
ATOM     12  C   UNL     1      -1.607 -17.996  13.267  1.00  0.00     0.039 C 
ENDROOT
BRANCH   5  13
ATOM     13  C   UNL     1      -4.079 -17.900   9.175  1.00  0.00    -0.014 C 
ATOM     14  C   UNL     1      -4.041 -18.661  10.511  1.00  0.00     0.007 C 
ATOM     15  C   UNL     1      -2.970 -18.448   8.257  1.00  0.00     0.007 C 
ENDBRANCH   5  13
TORSDOF 1
ENDMDL
MODEL 2
REMARK VINA RESULT:    -6.999      2.274      3.384
REMARK INTER + INTRA:          -7.392
REMARK INTER:                  -7.113
REMARK INTRA:                  -0.279
REMARK UNBOUND:                 0.017
REMARK SMILES CC1=CC[C@@]23[C@@H]([C@H](C(C)C)CC[C@H]2C)[C@H]13
REMARK SMILES IDX 14 1 13 2 12 3 11 4 7 5 6 6 5 7 15 8 2 9 3 10 4 11 1 12 8 13
REMARK SMILES IDX 9 14 10 15
REMARK H PARENT
REMARK Flexibility Score: inf
ROOT
ATOM      1  C   UNL     1      -5.093 -13.137   6.858  1.00  0.00     0.008 C 
ATOM      2  C   UNL     1      -4.371 -14.460   7.162  1.00  0.00    -0.007 C 
ATOM      3  C   UNL     1      -5.415 -15.583   7.247  1.00  0.00     0.004 C 
ATOM      4  C   UNL     1      -4.763 -16.921   7.579  1.00  0.00     0.004 C 
ATOM      5  C   UNL     1      -4.193 -16.931   9.016  1.00  0.00    -0.004 C 
ATOM      6  C   UNL     1      -3.427 -15.630   9.379  1.00  0.00     0.007 C 
ATOM      7  C   UNL     1      -3.506 -14.395   8.461  1.00  0.00    -0.013 C 
ATOM      8  C   UNL     1      -2.264 -15.299   8.452  1.00  0.00     0.025 C 
ATOM      9  C   UNL     1      -1.185 -14.471   9.057  1.00  0.00    -0.073 C 
ATOM     10  C   UNL     1      -1.597 -13.258   9.392  1.00  0.00    -0.027 C 
ATOM     11  C   UNL     1      -3.038 -13.051   9.069  1.00  0.00     0.035 C 
ATOM     12  C   UNL     1       0.209 -14.966   9.291  1.00  0.00     0.039 C 
ENDROOT
BRANCH   5  13
ATOM     13  C   UNL     1      -3.315 -18.197   9.281  1.00  0.00    -0.014 C 
ATOM     14  C   UNL     1      -3.117 -19.035   8.005  1.00  0.00     0.007 C 
ATOM     15  C   UNL     1      -3.918 -19.093  10.378  1.00  0.00     0.007 C 
ENDBRANCH   5  13
TORSDOF 1
ENDMDL
MODEL 3
REMARK VINA RESULT:    -6.581      1.534      4.526
REMARK INTER + INTRA:          -6.949
REMARK INTER:                  -7.000
REMARK INTRA:                   0.051
REMARK UNBOUND:                 0.017
REMARK SMILES CC1=CC[C@@]23[C@@H]([C@H](C(C)C)CC[C@H]2C)[C@H]13
REMARK SMILES IDX 14 1 13 2 12 3 11 4 7 5 6 6 5 7 15 8 2 9 3 10 4 11 1 12 8 13
REMARK SMILES IDX 9 14 10 15
REMARK H PARENT
REMARK Flexibility Score: inf
ROOT
ATOM      1  C   UNL     1      -5.432 -15.777   5.543  1.00  0.00     0.008 C 
ATOM      2  C   UNL     1      -5.003 -15.331   6.951  1.00  0.00    -0.007 C 
ATOM      3  C   UNL     1      -4.499 -13.882   6.876  1.00  0.00     0.004 C 
ATOM      4  C   UNL     1      -4.028 -13.390   8.240  1.00  0.00     0.004 C 
ATOM      5  C   UNL     1      -2.751 -14.130   8.698  1.00  0.00    -0.004 C 
ATOM      6  C   UNL     1      -2.808 -15.661   8.450  1.00  0.00     0.007 C 
ATOM      7  C   UNL     1      -3.928 -16.270   7.583  1.00  0.00    -0.013 C 
ATOM      8  C   UNL     1      -3.983 -16.368   9.116  1.00  0.00     0.025 C 
ATOM      9  C   UNL     1      -3.769 -17.810   9.415  1.00  0.00    -0.073 C 
ATOM     10  C   UNL     1      -3.619 -18.542   8.321  1.00  0.00    -0.027 C 
ATOM     11  C   UNL     1      -3.705 -17.717   7.083  1.00  0.00     0.035 C 
ATOM     12  C   UNL     1      -3.702 -18.370  10.802  1.00  0.00     0.039 C 
ENDROOT
BRANCH   5  13
ATOM     13  C   UNL     1      -2.400 -13.810  10.188  1.00  0.00    -0.014 C 
ATOM     14  C   UNL     1      -1.376 -12.668  10.304  1.00  0.00     0.007 C 
ATOM     15  C   UNL     1      -1.855 -15.047  10.927  1.00  0.00     0.007 C 
ENDBRANCH   5  13
TORSDOF 1
ENDMDL
MODEL 4
REMARK VINA RESULT:    -6.488      1.365      3.773
REMARK INTER + INTRA:          -6.851
REMARK INTER:                  -6.671
REMARK INTRA:                  -0.180
REMARK UNBOUND:                 0.017
REMARK SMILES CC1=CC[C@@]23[C@@H]([C@H](C(C)C)CC[C@H]2C)[C@H]13
REMARK SMILES IDX 14 1 13 2 12 3 11 4 7 5 6 6 5 7 15 8 2 9 3 10 4 11 1 12 8 13
REMARK SMILES IDX 9 14 10 15
REMARK H PARENT
REMARK Flexibility Score: inf
ROOT
ATOM      1  C   UNL     1      -3.829 -15.380  13.673  1.00  0.00     0.008 C 
ATOM      2  C   UNL     1      -2.983 -15.404  12.390  1.00  0.00    -0.007 C 
ATOM      3  C   UNL     1      -2.370 -14.012  12.178  1.00  0.00     0.004 C 
ATOM      4  C   UNL     1      -1.541 -13.961  10.899  1.00  0.00     0.004 C 
ATOM      5  C   UNL     1      -2.432 -14.094   9.642  1.00  0.00    -0.004 C 
ATOM      6  C   UNL     1      -3.514 -15.198   9.773  1.00  0.00     0.007 C 
ATOM      7  C   UNL     1      -3.794 -15.860  11.136  1.00  0.00    -0.013 C 
ATOM      8  C   UNL     1      -2.968 -16.590  10.067  1.00  0.00     0.025 C 
ATOM      9  C   UNL     1      -3.830 -17.719   9.621  1.00  0.00    -0.073 C 
ATOM     10  C   UNL     1      -4.989 -17.760  10.261  1.00  0.00    -0.027 C 
ATOM     11  C   UNL     1      -5.113 -16.659  11.258  1.00  0.00     0.035 C 
ATOM     12  C   UNL     1      -3.443 -18.685   8.545  1.00  0.00     0.039 C 
ENDROOT
BRANCH   5  13
ATOM     13  C   UNL     1      -1.578 -14.287   8.347  1.00  0.00    -0.014 C 
ATOM     14  C   UNL     1      -2.369 -15.007   7.240  1.00  0.00     0.007 C 
ATOM     15  C   UNL     1      -0.283 -15.071   8.625  1.00  0.00     0.007 C 
ENDBRANCH   5  13
TORSDOF 1
ENDMDL
MODEL 5
REMARK VINA RESULT:    -6.485      1.004      4.155
REMARK INTER + INTRA:          -6.848
REMARK INTER:                  -6.579
REMARK INTRA:                  -0.269
REMARK UNBOUND:                 0.017
REMARK SMILES CC1=CC[C@@]23[C@@H]([C@H](C(C)C)CC[C@H]2C)[C@H]13
REMARK SMILES IDX 14 1 13 2 12 3 11 4 7 5 6 6 5 7 15 8 2 9 3 10 4 11 1 12 8 13
REMARK SMILES IDX 9 14 10 15
REMARK H PARENT
REMARK Flexibility Score: inf
ROOT
ATOM      1  C   UNL     1      -4.176 -16.876   7.145  1.00  0.00     0.008 C 
ATOM      2  C   UNL     1      -3.241 -16.840   8.366  1.00  0.00    -0.007 C 
ATOM      3  C   UNL     1      -3.617 -17.993   9.308  1.00  0.00     0.004 C 
ATOM      4  C   UNL     1      -2.744 -17.993  10.558  1.00  0.00     0.004 C 
ATOM      5  C   UNL     1      -3.037 -16.766  11.452  1.00  0.00    -0.004 C 
ATOM      6  C   UNL     1      -3.172 -15.444  10.651  1.00  0.00     0.007 C 
ATOM      7  C   UNL     1      -3.272 -15.469   9.113  1.00  0.00    -0.013 C 
ATOM      8  C   UNL     1      -1.955 -15.086   9.806  1.00  0.00     0.025 C 
ATOM      9  C   UNL     1      -1.782 -13.635   9.523  1.00  0.00    -0.073 C 
ATOM     10  C   UNL     1      -2.761 -13.138   8.782  1.00  0.00    -0.027 C 
ATOM     11  C   UNL     1      -3.774 -14.174   8.431  1.00  0.00     0.035 C 
ATOM     12  C   UNL     1      -0.641 -12.818  10.045  1.00  0.00     0.039 C 
ENDROOT
BRANCH   5  13
ATOM     13  C   UNL     1      -1.987 -16.626  12.603  1.00  0.00    -0.014 C 
ATOM     14  C   UNL     1      -1.648 -17.986  13.238  1.00  0.00     0.007 C 
ATOM     15  C   UNL     1      -2.470 -15.666  13.705  1.00  0.00     0.007 C 
ENDBRANCH   5  13
TORSDOF 1
ENDMDL
MODEL 6
REMARK VINA RESULT:    -6.455      1.199      3.689
REMARK INTER + INTRA:          -6.816
REMARK INTER:                  -7.525
REMARK INTRA:                   0.709
REMARK UNBOUND:                 0.017
REMARK SMILES CC1=CC[C@@]23[C@@H]([C@H](C(C)C)CC[C@H]2C)[C@H]13
REMARK SMILES IDX 14 1 13 2 12 3 11 4 7 5 6 6 5 7 15 8 2 9 3 10 4 11 1 12 8 13
REMARK SMILES IDX 9 14 10 15
REMARK H PARENT
REMARK Flexibility Score: inf
ROOT
ATOM      1  C   UNL     1      -2.371 -14.490  12.842  1.00  0.00     0.008 C 
ATOM      2  C   UNL     1      -3.061 -15.365  11.783  1.00  0.00    -0.007 C 
ATOM      3  C   UNL     1      -2.745 -16.839  12.081  1.00  0.00     0.004 C 
ATOM      4  C   UNL     1      -3.376 -17.761  11.044  1.00  0.00     0.004 C 
ATOM      5  C   UNL     1      -2.717 -17.586   9.657  1.00  0.00    -0.004 C 
ATOM      6  C   UNL     1      -2.483 -16.100   9.273  1.00  0.00     0.007 C 
ATOM      7  C   UNL     1      -2.655 -14.986  10.324  1.00  0.00    -0.013 C 
ATOM      8  C   UNL     1      -3.742 -15.240   9.268  1.00  0.00     0.025 C 
ATOM      9  C   UNL     1      -3.694 -14.050   8.376  1.00  0.00    -0.073 C 
ATOM     10  C   UNL     1      -2.783 -13.165   8.752  1.00  0.00    -0.027 C 
ATOM     11  C   UNL     1      -2.050 -13.606   9.973  1.00  0.00     0.035 C 
ATOM     12  C   UNL     1      -4.561 -13.883   7.167  1.00  0.00     0.039 C 
ENDROOT
BRANCH   5  13
ATOM     13  C   UNL     1      -3.511 -18.341   8.540  1.00  0.00    -0.014 C 
ATOM     14  C   UNL     1      -2.576 -19.125   7.603  1.00  0.00     0.007 C 
ATOM     15  C   UNL     1      -4.372 -17.380   7.699  1.00  0.00     0.007 C 
ENDBRANCH   5  13
TORSDOF 1
ENDMDL
MODEL 7
REMARK VINA RESULT:    -6.408      0.866      3.680
REMARK INTER + INTRA:          -6.766
REMARK INTER:                  -6.760
REMARK INTRA:                  -0.006
REMARK UNBOUND:                 0.017
REMARK SMILES CC1=CC[C@@]23[C@@H]([C@H](C(C)C)CC[C@H]2C)[C@H]13
REMARK SMILES IDX 14 1 13 2 12 3 11 4 7 5 6 6 5 7 15 8 2 9 3 10 4 11 1 12 8 13
REMARK SMILES IDX 9 14 10 15
REMARK H PARENT
REMARK Flexibility Score: inf
ROOT
ATOM      1  C   UNL     1      -3.875 -19.125  10.618  1.00  0.00     0.008 C 
ATOM      2  C   UNL     1      -3.776 -17.632  10.264  1.00  0.00    -0.007 C 
ATOM      3  C   UNL     1      -3.521 -17.500   8.755  1.00  0.00     0.004 C 
ATOM      4  C   UNL     1      -3.381 -16.039   8.343  1.00  0.00     0.004 C 
ATOM      5  C   UNL     1      -2.094 -15.409   8.923  1.00  0.00    -0.004 C 
ATOM      6  C   UNL     1      -1.847 -15.780  10.409  1.00  0.00     0.007 C 
ATOM      7  C   UNL     1      -2.681 -16.884  11.088  1.00  0.00    -0.013 C 
ATOM      8  C   UNL     1      -2.980 -15.401  11.355  1.00  0.00     0.025 C 
ATOM      9  C   UNL     1      -2.578 -15.178  12.771  1.00  0.00    -0.073 C 
ATOM     10  C   UNL     1      -2.121 -16.278  13.351  1.00  0.00    -0.027 C 
ATOM     11  C   UNL     1      -2.133 -17.443  12.422  1.00  0.00     0.035 C 
ATOM     12  C   UNL     1      -2.655 -13.850  13.457  1.00  0.00     0.039 C 
ENDROOT
BRANCH   5  13
ATOM     13  C   UNL     1      -2.063 -13.860   8.713  1.00  0.00    -0.014 C 
ATOM     14  C   UNL     1      -1.527 -13.123   9.953  1.00  0.00     0.007 C 
ATOM     15  C   UNL     1      -3.455 -13.301   8.363  1.00  0.00     0.007 C 
ENDBRANCH   5  13
TORSDOF 1
ENDMDL
MODEL 8
REMARK VINA RESULT:    -6.347      1.586      3.624
REMARK INTER + INTRA:          -6.701
REMARK INTER:                  -6.795
REMARK INTRA:                   0.094
REMARK UNBOUND:                 0.017
REMARK SMILES CC1=CC[C@@]23[C@@H]([C@H](C(C)C)CC[C@H]2C)[C@H]13
REMARK SMILES IDX 14 1 13 2 12 3 11 4 7 5 6 6 5 7 15 8 2 9 3 10 4 11 1 12 8 13
REMARK SMILES IDX 9 14 10 15
REMARK H PARENT
REMARK Flexibility Score: inf
ROOT
ATOM      1  C   UNL     1      -1.982 -14.832  12.095  1.00  0.00     0.008 C 
ATOM      2  C   UNL     1      -2.218 -14.880  10.576  1.00  0.00    -0.007 C 
ATOM      3  C   UNL     1      -2.660 -13.488  10.103  1.00  0.00     0.004 C 
ATOM      4  C   UNL     1      -2.942 -13.477   8.604  1.00  0.00     0.004 C 
ATOM      5  C   UNL     1      -4.187 -14.323   8.257  1.00  0.00    -0.004 C 
ATOM      6  C   UNL     1      -4.230 -15.684   9.002  1.00  0.00     0.007 C 
ATOM      7  C   UNL     1      -3.251 -15.973  10.157  1.00  0.00    -0.013 C 
ATOM      8  C   UNL     1      -3.017 -16.576   8.763  1.00  0.00     0.025 C 
ATOM      9  C   UNL     1      -3.259 -18.035   8.932  1.00  0.00    -0.073 C 
ATOM     10  C   UNL     1      -3.572 -18.360  10.178  1.00  0.00    -0.027 C 
ATOM     11  C   UNL     1      -3.598 -17.170  11.074  1.00  0.00     0.035 C 
ATOM     12  C   UNL     1      -3.185 -19.025   7.811  1.00  0.00     0.039 C 
ENDROOT
BRANCH   5  13
ATOM     13  C   UNL     1      -4.342 -14.518   6.713  1.00  0.00    -0.014 C 
ATOM     14  C   UNL     1      -5.336 -13.513   6.105  1.00  0.00     0.007 C 
ATOM     15  C   UNL     1      -4.795 -15.946   6.357  1.00  0.00     0.007 C 
ENDBRANCH   5  13
TORSDOF 1
ENDMDL
MODEL 9
REMARK VINA RESULT:    -6.229      1.384      3.824
REMARK INTER + INTRA:          -6.576
REMARK INTER:                  -6.445
REMARK INTRA:                  -0.131
REMARK UNBOUND:                 0.017
REMARK SMILES CC1=CC[C@@]23[C@@H]([C@H](C(C)C)CC[C@H]2C)[C@H]13
REMARK SMILES IDX 14 1 13 2 12 3 11 4 7 5 6 6 5 7 15 8 2 9 3 10 4 11 1 12 8 13
REMARK SMILES IDX 9 14 10 15
REMARK H PARENT
REMARK Flexibility Score: inf
ROOT
ATOM      1  C   UNL     1      -1.161 -12.721  10.227  1.00  0.00     0.008 C 
ATOM      2  C   UNL     1      -2.293 -13.744  10.421  1.00  0.00    -0.007 C 
ATOM      3  C   UNL     1      -2.147 -14.381  11.811  1.00  0.00     0.004 C 
ATOM      4  C   UNL     1      -3.225 -15.431  12.054  1.00  0.00     0.004 C 
ATOM      5  C   UNL     1      -3.033 -16.661  11.137  1.00  0.00    -0.004 C 
ATOM      6  C   UNL     1      -2.693 -16.283   9.670  1.00  0.00     0.007 C 
ATOM      7  C   UNL     1      -2.325 -14.833   9.302  1.00  0.00    -0.013 C 
ATOM      8  C   UNL     1      -3.722 -15.390   8.989  1.00  0.00     0.025 C 
ATOM      9  C   UNL     1      -3.769 -15.492   7.505  1.00  0.00    -0.073 C 
ATOM     10  C   UNL     1      -2.652 -15.077   6.928  1.00  0.00    -0.027 C 
ATOM     11  C   UNL     1      -1.646 -14.619   7.929  1.00  0.00     0.035 C 
ATOM     12  C   UNL     1      -4.942 -16.033   6.746  1.00  0.00     0.039 C 
ENDROOT
BRANCH   5  13
ATOM     13  C   UNL     1      -4.260 -17.628  11.202  1.00  0.00    -0.014 C 
ATOM     14  C   UNL     1      -4.213 -18.691  10.091  1.00  0.00     0.007 C 
ATOM     15  C   UNL     1      -5.596 -16.868  11.108  1.00  0.00     0.007 C 
ENDBRANCH   5  13
TORSDOF 1
ENDMDL
