MODEL 1
REMARK VINA RESULT:    -2.228      0.000      0.000
REMARK INTER + INTRA:          -3.225
REMARK INTER:                  -3.009
REMARK INTRA:                  -0.216
REMARK UNBOUND:                -0.216
REMARK SMILES C=C1C(=O)O[C@H]2[C@H]3O[C@@]3(C)CCC=C(C)CC[C@@H]12
REMARK SMILES IDX 6 1 18 2 2 3 1 4 3 5 4 6 5 7 17 8 16 9 14 10 15 11 13 12
REMARK SMILES IDX 7 14 9 15 8 16 10 17 11 18 12 19
REMARK H PARENT
REMARK Flexibility Score: 70.00
ROOT
ATOM      1  C   UNL     1     -29.725 -25.529  43.141  1.00  0.00     0.216 C 
ATOM      2  C   UNL     1     -28.169 -25.505  43.418  1.00  0.00     0.070 C 
ATOM      3  C   UNL     1     -28.075 -26.066  44.809  1.00  0.00     0.037 C 
ATOM      4  C   UNL     1     -27.079 -25.963  45.690  1.00  0.00     0.021 C 
ATOM      5  C   UNL     1     -29.265 -26.876  44.961  1.00  0.00     0.334 C 
ATOM      6  O   UNL     1     -29.489 -27.685  45.900  1.00  0.00    -0.247 OA
ATOM      7  O   UNL     1     -30.133 -26.666  43.904  1.00  0.00    -0.455 OA
ENDROOT
BRANCH   2   8
ATOM      8  C   UNL     1     -27.170 -24.377  43.006  1.00  0.00     0.017 C 
BRANCH   8   9
ATOM      9  C   UNL     1     -27.612 -23.390  41.922  1.00  0.00     0.031 C 
BRANCH   9  10
ATOM     10  C   UNL     1     -28.105 -23.983  40.589  1.00  0.00    -0.077 C 
ATOM     11  C   UNL     1     -27.096 -24.797  39.810  1.00  0.00     0.039 C 
ATOM     12  C   UNL     1     -29.310 -23.785  39.971  1.00  0.00    -0.028 CG0
ATOM     13  G   UNL     1     -30.535 -23.025  40.442  1.00  0.00     0.000 G0
ENDBRANCH   9  10
ENDBRANCH   8   9
ENDBRANCH   2   8
BRANCH   1  14
ATOM     14  C   UNL     1     -30.629 -24.385  43.689  1.00  0.00     0.192 C 
ATOM     15  C   UNL     1     -31.576 -23.676  42.764  1.00  0.00     0.096 C 
ATOM     16  O   UNL     1     -30.391 -23.083  43.223  1.00  0.00    -0.362 OA
ATOM     17  C   UNL     1     -32.804 -23.025  43.404  1.00  0.00     0.045 C 
BRANCH  15  18
ATOM     18  C   UNL     1     -31.581 -23.818  41.224  1.00  0.00     0.042 C 
BRANCH  18  19
ATOM     19  C   UNL     1     -30.539 -23.005  40.434  1.00  0.00     0.030 CG0
ATOM     20  G   UNL     1     -29.329 -23.803  39.990  1.00  0.00     0.000 G0
ENDBRANCH  18  19
ENDBRANCH  15  18
ENDBRANCH   1  14
TORSDOF 0
ENDMDL
MODEL 2
REMARK VINA RESULT:    -1.851     13.826     15.176
REMARK INTER + INTRA:          -2.716
REMARK INTER:                  -2.508
REMARK INTRA:                  -0.208
REMARK UNBOUND:                -0.216
REMARK SMILES C=C1C(=O)O[C@H]2[C@H]3O[C@@]3(C)CCC=C(C)CC[C@@H]12
REMARK SMILES IDX 6 1 18 2 2 3 1 4 3 5 4 6 5 7 17 8 16 9 14 10 15 11 13 12
REMARK SMILES IDX 7 14 9 15 8 16 10 17 11 18 12 19
REMARK H PARENT
REMARK Flexibility Score: 70.00
ROOT
ATOM      1  C   UNL     1     -43.499 -25.748  45.327  1.00  0.00     0.216 C 
ATOM      2  C   UNL     1     -43.376 -24.184  45.514  1.00  0.00     0.070 C 
ATOM      3  C   UNL     1     -43.117 -24.049  46.988  1.00  0.00     0.037 C 
ATOM      4  C   UNL     1     -43.272 -22.983  47.775  1.00  0.00     0.021 C 
ATOM      5  C   UNL     1     -42.522 -25.311  47.375  1.00  0.00     0.334 C 
ATOM      6  O   UNL     1     -41.969 -25.555  48.480  1.00  0.00    -0.247 OA
ATOM      7  O   UNL     1     -42.614 -26.227  46.342  1.00  0.00    -0.455 OA
ENDROOT
BRANCH   2   8
ATOM      8  C   UNL     1     -44.248 -23.093  44.814  1.00  0.00     0.017 C 
BRANCH   8   9
ATOM      9  C   UNL     1     -44.980 -23.481  43.527  1.00  0.00     0.031 C 
BRANCH   9  10
ATOM     10  C   UNL     1     -44.156 -24.185  42.433  1.00  0.00    -0.077 C 
ATOM     11  C   UNL     1     -43.016 -23.386  41.842  1.00  0.00     0.039 C 
ATOM     12  C   UNL     1     -44.384 -25.405  41.857  1.00  0.00    -0.028 CG0
ATOM     13  G   UNL     1     -45.429 -26.456  42.179  1.00  0.00     0.000 G0
ENDBRANCH   9  10
ENDBRANCH   8   9
ENDBRANCH   2   8
BRANCH   1  14
ATOM     14  C   UNL     1     -44.842 -26.466  45.652  1.00  0.00     0.192 C 
ATOM     15  C   UNL     1     -45.455 -27.393  44.643  1.00  0.00     0.096 C 
ATOM     16  O   UNL     1     -45.971 -26.114  44.898  1.00  0.00    -0.362 OA
ATOM     17  C   UNL     1     -46.384 -28.482  45.185  1.00  0.00     0.045 C 
BRANCH  15  18
ATOM     18  C   UNL     1     -44.989 -27.536  43.175  1.00  0.00     0.042 C 
BRANCH  18  19
ATOM     19  C   UNL     1     -45.444 -26.453  42.179  1.00  0.00     0.030 CG0
ATOM     20  G   UNL     1     -44.382 -25.422  41.849  1.00  0.00     0.000 G0
ENDBRANCH  18  19
ENDBRANCH  15  18
ENDBRANCH   1  14
TORSDOF 0
ENDMDL
MODEL 3
REMARK VINA RESULT:    -1.837      3.338      5.992
REMARK INTER + INTRA:          -2.698
REMARK INTER:                  -2.500
REMARK INTRA:                  -0.198
REMARK UNBOUND:                -0.216
REMARK SMILES C=C1C(=O)O[C@H]2[C@H]3O[C@@]3(C)CCC=C(C)CC[C@@H]12
REMARK SMILES IDX 6 1 18 2 2 3 1 4 3 5 4 6 5 7 17 8 16 9 14 10 15 11 13 12
REMARK SMILES IDX 7 14 9 15 8 16 10 17 11 18 12 19
REMARK H PARENT
REMARK Flexibility Score: 70.00
ROOT
ATOM      1  C   UNL     1     -28.754 -25.927  44.596  1.00  0.00     0.216 C 
ATOM      2  C   UNL     1     -29.994 -25.366  43.794  1.00  0.00     0.070 C 
ATOM      3  C   UNL     1     -29.438 -24.122  43.158  1.00  0.00     0.037 C 
ATOM      4  C   UNL     1     -30.088 -23.068  42.664  1.00  0.00     0.021 C 
ATOM      5  C   UNL     1     -28.012 -24.360  43.068  1.00  0.00     0.334 C 
ATOM      6  O   UNL     1     -27.190 -23.661  42.420  1.00  0.00    -0.247 OA
ATOM      7  O   UNL     1     -27.665 -25.497  43.776  1.00  0.00    -0.455 OA
ENDROOT
BRANCH   2   8
ATOM      8  C   UNL     1     -31.481 -25.349  44.273  1.00  0.00     0.017 C 
BRANCH   8   9
ATOM      9  C   UNL     1     -31.898 -26.360  45.344  1.00  0.00     0.031 C 
BRANCH   9  10
ATOM     10  C   UNL     1     -31.427 -27.815  45.161  1.00  0.00    -0.077 C 
ATOM     11  C   UNL     1     -31.964 -28.539  43.946  1.00  0.00     0.039 C 
ATOM     12  C   UNL     1     -30.661 -28.569  46.009  1.00  0.00    -0.028 CG0
ATOM     13  G   UNL     1     -29.975 -28.184  47.306  1.00  0.00     0.000 G0
ENDBRANCH   9  10
ENDBRANCH   8   9
ENDBRANCH   2   8
BRANCH   1  14
ATOM     14  C   UNL     1     -28.404 -25.340  45.996  1.00  0.00     0.192 C 
ATOM     15  C   UNL     1     -28.177 -26.265  47.156  1.00  0.00     0.096 C 
ATOM     16  O   UNL     1     -29.344 -25.499  47.025  1.00  0.00    -0.362 OA
ATOM     17  C   UNL     1     -27.296 -25.741  48.291  1.00  0.00     0.045 C 
BRANCH  15  18
ATOM     18  C   UNL     1     -28.490 -27.780  47.155  1.00  0.00     0.042 C 
BRANCH  18  19
ATOM     19  C   UNL     1     -29.963 -28.200  47.307  1.00  0.00     0.030 CG0
ATOM     20  G   UNL     1     -30.646 -28.569  46.003  1.00  0.00     0.000 G0
ENDBRANCH  18  19
ENDBRANCH  15  18
ENDBRANCH   1  14
TORSDOF 0
ENDMDL
MODEL 4
REMARK VINA RESULT:    -1.799      3.274      5.679
REMARK INTER + INTRA:          -2.646
REMARK INTER:                  -2.766
REMARK INTRA:                   0.120
REMARK UNBOUND:                -0.216
REMARK SMILES C=C1C(=O)O[C@H]2[C@H]3O[C@@]3(C)CCC=C(C)CC[C@@H]12
REMARK SMILES IDX 6 1 18 2 2 3 1 4 3 5 4 6 5 7 17 8 16 9 14 10 15 11 13 12
REMARK SMILES IDX 7 14 9 15 8 16 10 17 11 18 12 19
REMARK H PARENT
REMARK Flexibility Score: 70.00
ROOT
ATOM      1  C   UNL     1     -29.850 -24.811  44.654  1.00  0.00     0.216 C 
ATOM      2  C   UNL     1     -28.298 -25.102  44.600  1.00  0.00     0.070 C 
ATOM      3  C   UNL     1     -27.968 -24.857  43.154  1.00  0.00     0.037 C 
ATOM      4  C   UNL     1     -26.914 -25.273  42.451  1.00  0.00     0.021 C 
ATOM      5  C   UNL     1     -28.991 -23.942  42.693  1.00  0.00     0.334 C 
ATOM      6  O   UNL     1     -28.982 -23.321  41.598  1.00  0.00    -0.247 OA
ATOM      7  O   UNL     1     -29.987 -23.810  43.643  1.00  0.00    -0.455 OA
ENDROOT
BRANCH   2   8
ATOM      8  C   UNL     1     -27.540 -26.246  45.347  1.00  0.00     0.017 C 
BRANCH   8   9
ATOM      9  C   UNL     1     -26.875 -25.909  46.684  1.00  0.00     0.031 C 
BRANCH   9  10
ATOM     10  C   UNL     1     -27.720 -26.095  47.958  1.00  0.00    -0.077 C 
ATOM     11  C   UNL     1     -27.144 -25.512  49.229  1.00  0.00     0.039 C 
ATOM     12  C   UNL     1     -28.880 -26.806  48.106  1.00  0.00    -0.028 CG0
ATOM     13  G   UNL     1     -29.722 -27.525  47.069  1.00  0.00     0.000 G0
ENDBRANCH   9  10
ENDBRANCH   8   9
ENDBRANCH   2   8
BRANCH   1  14
ATOM     14  C   UNL     1     -30.862 -25.910  44.213  1.00  0.00     0.192 C 
ATOM     15  C   UNL     1     -31.504 -26.790  45.246  1.00  0.00     0.096 C 
ATOM     16  O   UNL     1     -30.491 -27.251  44.394  1.00  0.00    -0.362 OA
ATOM     17  C   UNL     1     -32.857 -27.404  44.881  1.00  0.00     0.045 C 
BRANCH  15  18
ATOM     18  C   UNL     1     -31.077 -26.868  46.731  1.00  0.00     0.042 C 
BRANCH  18  19
ATOM     19  C   UNL     1     -29.718 -27.522  47.043  1.00  0.00     0.030 CG0
ATOM     20  G   UNL     1     -28.907 -26.802  48.104  1.00  0.00     0.000 G0
ENDBRANCH  18  19
ENDBRANCH  15  18
ENDBRANCH   1  14
TORSDOF 0
ENDMDL
MODEL 5
REMARK VINA RESULT:    -1.700     20.820     22.401
REMARK INTER + INTRA:          -2.513
REMARK INTER:                  -2.325
REMARK INTRA:                  -0.188
REMARK UNBOUND:                -0.216
REMARK SMILES C=C1C(=O)O[C@H]2[C@H]3O[C@@]3(C)CCC=C(C)CC[C@@H]12
REMARK SMILES IDX 6 1 18 2 2 3 1 4 3 5 4 6 5 7 17 8 16 9 14 10 15 11 13 12
REMARK SMILES IDX 7 14 9 15 8 16 10 17 11 18 12 19
REMARK H PARENT
REMARK Flexibility Score: 70.00
ROOT
ATOM      1  C   UNL     1     -44.164 -39.630  44.710  1.00  0.00     0.216 C 
ATOM      2  C   UNL     1     -45.730 -39.418  44.697  1.00  0.00     0.070 C 
ATOM      3  C   UNL     1     -45.954 -38.553  45.905  1.00  0.00     0.037 C 
ATOM      4  C   UNL     1     -47.079 -38.345  46.593  1.00  0.00     0.021 C 
ATOM      5  C   UNL     1     -44.695 -37.867  46.107  1.00  0.00     0.334 C 
ATOM      6  O   UNL     1     -44.502 -36.899  46.889  1.00  0.00    -0.247 OA
ATOM      7  O   UNL     1     -43.716 -38.403  45.290  1.00  0.00    -0.455 OA
ENDROOT
BRANCH   2   8
ATOM      8  C   UNL     1     -46.809 -40.491  44.345  1.00  0.00     0.017 C 
BRANCH   8   9
ATOM      9  C   UNL     1     -46.398 -41.643  43.424  1.00  0.00     0.031 C 
BRANCH   9  10
ATOM     10  C   UNL     1     -45.515 -41.295  42.212  1.00  0.00    -0.077 C 
ATOM     11  C   UNL     1     -46.150 -40.417  41.156  1.00  0.00     0.039 C 
ATOM     12  C   UNL     1     -44.260 -41.758  41.920  1.00  0.00    -0.028 CG0
ATOM     13  G   UNL     1     -43.338 -42.653  42.727  1.00  0.00     0.000 G0
ENDBRANCH   9  10
ENDBRANCH   8   9
ENDBRANCH   2   8
BRANCH   1  14
ATOM     14  C   UNL     1     -43.535 -40.715  45.632  1.00  0.00     0.192 C 
ATOM     15  C   UNL     1     -42.556 -41.701  45.062  1.00  0.00     0.096 C 
ATOM     16  O   UNL     1     -43.873 -42.055  45.390  1.00  0.00    -0.362 OA
ATOM     17  C   UNL     1     -41.556 -42.321  46.041  1.00  0.00     0.045 C 
BRANCH  15  18
ATOM     18  C   UNL     1     -42.274 -41.897  43.555  1.00  0.00     0.042 C 
BRANCH  18  19
ATOM     19  C   UNL     1     -43.324 -42.665  42.731  1.00  0.00     0.030 CG0
ATOM     20  G   UNL     1     -44.262 -41.779  41.933  1.00  0.00     0.000 G0
ENDBRANCH  18  19
ENDBRANCH  15  18
ENDBRANCH   1  14
TORSDOF 0
ENDMDL
MODEL 6
REMARK VINA RESULT:    -1.679      3.186      4.957
REMARK INTER + INTRA:          -2.484
REMARK INTER:                  -2.264
REMARK INTRA:                  -0.219
REMARK UNBOUND:                -0.216
REMARK SMILES C=C1C(=O)O[C@H]2[C@H]3O[C@@]3(C)CCC=C(C)CC[C@@H]12
REMARK SMILES IDX 6 1 18 2 2 3 1 4 3 5 4 6 5 7 17 8 16 9 14 10 15 11 13 12
REMARK SMILES IDX 7 14 9 15 8 16 10 17 11 18 12 19
REMARK H PARENT
REMARK Flexibility Score: 70.00
ROOT
ATOM      1  C   UNL     1     -30.749 -26.503  46.124  1.00  0.00     0.216 C 
ATOM      2  C   UNL     1     -30.358 -26.526  47.655  1.00  0.00     0.070 C 
ATOM      3  C   UNL     1     -31.682 -26.311  48.334  1.00  0.00     0.037 C 
ATOM      4  C   UNL     1     -31.930 -25.894  49.577  1.00  0.00     0.021 C 
ATOM      5  C   UNL     1     -32.666 -26.786  47.384  1.00  0.00     0.334 C 
ATOM      6  O   UNL     1     -33.887 -26.974  47.623  1.00  0.00    -0.247 OA
ATOM      7  O   UNL     1     -32.073 -27.040  46.160  1.00  0.00    -0.455 OA
ENDROOT
BRANCH   2   8
ATOM      8  C   UNL     1     -29.085 -25.889  48.299  1.00  0.00     0.017 C 
BRANCH   8   9
ATOM      9  C   UNL     1     -27.891 -25.600  47.385  1.00  0.00     0.031 C 
BRANCH   9  10
ATOM     10  C   UNL     1     -27.424 -26.735  46.456  1.00  0.00    -0.077 C 
ATOM     11  C   UNL     1     -26.921 -27.988  47.137  1.00  0.00     0.039 C 
ATOM     12  C   UNL     1     -27.314 -26.719  45.091  1.00  0.00    -0.028 CG0
ATOM     13  G   UNL     1     -27.703 -25.644  44.094  1.00  0.00     0.000 G0
ENDBRANCH   9  10
ENDBRANCH   8   9
ENDBRANCH   2   8
BRANCH   1  14
ATOM     14  C   UNL     1     -30.932 -25.142  45.390  1.00  0.00     0.192 C 
ATOM     15  C   UNL     1     -30.225 -24.897  44.088  1.00  0.00     0.096 C 
ATOM     16  O   UNL     1     -29.816 -24.298  45.288  1.00  0.00    -0.362 OA
ATOM     17  C   UNL     1     -30.857 -23.870  43.145  1.00  0.00     0.045 C 
BRANCH  15  18
ATOM     18  C   UNL     1     -29.119 -25.802  43.498  1.00  0.00     0.042 C 
BRANCH  18  19
ATOM     19  C   UNL     1     -27.697 -25.646  44.068  1.00  0.00     0.030 CG0
ATOM     20  G   UNL     1     -27.312 -26.704  45.085  1.00  0.00     0.000 G0
ENDBRANCH  18  19
ENDBRANCH  15  18
ENDBRANCH   1  14
TORSDOF 0
ENDMDL
MODEL 7
REMARK VINA RESULT:    -1.679     11.161     13.846
REMARK INTER + INTRA:          -2.483
REMARK INTER:                  -2.271
REMARK INTRA:                  -0.212
REMARK UNBOUND:                -0.216
REMARK SMILES C=C1C(=O)O[C@H]2[C@H]3O[C@@]3(C)CCC=C(C)CC[C@@H]12
REMARK SMILES IDX 6 1 18 2 2 3 1 4 3 5 4 6 5 7 17 8 16 9 14 10 15 11 13 12
REMARK SMILES IDX 7 14 9 15 8 16 10 17 11 18 12 19
REMARK H PARENT
REMARK Flexibility Score: 70.00
ROOT
ATOM      1  C   UNL     1     -41.193 -24.914  47.608  1.00  0.00     0.216 C 
ATOM      2  C   UNL     1     -40.626 -24.284  46.274  1.00  0.00     0.070 C 
ATOM      3  C   UNL     1     -39.165 -24.117  46.585  1.00  0.00     0.037 C 
ATOM      4  C   UNL     1     -38.264 -23.331  45.992  1.00  0.00     0.021 C 
ATOM      5  C   UNL     1     -38.890 -25.106  47.606  1.00  0.00     0.334 C 
ATOM      6  O   UNL     1     -37.747 -25.445  48.012  1.00  0.00    -0.247 OA
ATOM      7  O   UNL     1     -40.068 -25.665  48.068  1.00  0.00    -0.455 OA
ENDROOT
BRANCH   2   8
ATOM      8  C   UNL     1     -41.322 -23.202  45.388  1.00  0.00     0.017 C 
BRANCH   8   9
ATOM      9  C   UNL     1     -42.839 -23.039  45.519  1.00  0.00     0.031 C 
BRANCH   9  10
ATOM     10  C   UNL     1     -43.692 -24.319  45.465  1.00  0.00    -0.077 C 
ATOM     11  C   UNL     1     -43.640 -25.099  44.171  1.00  0.00     0.039 C 
ATOM     12  C   UNL     1     -44.568 -24.791  46.406  1.00  0.00    -0.028 CG0
ATOM     13  G   UNL     1     -44.885 -24.267  47.793  1.00  0.00     0.000 G0
ENDBRANCH   9  10
ENDBRANCH   8   9
ENDBRANCH   2   8
BRANCH   1  14
ATOM     14  C   UNL     1     -41.532 -23.994  48.817  1.00  0.00     0.192 C 
ATOM     15  C   UNL     1     -42.872 -24.107  49.486  1.00  0.00     0.096 C 
ATOM     16  O   UNL     1     -42.540 -23.034  48.646  1.00  0.00    -0.362 OA
ATOM     17  C   UNL     1     -42.950 -23.661  50.948  1.00  0.00     0.045 C 
BRANCH  15  18
ATOM     18  C   UNL     1     -44.071 -24.911  48.934  1.00  0.00     0.042 C 
BRANCH  18  19
ATOM     19  C   UNL     1     -44.895 -24.269  47.803  1.00  0.00     0.030 CG0
ATOM     20  G   UNL     1     -44.581 -24.804  46.419  1.00  0.00     0.000 G0
ENDBRANCH  18  19
ENDBRANCH  15  18
ENDBRANCH   1  14
TORSDOF 0
ENDMDL
MODEL 8
REMARK VINA RESULT:    -1.557     14.133     15.940
REMARK INTER + INTRA:          -2.320
REMARK INTER:                  -2.281
REMARK INTRA:                  -0.039
REMARK UNBOUND:                -0.216
REMARK SMILES C=C1C(=O)O[C@H]2[C@H]3O[C@@]3(C)CCC=C(C)CC[C@@H]12
REMARK SMILES IDX 6 1 18 2 2 3 1 4 3 5 4 6 5 7 17 8 16 9 14 10 15 11 13 12
REMARK SMILES IDX 7 14 9 15 8 16 10 17 11 18 12 19
REMARK H PARENT
REMARK Flexibility Score: 70.00
ROOT
ATOM      1  C   UNL     1     -44.896 -27.277  43.060  1.00  0.00     0.216 C 
ATOM      2  C   UNL     1     -44.914 -27.467  44.629  1.00  0.00     0.070 C 
ATOM      3  C   UNL     1     -45.804 -28.666  44.804  1.00  0.00     0.037 C 
ATOM      4  C   UNL     1     -46.459 -29.074  45.892  1.00  0.00     0.021 C 
ATOM      5  C   UNL     1     -45.703 -29.386  43.552  1.00  0.00     0.334 C 
ATOM      6  O   UNL     1     -46.130 -30.551  43.337  1.00  0.00    -0.247 OA
ATOM      7  O   UNL     1     -45.035 -28.625  42.608  1.00  0.00    -0.455 OA
ENDROOT
BRANCH   2   8
ATOM      8  C   UNL     1     -44.981 -26.333  45.702  1.00  0.00     0.017 C 
BRANCH   8   9
ATOM      9  C   UNL     1     -44.961 -24.883  45.211  1.00  0.00     0.031 C 
BRANCH   9  10
ATOM     10  C   UNL     1     -43.610 -24.320  44.734  1.00  0.00    -0.077 C 
ATOM     11  C   UNL     1     -42.469 -24.400  45.723  1.00  0.00     0.039 C 
ATOM     12  C   UNL     1     -43.334 -23.666  43.563  1.00  0.00    -0.028 CG0
ATOM     13  G   UNL     1     -44.222 -23.392  42.365  1.00  0.00     0.000 G0
ENDBRANCH   9  10
ENDBRANCH   8   9
ENDBRANCH   2   8
BRANCH   1  14
ATOM     14  C   UNL     1     -46.070 -26.537  42.355  1.00  0.00     0.192 C 
ATOM     15  C   UNL     1     -45.787 -25.337  41.497  1.00  0.00     0.096 C 
ATOM     16  O   UNL     1     -46.364 -25.230  42.771  1.00  0.00    -0.362 OA
ATOM     17  C   UNL     1     -46.806 -25.021  40.400  1.00  0.00     0.045 C 
BRANCH  15  18
ATOM     18  C   UNL     1     -44.429 -24.602  41.425  1.00  0.00     0.042 C 
BRANCH  18  19
ATOM     19  C   UNL     1     -44.228 -23.391  42.355  1.00  0.00     0.030 CG0
ATOM     20  G   UNL     1     -43.334 -23.663  43.550  1.00  0.00     0.000 G0
ENDBRANCH  18  19
ENDBRANCH  15  18
ENDBRANCH   1  14
TORSDOF 0
ENDMDL
MODEL 9
REMARK VINA RESULT:    -1.523      2.668      3.936
REMARK INTER + INTRA:          -2.273
REMARK INTER:                  -2.072
REMARK INTRA:                  -0.201
REMARK UNBOUND:                -0.216
REMARK SMILES C=C1C(=O)O[C@H]2[C@H]3O[C@@]3(C)CCC=C(C)CC[C@@H]12
REMARK SMILES IDX 6 1 18 2 2 3 1 4 3 5 4 6 5 7 17 8 16 9 14 10 15 11 13 12
REMARK SMILES IDX 7 14 9 15 8 16 10 17 11 18 12 19
REMARK H PARENT
REMARK Flexibility Score: 70.00
ROOT
ATOM      1  C   UNL     1     -29.952 -26.510  45.923  1.00  0.00     0.216 C 
ATOM      2  C   UNL     1     -28.613 -26.837  46.697  1.00  0.00     0.070 C 
ATOM      3  C   UNL     1     -28.821 -26.147  48.016  1.00  0.00     0.037 C 
ATOM      4  C   UNL     1     -27.914 -25.781  48.924  1.00  0.00     0.021 C 
ATOM      5  C   UNL     1     -30.258 -26.072  48.172  1.00  0.00     0.334 C 
ATOM      6  O   UNL     1     -30.868 -25.749  49.225  1.00  0.00    -0.247 OA
ATOM      7  O   UNL     1     -30.892 -26.439  46.998  1.00  0.00    -0.455 OA
ENDROOT
BRANCH   2   8
ATOM      8  C   UNL     1     -27.173 -26.859  46.093  1.00  0.00     0.017 C 
BRANCH   8   9
ATOM      9  C   UNL     1     -27.036 -27.038  44.579  1.00  0.00     0.031 C 
BRANCH   9  10
ATOM     10  C   UNL     1     -27.851 -28.170  43.927  1.00  0.00    -0.077 C 
ATOM     11  C   UNL     1     -27.524 -29.574  44.384  1.00  0.00     0.039 C 
ATOM     12  C   UNL     1     -28.768 -28.076  42.914  1.00  0.00    -0.028 CG0
ATOM     13  G   UNL     1     -29.323 -26.852  42.211  1.00  0.00     0.000 G0
ENDBRANCH   9  10
ENDBRANCH   8   9
ENDBRANCH   2   8
BRANCH   1  14
ATOM     14  C   UNL     1     -30.120 -25.138  45.206  1.00  0.00     0.192 C 
ATOM     15  C   UNL     1     -30.560 -25.096  43.772  1.00  0.00     0.096 C 
ATOM     16  O   UNL     1     -29.238 -24.836  44.159  1.00  0.00    -0.362 OA
ATOM     17  C   UNL     1     -31.262 -23.819  43.305  1.00  0.00     0.045 C 
BRANCH  15  18
ATOM     18  C   UNL     1     -30.647 -26.325  42.837  1.00  0.00     0.042 C 
BRANCH  18  19
ATOM     19  C   UNL     1     -29.333 -26.846  42.227  1.00  0.00     0.030 CG0
ATOM     20  G   UNL     1     -28.767 -28.073  42.917  1.00  0.00     0.000 G0
ENDBRANCH  18  19
ENDBRANCH  15  18
ENDBRANCH   1  14
TORSDOF 0
ENDMDL
