MODEL 1
REMARK VINA RESULT:    -2.944      0.000      0.000
REMARK INTER + INTRA:          -3.494
REMARK INTER:                  -3.460
REMARK INTRA:                  -0.033
REMARK UNBOUND:                -0.033
REMARK SMILES O=C([O-])CCC(=O)[O-]
REMARK SMILES IDX 4 1 2 2 1 3 3 4 5 5 6 6 7 7 8 8
REMARK H PARENT
REMARK Flexibility Score: inf
ROOT
ATOM      1  C   UNL     1     -20.653  31.166 -41.817  1.00  0.00     0.059 C 
ENDROOT
BRANCH   1   2
ATOM      2  C   UNL     1     -21.935  30.632 -42.379  1.00  0.00     0.042 C 
ATOM      3  O   UNL     1     -23.023  31.218 -42.145  1.00  0.00    -0.550 OA
ATOM      4  O   UNL     1     -21.931  29.462 -43.128  1.00  0.00    -0.550 OA
ENDBRANCH   1   2
BRANCH   1   5
ATOM      5  C   UNL     1     -19.442  30.691 -42.627  1.00  0.00     0.059 C 
BRANCH   5   6
ATOM      6  C   UNL     1     -18.452  31.796 -42.836  1.00  0.00     0.042 C 
ATOM      7  O   UNL     1     -17.933  32.378 -41.847  1.00  0.00    -0.550 OA
ATOM      8  O   UNL     1     -18.133  32.209 -44.124  1.00  0.00    -0.550 OA
ENDBRANCH   5   6
ENDBRANCH   1   5
TORSDOF 3
ENDMDL
MODEL 2
REMARK VINA RESULT:    -2.916     12.371     14.414
REMARK INTER + INTRA:          -3.460
REMARK INTER:                  -3.434
REMARK INTRA:                  -0.026
REMARK UNBOUND:                -0.033
REMARK SMILES O=C([O-])CCC(=O)[O-]
REMARK SMILES IDX 4 1 2 2 1 3 3 4 5 5 6 6 7 7 8 8
REMARK H PARENT
REMARK Flexibility Score: inf
ROOT
ATOM      1  C   UNL     1     -30.492  30.152 -33.934  1.00  0.00     0.059 C 
ENDROOT
BRANCH   1   2
ATOM      2  C   UNL     1     -29.544  31.311 -33.961  1.00  0.00     0.042 C 
ATOM      3  O   UNL     1     -29.189  31.866 -32.889  1.00  0.00    -0.550 OA
ATOM      4  O   UNL     1     -29.083  31.803 -35.176  1.00  0.00    -0.550 OA
ENDBRANCH   1   2
BRANCH   1   5
ATOM      5  C   UNL     1     -31.769  30.449 -34.725  1.00  0.00     0.059 C 
BRANCH   5   6
ATOM      6  C   UNL     1     -32.810  29.393 -34.510  1.00  0.00     0.042 C 
ATOM      7  O   UNL     1     -33.714  29.561 -33.650  1.00  0.00    -0.550 OA
ATOM      8  O   UNL     1     -32.757  28.208 -35.232  1.00  0.00    -0.550 OA
ENDBRANCH   5   6
ENDBRANCH   1   5
TORSDOF 3
ENDMDL
MODEL 3
REMARK VINA RESULT:    -2.907     12.484     13.913
REMARK INTER + INTRA:          -3.450
REMARK INTER:                  -3.424
REMARK INTRA:                  -0.026
REMARK UNBOUND:                -0.033
REMARK SMILES O=C([O-])CCC(=O)[O-]
REMARK SMILES IDX 4 1 2 2 1 3 3 4 5 5 6 6 7 7 8 8
REMARK H PARENT
REMARK Flexibility Score: inf
ROOT
ATOM      1  C   UNL     1     -31.684  30.394 -34.822  1.00  0.00     0.059 C 
ENDROOT
BRANCH   1   2
ATOM      2  C   UNL     1     -32.717  29.339 -34.568  1.00  0.00     0.042 C 
ATOM      3  O   UNL     1     -32.687  28.255 -35.208  1.00  0.00    -0.550 OA
ATOM      4  O   UNL     1     -33.736  29.570 -33.653  1.00  0.00    -0.550 OA
ENDBRANCH   1   2
BRANCH   1   5
ATOM      5  C   UNL     1     -30.449  30.197 -33.938  1.00  0.00     0.059 C 
BRANCH   5   6
ATOM      6  C   UNL     1     -29.614  31.440 -33.873  1.00  0.00     0.042 C 
ATOM      7  O   UNL     1     -29.405  32.006 -32.767  1.00  0.00    -0.550 OA
ATOM      8  O   UNL     1     -29.102  31.995 -35.038  1.00  0.00    -0.550 OA
ENDBRANCH   5   6
ENDBRANCH   1   5
TORSDOF 3
ENDMDL
MODEL 4
REMARK VINA RESULT:    -2.885      4.891      7.762
REMARK INTER + INTRA:          -3.425
REMARK INTER:                  -3.392
REMARK INTRA:                  -0.033
REMARK UNBOUND:                -0.033
REMARK SMILES O=C([O-])CCC(=O)[O-]
REMARK SMILES IDX 4 1 2 2 1 3 3 4 5 5 6 6 7 7 8 8
REMARK H PARENT
REMARK Flexibility Score: inf
ROOT
ATOM      1  C   UNL     1     -25.390  28.230 -41.833  1.00  0.00     0.059 C 
ENDROOT
BRANCH   1   2
ATOM      2  C   UNL     1     -24.338  29.293 -41.911  1.00  0.00     0.042 C 
ATOM      3  O   UNL     1     -24.599  30.472 -41.554  1.00  0.00    -0.550 OA
ATOM      4  O   UNL     1     -23.080  28.991 -42.417  1.00  0.00    -0.550 OA
ENDBRANCH   1   2
BRANCH   1   5
ATOM      5  C   UNL     1     -26.798  28.832 -41.790  1.00  0.00     0.059 C 
BRANCH   5   6
ATOM      6  C   UNL     1     -27.852  27.780 -41.951  1.00  0.00     0.042 C 
ATOM      7  O   UNL     1     -28.035  27.232 -43.070  1.00  0.00    -0.550 OA
ATOM      8  O   UNL     1     -28.660  27.434 -40.875  1.00  0.00    -0.550 OA
ENDBRANCH   5   6
ENDBRANCH   1   5
TORSDOF 3
ENDMDL
MODEL 5
REMARK VINA RESULT:    -2.846      2.257      3.165
REMARK INTER + INTRA:          -3.378
REMARK INTER:                  -3.259
REMARK INTRA:                  -0.119
REMARK UNBOUND:                -0.033
REMARK SMILES O=C([O-])CCC(=O)[O-]
REMARK SMILES IDX 4 1 2 2 1 3 3 4 5 5 6 6 7 7 8 8
REMARK H PARENT
REMARK Flexibility Score: inf
ROOT
ATOM      1  C   UNL     1     -22.892  28.937 -41.680  1.00  0.00     0.059 C 
ENDROOT
BRANCH   1   2
ATOM      2  C   UNL     1     -24.353  29.231 -41.828  1.00  0.00     0.042 C 
ATOM      3  O   UNL     1     -24.784  30.402 -41.665  1.00  0.00    -0.550 OA
ATOM      4  O   UNL     1     -25.244  28.203 -42.108  1.00  0.00    -0.550 OA
ENDBRANCH   1   2
BRANCH   1   5
ATOM      5  C   UNL     1     -22.073  29.564 -42.813  1.00  0.00     0.059 C 
BRANCH   5   6
ATOM      6  C   UNL     1     -21.084  30.561 -42.291  1.00  0.00     0.042 C 
ATOM      7  O   UNL     1     -19.896  30.555 -42.710  1.00  0.00    -0.550 OA
ATOM      8  O   UNL     1     -21.464  31.472 -41.313  1.00  0.00    -0.550 OA
ENDBRANCH   5   6
ENDBRANCH   1   5
TORSDOF 3
ENDMDL
MODEL 6
REMARK VINA RESULT:    -2.812     13.409     14.518
REMARK INTER + INTRA:          -3.338
REMARK INTER:                  -3.218
REMARK INTRA:                  -0.120
REMARK UNBOUND:                -0.033
REMARK SMILES O=C([O-])CCC(=O)[O-]
REMARK SMILES IDX 4 1 2 2 1 3 3 4 5 5 6 6 7 7 8 8
REMARK H PARENT
REMARK Flexibility Score: inf
ROOT
ATOM      1  C   UNL     1     -24.718  26.277 -30.228  1.00  0.00     0.059 C 
ENDROOT
BRANCH   1   2
ATOM      2  C   UNL     1     -23.818  26.777 -31.315  1.00  0.00     0.042 C 
ATOM      3  O   UNL     1     -22.568  26.692 -31.194  1.00  0.00    -0.550 OA
ATOM      4  O   UNL     1     -24.360  27.375 -32.446  1.00  0.00    -0.550 OA
ENDBRANCH   1   2
BRANCH   1   5
ATOM      5  C   UNL     1     -23.938  25.498 -29.164  1.00  0.00     0.059 C 
BRANCH   5   6
ATOM      6  C   UNL     1     -24.105  24.018 -29.331  1.00  0.00     0.042 C 
ATOM      7  O   UNL     1     -24.831  23.368 -28.533  1.00  0.00    -0.550 OA
ATOM      8  O   UNL     1     -23.428  23.352 -30.344  1.00  0.00    -0.550 OA
ENDBRANCH   5   6
ENDBRANCH   1   5
TORSDOF 3
ENDMDL
MODEL 7
REMARK VINA RESULT:    -2.807     13.426     14.279
REMARK INTER + INTRA:          -3.332
REMARK INTER:                  -3.212
REMARK INTRA:                  -0.120
REMARK UNBOUND:                -0.033
REMARK SMILES O=C([O-])CCC(=O)[O-]
REMARK SMILES IDX 4 1 2 2 1 3 3 4 5 5 6 6 7 7 8 8
REMARK H PARENT
REMARK Flexibility Score: inf
ROOT
ATOM      1  C   UNL     1     -23.977  25.495 -29.137  1.00  0.00     0.059 C 
ENDROOT
BRANCH   1   2
ATOM      2  C   UNL     1     -24.122  24.016 -29.326  1.00  0.00     0.042 C 
ATOM      3  O   UNL     1     -24.848  23.345 -28.547  1.00  0.00    -0.550 OA
ATOM      4  O   UNL     1     -23.423  23.373 -30.340  1.00  0.00    -0.550 OA
ENDBRANCH   1   2
BRANCH   1   5
ATOM      5  C   UNL     1     -24.721  26.278 -30.225  1.00  0.00     0.059 C 
BRANCH   5   6
ATOM      6  C   UNL     1     -23.782  26.792 -31.272  1.00  0.00     0.042 C 
ATOM      7  O   UNL     1     -22.537  26.677 -31.121  1.00  0.00    -0.550 OA
ATOM      8  O   UNL     1     -24.281  27.435 -32.398  1.00  0.00    -0.550 OA
ENDBRANCH   5   6
ENDBRANCH   1   5
TORSDOF 3
ENDMDL
MODEL 8
REMARK VINA RESULT:    -2.777     19.155     20.032
REMARK INTER + INTRA:          -3.298
REMARK INTER:                  -3.115
REMARK INTRA:                  -0.183
REMARK UNBOUND:                -0.033
REMARK SMILES O=C([O-])CCC(=O)[O-]
REMARK SMILES IDX 4 1 2 2 1 3 3 4 5 5 6 6 7 7 8 8
REMARK H PARENT
REMARK Flexibility Score: inf
ROOT
ATOM      1  C   UNL     1     -23.719  19.463 -26.115  1.00  0.00     0.059 C 
ENDROOT
BRANCH   1   2
ATOM      2  C   UNL     1     -23.289  18.029 -26.164  1.00  0.00     0.042 C 
ATOM      3  O   UNL     1     -24.141  17.108 -26.062  1.00  0.00    -0.550 OA
ATOM      4  O   UNL     1     -21.943  17.710 -26.283  1.00  0.00    -0.550 OA
ENDBRANCH   1   2
BRANCH   1   5
ATOM      5  C   UNL     1     -24.504  19.860 -27.370  1.00  0.00     0.059 C 
BRANCH   5   6
ATOM      6  C   UNL     1     -23.675  19.714 -28.608  1.00  0.00     0.042 C 
ATOM      7  O   UNL     1     -22.661  20.441 -28.781  1.00  0.00    -0.550 OA
ATOM      8  O   UNL     1     -24.045  18.804 -29.590  1.00  0.00    -0.550 OA
ENDBRANCH   5   6
ENDBRANCH   1   5
TORSDOF 3
ENDMDL
MODEL 9
REMARK VINA RESULT:    -2.765     15.331     16.187
REMARK INTER + INTRA:          -3.284
REMARK INTER:                  -3.176
REMARK INTRA:                  -0.108
REMARK UNBOUND:                -0.033
REMARK SMILES O=C([O-])CCC(=O)[O-]
REMARK SMILES IDX 4 1 2 2 1 3 3 4 5 5 6 6 7 7 8 8
REMARK H PARENT
REMARK Flexibility Score: inf
ROOT
ATOM      1  C   UNL     1     -24.789  23.006 -28.757  1.00  0.00     0.059 C 
ENDROOT
BRANCH   1   2
ATOM      2  C   UNL     1     -24.026  21.718 -28.723  1.00  0.00     0.042 C 
ATOM      3  O   UNL     1     -22.951  21.600 -29.366  1.00  0.00    -0.550 OA
ATOM      4  O   UNL     1     -24.525  20.633 -28.012  1.00  0.00    -0.550 OA
ENDBRANCH   1   2
BRANCH   1   5
ATOM      5  C   UNL     1     -24.395  23.863 -29.964  1.00  0.00     0.059 C 
BRANCH   5   6
ATOM      6  C   UNL     1     -23.762  25.153 -29.542  1.00  0.00     0.042 C 
ATOM      7  O   UNL     1     -24.448  26.208 -29.485  1.00  0.00    -0.550 OA
ATOM      8  O   UNL     1     -22.405  25.198 -29.249  1.00  0.00    -0.550 OA
ENDBRANCH   5   6
ENDBRANCH   1   5
TORSDOF 3
ENDMDL
