MODEL 1
REMARK VINA RESULT:    -3.801      0.000      0.000
REMARK INTER + INTRA:          -4.501
REMARK INTER:                  -4.468
REMARK INTRA:                  -0.033
REMARK UNBOUND:                -0.033
REMARK SMILES O=C([O-])CCC(=O)[O-]
REMARK SMILES IDX 4 1 2 2 1 3 3 4 5 5 6 6 7 7 8 8
REMARK H PARENT
REMARK Flexibility Score: inf
ROOT
ATOM      1  C   UNL     1       0.728  11.847  -7.726  1.00  0.00     0.059 C 
ENDROOT
BRANCH   1   2
ATOM      2  C   UNL     1      -0.720  12.143  -7.974  1.00  0.00     0.042 C 
ATOM      3  O   UNL     1      -1.202  13.262  -7.656  1.00  0.00    -0.550 OA
ATOM      4  O   UNL     1      -1.528  11.198  -8.596  1.00  0.00    -0.550 OA
ENDBRANCH   1   2
BRANCH   1   5
ATOM      5  C   UNL     1       1.074  10.395  -8.069  1.00  0.00     0.059 C 
BRANCH   5   6
ATOM      6  C   UNL     1       2.553  10.193  -8.186  1.00  0.00     0.042 C 
ATOM      7  O   UNL     1       3.322  10.582  -7.266  1.00  0.00    -0.550 OA
ATOM      8  O   UNL     1       3.087   9.610  -9.328  1.00  0.00    -0.550 OA
ENDBRANCH   5   6
ENDBRANCH   1   5
TORSDOF 3
ENDMDL
MODEL 2
REMARK VINA RESULT:    -3.777      0.081      4.161
REMARK INTER + INTRA:          -4.473
REMARK INTER:                  -4.440
REMARK INTRA:                  -0.033
REMARK UNBOUND:                -0.033
REMARK SMILES O=C([O-])CCC(=O)[O-]
REMARK SMILES IDX 4 1 2 2 1 3 3 4 5 5 6 6 7 7 8 8
REMARK H PARENT
REMARK Flexibility Score: inf
ROOT
ATOM      1  C   UNL     1       1.102  10.376  -8.058  1.00  0.00     0.059 C 
ENDROOT
BRANCH   1   2
ATOM      2  C   UNL     1       2.589  10.212  -8.148  1.00  0.00     0.042 C 
ATOM      3  O   UNL     1       3.325  10.568  -7.190  1.00  0.00    -0.550 OA
ATOM      4  O   UNL     1       3.159   9.627  -9.272  1.00  0.00    -0.550 OA
ENDBRANCH   1   2
BRANCH   1   5
ATOM      5  C   UNL     1       0.713  11.822  -7.738  1.00  0.00     0.059 C 
BRANCH   5   6
ATOM      6  C   UNL     1      -0.734  12.081  -8.027  1.00  0.00     0.042 C 
ATOM      7  O   UNL     1      -1.252  13.190  -7.728  1.00  0.00    -0.550 OA
ATOM      8  O   UNL     1      -1.520  11.083  -8.588  1.00  0.00    -0.550 OA
ENDBRANCH   5   6
ENDBRANCH   1   5
TORSDOF 3
ENDMDL
MODEL 3
REMARK VINA RESULT:    -3.775      0.102      4.290
REMARK INTER + INTRA:          -4.470
REMARK INTER:                  -4.435
REMARK INTRA:                  -0.035
REMARK UNBOUND:                -0.033
REMARK SMILES O=C([O-])CCC(=O)[O-]
REMARK SMILES IDX 4 1 2 2 1 3 3 4 5 5 6 6 7 7 8 8
REMARK H PARENT
REMARK Flexibility Score: inf
ROOT
ATOM      1  C   UNL     1       1.149  10.427  -8.105  1.00  0.00     0.059 C 
ENDROOT
BRANCH   1   2
ATOM      2  C   UNL     1       2.636  10.254  -8.183  1.00  0.00     0.042 C 
ATOM      3  O   UNL     1       3.368  10.630  -7.230  1.00  0.00    -0.550 OA
ATOM      4  O   UNL     1       3.209   9.640  -9.290  1.00  0.00    -0.550 OA
ENDBRANCH   1   2
BRANCH   1   5
ATOM      5  C   UNL     1       0.767  11.854  -7.704  1.00  0.00     0.059 C 
BRANCH   5   6
ATOM      6  C   UNL     1      -0.682  12.131  -7.962  1.00  0.00     0.042 C 
ATOM      7  O   UNL     1      -1.400  11.270  -8.537  1.00  0.00    -0.550 OA
ATOM      8  O   UNL     1      -1.230  13.356  -7.603  1.00  0.00    -0.550 OA
ENDBRANCH   5   6
ENDBRANCH   1   5
TORSDOF 3
ENDMDL
MODEL 4
REMARK VINA RESULT:    -3.690      0.554      1.705
REMARK INTER + INTRA:          -4.371
REMARK INTER:                  -4.329
REMARK INTRA:                  -0.042
REMARK UNBOUND:                -0.033
REMARK SMILES O=C([O-])CCC(=O)[O-]
REMARK SMILES IDX 4 1 2 2 1 3 3 4 5 5 6 6 7 7 8 8
REMARK H PARENT
REMARK Flexibility Score: inf
ROOT
ATOM      1  C   UNL     1       0.584  10.900  -7.196  1.00  0.00     0.059 C 
ENDROOT
BRANCH   1   2
ATOM      2  C   UNL     1      -0.569  11.605  -7.846  1.00  0.00     0.042 C 
ATOM      3  O   UNL     1      -1.400  10.957  -8.535  1.00  0.00    -0.550 OA
ATOM      4  O   UNL     1      -0.748  12.969  -7.654  1.00  0.00    -0.550 OA
ENDBRANCH   1   2
BRANCH   1   5
ATOM      5  C   UNL     1       1.283   9.947  -8.170  1.00  0.00     0.059 C 
BRANCH   5   6
ATOM      6  C   UNL     1       2.760  10.192  -8.217  1.00  0.00     0.042 C 
ATOM      7  O   UNL     1       3.442   9.770  -9.189  1.00  0.00    -0.550 OA
ATOM      8  O   UNL     1       3.389  10.851  -7.169  1.00  0.00    -0.550 OA
ENDBRANCH   5   6
ENDBRANCH   1   5
TORSDOF 3
ENDMDL
MODEL 5
REMARK VINA RESULT:    -3.613      1.549      4.066
REMARK INTER + INTRA:          -4.279
REMARK INTER:                  -4.196
REMARK INTRA:                  -0.083
REMARK UNBOUND:                -0.033
REMARK SMILES O=C([O-])CCC(=O)[O-]
REMARK SMILES IDX 4 1 2 2 1 3 3 4 5 5 6 6 7 7 8 8
REMARK H PARENT
REMARK Flexibility Score: inf
ROOT
ATOM      1  C   UNL     1       0.999  10.295  -8.025  1.00  0.00     0.059 C 
ENDROOT
BRANCH   1   2
ATOM      2  C   UNL     1       2.482  10.171  -8.204  1.00  0.00     0.042 C 
ATOM      3  O   UNL     1       2.953   9.649  -9.248  1.00  0.00    -0.550 OA
ATOM      4  O   UNL     1       3.344  10.669  -7.234  1.00  0.00    -0.550 OA
ENDBRANCH   1   2
BRANCH   1   5
ATOM      5  C   UNL     1       0.569  11.758  -7.878  1.00  0.00     0.059 C 
BRANCH   5   6
ATOM      6  C   UNL     1       0.366  12.132  -6.442  1.00  0.00     0.042 C 
ATOM      7  O   UNL     1       1.056  13.048  -5.921  1.00  0.00    -0.550 OA
ATOM      8  O   UNL     1      -0.558  11.441  -5.668  1.00  0.00    -0.550 OA
ENDBRANCH   5   6
ENDBRANCH   1   5
TORSDOF 3
ENDMDL
MODEL 6
REMARK VINA RESULT:    -3.433      1.852      2.612
REMARK INTER + INTRA:          -4.068
REMARK INTER:                  -3.951
REMARK INTRA:                  -0.117
REMARK UNBOUND:                -0.033
REMARK SMILES O=C([O-])CCC(=O)[O-]
REMARK SMILES IDX 4 1 2 2 1 3 3 4 5 5 6 6 7 7 8 8
REMARK H PARENT
REMARK Flexibility Score: inf
ROOT
ATOM      1  C   UNL     1       0.542  11.571  -6.432  1.00  0.00     0.059 C 
ENDROOT
BRANCH   1   2
ATOM      2  C   UNL     1       0.804  12.908  -5.807  1.00  0.00     0.042 C 
ATOM      3  O   UNL     1      -0.113  13.770  -5.748  1.00  0.00    -0.550 OA
ATOM      4  O   UNL     1       2.047  13.187  -5.253  1.00  0.00    -0.550 OA
ENDBRANCH   1   2
BRANCH   1   5
ATOM      5  C   UNL     1       1.053  11.512  -7.874  1.00  0.00     0.059 C 
BRANCH   5   6
ATOM      6  C   UNL     1       2.183  10.540  -8.021  1.00  0.00     0.042 C 
ATOM      7  O   UNL     1       2.115   9.612  -8.871  1.00  0.00    -0.550 OA
ATOM      8  O   UNL     1       3.293  10.633  -7.191  1.00  0.00    -0.550 OA
ENDBRANCH   5   6
ENDBRANCH   1   5
TORSDOF 3
ENDMDL
MODEL 7
REMARK VINA RESULT:    -3.413     12.988     13.633
REMARK INTER + INTRA:          -4.045
REMARK INTER:                  -4.006
REMARK INTRA:                  -0.039
REMARK UNBOUND:                -0.033
REMARK SMILES O=C([O-])CCC(=O)[O-]
REMARK SMILES IDX 4 1 2 2 1 3 3 4 5 5 6 6 7 7 8 8
REMARK H PARENT
REMARK Flexibility Score: inf
ROOT
ATOM      1  C   UNL     1       7.872  12.639 -19.031  1.00  0.00     0.059 C 
ENDROOT
BRANCH   1   2
ATOM      2  C   UNL     1       6.684  13.144 -19.792  1.00  0.00     0.042 C 
ATOM      3  O   UNL     1       6.364  12.617 -20.890  1.00  0.00    -0.550 OA
ATOM      4  O   UNL     1       5.905  14.169 -19.268  1.00  0.00    -0.550 OA
ENDBRANCH   1   2
BRANCH   1   5
ATOM      5  C   UNL     1       8.646  11.585 -19.828  1.00  0.00     0.059 C 
BRANCH   5   6
ATOM      6  C   UNL     1       9.889  11.154 -19.112  1.00  0.00     0.042 C 
ATOM      7  O   UNL     1      10.096  11.520 -17.924  1.00  0.00    -0.550 OA
ATOM      8  O   UNL     1      10.837  10.382 -19.770  1.00  0.00    -0.550 OA
ENDBRANCH   5   6
ENDBRANCH   1   5
TORSDOF 3
ENDMDL
MODEL 8
REMARK VINA RESULT:    -3.346     13.114     14.384
REMARK INTER + INTRA:          -3.966
REMARK INTER:                  -3.928
REMARK INTRA:                  -0.038
REMARK UNBOUND:                -0.033
REMARK SMILES O=C([O-])CCC(=O)[O-]
REMARK SMILES IDX 4 1 2 2 1 3 3 4 5 5 6 6 7 7 8 8
REMARK H PARENT
REMARK Flexibility Score: inf
ROOT
ATOM      1  C   UNL     1       9.346  11.906 -18.628  1.00  0.00     0.059 C 
ENDROOT
BRANCH   1   2
ATOM      2  C   UNL     1      10.621  11.149 -18.407  1.00  0.00     0.042 C 
ATOM      3  O   UNL     1      10.828  10.065 -19.013  1.00  0.00    -0.550 OA
ATOM      4  O   UNL     1      11.598  11.663 -17.563  1.00  0.00    -0.550 OA
ENDBRANCH   1   2
BRANCH   1   5
ATOM      5  C   UNL     1       8.663  11.490 -19.934  1.00  0.00     0.059 C 
BRANCH   5   6
ATOM      6  C   UNL     1       7.285  12.066 -20.043  1.00  0.00     0.042 C 
ATOM      7  O   UNL     1       6.678  12.055 -21.147  1.00  0.00    -0.550 OA
ATOM      8  O   UNL     1       6.686  12.652 -18.935  1.00  0.00    -0.550 OA
ENDBRANCH   5   6
ENDBRANCH   1   5
TORSDOF 3
ENDMDL
MODEL 9
REMARK VINA RESULT:    -3.341     12.549     13.234
REMARK INTER + INTRA:          -3.960
REMARK INTER:                  -3.931
REMARK INTRA:                  -0.029
REMARK UNBOUND:                -0.033
REMARK SMILES O=C([O-])CCC(=O)[O-]
REMARK SMILES IDX 4 1 2 2 1 3 3 4 5 5 6 6 7 7 8 8
REMARK H PARENT
REMARK Flexibility Score: inf
ROOT
ATOM      1  C   UNL     1      -1.166   5.273 -20.131  1.00  0.00     0.059 C 
ENDROOT
BRANCH   1   2
ATOM      2  C   UNL     1      -2.042   6.316 -19.504  1.00  0.00     0.042 C 
ATOM      3  O   UNL     1      -2.279   6.284 -18.267  1.00  0.00    -0.550 OA
ATOM      4  O   UNL     1      -2.562   7.346 -20.278  1.00  0.00    -0.550 OA
ENDBRANCH   1   2
BRANCH   1   5
ATOM      5  C   UNL     1       0.133   5.080 -19.344  1.00  0.00     0.059 C 
BRANCH   5   6
ATOM      6  C   UNL     1       1.137   4.286 -20.122  1.00  0.00     0.042 C 
ATOM      7  O   UNL     1       1.450   3.122 -19.753  1.00  0.00    -0.550 OA
ATOM      8  O   UNL     1       1.756   4.845 -21.233  1.00  0.00    -0.550 OA
ENDBRANCH   5   6
ENDBRANCH   1   5
TORSDOF 3
ENDMDL
