MODEL 1
REMARK VINA RESULT:    -4.298      0.000      0.000
REMARK INTER + INTRA:          -5.756
REMARK INTER:                  -5.303
REMARK INTRA:                  -0.452
REMARK UNBOUND:                -0.452
REMARK SMILES C=CC[C@@H](C)C(=O)CC
REMARK SMILES IDX 4 1 5 2 6 3 7 4 8 5 9 6 3 7 2 8 1 9
REMARK H PARENT
REMARK Flexibility Score: inf
ROOT
ATOM      1  C   UNL     1     -12.412 -17.522  31.539  1.00  0.00     0.057 C 
ATOM      2  C   UNL     1     -13.235 -18.749  31.957  1.00  0.00     0.016 C 
ENDROOT
BRANCH   1   3
ATOM      3  C   UNL     1     -12.607 -17.249  30.063  1.00  0.00     0.135 C 
ATOM      4  O   UNL     1     -13.270 -18.022  29.386  1.00  0.00    -0.299 OA
BRANCH   3   5
ATOM      5  C   UNL     1     -11.994 -16.039  29.406  1.00  0.00     0.072 C 
ATOM      6  C   UNL     1     -12.984 -15.383  28.451  1.00  0.00     0.012 C 
ENDBRANCH   3   5
ENDBRANCH   1   3
BRANCH   1   7
ATOM      7  C   UNL     1     -12.794 -16.272  32.360  1.00  0.00     0.038 C 
BRANCH   7   8
ATOM      8  C   UNL     1     -14.279 -16.021  32.367  1.00  0.00    -0.034 C 
ATOM      9  C   UNL     1     -14.790 -14.810  32.129  1.00  0.00     0.004 C 
ENDBRANCH   7   8
ENDBRANCH   1   7
TORSDOF 4
ENDMDL
MODEL 2
REMARK VINA RESULT:    -4.218      1.557      2.984
REMARK INTER + INTRA:          -5.657
REMARK INTER:                  -5.376
REMARK INTRA:                  -0.281
REMARK UNBOUND:                -0.452
REMARK SMILES C=CC[C@@H](C)C(=O)CC
REMARK SMILES IDX 4 1 5 2 6 3 7 4 8 5 9 6 3 7 2 8 1 9
REMARK H PARENT
REMARK Flexibility Score: inf
ROOT
ATOM      1  C   UNL     1     -13.336 -16.732  31.195  1.00  0.00     0.057 C 
ATOM      2  C   UNL     1     -14.009 -15.575  31.947  1.00  0.00     0.016 C 
ENDROOT
BRANCH   1   3
ATOM      3  C   UNL     1     -11.958 -16.313  30.731  1.00  0.00     0.135 C 
ATOM      4  O   UNL     1     -11.086 -16.079  31.555  1.00  0.00    -0.299 OA
BRANCH   3   5
ATOM      5  C   UNL     1     -11.637 -16.174  29.265  1.00  0.00     0.072 C 
ATOM      6  C   UNL     1     -12.819 -15.577  28.508  1.00  0.00     0.012 C 
ENDBRANCH   3   5
ENDBRANCH   1   3
BRANCH   1   7
ATOM      7  C   UNL     1     -13.232 -17.998  32.072  1.00  0.00     0.038 C 
BRANCH   7   8
ATOM      8  C   UNL     1     -13.016 -19.245  31.256  1.00  0.00    -0.034 C 
ATOM      9  C   UNL     1     -12.458 -20.341  31.778  1.00  0.00     0.004 C 
ENDBRANCH   7   8
ENDBRANCH   1   7
TORSDOF 4
ENDMDL
MODEL 3
REMARK VINA RESULT:    -4.189      1.215      2.839
REMARK INTER + INTRA:          -5.621
REMARK INTER:                  -5.422
REMARK INTRA:                  -0.199
REMARK UNBOUND:                -0.452
REMARK SMILES C=CC[C@@H](C)C(=O)CC
REMARK SMILES IDX 4 1 5 2 6 3 7 4 8 5 9 6 3 7 2 8 1 9
REMARK H PARENT
REMARK Flexibility Score: inf
ROOT
ATOM      1  C   UNL     1     -12.864 -16.861  30.472  1.00  0.00     0.057 C 
ATOM      2  C   UNL     1     -11.471 -16.278  30.195  1.00  0.00     0.016 C 
ENDROOT
BRANCH   1   3
ATOM      3  C   UNL     1     -12.807 -18.373  30.436  1.00  0.00     0.135 C 
ATOM      4  O   UNL     1     -12.462 -18.942  29.411  1.00  0.00    -0.299 OA
BRANCH   3   5
ATOM      5  C   UNL     1     -13.172 -19.196  31.644  1.00  0.00     0.072 C 
ATOM      6  C   UNL     1     -12.382 -20.500  31.669  1.00  0.00     0.012 C 
ENDBRANCH   3   5
ENDBRANCH   1   3
BRANCH   1   7
ATOM      7  C   UNL     1     -13.421 -16.388  31.831  1.00  0.00     0.038 C 
BRANCH   7   8
ATOM      8  C   UNL     1     -14.353 -15.213  31.692  1.00  0.00    -0.034 C 
ATOM      9  C   UNL     1     -15.107 -14.787  32.710  1.00  0.00     0.004 C 
ENDBRANCH   7   8
ENDBRANCH   1   7
TORSDOF 4
ENDMDL
MODEL 4
REMARK VINA RESULT:    -4.187      1.646      4.346
REMARK INTER + INTRA:          -5.618
REMARK INTER:                  -5.396
REMARK INTRA:                  -0.222
REMARK UNBOUND:                -0.452
REMARK SMILES C=CC[C@@H](C)C(=O)CC
REMARK SMILES IDX 4 1 5 2 6 3 7 4 8 5 9 6 3 7 2 8 1 9
REMARK H PARENT
REMARK Flexibility Score: inf
ROOT
ATOM      1  C   UNL     1     -12.120 -15.936  29.144  1.00  0.00     0.057 C 
ATOM      2  C   UNL     1     -13.197 -15.169  28.363  1.00  0.00     0.016 C 
ENDROOT
BRANCH   1   3
ATOM      3  C   UNL     1     -12.758 -16.711  30.277  1.00  0.00     0.135 C 
ATOM      4  O   UNL     1     -13.251 -17.808  30.058  1.00  0.00    -0.299 OA
BRANCH   3   5
ATOM      5  C   UNL     1     -12.802 -16.153  31.676  1.00  0.00     0.072 C 
ATOM      6  C   UNL     1     -14.183 -15.586  31.989  1.00  0.00     0.012 C 
ENDBRANCH   3   5
ENDBRANCH   1   3
BRANCH   1   7
ATOM      7  C   UNL     1     -11.329 -16.897  28.231  1.00  0.00     0.038 C 
BRANCH   7   8
ATOM      8  C   UNL     1     -11.955 -17.041  26.869  1.00  0.00    -0.034 C 
ATOM      9  C   UNL     1     -11.217 -17.206  25.768  1.00  0.00     0.004 C 
ENDBRANCH   7   8
ENDBRANCH   1   7
TORSDOF 4
ENDMDL
MODEL 5
REMARK VINA RESULT:    -4.026      1.675      3.674
REMARK INTER + INTRA:          -5.419
REMARK INTER:                  -5.065
REMARK INTRA:                  -0.354
REMARK UNBOUND:                -0.452
REMARK SMILES C=CC[C@@H](C)C(=O)CC
REMARK SMILES IDX 4 1 5 2 6 3 7 4 8 5 9 6 3 7 2 8 1 9
REMARK H PARENT
REMARK Flexibility Score: inf
ROOT
ATOM      1  C   UNL     1     -11.885 -16.527  30.287  1.00  0.00     0.057 C 
ATOM      2  C   UNL     1     -13.259 -16.166  30.868  1.00  0.00     0.016 C 
ENDROOT
BRANCH   1   3
ATOM      3  C   UNL     1     -11.752 -18.031  30.173  1.00  0.00     0.135 C 
ATOM      4  O   UNL     1     -10.642 -18.537  30.108  1.00  0.00    -0.299 OA
BRANCH   3   5
ATOM      5  C   UNL     1     -12.968 -18.920  30.132  1.00  0.00     0.072 C 
ATOM      6  C   UNL     1     -12.964 -19.894  31.305  1.00  0.00     0.012 C 
ENDBRANCH   3   5
ENDBRANCH   1   3
BRANCH   1   7
ATOM      7  C   UNL     1     -11.659 -15.874  28.907  1.00  0.00     0.038 C 
BRANCH   7   8
ATOM      8  C   UNL     1     -12.945 -15.665  28.153  1.00  0.00    -0.034 C 
ATOM      9  C   UNL     1     -13.253 -16.386  27.071  1.00  0.00     0.004 C 
ENDBRANCH   7   8
ENDBRANCH   1   7
TORSDOF 4
ENDMDL
MODEL 6
REMARK VINA RESULT:    -4.010      1.869      2.806
REMARK INTER + INTRA:          -5.399
REMARK INTER:                  -4.951
REMARK INTRA:                  -0.449
REMARK UNBOUND:                -0.452
REMARK SMILES C=CC[C@@H](C)C(=O)CC
REMARK SMILES IDX 4 1 5 2 6 3 7 4 8 5 9 6 3 7 2 8 1 9
REMARK H PARENT
REMARK Flexibility Score: inf
ROOT
ATOM      1  C   UNL     1     -12.531 -19.491  29.048  1.00  0.00     0.057 C 
ATOM      2  C   UNL     1     -13.955 -20.057  28.955  1.00  0.00     0.016 C 
ENDROOT
BRANCH   1   3
ATOM      3  C   UNL     1     -12.481 -18.114  28.422  1.00  0.00     0.135 C 
ATOM      4  O   UNL     1     -13.478 -17.659  27.880  1.00  0.00    -0.299 OA
BRANCH   3   5
ATOM      5  C   UNL     1     -11.221 -17.289  28.451  1.00  0.00     0.072 C 
ATOM      6  C   UNL     1     -11.500 -15.894  29.000  1.00  0.00     0.012 C 
ENDBRANCH   3   5
ENDBRANCH   1   3
BRANCH   1   7
ATOM      7  C   UNL     1     -12.037 -19.423  30.509  1.00  0.00     0.038 C 
BRANCH   7   8
ATOM      8  C   UNL     1     -13.151 -19.127  31.478  1.00  0.00    -0.034 C 
ATOM      9  C   UNL     1     -13.257 -17.943  32.089  1.00  0.00     0.004 C 
ENDBRANCH   7   8
ENDBRANCH   1   7
TORSDOF 4
ENDMDL
MODEL 7
REMARK VINA RESULT:    -3.975      1.683      3.540
REMARK INTER + INTRA:          -5.356
REMARK INTER:                  -4.887
REMARK INTRA:                  -0.470
REMARK UNBOUND:                -0.452
REMARK SMILES C=CC[C@@H](C)C(=O)CC
REMARK SMILES IDX 4 1 5 2 6 3 7 4 8 5 9 6 3 7 2 8 1 9
REMARK H PARENT
REMARK Flexibility Score: inf
ROOT
ATOM      1  C   UNL     1     -12.924 -18.296  29.321  1.00  0.00     0.057 C 
ATOM      2  C   UNL     1     -13.659 -19.502  28.720  1.00  0.00     0.016 C 
ENDROOT
BRANCH   1   3
ATOM      3  C   UNL     1     -12.229 -18.701  30.603  1.00  0.00     0.135 C 
ATOM      4  O   UNL     1     -11.154 -19.281  30.552  1.00  0.00    -0.299 OA
BRANCH   3   5
ATOM      5  C   UNL     1     -12.840 -18.406  31.948  1.00  0.00     0.072 C 
ATOM      6  C   UNL     1     -13.393 -16.985  31.991  1.00  0.00     0.012 C 
ENDBRANCH   3   5
ENDBRANCH   1   3
BRANCH   1   7
ATOM      7  C   UNL     1     -11.898 -17.702  28.332  1.00  0.00     0.038 C 
BRANCH   7   8
ATOM      8  C   UNL     1     -11.821 -16.200  28.418  1.00  0.00    -0.034 C 
ATOM      9  C   UNL     1     -12.918 -15.442  28.508  1.00  0.00     0.004 C 
ENDBRANCH   7   8
ENDBRANCH   1   7
TORSDOF 4
ENDMDL
MODEL 8
REMARK VINA RESULT:    -3.951      1.700      2.603
REMARK INTER + INTRA:          -5.327
REMARK INTER:                  -5.100
REMARK INTRA:                  -0.227
REMARK UNBOUND:                -0.452
REMARK SMILES C=CC[C@@H](C)C(=O)CC
REMARK SMILES IDX 4 1 5 2 6 3 7 4 8 5 9 6 3 7 2 8 1 9
REMARK H PARENT
REMARK Flexibility Score: inf
ROOT
ATOM      1  C   UNL     1     -12.278 -16.373  29.358  1.00  0.00     0.057 C 
ATOM      2  C   UNL     1     -10.880 -15.755  29.212  1.00  0.00     0.016 C 
ENDROOT
BRANCH   1   3
ATOM      3  C   UNL     1     -12.602 -17.210  28.140  1.00  0.00     0.135 C 
ATOM      4  O   UNL     1     -12.976 -18.365  28.281  1.00  0.00    -0.299 OA
BRANCH   3   5
ATOM      5  C   UNL     1     -12.469 -16.647  26.749  1.00  0.00     0.072 C 
ATOM      6  C   UNL     1     -11.322 -17.318  26.002  1.00  0.00     0.012 C 
ENDBRANCH   3   5
ENDBRANCH   1   3
BRANCH   1   7
ATOM      7  C   UNL     1     -12.390 -17.235  30.633  1.00  0.00     0.038 C 
BRANCH   7   8
ATOM      8  C   UNL     1     -13.282 -16.609  31.673  1.00  0.00    -0.034 C 
ATOM      9  C   UNL     1     -14.021 -15.528  31.409  1.00  0.00     0.004 C 
ENDBRANCH   7   8
ENDBRANCH   1   7
TORSDOF 4
ENDMDL
