MODEL 1
REMARK VINA RESULT:    -4.203      0.000      0.000
REMARK INTER + INTRA:         -13.945
REMARK INTER:                 -11.083
REMARK INTRA:                  -2.861
REMARK UNBOUND:                -2.861
REMARK SMILES CCCCCCCCCCCCCCCCCCCCCCCCCCCCCC(=O)[O-]
REMARK SMILES IDX 16 1 17 2 18 3 19 4 20 5 21 6 22 7 23 8 24 9 25 10 26 11
REMARK SMILES IDX 27 12 28 13 29 14 30 15 31 16 32 17 15 18 14 19 13 20 12 21
REMARK SMILES IDX 11 22 10 23 9 24 8 25 7 26 6 27 5 28 4 29 3 30 2 31 1 32
REMARK H PARENT
REMARK Flexibility Score: inf
ROOT
ATOM      1  C   UNL     1      21.815   0.644  -4.629  1.00  0.00     0.000 C 
ENDROOT
BRANCH   1   2
ATOM      2  C   UNL     1      23.140   1.059  -3.971  1.00  0.00     0.000 C 
BRANCH   2   3
ATOM      3  C   UNL     1      24.307   1.125  -4.975  1.00  0.00     0.000 C 
BRANCH   3   4
ATOM      4  C   UNL     1      25.679   1.084  -4.283  1.00  0.00     0.000 C 
BRANCH   4   5
ATOM      5  C   UNL     1      26.763   0.436  -5.162  1.00  0.00     0.000 C 
BRANCH   5   6
ATOM      6  C   UNL     1      27.846  -0.270  -4.333  1.00  0.00     0.000 C 
BRANCH   6   7
ATOM      7  C   UNL     1      27.724   0.027  -2.829  1.00  0.00     0.000 C 
BRANCH   7   8
ATOM      8  C   UNL     1      27.453  -1.235  -1.990  1.00  0.00     0.000 C 
BRANCH   8   9
ATOM      9  C   UNL     1      27.378  -2.532  -2.824  1.00  0.00     0.000 C 
BRANCH   9  10
ATOM     10  C   UNL     1      28.741  -3.241  -2.921  1.00  0.00     0.000 C 
BRANCH  10  11
ATOM     11  C   UNL     1      28.864  -4.111  -4.183  1.00  0.00     0.000 C 
BRANCH  11  12
ATOM     12  C   UNL     1      27.607  -4.040  -5.068  1.00  0.00     0.000 C 
BRANCH  12  13
ATOM     13  C   UNL     1      26.798  -5.347  -5.060  1.00  0.00     0.006 C 
BRANCH  13  14
ATOM     14  C   UNL     1      27.670  -6.588  -5.305  1.00  0.00     0.053 C 
BRANCH  14  15
ATOM     15  C   UNL     1      27.558  -7.057  -6.725  1.00  0.00     0.041 C 
ATOM     16  O   UNL     1      27.761  -8.267  -7.007  1.00  0.00    -0.550 OA
ATOM     17  O   UNL     1      27.164  -6.178  -7.726  1.00  0.00    -0.550 OA
ENDBRANCH  14  15
ENDBRANCH  13  14
ENDBRANCH  12  13
ENDBRANCH  11  12
ENDBRANCH  10  11
ENDBRANCH   9  10
ENDBRANCH   8   9
ENDBRANCH   7   8
ENDBRANCH   6   7
ENDBRANCH   5   6
ENDBRANCH   4   5
ENDBRANCH   3   4
ENDBRANCH   2   3
ENDBRANCH   1   2
BRANCH   1  18
ATOM     18  C   UNL     1      21.703   1.125  -6.087  1.00  0.00     0.000 C 
BRANCH  18  19
ATOM     19  C   UNL     1      21.172   0.030  -7.027  1.00  0.00     0.000 C 
BRANCH  19  20
ATOM     20  C   UNL     1      20.008   0.519  -7.906  1.00  0.00     0.000 C 
BRANCH  20  21
ATOM     21  C   UNL     1      18.809   1.023  -7.081  1.00  0.00     0.000 C 
BRANCH  21  22
ATOM     22  C   UNL     1      17.470   1.079  -7.846  1.00  0.00     0.000 C 
BRANCH  22  23
ATOM     23  C   UNL     1      16.294   0.349  -7.167  1.00  0.00     0.000 C 
BRANCH  23  24
ATOM     24  C   UNL     1      16.142   0.626  -5.658  1.00  0.00    -0.000 C 
BRANCH  24  25
ATOM     25  C   UNL     1      15.553  -0.540  -4.838  1.00  0.00    -0.000 C 
BRANCH  25  26
ATOM     26  C   UNL     1      16.264  -0.818  -3.498  1.00  0.00    -0.000 C 
BRANCH  26  27
ATOM     27  C   UNL     1      17.804  -0.843  -3.570  1.00  0.00    -0.000 C 
BRANCH  27  28
ATOM     28  C   UNL     1      18.478  -1.993  -2.794  1.00  0.00    -0.000 C 
BRANCH  28  29
ATOM     29  C   UNL     1      19.386  -2.905  -3.638  1.00  0.00    -0.000 C 
BRANCH  29  30
ATOM     30  C   UNL     1      19.730  -2.304  -5.009  1.00  0.00    -0.000 C 
BRANCH  30  31
ATOM     31  C   UNL     1      18.648  -2.644  -6.040  1.00  0.00    -0.003 C 
ATOM     32  C   UNL     1      19.263  -3.039  -7.379  1.00  0.00     0.004 C 
ENDBRANCH  30  31
ENDBRANCH  29  30
ENDBRANCH  28  29
ENDBRANCH  27  28
ENDBRANCH  26  27
ENDBRANCH  25  26
ENDBRANCH  24  25
ENDBRANCH  23  24
ENDBRANCH  22  23
ENDBRANCH  21  22
ENDBRANCH  20  21
ENDBRANCH  19  20
ENDBRANCH  18  19
ENDBRANCH   1  18
TORSDOF 28
ENDMDL
MODEL 2
REMARK VINA RESULT:    -3.567      6.380      9.131
REMARK INTER + INTRA:         -12.267
REMARK INTER:                  -8.912
REMARK INTRA:                  -3.354
REMARK UNBOUND:                -2.861
REMARK SMILES CCCCCCCCCCCCCCCCCCCCCCCCCCCCCC(=O)[O-]
REMARK SMILES IDX 16 1 17 2 18 3 19 4 20 5 21 6 22 7 23 8 24 9 25 10 26 11
REMARK SMILES IDX 27 12 28 13 29 14 30 15 31 16 32 17 15 18 14 19 13 20 12 21
REMARK SMILES IDX 11 22 10 23 9 24 8 25 7 26 6 27 5 28 4 29 3 30 2 31 1 32
REMARK H PARENT
REMARK Flexibility Score: inf
ROOT
ATOM      1  C   UNL     1      27.398   0.082  -3.823  1.00  0.00     0.000 C 
ENDROOT
BRANCH   1   2
ATOM      2  C   UNL     1      26.970   0.843  -5.087  1.00  0.00     0.000 C 
BRANCH   2   3
ATOM      3  C   UNL     1      27.557   0.236  -6.374  1.00  0.00     0.000 C 
BRANCH   3   4
ATOM      4  C   UNL     1      28.975  -0.319  -6.167  1.00  0.00     0.000 C 
BRANCH   4   5
ATOM      5  C   UNL     1      29.068  -1.826  -6.464  1.00  0.00     0.000 C 
BRANCH   5   6
ATOM      6  C   UNL     1      30.124  -2.531  -5.600  1.00  0.00     0.000 C 
BRANCH   6   7
ATOM      7  C   UNL     1      29.955  -2.232  -4.101  1.00  0.00     0.000 C 
BRANCH   7   8
ATOM      8  C   UNL     1      29.228  -3.357  -3.344  1.00  0.00     0.000 C 
BRANCH   8   9
ATOM      9  C   UNL     1      29.410  -4.753  -3.979  1.00  0.00     0.000 C 
BRANCH   9  10
ATOM     10  C   UNL     1      28.227  -5.690  -3.676  1.00  0.00     0.000 C 
BRANCH  10  11
ATOM     11  C   UNL     1      27.000  -5.394  -4.553  1.00  0.00     0.000 C 
BRANCH  11  12
ATOM     12  C   UNL     1      27.383  -5.079  -6.010  1.00  0.00     0.000 C 
BRANCH  12  13
ATOM     13  C   UNL     1      26.732  -6.039  -7.018  1.00  0.00     0.006 C 
BRANCH  13  14
ATOM     14  C   UNL     1      26.834  -7.511  -6.589  1.00  0.00     0.053 C 
BRANCH  14  15
ATOM     15  C   UNL     1      28.123  -8.121  -7.052  1.00  0.00     0.041 C 
ATOM     16  O   UNL     1      28.413  -8.128  -8.277  1.00  0.00    -0.550 OA
ATOM     17  O   UNL     1      29.034  -8.620  -6.130  1.00  0.00    -0.550 OA
ENDBRANCH  14  15
ENDBRANCH  13  14
ENDBRANCH  12  13
ENDBRANCH  11  12
ENDBRANCH  10  11
ENDBRANCH   9  10
ENDBRANCH   8   9
ENDBRANCH   7   8
ENDBRANCH   6   7
ENDBRANCH   5   6
ENDBRANCH   4   5
ENDBRANCH   3   4
ENDBRANCH   2   3
ENDBRANCH   1   2
BRANCH   1  18
ATOM     18  C   UNL     1      27.977   1.012  -2.741  1.00  0.00     0.000 C 
BRANCH  18  19
ATOM     19  C   UNL     1      29.416   0.636  -2.352  1.00  0.00     0.000 C 
BRANCH  19  20
ATOM     20  C   UNL     1      29.760   1.032  -0.906  1.00  0.00     0.000 C 
BRANCH  20  21
ATOM     21  C   UNL     1      28.730   0.513   0.115  1.00  0.00     0.000 C 
BRANCH  21  22
ATOM     22  C   UNL     1      29.290   0.252   1.529  1.00  0.00     0.000 C 
BRANCH  22  23
ATOM     23  C   UNL     1      28.673   1.112   2.650  1.00  0.00     0.000 C 
BRANCH  23  24
ATOM     24  C   UNL     1      28.796   0.519   4.067  1.00  0.00    -0.000 C 
BRANCH  24  25
ATOM     25  C   UNL     1      27.456   0.185   4.753  1.00  0.00    -0.000 C 
BRANCH  25  26
ATOM     26  C   UNL     1      27.150  -1.321   4.885  1.00  0.00    -0.000 C 
BRANCH  26  27
ATOM     27  C   UNL     1      28.230  -2.259   4.311  1.00  0.00    -0.000 C 
BRANCH  27  28
ATOM     28  C   UNL     1      27.788  -3.723   4.113  1.00  0.00    -0.000 C 
BRANCH  28  29
ATOM     29  C   UNL     1      28.266  -4.377   2.805  1.00  0.00    -0.000 C 
BRANCH  29  30
ATOM     30  C   UNL     1      28.530  -3.357   1.687  1.00  0.00    -0.000 C 
BRANCH  30  31
ATOM     31  C   UNL     1      29.928  -3.554   1.089  1.00  0.00    -0.003 C 
ATOM     32  C   UNL     1      30.125  -2.690  -0.153  1.00  0.00     0.004 C 
ENDBRANCH  30  31
ENDBRANCH  29  30
ENDBRANCH  28  29
ENDBRANCH  27  28
ENDBRANCH  26  27
ENDBRANCH  25  26
ENDBRANCH  24  25
ENDBRANCH  23  24
ENDBRANCH  22  23
ENDBRANCH  21  22
ENDBRANCH  20  21
ENDBRANCH  19  20
ENDBRANCH  18  19
ENDBRANCH   1  18
TORSDOF 28
ENDMDL
MODEL 3
REMARK VINA RESULT:    -3.038      4.016     10.571
REMARK INTER + INTRA:         -10.872
REMARK INTER:                  -8.595
REMARK INTRA:                  -2.277
REMARK UNBOUND:                -2.861
REMARK SMILES CCCCCCCCCCCCCCCCCCCCCCCCCCCCCC(=O)[O-]
REMARK SMILES IDX 16 1 17 2 18 3 19 4 20 5 21 6 22 7 23 8 24 9 25 10 26 11
REMARK SMILES IDX 27 12 28 13 29 14 30 15 31 16 32 17 15 18 14 19 13 20 12 21
REMARK SMILES IDX 11 22 10 23 9 24 8 25 7 26 6 27 5 28 4 29 3 30 2 31 1 32
REMARK H PARENT
REMARK Flexibility Score: inf
ROOT
ATOM      1  C   UNL     1      26.843  -3.391  -5.096  1.00  0.00     0.000 C 
ENDROOT
BRANCH   1   2
ATOM      2  C   UNL     1      26.993  -1.930  -4.643  1.00  0.00     0.000 C 
BRANCH   2   3
ATOM      3  C   UNL     1      27.715  -1.056  -5.685  1.00  0.00     0.000 C 
BRANCH   3   4
ATOM      4  C   UNL     1      26.875   0.155  -6.119  1.00  0.00     0.000 C 
BRANCH   4   5
ATOM      5  C   UNL     1      26.509   1.072  -4.938  1.00  0.00     0.000 C 
BRANCH   5   6
ATOM      6  C   UNL     1      25.146   0.720  -4.323  1.00  0.00     0.000 C 
BRANCH   6   7
ATOM      7  C   UNL     1      23.969   1.125  -5.227  1.00  0.00     0.000 C 
BRANCH   7   8
ATOM      8  C   UNL     1      22.620   0.570  -4.736  1.00  0.00     0.000 C 
BRANCH   8   9
ATOM      9  C   UNL     1      21.548   0.474  -5.843  1.00  0.00     0.000 C 
BRANCH   9  10
ATOM     10  C   UNL     1      20.636  -0.754  -5.666  1.00  0.00     0.000 C 
BRANCH  10  11
ATOM     11  C   UNL     1      19.623  -0.906  -6.812  1.00  0.00     0.000 C 
BRANCH  11  12
ATOM     12  C   UNL     1      18.267  -1.449  -6.327  1.00  0.00     0.000 C 
BRANCH  12  13
ATOM     13  C   UNL     1      17.758  -0.736  -5.064  1.00  0.00     0.006 C 
BRANCH  13  14
ATOM     14  C   UNL     1      17.078  -1.693  -4.073  1.00  0.00     0.053 C 
BRANCH  14  15
ATOM     15  C   UNL     1      17.191  -1.186  -2.666  1.00  0.00     0.041 C 
ATOM     16  O   UNL     1      16.152  -0.925  -2.005  1.00  0.00    -0.550 OA
ATOM     17  O   UNL     1      18.436  -1.066  -2.061  1.00  0.00    -0.550 OA
ENDBRANCH  14  15
ENDBRANCH  13  14
ENDBRANCH  12  13
ENDBRANCH  11  12
ENDBRANCH  10  11
ENDBRANCH   9  10
ENDBRANCH   8   9
ENDBRANCH   7   8
ENDBRANCH   6   7
ENDBRANCH   5   6
ENDBRANCH   4   5
ENDBRANCH   3   4
ENDBRANCH   2   3
ENDBRANCH   1   2
BRANCH   1  18
ATOM     18  C   UNL     1      28.058  -3.887  -5.902  1.00  0.00     0.000 C 
BRANCH  18  19
ATOM     19  C   UNL     1      28.512  -5.292  -5.475  1.00  0.00     0.000 C 
BRANCH  19  20
ATOM     20  C   UNL     1      28.519  -5.471  -3.947  1.00  0.00     0.000 C 
BRANCH  20  21
ATOM     21  C   UNL     1      29.846  -5.034  -3.301  1.00  0.00     0.000 C 
BRANCH  21  22
ATOM     22  C   UNL     1      29.741  -3.816  -2.359  1.00  0.00     0.000 C 
BRANCH  22  23
ATOM     23  C   UNL     1      30.019  -2.450  -3.017  1.00  0.00     0.000 C 
BRANCH  23  24
ATOM     24  C   UNL     1      30.077  -1.258  -2.041  1.00  0.00    -0.000 C 
BRANCH  24  25
ATOM     25  C   UNL     1      28.810  -0.380  -2.009  1.00  0.00    -0.000 C 
BRANCH  25  26
ATOM     26  C   UNL     1      27.638  -0.957  -1.190  1.00  0.00    -0.000 C 
BRANCH  26  27
ATOM     27  C   UNL     1      27.753  -0.767   0.335  1.00  0.00    -0.000 C 
BRANCH  27  28
ATOM     28  C   UNL     1      29.139  -1.085   0.932  1.00  0.00    -0.000 C 
BRANCH  28  29
ATOM     29  C   UNL     1      29.226  -0.983   2.466  1.00  0.00    -0.000 C 
BRANCH  29  30
ATOM     30  C   UNL     1      28.492   0.243   3.028  1.00  0.00    -0.000 C 
BRANCH  30  31
ATOM     31  C   UNL     1      27.835  -0.085   4.374  1.00  0.00    -0.003 C 
ATOM     32  C   UNL     1      27.981  -1.566   4.715  1.00  0.00     0.004 C 
ENDBRANCH  30  31
ENDBRANCH  29  30
ENDBRANCH  28  29
ENDBRANCH  27  28
ENDBRANCH  26  27
ENDBRANCH  25  26
ENDBRANCH  24  25
ENDBRANCH  23  24
ENDBRANCH  22  23
ENDBRANCH  21  22
ENDBRANCH  20  21
ENDBRANCH  19  20
ENDBRANCH  18  19
ENDBRANCH   1  18
TORSDOF 28
ENDMDL
MODEL 4
REMARK VINA RESULT:    -3.027      1.563      3.600
REMARK INTER + INTRA:         -10.843
REMARK INTER:                  -9.047
REMARK INTRA:                  -1.797
REMARK UNBOUND:                -2.861
REMARK SMILES CCCCCCCCCCCCCCCCCCCCCCCCCCCCCC(=O)[O-]
REMARK SMILES IDX 16 1 17 2 18 3 19 4 20 5 21 6 22 7 23 8 24 9 25 10 26 11
REMARK SMILES IDX 27 12 28 13 29 14 30 15 31 16 32 17 15 18 14 19 13 20 12 21
REMARK SMILES IDX 11 22 10 23 9 24 8 25 7 26 6 27 5 28 4 29 3 30 2 31 1 32
REMARK H PARENT
REMARK Flexibility Score: inf
ROOT
ATOM      1  C   UNL     1      27.144   0.321  -8.412  1.00  0.00     0.000 C 
ENDROOT
BRANCH   1   2
ATOM      2  C   UNL     1      28.572  -0.075  -8.008  1.00  0.00     0.000 C 
BRANCH   2   3
ATOM      3  C   UNL     1      28.954   0.429  -6.604  1.00  0.00     0.000 C 
BRANCH   3   4
ATOM      4  C   UNL     1      29.049  -0.710  -5.576  1.00  0.00     0.000 C 
BRANCH   4   5
ATOM      5  C   UNL     1      27.899  -0.678  -4.554  1.00  0.00     0.000 C 
BRANCH   5   6
ATOM      6  C   UNL     1      27.777  -1.992  -3.767  1.00  0.00     0.000 C 
BRANCH   6   7
ATOM      7  C   UNL     1      28.442  -1.913  -2.382  1.00  0.00     0.000 C 
BRANCH   7   8
ATOM      8  C   UNL     1      29.231  -3.186  -2.025  1.00  0.00     0.000 C 
BRANCH   8   9
ATOM      9  C   UNL     1      29.568  -4.072  -3.243  1.00  0.00     0.000 C 
BRANCH   9  10
ATOM     10  C   UNL     1      28.361  -4.906  -3.709  1.00  0.00     0.000 C 
BRANCH  10  11
ATOM     11  C   UNL     1      28.699  -6.397  -3.867  1.00  0.00     0.000 C 
BRANCH  11  12
ATOM     12  C   UNL     1      29.128  -6.751  -5.302  1.00  0.00     0.000 C 
BRANCH  12  13
ATOM     13  C   UNL     1      28.728  -8.179  -5.708  1.00  0.00     0.006 C 
BRANCH  13  14
ATOM     14  C   UNL     1      27.708  -8.207  -6.857  1.00  0.00     0.053 C 
BRANCH  14  15
ATOM     15  C   UNL     1      27.216  -6.827  -7.177  1.00  0.00     0.041 C 
ATOM     16  O   UNL     1      27.643  -6.229  -8.200  1.00  0.00    -0.550 OA
ATOM     17  O   UNL     1      26.240  -6.229  -6.391  1.00  0.00    -0.550 OA
ENDBRANCH  14  15
ENDBRANCH  13  14
ENDBRANCH  12  13
ENDBRANCH  11  12
ENDBRANCH  10  11
ENDBRANCH   9  10
ENDBRANCH   8   9
ENDBRANCH   7   8
ENDBRANCH   6   7
ENDBRANCH   5   6
ENDBRANCH   4   5
ENDBRANCH   3   4
ENDBRANCH   2   3
ENDBRANCH   1   2
BRANCH   1  18
ATOM     18  C   UNL     1      26.421   1.125  -7.316  1.00  0.00     0.000 C 
BRANCH  18  19
ATOM     19  C   UNL     1      24.894   1.124  -7.497  1.00  0.00     0.000 C 
BRANCH  19  20
ATOM     20  C   UNL     1      24.142   0.930  -6.169  1.00  0.00     0.000 C 
BRANCH  20  21
ATOM     21  C   UNL     1      22.621   1.122  -6.313  1.00  0.00     0.000 C 
BRANCH  21  22
ATOM     22  C   UNL     1      21.765   0.301  -5.326  1.00  0.00     0.000 C 
BRANCH  22  23
ATOM     23  C   UNL     1      20.243   0.518  -5.438  1.00  0.00     0.000 C 
BRANCH  23  24
ATOM     24  C   UNL     1      19.683   0.473  -6.873  1.00  0.00    -0.000 C 
BRANCH  24  25
ATOM     25  C   UNL     1      18.281  -0.153  -7.007  1.00  0.00    -0.000 C 
BRANCH  25  26
ATOM     26  C   UNL     1      17.108   0.831  -6.827  1.00  0.00    -0.000 C 
BRANCH  26  27
ATOM     27  C   UNL     1      16.324   0.678  -5.508  1.00  0.00    -0.000 C 
BRANCH  27  28
ATOM     28  C   UNL     1      16.360  -0.733  -4.885  1.00  0.00    -0.000 C 
BRANCH  28  29
ATOM     29  C   UNL     1      16.599  -0.767  -3.365  1.00  0.00    -0.000 C 
BRANCH  29  30
ATOM     30  C   UNL     1      17.683  -1.773  -2.951  1.00  0.00    -0.000 C 
BRANCH  30  31
ATOM     31  C   UNL     1      18.173  -2.575  -4.162  1.00  0.00    -0.003 C 
ATOM     32  C   UNL     1      19.630  -2.997  -3.994  1.00  0.00     0.004 C 
ENDBRANCH  30  31
ENDBRANCH  29  30
ENDBRANCH  28  29
ENDBRANCH  27  28
ENDBRANCH  26  27
ENDBRANCH  25  26
ENDBRANCH  24  25
ENDBRANCH  23  24
ENDBRANCH  22  23
ENDBRANCH  21  22
ENDBRANCH  20  21
ENDBRANCH  19  20
ENDBRANCH  18  19
ENDBRANCH   1  18
TORSDOF 28
ENDMDL
MODEL 5
REMARK VINA RESULT:    -2.907      3.208      6.708
REMARK INTER + INTRA:         -10.527
REMARK INTER:                  -8.397
REMARK INTRA:                  -2.130
REMARK UNBOUND:                -2.861
REMARK SMILES CCCCCCCCCCCCCCCCCCCCCCCCCCCCCC(=O)[O-]
REMARK SMILES IDX 16 1 17 2 18 3 19 4 20 5 21 6 22 7 23 8 24 9 25 10 26 11
REMARK SMILES IDX 27 12 28 13 29 14 30 15 31 16 32 17 15 18 14 19 13 20 12 21
REMARK SMILES IDX 11 22 10 23 9 24 8 25 7 26 6 27 5 28 4 29 3 30 2 31 1 32
REMARK H PARENT
REMARK Flexibility Score: inf
ROOT
ATOM      1  C   UNL     1      26.424  -3.834  -4.155  1.00  0.00     0.000 C 
ENDROOT
BRANCH   1   2
ATOM      2  C   UNL     1      25.839  -5.030  -4.923  1.00  0.00     0.000 C 
BRANCH   2   3
ATOM      3  C   UNL     1      26.542  -5.270  -6.272  1.00  0.00     0.000 C 
BRANCH   3   4
ATOM      4  C   UNL     1      26.874  -6.753  -6.504  1.00  0.00     0.000 C 
BRANCH   4   5
ATOM      5  C   UNL     1      28.302  -7.113  -6.056  1.00  0.00     0.000 C 
BRANCH   5   6
ATOM      6  C   UNL     1      28.316  -8.074  -4.858  1.00  0.00     0.000 C 
BRANCH   6   7
ATOM      7  C   UNL     1      28.866  -7.416  -3.581  1.00  0.00     0.000 C 
BRANCH   7   8
ATOM      8  C   UNL     1      30.125  -6.569  -3.839  1.00  0.00     0.000 C 
BRANCH   8   9
ATOM      9  C   UNL     1      29.866  -5.318  -4.707  1.00  0.00     0.000 C 
BRANCH   9  10
ATOM     10  C   UNL     1      30.120  -4.011  -3.935  1.00  0.00     0.000 C 
BRANCH  10  11
ATOM     11  C   UNL     1      29.726  -4.114  -2.453  1.00  0.00     0.000 C 
BRANCH  11  12
ATOM     12  C   UNL     1      29.337  -2.751  -1.854  1.00  0.00     0.000 C 
BRANCH  12  13
ATOM     13  C   UNL     1      29.136  -2.805  -0.331  1.00  0.00     0.006 C 
BRANCH  13  14
ATOM     14  C   UNL     1      28.698  -1.455   0.259  1.00  0.00     0.053 C 
BRANCH  14  15
ATOM     15  C   UNL     1      28.524  -1.545   1.746  1.00  0.00     0.041 C 
ATOM     16  O   UNL     1      28.539  -0.499   2.446  1.00  0.00    -0.550 OA
ATOM     17  O   UNL     1      28.279  -2.771   2.351  1.00  0.00    -0.550 OA
ENDBRANCH  14  15
ENDBRANCH  13  14
ENDBRANCH  12  13
ENDBRANCH  11  12
ENDBRANCH  10  11
ENDBRANCH   9  10
ENDBRANCH   8   9
ENDBRANCH   7   8
ENDBRANCH   6   7
ENDBRANCH   5   6
ENDBRANCH   4   5
ENDBRANCH   3   4
ENDBRANCH   2   3
ENDBRANCH   1   2
BRANCH   1  18
ATOM     18  C   UNL     1      27.203  -2.869  -5.067  1.00  0.00     0.000 C 
BRANCH  18  19
ATOM     19  C   UNL     1      27.369  -1.475  -4.442  1.00  0.00     0.000 C 
BRANCH  19  20
ATOM     20  C   UNL     1      26.701  -0.369  -5.279  1.00  0.00     0.000 C 
BRANCH  20  21
ATOM     21  C   UNL     1      25.907   0.631  -4.419  1.00  0.00     0.000 C 
BRANCH  21  22
ATOM     22  C   UNL     1      24.548   1.063  -5.010  1.00  0.00     0.000 C 
BRANCH  22  23
ATOM     23  C   UNL     1      24.491   1.125  -6.550  1.00  0.00     0.000 C 
BRANCH  23  24
ATOM     24  C   UNL     1      23.076   1.013  -7.152  1.00  0.00    -0.000 C 
BRANCH  24  25
ATOM     25  C   UNL     1      21.926   1.065  -6.127  1.00  0.00    -0.000 C 
BRANCH  25  26
ATOM     26  C   UNL     1      20.658   0.285  -6.531  1.00  0.00    -0.000 C 
BRANCH  26  27
ATOM     27  C   UNL     1      20.673  -1.214  -6.174  1.00  0.00    -0.000 C 
BRANCH  27  28
ATOM     28  C   UNL     1      20.587  -1.530  -4.667  1.00  0.00    -0.000 C 
BRANCH  28  29
ATOM     29  C   UNL     1      19.423  -2.450  -4.259  1.00  0.00    -0.000 C 
BRANCH  29  30
ATOM     30  C   UNL     1      18.059  -1.944  -4.750  1.00  0.00    -0.000 C 
BRANCH  30  31
ATOM     31  C   UNL     1      17.651  -0.668  -4.006  1.00  0.00    -0.003 C 
ATOM     32  C   UNL     1      16.137  -0.479  -4.019  1.00  0.00     0.004 C 
ENDBRANCH  30  31
ENDBRANCH  29  30
ENDBRANCH  28  29
ENDBRANCH  27  28
ENDBRANCH  26  27
ENDBRANCH  25  26
ENDBRANCH  24  25
ENDBRANCH  23  24
ENDBRANCH  22  23
ENDBRANCH  21  22
ENDBRANCH  20  21
ENDBRANCH  19  20
ENDBRANCH  18  19
ENDBRANCH   1  18
TORSDOF 28
ENDMDL
MODEL 6
REMARK VINA RESULT:    -2.845      3.765      9.900
REMARK INTER + INTRA:         -10.363
REMARK INTER:                  -8.597
REMARK INTRA:                  -1.766
REMARK UNBOUND:                -2.861
REMARK SMILES CCCCCCCCCCCCCCCCCCCCCCCCCCCCCC(=O)[O-]
REMARK SMILES IDX 16 1 17 2 18 3 19 4 20 5 21 6 22 7 23 8 24 9 25 10 26 11
REMARK SMILES IDX 27 12 28 13 29 14 30 15 31 16 32 17 15 18 14 19 13 20 12 21
REMARK SMILES IDX 11 22 10 23 9 24 8 25 7 26 6 27 5 28 4 29 3 30 2 31 1 32
REMARK H PARENT
REMARK Flexibility Score: inf
ROOT
ATOM      1  C   UNL     1      29.457   0.148  -6.460  1.00  0.00     0.000 C 
ENDROOT
BRANCH   1   2
ATOM      2  C   UNL     1      28.690   0.933  -7.536  1.00  0.00     0.000 C 
BRANCH   2   3
ATOM      3  C   UNL     1      27.167   0.913  -7.314  1.00  0.00     0.000 C 
BRANCH   3   4
ATOM      4  C   UNL     1      26.384   0.783  -8.630  1.00  0.00     0.000 C 
BRANCH   4   5
ATOM      5  C   UNL     1      24.892   1.123  -8.464  1.00  0.00     0.000 C 
BRANCH   5   6
ATOM      6  C   UNL     1      24.138   1.124  -9.803  1.00  0.00     0.000 C 
BRANCH   6   7
ATOM      7  C   UNL     1      22.619   0.967  -9.624  1.00  0.00     0.000 C 
BRANCH   7   8
ATOM      8  C   UNL     1      22.234   0.410  -8.242  1.00  0.00     0.000 C 
BRANCH   8   9
ATOM      9  C   UNL     1      20.961  -0.464  -8.256  1.00  0.00     0.000 C 
BRANCH   9  10
ATOM     10  C   UNL     1      20.034  -0.163  -7.065  1.00  0.00     0.000 C 
BRANCH  10  11
ATOM     11  C   UNL     1      20.312  -1.071  -5.856  1.00  0.00     0.000 C 
BRANCH  11  12
ATOM     12  C   UNL     1      19.218  -2.136  -5.660  1.00  0.00     0.000 C 
BRANCH  12  13
ATOM     13  C   UNL     1      19.280  -2.806  -4.278  1.00  0.00     0.006 C 
BRANCH  13  14
ATOM     14  C   UNL     1      17.961  -2.685  -3.499  1.00  0.00     0.053 C 
BRANCH  14  15
ATOM     15  C   UNL     1      17.770  -1.295  -2.971  1.00  0.00     0.041 C 
ATOM     16  O   UNL     1      18.094  -1.022  -1.785  1.00  0.00    -0.550 OA
ATOM     17  O   UNL     1      17.301  -0.286  -3.802  1.00  0.00    -0.550 OA
ENDBRANCH  14  15
ENDBRANCH  13  14
ENDBRANCH  12  13
ENDBRANCH  11  12
ENDBRANCH  10  11
ENDBRANCH   9  10
ENDBRANCH   8   9
ENDBRANCH   7   8
ENDBRANCH   6   7
ENDBRANCH   5   6
ENDBRANCH   4   5
ENDBRANCH   3   4
ENDBRANCH   2   3
ENDBRANCH   1   2
BRANCH   1  18
ATOM     18  C   UNL     1      29.262   0.734  -5.050  1.00  0.00     0.000 C 
BRANCH  18  19
ATOM     19  C   UNL     1      28.933  -0.345  -4.006  1.00  0.00     0.000 C 
BRANCH  19  20
ATOM     20  C   UNL     1      29.950  -0.379  -2.851  1.00  0.00     0.000 C 
BRANCH  20  21
ATOM     21  C   UNL     1      29.480   0.416  -1.619  1.00  0.00     0.000 C 
BRANCH  21  22
ATOM     22  C   UNL     1      29.844  -0.216  -0.259  1.00  0.00     0.000 C 
BRANCH  22  23
ATOM     23  C   UNL     1      28.700  -0.259   0.773  1.00  0.00     0.000 C 
BRANCH  23  24
ATOM     24  C   UNL     1      27.885  -1.567   0.787  1.00  0.00    -0.000 C 
BRANCH  24  25
ATOM     25  C   UNL     1      28.316  -2.614  -0.261  1.00  0.00    -0.000 C 
BRANCH  25  26
ATOM     26  C   UNL     1      27.247  -2.954  -1.319  1.00  0.00    -0.000 C 
BRANCH  26  27
ATOM     27  C   UNL     1      27.792  -3.205  -2.739  1.00  0.00    -0.000 C 
BRANCH  27  28
ATOM     28  C   UNL     1      26.718  -3.371  -3.833  1.00  0.00    -0.000 C 
BRANCH  28  29
ATOM     29  C   UNL     1      27.231  -3.941  -5.168  1.00  0.00    -0.000 C 
BRANCH  29  30
ATOM     30  C   UNL     1      26.672  -5.337  -5.478  1.00  0.00    -0.000 C 
BRANCH  30  31
ATOM     31  C   UNL     1      27.039  -6.330  -4.369  1.00  0.00    -0.003 C 
ATOM     32  C   UNL     1      28.057  -7.355  -4.858  1.00  0.00     0.004 C 
ENDBRANCH  30  31
ENDBRANCH  29  30
ENDBRANCH  28  29
ENDBRANCH  27  28
ENDBRANCH  26  27
ENDBRANCH  25  26
ENDBRANCH  24  25
ENDBRANCH  23  24
ENDBRANCH  22  23
ENDBRANCH  21  22
ENDBRANCH  20  21
ENDBRANCH  19  20
ENDBRANCH  18  19
ENDBRANCH   1  18
TORSDOF 28
ENDMDL
MODEL 7
REMARK VINA RESULT:    -2.673      4.051      7.684
REMARK INTER + INTRA:          -9.910
REMARK INTER:                  -8.841
REMARK INTRA:                  -1.069
REMARK UNBOUND:                -2.861
REMARK SMILES CCCCCCCCCCCCCCCCCCCCCCCCCCCCCC(=O)[O-]
REMARK SMILES IDX 16 1 17 2 18 3 19 4 20 5 21 6 22 7 23 8 24 9 25 10 26 11
REMARK SMILES IDX 27 12 28 13 29 14 30 15 31 16 32 17 15 18 14 19 13 20 12 21
REMARK SMILES IDX 11 22 10 23 9 24 8 25 7 26 6 27 5 28 4 29 3 30 2 31 1 32
REMARK H PARENT
REMARK Flexibility Score: inf
ROOT
ATOM      1  C   UNL     1      26.182  -5.704  -5.443  1.00  0.00     0.000 C 
ENDROOT
BRANCH   1   2
ATOM      2  C   UNL     1      27.132  -6.852  -5.067  1.00  0.00     0.000 C 
BRANCH   2   3
ATOM      3  C   UNL     1      28.616  -6.454  -5.170  1.00  0.00     0.000 C 
BRANCH   3   4
ATOM      4  C   UNL     1      29.435  -6.921  -3.956  1.00  0.00     0.000 C 
BRANCH   4   5
ATOM      5  C   UNL     1      29.985  -5.746  -3.129  1.00  0.00     0.000 C 
BRANCH   5   6
ATOM      6  C   UNL     1      29.538  -4.383  -3.677  1.00  0.00     0.000 C 
BRANCH   6   7
ATOM      7  C   UNL     1      30.124  -3.205  -2.880  1.00  0.00     0.000 C 
BRANCH   7   8
ATOM      8  C   UNL     1      29.064  -2.452  -2.058  1.00  0.00     0.000 C 
BRANCH   8   9
ATOM      9  C   UNL     1      29.659  -1.445  -1.050  1.00  0.00     0.000 C 
BRANCH   9  10
ATOM     10  C   UNL     1      29.155  -0.011  -1.292  1.00  0.00     0.000 C 
BRANCH  10  11
ATOM     11  C   UNL     1      28.686   0.676   0.001  1.00  0.00     0.000 C 
BRANCH  11  12
ATOM     12  C   UNL     1      29.577   0.325   1.207  1.00  0.00     0.000 C 
BRANCH  12  13
ATOM     13  C   UNL     1      28.837   0.446   2.549  1.00  0.00     0.006 C 
BRANCH  13  14
ATOM     14  C   UNL     1      27.901  -0.742   2.821  1.00  0.00     0.053 C 
BRANCH  14  15
ATOM     15  C   UNL     1      26.957  -0.440   3.947  1.00  0.00     0.041 C 
ATOM     16  O   UNL     1      27.252  -0.778   5.124  1.00  0.00    -0.550 OA
ATOM     17  O   UNL     1      25.789   0.273   3.711  1.00  0.00    -0.550 OA
ENDBRANCH  14  15
ENDBRANCH  13  14
ENDBRANCH  12  13
ENDBRANCH  11  12
ENDBRANCH  10  11
ENDBRANCH   9  10
ENDBRANCH   8   9
ENDBRANCH   7   8
ENDBRANCH   6   7
ENDBRANCH   5   6
ENDBRANCH   4   5
ENDBRANCH   3   4
ENDBRANCH   2   3
ENDBRANCH   1   2
BRANCH   1  18
ATOM     18  C   UNL     1      25.881  -4.773  -4.254  1.00  0.00     0.000 C 
BRANCH  18  19
ATOM     19  C   UNL     1      26.908  -3.636  -4.123  1.00  0.00     0.000 C 
BRANCH  19  20
ATOM     20  C   UNL     1      26.534  -2.403  -4.964  1.00  0.00     0.000 C 
BRANCH  20  21
ATOM     21  C   UNL     1      26.656  -1.086  -4.177  1.00  0.00     0.000 C 
BRANCH  21  22
ATOM     22  C   UNL     1      26.443   0.194  -5.012  1.00  0.00     0.000 C 
BRANCH  22  23
ATOM     23  C   UNL     1      25.280   1.095  -4.550  1.00  0.00     0.000 C 
BRANCH  23  24
ATOM     24  C   UNL     1      24.064   1.123  -5.497  1.00  0.00    -0.000 C 
BRANCH  24  25
ATOM     25  C   UNL     1      22.692   1.071  -4.796  1.00  0.00    -0.000 C 
BRANCH  25  26
ATOM     26  C   UNL     1      21.716   0.015  -5.353  1.00  0.00    -0.000 C 
BRANCH  26  27
ATOM     27  C   UNL     1      20.597   0.571  -6.255  1.00  0.00    -0.000 C 
BRANCH  27  28
ATOM     28  C   UNL     1      19.238  -0.146  -6.131  1.00  0.00    -0.000 C 
BRANCH  28  29
ATOM     29  C   UNL     1      19.318  -1.679  -6.020  1.00  0.00    -0.000 C 
BRANCH  29  30
ATOM     30  C   UNL     1      19.141  -2.185  -4.581  1.00  0.00    -0.000 C 
BRANCH  30  31
ATOM     31  C   UNL     1      18.744  -1.039  -3.644  1.00  0.00    -0.003 C 
ATOM     32  C   UNL     1      17.233  -0.992  -3.437  1.00  0.00     0.004 C 
ENDBRANCH  30  31
ENDBRANCH  29  30
ENDBRANCH  28  29
ENDBRANCH  27  28
ENDBRANCH  26  27
ENDBRANCH  25  26
ENDBRANCH  24  25
ENDBRANCH  23  24
ENDBRANCH  22  23
ENDBRANCH  21  22
ENDBRANCH  20  21
ENDBRANCH  19  20
ENDBRANCH  18  19
ENDBRANCH   1  18
TORSDOF 28
ENDMDL
