MODEL 1
REMARK VINA RESULT:    -3.674      0.000      0.000
REMARK INTER + INTRA:          -5.779
REMARK INTER:                  -5.607
REMARK INTRA:                  -0.172
REMARK UNBOUND:                -0.172
REMARK SMILES CC1=CCC[C@H](C)C(=O)C[C@H](C(C)C)C(=O)C1
REMARK SMILES IDX 8 1 9 2 6 3 7 4 5 5 4 6 3 7 2 8 1 9 10 11 11 12 15 13 16 14
REMARK SMILES IDX 17 15 12 17 13 18 14 19
REMARK H PARENT
REMARK Flexibility Score: 70.00
ROOT
ATOM      1  C   UNL     1       8.988 -26.190  41.009  1.00  0.00     0.136 C 
ATOM      2  O   UNL     1       7.880 -25.812  41.363  1.00  0.00    -0.299 OA
ENDROOT
BRANCH   1   3
ATOM      3  C   UNL     1       9.565 -27.446  41.635  1.00  0.00     0.053 C 
ATOM      4  C   UNL     1       8.466 -28.267  42.321  1.00  0.00     0.016 C 
BRANCH   3   5
ATOM      5  C   UNL     1      10.329 -28.295  40.603  1.00  0.00     0.015 C 
BRANCH   5   6
ATOM      6  C   UNL     1      11.842 -28.318  40.881  1.00  0.00     0.028 C 
BRANCH   6   7
ATOM      7  C   UNL     1      12.624 -28.248  39.595  1.00  0.00    -0.028 C 
ATOM      8  C   UNL     1      13.250 -27.139  39.136  1.00  0.00    -0.070 CG0
ATOM      9  C   UNL     1      13.938 -27.218  37.797  1.00  0.00     0.039 C 
ATOM     10  G   UNL     1      13.301 -25.834  39.918  1.00  0.00     0.000 G0
ENDBRANCH   6   7
ENDBRANCH   5   6
ENDBRANCH   3   5
ENDBRANCH   1   3
BRANCH   1  11
ATOM     11  C   UNL     1       9.718 -25.402  39.944  1.00  0.00     0.087 C 
BRANCH  11  12
ATOM     12  C   UNL     1      10.993 -24.706  40.496  1.00  0.00     0.066 C 
BRANCH  12  13
ATOM     13  C   UNL     1      12.175 -24.891  39.553  1.00  0.00     0.140 C 
ATOM     14  O   UNL     1      12.240 -24.232  38.525  1.00  0.00    -0.299 OA
BRANCH  13  15
ATOM     15  C   UNL     1      13.314 -25.817  39.904  1.00  0.00     0.106 CG0
ATOM     16  G   UNL     1      13.253 -27.122  39.123  1.00  0.00     0.000 G0
ENDBRANCH  13  15
ENDBRANCH  12  13
BRANCH  12  17
ATOM     17  C   UNL     1      10.786 -23.194  40.824  1.00  0.00    -0.006 C 
ATOM     18  C   UNL     1      11.242 -22.857  42.254  1.00  0.00     0.008 C 
ATOM     19  C   UNL     1       9.346 -22.695  40.603  1.00  0.00     0.008 C 
ENDBRANCH  12  17
ENDBRANCH  11  12
ENDBRANCH   1  11
TORSDOF 1
ENDMDL
MODEL 2
REMARK VINA RESULT:    -3.233      1.725      2.174
REMARK INTER + INTRA:          -5.106
REMARK INTER:                  -5.041
REMARK INTRA:                  -0.065
REMARK UNBOUND:                -0.172
REMARK SMILES CC1=CCC[C@H](C)C(=O)C[C@H](C(C)C)C(=O)C1
REMARK SMILES IDX 8 1 9 2 6 3 7 4 5 5 4 6 3 7 2 8 1 9 10 11 11 12 15 13 16 14
REMARK SMILES IDX 17 15 12 17 13 18 14 19
REMARK H PARENT
REMARK Flexibility Score: 70.00
ROOT
ATOM      1  C   UNL     1      10.274 -24.657  39.509  1.00  0.00     0.136 C 
ATOM      2  O   UNL     1       9.452 -24.547  38.610  1.00  0.00    -0.299 OA
ENDROOT
BRANCH   1   3
ATOM      3  C   UNL     1      10.066 -25.732  40.559  1.00  0.00     0.053 C 
ATOM      4  C   UNL     1       8.600 -25.781  41.006  1.00  0.00     0.016 C 
BRANCH   3   5
ATOM      5  C   UNL     1      10.541 -27.110  40.063  1.00  0.00     0.015 C 
BRANCH   5   6
ATOM      6  C   UNL     1      11.469 -26.995  38.842  1.00  0.00     0.028 C 
BRANCH   6   7
ATOM      7  C   UNL     1      12.847 -27.512  39.166  1.00  0.00    -0.028 C 
ATOM      8  C   UNL     1      13.963 -26.747  39.210  1.00  0.00    -0.070 CG0
ATOM      9  C   UNL     1      15.278 -27.429  39.488  1.00  0.00     0.039 C 
ATOM     10  G   UNL     1      13.941 -25.238  39.008  1.00  0.00     0.000 G0
ENDBRANCH   6   7
ENDBRANCH   5   6
ENDBRANCH   3   5
ENDBRANCH   1   3
BRANCH   1  11
ATOM     11  C   UNL     1      11.473 -23.735  39.512  1.00  0.00     0.087 C 
BRANCH  11  12
ATOM     12  C   UNL     1      12.402 -23.982  40.733  1.00  0.00     0.066 C 
BRANCH  12  13
ATOM     13  C   UNL     1      13.775 -24.470  40.293  1.00  0.00     0.140 C 
ATOM     14  O   UNL     1      14.740 -24.313  41.028  1.00  0.00    -0.299 OA
BRANCH  13  15
ATOM     15  C   UNL     1      13.956 -25.221  38.997  1.00  0.00     0.106 CG0
ATOM     16  G   UNL     1      13.947 -26.730  39.202  1.00  0.00     0.000 G0
ENDBRANCH  13  15
ENDBRANCH  12  13
BRANCH  12  17
ATOM     17  C   UNL     1      12.537 -22.741  41.673  1.00  0.00    -0.006 C 
ATOM     18  C   UNL     1      11.344 -22.630  42.639  1.00  0.00     0.008 C 
ATOM     19  C   UNL     1      12.734 -21.408  40.929  1.00  0.00     0.008 C 
ENDBRANCH  12  17
ENDBRANCH  11  12
ENDBRANCH   1  11
TORSDOF 1
ENDMDL
MODEL 3
REMARK VINA RESULT:    -3.183      2.087      4.385
REMARK INTER + INTRA:          -5.029
REMARK INTER:                  -4.776
REMARK INTRA:                  -0.254
REMARK UNBOUND:                -0.172
REMARK SMILES CC1=CCC[C@H](C)C(=O)C[C@H](C(C)C)C(=O)C1
REMARK SMILES IDX 8 1 9 2 6 3 7 4 5 5 4 6 3 7 2 8 1 9 10 11 11 12 15 13 16 14
REMARK SMILES IDX 17 15 12 17 13 18 14 19
REMARK H PARENT
REMARK Flexibility Score: 70.00
ROOT
ATOM      1  C   UNL     1      11.655 -25.052  39.530  1.00  0.00     0.136 C 
ATOM      2  O   UNL     1      11.920 -24.175  38.720  1.00  0.00    -0.299 OA
ENDROOT
BRANCH   1   3
ATOM      3  C   UNL     1      10.717 -24.727  40.677  1.00  0.00     0.053 C 
ATOM      4  C   UNL     1      10.368 -23.234  40.690  1.00  0.00     0.016 C 
BRANCH   3   5
ATOM      5  C   UNL     1       9.444 -25.593  40.632  1.00  0.00     0.015 C 
BRANCH   5   6
ATOM      6  C   UNL     1       9.439 -26.668  41.732  1.00  0.00     0.028 C 
BRANCH   6   7
ATOM      7  C   UNL     1       9.292 -28.044  41.135  1.00  0.00    -0.028 C 
ATOM      8  C   UNL     1      10.262 -28.989  41.138  1.00  0.00    -0.070 CG0
ATOM      9  C   UNL     1       9.977 -30.296  40.442  1.00  0.00     0.039 C 
ATOM     10  G   UNL     1      11.607 -28.793  41.824  1.00  0.00     0.000 G0
ENDBRANCH   6   7
ENDBRANCH   5   6
ENDBRANCH   3   5
ENDBRANCH   1   3
BRANCH   1  11
ATOM     11  C   UNL     1      12.253 -26.428  39.331  1.00  0.00     0.087 C 
BRANCH  11  12
ATOM     12  C   UNL     1      13.005 -26.931  40.594  1.00  0.00     0.066 C 
BRANCH  12  13
ATOM     13  C   UNL     1      12.704 -28.398  40.868  1.00  0.00     0.140 C 
ATOM     14  O   UNL     1      13.398 -29.266  40.357  1.00  0.00    -0.299 OA
BRANCH  13  15
ATOM     15  C   UNL     1      11.612 -28.803  41.827  1.00  0.00     0.106 CG0
ATOM     16  G   UNL     1      10.277 -29.005  41.124  1.00  0.00     0.000 G0
ENDBRANCH  13  15
ENDBRANCH  12  13
BRANCH  12  17
ATOM     17  C   UNL     1      14.547 -26.689  40.538  1.00  0.00    -0.006 C 
ATOM     18  C   UNL     1      14.937 -25.361  41.210  1.00  0.00     0.008 C 
ATOM     19  C   UNL     1      15.142 -26.753  39.119  1.00  0.00     0.008 C 
ENDBRANCH  12  17
ENDBRANCH  11  12
ENDBRANCH   1  11
TORSDOF 1
ENDMDL
MODEL 4
REMARK VINA RESULT:    -3.130      2.431      4.472
REMARK INTER + INTRA:          -4.949
REMARK INTER:                  -4.618
REMARK INTRA:                  -0.331
REMARK UNBOUND:                -0.172
REMARK SMILES CC1=CCC[C@H](C)C(=O)C[C@H](C(C)C)C(=O)C1
REMARK SMILES IDX 8 1 9 2 6 3 7 4 5 5 4 6 3 7 2 8 1 9 10 11 11 12 15 13 16 14
REMARK SMILES IDX 17 15 12 17 13 18 14 19
REMARK H PARENT
REMARK Flexibility Score: 70.00
ROOT
ATOM      1  C   UNL     1       9.995 -25.480  39.170  1.00  0.00     0.136 C 
ATOM      2  O   UNL     1       9.192 -25.234  38.280  1.00  0.00    -0.299 OA
ENDROOT
BRANCH   1   3
ATOM      3  C   UNL     1       9.664 -25.056  40.588  1.00  0.00     0.053 C 
ATOM      4  C   UNL     1       9.674 -23.528  40.717  1.00  0.00     0.016 C 
BRANCH   3   5
ATOM      5  C   UNL     1       8.320 -25.643  41.058  1.00  0.00     0.015 C 
BRANCH   5   6
ATOM      6  C   UNL     1       8.471 -27.079  41.588  1.00  0.00     0.028 C 
BRANCH   6   7
ATOM      7  C   UNL     1       7.951 -28.077  40.586  1.00  0.00    -0.028 C 
ATOM      8  C   UNL     1       8.689 -29.073  40.041  1.00  0.00    -0.070 CG0
ATOM      9  C   UNL     1       8.035 -29.950  39.004  1.00  0.00     0.039 C 
ATOM     10  G   UNL     1      10.131 -29.349  40.441  1.00  0.00     0.000 G0
ENDBRANCH   6   7
ENDBRANCH   5   6
ENDBRANCH   3   5
ENDBRANCH   1   3
BRANCH   1  11
ATOM     11  C   UNL     1      11.265 -26.221  38.816  1.00  0.00     0.087 C 
BRANCH  11  12
ATOM     12  C   UNL     1      11.657 -27.268  39.896  1.00  0.00     0.066 C 
BRANCH  12  13
ATOM     13  C   UNL     1      11.125 -28.650  39.545  1.00  0.00     0.140 C 
ATOM     14  O   UNL     1      11.553 -29.232  38.558  1.00  0.00    -0.299 OA
BRANCH  13  15
ATOM     15  C   UNL     1      10.135 -29.355  40.439  1.00  0.00     0.106 CG0
ATOM     16  G   UNL     1       8.695 -29.077  40.033  1.00  0.00     0.000 G0
ENDBRANCH  13  15
ENDBRANCH  12  13
BRANCH  12  17
ATOM     17  C   UNL     1      13.192 -27.326  40.179  1.00  0.00    -0.006 C 
ATOM     18  C   UNL     1      13.524 -28.338  41.289  1.00  0.00     0.008 C 
ATOM     19  C   UNL     1      13.822 -25.960  40.510  1.00  0.00     0.008 C 
ENDBRANCH  12  17
ENDBRANCH  11  12
ENDBRANCH   1  11
TORSDOF 1
ENDMDL
MODEL 5
REMARK VINA RESULT:    -3.121      3.009      5.305
REMARK INTER + INTRA:          -4.935
REMARK INTER:                  -4.552
REMARK INTRA:                  -0.384
REMARK UNBOUND:                -0.172
REMARK SMILES CC1=CCC[C@H](C)C(=O)C[C@H](C(C)C)C(=O)C1
REMARK SMILES IDX 8 1 9 2 6 3 7 4 5 5 4 6 3 7 2 8 1 9 10 11 11 12 15 13 16 14
REMARK SMILES IDX 17 15 12 17 13 18 14 19
REMARK H PARENT
REMARK Flexibility Score: 70.00
ROOT
ATOM      1  C   UNL     1      12.903 -28.272  40.082  1.00  0.00     0.136 C 
ATOM      2  O   UNL     1      13.902 -27.572  39.995  1.00  0.00    -0.299 OA
ENDROOT
BRANCH   1   3
ATOM      3  C   UNL     1      12.748 -29.443  39.130  1.00  0.00     0.053 C 
ATOM      4  C   UNL     1      12.981 -29.002  37.680  1.00  0.00     0.016 C 
BRANCH   3   5
ATOM      5  C   UNL     1      13.678 -30.610  39.510  1.00  0.00     0.015 C 
BRANCH   5   6
ATOM      6  C   UNL     1      12.914 -31.759  40.191  1.00  0.00     0.028 C 
BRANCH   6   7
ATOM      7  C   UNL     1      12.891 -31.573  41.687  1.00  0.00    -0.028 C 
ATOM      8  C   UNL     1      11.805 -31.183  42.395  1.00  0.00    -0.070 CG0
ATOM      9  C   UNL     1      11.965 -30.983  43.881  1.00  0.00     0.039 C 
ATOM     10  G   UNL     1      10.440 -30.957  41.760  1.00  0.00     0.000 G0
ENDBRANCH   6   7
ENDBRANCH   5   6
ENDBRANCH   3   5
ENDBRANCH   1   3
BRANCH   1  11
ATOM     11  C   UNL     1      11.885 -27.953  41.154  1.00  0.00     0.087 C 
BRANCH  11  12
ATOM     12  C   UNL     1      10.470 -28.490  40.801  1.00  0.00     0.066 C 
BRANCH  12  13
ATOM     13  C   UNL     1       9.989 -29.502  41.832  1.00  0.00     0.140 C 
ATOM     14  O   UNL     1       9.190 -29.159  42.692  1.00  0.00    -0.299 OA
BRANCH  13  15
ATOM     15  C   UNL     1      10.419 -30.947  41.765  1.00  0.00     0.106 CG0
ATOM     16  G   UNL     1      11.800 -31.163  42.368  1.00  0.00     0.000 G0
ENDBRANCH  13  15
ENDBRANCH  12  13
BRANCH  12  17
ATOM     17  C   UNL     1       9.407 -27.362  40.603  1.00  0.00    -0.006 C 
ATOM     18  C   UNL     1       8.988 -27.232  39.129  1.00  0.00     0.008 C 
ATOM     19  C   UNL     1       9.841 -25.988  41.148  1.00  0.00     0.008 C 
ENDBRANCH  12  17
ENDBRANCH  11  12
ENDBRANCH   1  11
TORSDOF 1
ENDMDL
MODEL 6
REMARK VINA RESULT:    -3.086      2.432      5.098
REMARK INTER + INTRA:          -4.883
REMARK INTER:                  -4.651
REMARK INTRA:                  -0.231
REMARK UNBOUND:                -0.172
REMARK SMILES CC1=CCC[C@H](C)C(=O)C[C@H](C(C)C)C(=O)C1
REMARK SMILES IDX 8 1 9 2 6 3 7 4 5 5 4 6 3 7 2 8 1 9 10 11 11 12 15 13 16 14
REMARK SMILES IDX 17 15 12 17 13 18 14 19
REMARK H PARENT
REMARK Flexibility Score: 70.00
ROOT
ATOM      1  C   UNL     1      13.059 -22.351  39.711  1.00  0.00     0.136 C 
ATOM      2  O   UNL     1      12.706 -21.433  38.985  1.00  0.00    -0.299 OA
ENDROOT
BRANCH   1   3
ATOM      3  C   UNL     1      12.666 -22.316  41.176  1.00  0.00     0.053 C 
ATOM      4  C   UNL     1      13.461 -21.241  41.928  1.00  0.00     0.016 C 
BRANCH   3   5
ATOM      5  C   UNL     1      11.150 -22.108  41.352  1.00  0.00     0.015 C 
BRANCH   5   6
ATOM      6  C   UNL     1      10.431 -23.411  41.742  1.00  0.00     0.028 C 
BRANCH   6   7
ATOM      7  C   UNL     1       9.605 -23.931  40.594  1.00  0.00    -0.028 C 
ATOM      8  C   UNL     1       9.931 -25.009  39.842  1.00  0.00    -0.070 CG0
ATOM      9  C   UNL     1       9.028 -25.364  38.688  1.00  0.00     0.039 C 
ATOM     10  G   UNL     1      11.149 -25.878  40.123  1.00  0.00     0.000 G0
ENDBRANCH   6   7
ENDBRANCH   5   6
ENDBRANCH   3   5
ENDBRANCH   1   3
BRANCH   1  11
ATOM     11  C   UNL     1      13.847 -23.493  39.106  1.00  0.00     0.087 C 
BRANCH  11  12
ATOM     12  C   UNL     1      13.561 -24.846  39.816  1.00  0.00     0.066 C 
BRANCH  12  13
ATOM     13  C   UNL     1      12.325 -25.522  39.238  1.00  0.00     0.140 C 
ATOM     14  O   UNL     1      12.305 -25.845  38.059  1.00  0.00    -0.299 OA
BRANCH  13  15
ATOM     15  C   UNL     1      11.150 -25.877  40.115  1.00  0.00     0.106 CG0
ATOM     16  G   UNL     1       9.934 -25.010  39.823  1.00  0.00     0.000 G0
ENDBRANCH  13  15
ENDBRANCH  12  13
BRANCH  12  17
ATOM     17  C   UNL     1      14.778 -25.825  39.803  1.00  0.00    -0.006 C 
ATOM     18  C   UNL     1      15.368 -26.012  41.211  1.00  0.00     0.008 C 
ATOM     19  C   UNL     1      15.893 -25.428  38.816  1.00  0.00     0.008 C 
ENDBRANCH  12  17
ENDBRANCH  11  12
ENDBRANCH   1  11
TORSDOF 1
ENDMDL
MODEL 7
REMARK VINA RESULT:    -3.027      3.920      5.374
REMARK INTER + INTRA:          -4.791
REMARK INTER:                  -4.512
REMARK INTRA:                  -0.280
REMARK UNBOUND:                -0.172
REMARK SMILES CC1=CCC[C@H](C)C(=O)C[C@H](C(C)C)C(=O)C1
REMARK SMILES IDX 8 1 9 2 6 3 7 4 5 5 4 6 3 7 2 8 1 9 10 11 11 12 15 13 16 14
REMARK SMILES IDX 17 15 12 17 13 18 14 19
REMARK H PARENT
REMARK Flexibility Score: 70.00
ROOT
ATOM      1  C   UNL     1      13.452 -30.879  41.798  1.00  0.00     0.136 C 
ATOM      2  O   UNL     1      13.496 -31.950  42.387  1.00  0.00    -0.299 OA
ENDROOT
BRANCH   1   3
ATOM      3  C   UNL     1      13.421 -29.599  42.612  1.00  0.00     0.053 C 
ATOM      4  C   UNL     1      13.148 -29.900  44.091  1.00  0.00     0.016 C 
BRANCH   3   5
ATOM      5  C   UNL     1      14.717 -28.786  42.442  1.00  0.00     0.015 C 
BRANCH   5   6
ATOM      6  C   UNL     1      14.460 -27.421  41.780  1.00  0.00     0.028 C 
BRANCH   6   7
ATOM      7  C   UNL     1      15.317 -27.252  40.552  1.00  0.00    -0.028 C 
ATOM      8  C   UNL     1      14.862 -27.340  39.280  1.00  0.00    -0.070 CG0
ATOM      9  C   UNL     1      15.862 -27.208  38.160  1.00  0.00     0.039 C 
ATOM     10  G   UNL     1      13.393 -27.549  38.939  1.00  0.00     0.000 G0
ENDBRANCH   6   7
ENDBRANCH   5   6
ENDBRANCH   3   5
ENDBRANCH   1   3
BRANCH   1  11
ATOM     11  C   UNL     1      13.460 -30.882  40.286  1.00  0.00     0.087 C 
BRANCH  11  12
ATOM     12  C   UNL     1      12.427 -29.887  39.689  1.00  0.00     0.066 C 
BRANCH  12  13
ATOM     13  C   UNL     1      13.066 -28.994  38.634  1.00  0.00     0.140 C 
ATOM     14  O   UNL     1      13.261 -29.429  37.508  1.00  0.00    -0.299 OA
BRANCH  13  15
ATOM     15  C   UNL     1      13.389 -27.549  38.928  1.00  0.00     0.106 CG0
ATOM     16  G   UNL     1      14.858 -27.349  39.272  1.00  0.00     0.000 G0
ENDBRANCH  13  15
ENDBRANCH  12  13
BRANCH  12  17
ATOM     17  C   UNL     1      11.150 -30.582  39.118  1.00  0.00    -0.006 C 
ATOM     18  C   UNL     1       9.864 -29.903  39.618  1.00  0.00     0.008 C 
ATOM     19  C   UNL     1      11.084 -32.096  39.393  1.00  0.00     0.008 C 
ENDBRANCH  12  17
ENDBRANCH  11  12
ENDBRANCH   1  11
TORSDOF 1
ENDMDL
MODEL 8
REMARK VINA RESULT:    -3.009      1.840      4.102
REMARK INTER + INTRA:          -4.764
REMARK INTER:                  -4.667
REMARK INTRA:                  -0.097
REMARK UNBOUND:                -0.172
REMARK SMILES CC1=CCC[C@H](C)C(=O)C[C@H](C(C)C)C(=O)C1
REMARK SMILES IDX 8 1 9 2 6 3 7 4 5 5 4 6 3 7 2 8 1 9 10 11 11 12 15 13 16 14
REMARK SMILES IDX 17 15 12 17 13 18 14 19
REMARK H PARENT
REMARK Flexibility Score: 70.00
ROOT
ATOM      1  C   UNL     1      10.442 -23.508  41.004  1.00  0.00     0.136 C 
ATOM      2  O   UNL     1       9.379 -23.354  40.418  1.00  0.00    -0.299 OA
ENDROOT
BRANCH   1   3
ATOM      3  C   UNL     1      11.183 -22.281  41.503  1.00  0.00     0.053 C 
ATOM      4  C   UNL     1      11.765 -22.527  42.900  1.00  0.00     0.016 C 
BRANCH   3   5
ATOM      5  C   UNL     1      12.280 -21.841  40.516  1.00  0.00     0.015 C 
BRANCH   5   6
ATOM      6  C   UNL     1      13.671 -22.346  40.937  1.00  0.00     0.028 C 
BRANCH   6   7
ATOM      7  C   UNL     1      14.378 -22.996  39.775  1.00  0.00    -0.028 C 
ATOM      8  C   UNL     1      14.455 -24.332  39.574  1.00  0.00    -0.070 CG0
ATOM      9  C   UNL     1      15.255 -24.825  38.395  1.00  0.00     0.039 C 
ATOM     10  G   UNL     1      13.760 -25.346  40.471  1.00  0.00     0.000 G0
ENDBRANCH   6   7
ENDBRANCH   5   6
ENDBRANCH   3   5
ENDBRANCH   1   3
BRANCH   1  11
ATOM     11  C   UNL     1      10.950 -24.914  41.228  1.00  0.00     0.087 C 
BRANCH  11  12
ATOM     12  C   UNL     1      11.186 -25.675  39.893  1.00  0.00     0.066 C 
BRANCH  12  13
ATOM     13  C   UNL     1      12.645 -26.081  39.740  1.00  0.00     0.140 C 
ATOM     14  O   UNL     1      12.948 -26.977  38.964  1.00  0.00    -0.299 OA
BRANCH  13  15
ATOM     15  C   UNL     1      13.741 -25.342  40.469  1.00  0.00     0.106 CG0
ATOM     16  G   UNL     1      14.454 -24.342  39.571  1.00  0.00     0.000 G0
ENDBRANCH  13  15
ENDBRANCH  12  13
BRANCH  12  17
ATOM     17  C   UNL     1      10.250 -26.911  39.706  1.00  0.00    -0.006 C 
ATOM     18  C   UNL     1       9.046 -26.579  38.809  1.00  0.00     0.008 C 
ATOM     19  C   UNL     1       9.762 -27.534  41.028  1.00  0.00     0.008 C 
ENDBRANCH  12  17
ENDBRANCH  11  12
ENDBRANCH   1  11
TORSDOF 1
ENDMDL
MODEL 9
REMARK VINA RESULT:    -2.996      2.434      4.417
REMARK INTER + INTRA:          -4.744
REMARK INTER:                  -4.366
REMARK INTRA:                  -0.379
REMARK UNBOUND:                -0.172
REMARK SMILES CC1=CCC[C@H](C)C(=O)C[C@H](C(C)C)C(=O)C1
REMARK SMILES IDX 8 1 9 2 6 3 7 4 5 5 4 6 3 7 2 8 1 9 10 11 11 12 15 13 16 14
REMARK SMILES IDX 17 15 12 17 13 18 14 19
REMARK H PARENT
REMARK Flexibility Score: 70.00
ROOT
ATOM      1  C   UNL     1      14.359 -24.881  40.738  1.00  0.00     0.136 C 
ATOM      2  O   UNL     1      15.089 -25.498  41.502  1.00  0.00    -0.299 OA
ENDROOT
BRANCH   1   3
ATOM      3  C   UNL     1      14.079 -25.465  39.366  1.00  0.00     0.053 C 
ATOM      4  C   UNL     1      15.304 -25.324  38.453  1.00  0.00     0.016 C 
BRANCH   3   5
ATOM      5  C   UNL     1      13.622 -26.933  39.456  1.00  0.00     0.015 C 
BRANCH   5   6
ATOM      6  C   UNL     1      12.339 -27.087  40.290  1.00  0.00     0.028 C 
BRANCH   6   7
ATOM      7  C   UNL     1      11.147 -26.546  39.544  1.00  0.00    -0.028 C 
ATOM      8  C   UNL     1      10.417 -25.476  39.936  1.00  0.00    -0.070 CG0
ATOM      9  C   UNL     1       9.213 -25.099  39.110  1.00  0.00     0.039 C 
ATOM     10  G   UNL     1      10.768 -24.635  41.156  1.00  0.00     0.000 G0
ENDBRANCH   6   7
ENDBRANCH   5   6
ENDBRANCH   3   5
ENDBRANCH   1   3
BRANCH   1  11
ATOM     11  C   UNL     1      13.748 -23.580  41.210  1.00  0.00     0.087 C 
BRANCH  11  12
ATOM     12  C   UNL     1      12.673 -23.043  40.225  1.00  0.00     0.066 C 
BRANCH  12  13
ATOM     13  C   UNL     1      11.268 -23.247  40.776  1.00  0.00     0.140 C 
ATOM     14  O   UNL     1      10.501 -22.298  40.851  1.00  0.00    -0.299 OA
BRANCH  13  15
ATOM     15  C   UNL     1      10.773 -24.621  41.157  1.00  0.00     0.106 CG0
ATOM     16  G   UNL     1      10.433 -25.467  39.937  1.00  0.00     0.000 G0
ENDBRANCH  13  15
ENDBRANCH  12  13
BRANCH  12  17
ATOM     17  C   UNL     1      12.890 -21.550  39.820  1.00  0.00    -0.006 C 
ATOM     18  C   UNL     1      13.558 -21.431  38.439  1.00  0.00     0.008 C 
ATOM     19  C   UNL     1      13.678 -20.727  40.855  1.00  0.00     0.008 C 
ENDBRANCH  12  17
ENDBRANCH  11  12
ENDBRANCH   1  11
TORSDOF 1
ENDMDL
