MODEL 1
REMARK VINA RESULT:    -3.676      0.000      0.000
REMARK INTER + INTRA:          -5.068
REMARK INTER:                  -4.751
REMARK INTRA:                  -0.318
REMARK UNBOUND:                -0.318
REMARK SMILES CCCCCCC(=O)[O-]
REMARK SMILES IDX 5 1 6 2 7 3 8 4 9 5 4 6 3 7 2 8 1 9
REMARK H PARENT
REMARK Flexibility Score: inf
ROOT
ATOM      1  C   UNL     1      38.867  22.689 -24.627  1.00  0.00     0.006 C 
ENDROOT
BRANCH   1   2
ATOM      2  C   UNL     1      40.270  23.072 -25.113  1.00  0.00     0.053 C 
BRANCH   2   3
ATOM      3  C   UNL     1      41.211  23.185 -23.956  1.00  0.00     0.041 C 
ATOM      4  O   UNL     1      41.799  22.161 -23.516  1.00  0.00    -0.550 OA
ATOM      5  O   UNL     1      41.478  24.426 -23.395  1.00  0.00    -0.550 OA
ENDBRANCH   2   3
ENDBRANCH   1   2
BRANCH   1   6
ATOM      6  C   UNL     1      38.524  21.210 -24.887  1.00  0.00     0.000 C 
BRANCH   6   7
ATOM      7  C   UNL     1      38.432  20.334 -23.624  1.00  0.00    -0.000 C 
BRANCH   7   8
ATOM      8  C   UNL     1      38.197  21.150 -22.345  1.00  0.00    -0.003 C 
ATOM      9  C   UNL     1      36.721  21.149 -21.956  1.00  0.00     0.004 C 
ENDBRANCH   7   8
ENDBRANCH   6   7
ENDBRANCH   1   6
TORSDOF 5
ENDMDL
MODEL 2
REMARK VINA RESULT:    -3.672     17.629     18.744
REMARK INTER + INTRA:          -5.064
REMARK INTER:                  -4.601
REMARK INTRA:                  -0.463
REMARK UNBOUND:                -0.318
REMARK SMILES CCCCCCC(=O)[O-]
REMARK SMILES IDX 5 1 6 2 7 3 8 4 9 5 4 6 3 7 2 8 1 9
REMARK H PARENT
REMARK Flexibility Score: inf
ROOT
ATOM      1  C   UNL     1      47.106  34.922 -14.758  1.00  0.00     0.006 C 
ENDROOT
BRANCH   1   2
ATOM      2  C   UNL     1      48.241  34.662 -13.759  1.00  0.00     0.053 C 
BRANCH   2   3
ATOM      3  C   UNL     1      48.932  35.942 -13.410  1.00  0.00     0.041 C 
ATOM      4  O   UNL     1      50.091  35.922 -12.917  1.00  0.00    -0.550 OA
ATOM      5  O   UNL     1      48.318  37.159 -13.675  1.00  0.00    -0.550 OA
ENDBRANCH   2   3
ENDBRANCH   1   2
BRANCH   1   6
ATOM      6  C   UNL     1      47.552  34.778 -16.225  1.00  0.00     0.000 C 
BRANCH   6   7
ATOM      7  C   UNL     1      47.580  36.092 -17.027  1.00  0.00    -0.000 C 
BRANCH   7   8
ATOM      8  C   UNL     1      48.988  36.694 -17.137  1.00  0.00    -0.003 C 
ATOM      9  C   UNL     1      50.059  35.615 -17.003  1.00  0.00     0.004 C 
ENDBRANCH   7   8
ENDBRANCH   6   7
ENDBRANCH   1   6
TORSDOF 5
ENDMDL
MODEL 3
REMARK VINA RESULT:    -3.667     17.162     18.042
REMARK INTER + INTRA:          -5.056
REMARK INTER:                  -4.797
REMARK INTRA:                  -0.259
REMARK UNBOUND:                -0.318
REMARK SMILES CCCCCCC(=O)[O-]
REMARK SMILES IDX 5 1 6 2 7 3 8 4 9 5 4 6 3 7 2 8 1 9
REMARK H PARENT
REMARK Flexibility Score: inf
ROOT
ATOM      1  C   UNL     1      47.786  34.660 -14.630  1.00  0.00     0.006 C 
ENDROOT
BRANCH   1   2
ATOM      2  C   UNL     1      46.779  35.699 -14.121  1.00  0.00     0.053 C 
BRANCH   2   3
ATOM      3  C   UNL     1      45.718  35.040 -13.299  1.00  0.00     0.041 C 
ATOM      4  O   UNL     1      45.949  33.940 -12.731  1.00  0.00    -0.550 OA
ATOM      5  O   UNL     1      44.490  35.663 -13.118  1.00  0.00    -0.550 OA
ENDBRANCH   2   3
ENDBRANCH   1   2
BRANCH   1   6
ATOM      6  C   UNL     1      47.904  34.640 -16.165  1.00  0.00     0.000 C 
BRANCH   6   7
ATOM      7  C   UNL     1      49.152  35.343 -16.730  1.00  0.00    -0.000 C 
BRANCH   7   8
ATOM      8  C   UNL     1      48.857  36.756 -17.252  1.00  0.00    -0.003 C 
ATOM      9  C   UNL     1      47.377  36.919 -17.591  1.00  0.00     0.004 C 
ENDBRANCH   7   8
ENDBRANCH   6   7
ENDBRANCH   1   6
TORSDOF 5
ENDMDL
MODEL 4
REMARK VINA RESULT:    -3.649      0.690      1.281
REMARK INTER + INTRA:          -5.034
REMARK INTER:                  -4.839
REMARK INTRA:                  -0.195
REMARK UNBOUND:                -0.318
REMARK SMILES CCCCCCC(=O)[O-]
REMARK SMILES IDX 5 1 6 2 7 3 8 4 9 5 4 6 3 7 2 8 1 9
REMARK H PARENT
REMARK Flexibility Score: inf
ROOT
ATOM      1  C   UNL     1      39.413  21.917 -25.125  1.00  0.00     0.006 C 
ENDROOT
BRANCH   1   2
ATOM      2  C   UNL     1      39.966  23.339 -24.965  1.00  0.00     0.053 C 
BRANCH   2   3
ATOM      3  C   UNL     1      41.098  23.352 -23.988  1.00  0.00     0.041 C 
ATOM      4  O   UNL     1      41.440  24.428 -23.429  1.00  0.00    -0.550 OA
ATOM      5  O   UNL     1      41.745  22.168 -23.656  1.00  0.00    -0.550 OA
ENDBRANCH   2   3
ENDBRANCH   1   2
BRANCH   1   6
ATOM      6  C   UNL     1      38.265  21.606 -24.147  1.00  0.00     0.000 C 
BRANCH   6   7
ATOM      7  C   UNL     1      38.335  20.217 -23.484  1.00  0.00    -0.000 C 
BRANCH   7   8
ATOM      8  C   UNL     1      37.311  20.042 -22.354  1.00  0.00    -0.003 C 
ATOM      9  C   UNL     1      36.661  21.374 -21.990  1.00  0.00     0.004 C 
ENDBRANCH   7   8
ENDBRANCH   6   7
ENDBRANCH   1   6
TORSDOF 5
ENDMDL
MODEL 5
REMARK VINA RESULT:    -3.587     17.209     18.053
REMARK INTER + INTRA:          -4.954
REMARK INTER:                  -4.739
REMARK INTRA:                  -0.215
REMARK UNBOUND:                -0.318
REMARK SMILES CCCCCCC(=O)[O-]
REMARK SMILES IDX 5 1 6 2 7 3 8 4 9 5 4 6 3 7 2 8 1 9
REMARK H PARENT
REMARK Flexibility Score: inf
ROOT
ATOM      1  C   UNL     1      48.110  34.686 -16.521  1.00  0.00     0.006 C 
ENDROOT
BRANCH   1   2
ATOM      2  C   UNL     1      49.288  35.595 -16.891  1.00  0.00     0.053 C 
BRANCH   2   3
ATOM      3  C   UNL     1      48.815  36.996 -17.119  1.00  0.00     0.041 C 
ATOM      4  O   UNL     1      49.382  37.958 -16.537  1.00  0.00    -0.550 OA
ATOM      5  O   UNL     1      47.782  37.245 -18.013  1.00  0.00    -0.550 OA
ENDBRANCH   2   3
ENDBRANCH   1   2
BRANCH   1   6
ATOM      6  C   UNL     1      47.385  35.134 -15.238  1.00  0.00     0.000 C 
BRANCH   6   7
ATOM      7  C   UNL     1      48.108  34.778 -13.926  1.00  0.00    -0.000 C 
BRANCH   7   8
ATOM      8  C   UNL     1      47.153  34.661 -12.730  1.00  0.00    -0.003 C 
ATOM      9  C   UNL     1      45.742  34.297 -13.187  1.00  0.00     0.004 C 
ENDBRANCH   7   8
ENDBRANCH   6   7
ENDBRANCH   1   6
TORSDOF 5
ENDMDL
MODEL 6
REMARK VINA RESULT:    -3.587     17.514     18.263
REMARK INTER + INTRA:          -4.953
REMARK INTER:                  -4.783
REMARK INTRA:                  -0.170
REMARK UNBOUND:                -0.318
REMARK SMILES CCCCCCC(=O)[O-]
REMARK SMILES IDX 5 1 6 2 7 3 8 4 9 5 4 6 3 7 2 8 1 9
REMARK H PARENT
REMARK Flexibility Score: inf
ROOT
ATOM      1  C   UNL     1      46.782  35.366 -14.352  1.00  0.00     0.006 C 
ENDROOT
BRANCH   1   2
ATOM      2  C   UNL     1      46.026  34.378 -13.456  1.00  0.00     0.053 C 
BRANCH   2   3
ATOM      3  C   UNL     1      45.660  35.024 -12.157  1.00  0.00     0.041 C 
ATOM      4  O   UNL     1      44.608  35.710 -12.065  1.00  0.00    -0.550 OA
ATOM      5  O   UNL     1      46.454  34.828 -11.035  1.00  0.00    -0.550 OA
ENDBRANCH   2   3
ENDBRANCH   1   2
BRANCH   1   6
ATOM      6  C   UNL     1      47.977  34.724 -15.081  1.00  0.00     0.000 C 
BRANCH   6   7
ATOM      7  C   UNL     1      48.042  35.007 -16.594  1.00  0.00    -0.000 C 
BRANCH   7   8
ATOM      8  C   UNL     1      47.189  36.212 -17.014  1.00  0.00    -0.003 C 
ATOM      9  C   UNL     1      48.046  37.288 -17.675  1.00  0.00     0.004 C 
ENDBRANCH   7   8
ENDBRANCH   6   7
ENDBRANCH   1   6
TORSDOF 5
ENDMDL
MODEL 7
REMARK VINA RESULT:    -3.522     17.546     18.526
REMARK INTER + INTRA:          -4.870
REMARK INTER:                  -4.513
REMARK INTRA:                  -0.356
REMARK UNBOUND:                -0.318
REMARK SMILES CCCCCCC(=O)[O-]
REMARK SMILES IDX 5 1 6 2 7 3 8 4 9 5 4 6 3 7 2 8 1 9
REMARK H PARENT
REMARK Flexibility Score: inf
ROOT
ATOM      1  C   UNL     1      48.853  36.691 -17.276  1.00  0.00     0.006 C 
ENDROOT
BRANCH   1   2
ATOM      2  C   UNL     1      49.991  35.666 -17.199  1.00  0.00     0.053 C 
BRANCH   2   3
ATOM      3  C   UNL     1      51.203  36.276 -16.569  1.00  0.00     0.041 C 
ATOM      4  O   UNL     1      52.314  36.234 -17.161  1.00  0.00    -0.550 OA
ATOM      5  O   UNL     1      51.097  36.934 -15.351  1.00  0.00    -0.550 OA
ENDBRANCH   2   3
ENDBRANCH   1   2
BRANCH   1   6
ATOM      6  C   UNL     1      47.506  36.131 -16.785  1.00  0.00     0.000 C 
BRANCH   6   7
ATOM      7  C   UNL     1      47.573  34.718 -16.177  1.00  0.00    -0.000 C 
BRANCH   7   8
ATOM      8  C   UNL     1      47.235  34.695 -14.679  1.00  0.00    -0.003 C 
ATOM      9  C   UNL     1      48.467  35.007 -13.834  1.00  0.00     0.004 C 
ENDBRANCH   7   8
ENDBRANCH   6   7
ENDBRANCH   1   6
TORSDOF 5
ENDMDL
MODEL 8
REMARK VINA RESULT:    -3.521     17.539     18.266
REMARK INTER + INTRA:          -4.868
REMARK INTER:                  -4.664
REMARK INTRA:                  -0.203
REMARK UNBOUND:                -0.318
REMARK SMILES CCCCCCC(=O)[O-]
REMARK SMILES IDX 5 1 6 2 7 3 8 4 9 5 4 6 3 7 2 8 1 9
REMARK H PARENT
REMARK Flexibility Score: inf
ROOT
ATOM      1  C   UNL     1      48.463  34.746 -16.512  1.00  0.00     0.006 C 
ENDROOT
BRANCH   1   2
ATOM      2  C   UNL     1      48.965  36.141 -16.908  1.00  0.00     0.053 C 
BRANCH   2   3
ATOM      3  C   UNL     1      50.358  36.356 -16.409  1.00  0.00     0.041 C 
ATOM      4  O   UNL     1      50.554  36.929 -15.304  1.00  0.00    -0.550 OA
ATOM      5  O   UNL     1      51.440  35.880 -17.138  1.00  0.00    -0.550 OA
ENDBRANCH   2   3
ENDBRANCH   1   2
BRANCH   1   6
ATOM      6  C   UNL     1      47.475  34.775 -15.332  1.00  0.00     0.000 C 
BRANCH   6   7
ATOM      7  C   UNL     1      48.125  34.706 -13.938  1.00  0.00    -0.000 C 
BRANCH   7   8
ATOM      8  C   UNL     1      47.111  34.867 -12.797  1.00  0.00    -0.003 C 
ATOM      9  C   UNL     1      45.748  34.302 -13.189  1.00  0.00     0.004 C 
ENDBRANCH   7   8
ENDBRANCH   6   7
ENDBRANCH   1   6
TORSDOF 5
ENDMDL
MODEL 9
REMARK VINA RESULT:    -3.456      1.909      2.651
REMARK INTER + INTRA:          -4.784
REMARK INTER:                  -4.402
REMARK INTRA:                  -0.382
REMARK UNBOUND:                -0.318
REMARK SMILES CCCCCCC(=O)[O-]
REMARK SMILES IDX 5 1 6 2 7 3 8 4 9 5 4 6 3 7 2 8 1 9
REMARK H PARENT
REMARK Flexibility Score: inf
ROOT
ATOM      1  C   UNL     1      37.845  21.614 -23.309  1.00  0.00     0.006 C 
ENDROOT
BRANCH   1   2
ATOM      2  C   UNL     1      38.562  20.844 -24.425  1.00  0.00     0.053 C 
BRANCH   2   3
ATOM      3  C   UNL     1      40.043  21.023 -24.315  1.00  0.00     0.041 C 
ATOM      4  O   UNL     1      40.764  20.086 -23.881  1.00  0.00    -0.550 OA
ATOM      5  O   UNL     1      40.634  22.206 -24.739  1.00  0.00    -0.550 OA
ENDBRANCH   2   3
ENDBRANCH   1   2
BRANCH   1   6
ATOM      6  C   UNL     1      37.315  20.698 -22.191  1.00  0.00     0.000 C 
BRANCH   6   7
ATOM      7  C   UNL     1      37.322  19.194 -22.526  1.00  0.00    -0.000 C 
BRANCH   7   8
ATOM      8  C   UNL     1      38.082  18.355 -21.489  1.00  0.00    -0.003 C 
ATOM      9  C   UNL     1      38.985  19.233 -20.626  1.00  0.00     0.004 C 
ENDBRANCH   7   8
ENDBRANCH   6   7
ENDBRANCH   1   6
TORSDOF 5
ENDMDL
