MODEL 1
REMARK VINA RESULT:    -4.167      0.000      0.000
REMARK INTER + INTRA:         -14.673
REMARK INTER:                 -10.501
REMARK INTRA:                  -4.172
REMARK UNBOUND:                -4.172
REMARK SMILES CCCCCCCCCCCCCCCCCCCCCCCCCCCC(=O)[O-]
REMARK SMILES IDX 15 1 16 2 17 3 18 4 19 5 20 6 21 7 22 8 23 9 24 10 25 11
REMARK SMILES IDX 26 12 27 13 28 14 29 15 30 16 14 17 13 18 12 19 11 20 10 21
REMARK SMILES IDX 9 22 8 23 7 24 6 25 5 26 4 27 3 28 2 29 1 30
REMARK H PARENT
REMARK Flexibility Score: inf
ROOT
ATOM      1  C   UNL     1      29.356  11.775 -11.913  1.00  0.00     0.000 C 
ENDROOT
BRANCH   1   2
ATOM      2  C   UNL     1      30.759  11.769 -12.548  1.00  0.00     0.000 C 
BRANCH   2   3
ATOM      3  C   UNL     1      30.729  12.186 -14.030  1.00  0.00     0.000 C 
BRANCH   3   4
ATOM      4  C   UNL     1      30.710  10.976 -14.983  1.00  0.00     0.000 C 
BRANCH   4   5
ATOM      5  C   UNL     1      29.489  10.969 -15.918  1.00  0.00     0.000 C 
BRANCH   5   6
ATOM      6  C   UNL     1      28.584  12.213 -15.819  1.00  0.00     0.000 C 
BRANCH   6   7
ATOM      7  C   UNL     1      28.562  13.128 -17.062  1.00  0.00     0.000 C 
BRANCH   7   8
ATOM      8  C   UNL     1      29.870  13.160 -17.873  1.00  0.00     0.000 C 
BRANCH   8   9
ATOM      9  C   UNL     1      30.944  14.058 -17.235  1.00  0.00     0.000 C 
BRANCH   9  10
ATOM     10  C   UNL     1      30.373  15.388 -16.716  1.00  0.00     0.000 C 
BRANCH  10  11
ATOM     11  C   UNL     1      30.577  15.578 -15.203  1.00  0.00     0.000 C 
BRANCH  11  12
ATOM     12  C   UNL     1      29.311  16.144 -14.547  1.00  0.00     0.006 C 
BRANCH  12  13
ATOM     13  C   UNL     1      28.657  15.144 -13.580  1.00  0.00     0.053 C 
BRANCH  13  14
ATOM     14  C   UNL     1      27.744  15.822 -12.608  1.00  0.00     0.041 C 
ATOM     15  O   UNL     1      27.296  16.974 -12.854  1.00  0.00    -0.550 OA
ATOM     16  O   UNL     1      27.363  15.168 -11.442  1.00  0.00    -0.550 OA
ENDBRANCH  13  14
ENDBRANCH  12  13
ENDBRANCH  11  12
ENDBRANCH  10  11
ENDBRANCH   9  10
ENDBRANCH   8   9
ENDBRANCH   7   8
ENDBRANCH   6   7
ENDBRANCH   5   6
ENDBRANCH   4   5
ENDBRANCH   3   4
ENDBRANCH   2   3
ENDBRANCH   1   2
BRANCH   1  17
ATOM     17  C   UNL     1      28.948  10.408 -11.330  1.00  0.00     0.000 C 
BRANCH  17  18
ATOM     18  C   UNL     1      30.100   9.397 -11.128  1.00  0.00     0.000 C 
BRANCH  18  19
ATOM     19  C   UNL     1      30.107   8.216 -12.127  1.00  0.00     0.000 C 
BRANCH  19  20
ATOM     20  C   UNL     1      28.975   8.220 -13.178  1.00  0.00     0.000 C 
BRANCH  20  21
ATOM     21  C   UNL     1      29.360   7.661 -14.562  1.00  0.00     0.000 C 
BRANCH  21  22
ATOM     22  C   UNL     1      29.113   6.148 -14.750  1.00  0.00    -0.000 C 
BRANCH  22  23
ATOM     23  C   UNL     1      29.520   5.613 -16.142  1.00  0.00    -0.000 C 
BRANCH  23  24
ATOM     24  C   UNL     1      28.854   6.327 -17.337  1.00  0.00    -0.000 C 
BRANCH  24  25
ATOM     25  C   UNL     1      27.322   6.180 -17.424  1.00  0.00    -0.000 C 
BRANCH  25  26
ATOM     26  C   UNL     1      26.869   4.719 -17.559  1.00  0.00    -0.000 C 
BRANCH  26  27
ATOM     27  C   UNL     1      26.084   4.268 -16.320  1.00  0.00    -0.000 C 
BRANCH  27  28
ATOM     28  C   UNL     1      25.241   5.418 -15.756  1.00  0.00    -0.000 C 
BRANCH  28  29
ATOM     29  C   UNL     1      24.918   5.190 -14.275  1.00  0.00    -0.003 C 
ATOM     30  C   UNL     1      26.018   5.744 -13.374  1.00  0.00     0.004 C 
ENDBRANCH  28  29
ENDBRANCH  27  28
ENDBRANCH  26  27
ENDBRANCH  25  26
ENDBRANCH  24  25
ENDBRANCH  23  24
ENDBRANCH  22  23
ENDBRANCH  21  22
ENDBRANCH  20  21
ENDBRANCH  19  20
ENDBRANCH  18  19
ENDBRANCH  17  18
ENDBRANCH   1  17
TORSDOF 26
ENDMDL
MODEL 2
REMARK VINA RESULT:    -4.162      1.117      2.496
REMARK INTER + INTRA:         -14.661
REMARK INTER:                 -10.124
REMARK INTRA:                  -4.537
REMARK UNBOUND:                -4.172
REMARK SMILES CCCCCCCCCCCCCCCCCCCCCCCCCCCC(=O)[O-]
REMARK SMILES IDX 15 1 16 2 17 3 18 4 19 5 20 6 21 7 22 8 23 9 24 10 25 11
REMARK SMILES IDX 26 12 27 13 28 14 29 15 30 16 14 17 13 18 12 19 11 20 10 21
REMARK SMILES IDX 9 22 8 23 7 24 6 25 5 26 4 27 3 28 2 29 1 30
REMARK H PARENT
REMARK Flexibility Score: inf
ROOT
ATOM      1  C   UNL     1      29.577  10.741 -12.175  1.00  0.00     0.000 C 
ENDROOT
BRANCH   1   2
ATOM      2  C   UNL     1      30.911  11.060 -12.876  1.00  0.00     0.000 C 
BRANCH   2   3
ATOM      3  C   UNL     1      30.818  10.896 -14.404  1.00  0.00     0.000 C 
BRANCH   3   4
ATOM      4  C   UNL     1      29.393  10.552 -14.875  1.00  0.00     0.000 C 
BRANCH   4   5
ATOM      5  C   UNL     1      29.087  11.073 -16.290  1.00  0.00     0.000 C 
BRANCH   5   6
ATOM      6  C   UNL     1      30.312  11.199 -17.217  1.00  0.00     0.000 C 
BRANCH   6   7
ATOM      7  C   UNL     1      30.402  12.504 -18.037  1.00  0.00     0.000 C 
BRANCH   7   8
ATOM      8  C   UNL     1      29.236  13.488 -17.829  1.00  0.00     0.000 C 
BRANCH   8   9
ATOM      9  C   UNL     1      29.682  14.812 -17.186  1.00  0.00     0.000 C 
BRANCH   9  10
ATOM     10  C   UNL     1      30.532  14.601 -15.923  1.00  0.00     0.000 C 
BRANCH  10  11
ATOM     11  C   UNL     1      29.841  15.103 -14.644  1.00  0.00     0.000 C 
BRANCH  11  12
ATOM     12  C   UNL     1      28.787  14.098 -14.161  1.00  0.00     0.006 C 
BRANCH  12  13
ATOM     13  C   UNL     1      28.507  14.224 -12.655  1.00  0.00     0.053 C 
BRANCH  13  14
ATOM     14  C   UNL     1      27.353  15.133 -12.375  1.00  0.00     0.041 C 
ATOM     15  O   UNL     1      26.178  14.678 -12.346  1.00  0.00    -0.550 OA
ATOM     16  O   UNL     1      27.577  16.480 -12.116  1.00  0.00    -0.550 OA
ENDBRANCH  13  14
ENDBRANCH  12  13
ENDBRANCH  11  12
ENDBRANCH  10  11
ENDBRANCH   9  10
ENDBRANCH   8   9
ENDBRANCH   7   8
ENDBRANCH   6   7
ENDBRANCH   5   6
ENDBRANCH   4   5
ENDBRANCH   3   4
ENDBRANCH   2   3
ENDBRANCH   1   2
BRANCH   1  17
ATOM     17  C   UNL     1      29.640   9.474 -11.300  1.00  0.00     0.000 C 
BRANCH  17  18
ATOM     18  C   UNL     1      30.811   8.512 -11.599  1.00  0.00     0.000 C 
BRANCH  18  19
ATOM     19  C   UNL     1      30.443   7.300 -12.487  1.00  0.00     0.000 C 
BRANCH  19  20
ATOM     20  C   UNL     1      29.062   7.368 -13.175  1.00  0.00     0.000 C 
BRANCH  20  21
ATOM     21  C   UNL     1      28.464   6.008 -13.587  1.00  0.00     0.000 C 
BRANCH  21  22
ATOM     22  C   UNL     1      26.921   5.945 -13.594  1.00  0.00    -0.000 C 
BRANCH  22  23
ATOM     23  C   UNL     1      26.351   4.510 -13.655  1.00  0.00    -0.000 C 
BRANCH  23  24
ATOM     24  C   UNL     1      25.746   4.104 -15.017  1.00  0.00    -0.000 C 
BRANCH  24  25
ATOM     25  C   UNL     1      26.767   3.705 -16.100  1.00  0.00    -0.000 C 
BRANCH  25  26
ATOM     26  C   UNL     1      26.858   4.727 -17.242  1.00  0.00    -0.000 C 
BRANCH  26  27
ATOM     27  C   UNL     1      28.222   5.429 -17.249  1.00  0.00    -0.000 C 
BRANCH  27  28
ATOM     28  C   UNL     1      28.054   6.951 -17.344  1.00  0.00    -0.000 C 
BRANCH  28  29
ATOM     29  C   UNL     1      29.406   7.641 -17.555  1.00  0.00    -0.003 C 
ATOM     30  C   UNL     1      30.453   7.126 -16.573  1.00  0.00     0.004 C 
ENDBRANCH  28  29
ENDBRANCH  27  28
ENDBRANCH  26  27
ENDBRANCH  25  26
ENDBRANCH  24  25
ENDBRANCH  23  24
ENDBRANCH  22  23
ENDBRANCH  21  22
ENDBRANCH  20  21
ENDBRANCH  19  20
ENDBRANCH  18  19
ENDBRANCH  17  18
ENDBRANCH   1  17
TORSDOF 26
ENDMDL
MODEL 3
REMARK VINA RESULT:    -4.093      1.219      2.041
REMARK INTER + INTRA:         -14.487
REMARK INTER:                 -10.396
REMARK INTRA:                  -4.091
REMARK UNBOUND:                -4.172
REMARK SMILES CCCCCCCCCCCCCCCCCCCCCCCCCCCC(=O)[O-]
REMARK SMILES IDX 15 1 16 2 17 3 18 4 19 5 20 6 21 7 22 8 23 9 24 10 25 11
REMARK SMILES IDX 26 12 27 13 28 14 29 15 30 16 14 17 13 18 12 19 11 20 10 21
REMARK SMILES IDX 9 22 8 23 7 24 6 25 5 26 4 27 3 28 2 29 1 30
REMARK H PARENT
REMARK Flexibility Score: inf
ROOT
ATOM      1  C   UNL     1      29.614  11.504 -12.003  1.00  0.00     0.000 C 
ENDROOT
BRANCH   1   2
ATOM      2  C   UNL     1      30.764  11.896 -12.950  1.00  0.00     0.000 C 
BRANCH   2   3
ATOM      3  C   UNL     1      30.458  11.535 -14.415  1.00  0.00     0.000 C 
BRANCH   3   4
ATOM      4  C   UNL     1      28.951  11.572 -14.730  1.00  0.00     0.000 C 
BRANCH   4   5
ATOM      5  C   UNL     1      28.646  12.112 -16.138  1.00  0.00     0.000 C 
BRANCH   5   6
ATOM      6  C   UNL     1      29.850  12.147 -17.099  1.00  0.00     0.000 C 
BRANCH   6   7
ATOM      7  C   UNL     1      30.257  13.543 -17.616  1.00  0.00     0.000 C 
BRANCH   7   8
ATOM      8  C   UNL     1      30.803  14.504 -16.544  1.00  0.00     0.000 C 
BRANCH   8   9
ATOM      9  C   UNL     1      30.051  15.846 -16.511  1.00  0.00     0.000 C 
BRANCH   9  10
ATOM     10  C   UNL     1      29.708  16.297 -15.082  1.00  0.00     0.000 C 
BRANCH  10  11
ATOM     11  C   UNL     1      29.321  15.128 -14.161  1.00  0.00     0.000 C 
BRANCH  11  12
ATOM     12  C   UNL     1      28.170  15.526 -13.227  1.00  0.00     0.006 C 
BRANCH  12  13
ATOM     13  C   UNL     1      27.607  14.326 -12.448  1.00  0.00     0.053 C 
BRANCH  13  14
ATOM     14  C   UNL     1      26.265  14.622 -11.858  1.00  0.00     0.041 C 
ATOM     15  O   UNL     1      25.939  14.131 -10.745  1.00  0.00    -0.550 OA
ATOM     16  O   UNL     1      25.384  15.464 -12.526  1.00  0.00    -0.550 OA
ENDBRANCH  13  14
ENDBRANCH  12  13
ENDBRANCH  11  12
ENDBRANCH  10  11
ENDBRANCH   9  10
ENDBRANCH   8   9
ENDBRANCH   7   8
ENDBRANCH   6   7
ENDBRANCH   5   6
ENDBRANCH   4   5
ENDBRANCH   3   4
ENDBRANCH   2   3
ENDBRANCH   1   2
BRANCH   1  17
ATOM     17  C   UNL     1      30.083  10.678 -10.790  1.00  0.00     0.000 C 
BRANCH  17  18
ATOM     18  C   UNL     1      29.822   9.157 -10.876  1.00  0.00     0.000 C 
BRANCH  18  19
ATOM     19  C   UNL     1      30.227   8.507 -12.220  1.00  0.00     0.000 C 
BRANCH  19  20
ATOM     20  C   UNL     1      29.060   8.094 -13.143  1.00  0.00     0.000 C 
BRANCH  20  21
ATOM     21  C   UNL     1      29.447   7.186 -14.327  1.00  0.00     0.000 C 
BRANCH  21  22
ATOM     22  C   UNL     1      30.250   7.879 -15.450  1.00  0.00    -0.000 C 
BRANCH  22  23
ATOM     23  C   UNL     1      29.375   8.446 -16.591  1.00  0.00    -0.000 C 
BRANCH  23  24
ATOM     24  C   UNL     1      29.826   8.059 -18.015  1.00  0.00    -0.000 C 
BRANCH  24  25
ATOM     25  C   UNL     1      29.865   6.546 -18.307  1.00  0.00    -0.000 C 
BRANCH  25  26
ATOM     26  C   UNL     1      28.699   6.078 -19.190  1.00  0.00    -0.000 C 
BRANCH  26  27
ATOM     27  C   UNL     1      27.354   6.271 -18.478  1.00  0.00    -0.000 C 
BRANCH  27  28
ATOM     28  C   UNL     1      26.927   4.986 -17.757  1.00  0.00    -0.000 C 
BRANCH  28  29
ATOM     29  C   UNL     1      27.054   5.138 -16.238  1.00  0.00    -0.003 C 
ATOM     30  C   UNL     1      25.688   5.302 -15.579  1.00  0.00     0.004 C 
ENDBRANCH  28  29
ENDBRANCH  27  28
ENDBRANCH  26  27
ENDBRANCH  25  26
ENDBRANCH  24  25
ENDBRANCH  23  24
ENDBRANCH  22  23
ENDBRANCH  21  22
ENDBRANCH  20  21
ENDBRANCH  19  20
ENDBRANCH  18  19
ENDBRANCH  17  18
ENDBRANCH   1  17
TORSDOF 26
ENDMDL
MODEL 4
REMARK VINA RESULT:    -4.035      2.953      7.955
REMARK INTER + INTRA:         -14.339
REMARK INTER:                 -10.904
REMARK INTRA:                  -3.434
REMARK UNBOUND:                -4.172
REMARK SMILES CCCCCCCCCCCCCCCCCCCCCCCCCCCC(=O)[O-]
REMARK SMILES IDX 15 1 16 2 17 3 18 4 19 5 20 6 21 7 22 8 23 9 24 10 25 11
REMARK SMILES IDX 26 12 27 13 28 14 29 15 30 16 14 17 13 18 12 19 11 20 10 21
REMARK SMILES IDX 9 22 8 23 7 24 6 25 5 26 4 27 3 28 2 29 1 30
REMARK H PARENT
REMARK Flexibility Score: inf
ROOT
ATOM      1  C   UNL     1      27.266  12.127 -11.610  1.00  0.00     0.000 C 
ENDROOT
BRANCH   1   2
ATOM      2  C   UNL     1      28.450  11.554 -10.810  1.00  0.00     0.000 C 
BRANCH   2   3
ATOM      3  C   UNL     1      29.804  11.859 -11.476  1.00  0.00     0.000 C 
BRANCH   3   4
ATOM      4  C   UNL     1      30.604  10.582 -11.798  1.00  0.00     0.000 C 
BRANCH   4   5
ATOM      5  C   UNL     1      29.889   9.298 -11.346  1.00  0.00     0.000 C 
BRANCH   5   6
ATOM      6  C   UNL     1      30.443   7.994 -11.956  1.00  0.00     0.000 C 
BRANCH   6   7
ATOM      7  C   UNL     1      30.076   7.735 -13.433  1.00  0.00     0.000 C 
BRANCH   7   8
ATOM      8  C   UNL     1      28.602   7.370 -13.685  1.00  0.00     0.000 C 
BRANCH   8   9
ATOM      9  C   UNL     1      28.356   5.852 -13.687  1.00  0.00     0.000 C 
BRANCH   9  10
ATOM     10  C   UNL     1      26.996   5.472 -14.296  1.00  0.00     0.000 C 
BRANCH  10  11
ATOM     11  C   UNL     1      26.061   4.781 -13.289  1.00  0.00     0.000 C 
BRANCH  11  12
ATOM     12  C   UNL     1      24.615   4.773 -13.803  1.00  0.00     0.006 C 
BRANCH  12  13
ATOM     13  C   UNL     1      24.342   5.911 -14.800  1.00  0.00     0.053 C 
BRANCH  13  14
ATOM     14  C   UNL     1      23.151   6.726 -14.407  1.00  0.00     0.041 C 
ATOM     15  O   UNL     1      22.040   6.538 -14.971  1.00  0.00    -0.550 OA
ATOM     16  O   UNL     1      23.260   7.673 -13.397  1.00  0.00    -0.550 OA
ENDBRANCH  13  14
ENDBRANCH  12  13
ENDBRANCH  11  12
ENDBRANCH  10  11
ENDBRANCH   9  10
ENDBRANCH   8   9
ENDBRANCH   7   8
ENDBRANCH   6   7
ENDBRANCH   5   6
ENDBRANCH   4   5
ENDBRANCH   3   4
ENDBRANCH   2   3
ENDBRANCH   1   2
BRANCH   1  17
ATOM     17  C   UNL     1      26.511  13.243 -10.861  1.00  0.00     0.000 C 
BRANCH  17  18
ATOM     18  C   UNL     1      26.929  14.688 -11.218  1.00  0.00     0.000 C 
BRANCH  18  19
ATOM     19  C   UNL     1      27.087  14.960 -12.732  1.00  0.00     0.000 C 
BRANCH  19  20
ATOM     20  C   UNL     1      28.536  15.158 -13.230  1.00  0.00     0.000 C 
BRANCH  20  21
ATOM     21  C   UNL     1      28.985  14.195 -14.347  1.00  0.00     0.000 C 
BRANCH  21  22
ATOM     22  C   UNL     1      30.422  14.419 -14.867  1.00  0.00    -0.000 C 
BRANCH  22  23
ATOM     23  C   UNL     1      30.497  14.804 -16.363  1.00  0.00    -0.000 C 
BRANCH  23  24
ATOM     24  C   UNL     1      29.288  14.357 -17.213  1.00  0.00    -0.000 C 
BRANCH  24  25
ATOM     25  C   UNL     1      29.601  13.327 -18.316  1.00  0.00    -0.000 C 
BRANCH  25  26
ATOM     26  C   UNL     1      30.869  12.511 -18.029  1.00  0.00    -0.000 C 
BRANCH  26  27
ATOM     27  C   UNL     1      30.724  11.069 -18.533  1.00  0.00    -0.000 C 
BRANCH  27  28
ATOM     28  C   UNL     1      30.625  10.086 -17.360  1.00  0.00    -0.000 C 
BRANCH  28  29
ATOM     29  C   UNL     1      30.613  10.828 -16.019  1.00  0.00    -0.003 C 
ATOM     30  C   UNL     1      29.248  10.735 -15.344  1.00  0.00     0.004 C 
ENDBRANCH  28  29
ENDBRANCH  27  28
ENDBRANCH  26  27
ENDBRANCH  25  26
ENDBRANCH  24  25
ENDBRANCH  23  24
ENDBRANCH  22  23
ENDBRANCH  21  22
ENDBRANCH  20  21
ENDBRANCH  19  20
ENDBRANCH  18  19
ENDBRANCH  17  18
ENDBRANCH   1  17
TORSDOF 26
ENDMDL
MODEL 5
REMARK VINA RESULT:    -4.025      3.950      8.467
REMARK INTER + INTRA:         -14.315
REMARK INTER:                 -10.952
REMARK INTRA:                  -3.363
REMARK UNBOUND:                -4.172
REMARK SMILES CCCCCCCCCCCCCCCCCCCCCCCCCCCC(=O)[O-]
REMARK SMILES IDX 15 1 16 2 17 3 18 4 19 5 20 6 21 7 22 8 23 9 24 10 25 11
REMARK SMILES IDX 26 12 27 13 28 14 29 15 30 16 14 17 13 18 12 19 11 20 10 21
REMARK SMILES IDX 9 22 8 23 7 24 6 25 5 26 4 27 3 28 2 29 1 30
REMARK H PARENT
REMARK Flexibility Score: inf
ROOT
ATOM      1  C   UNL     1      28.590  11.207 -11.259  1.00  0.00     0.000 C 
ENDROOT
BRANCH   1   2
ATOM      2  C   UNL     1      29.250  10.625  -9.996  1.00  0.00     0.000 C 
BRANCH   2   3
ATOM      3  C   UNL     1      30.197   9.455 -10.320  1.00  0.00     0.000 C 
BRANCH   3   4
ATOM      4  C   UNL     1      30.284   9.168 -11.831  1.00  0.00     0.000 C 
BRANCH   4   5
ATOM      5  C   UNL     1      30.915   7.801 -12.146  1.00  0.00     0.000 C 
BRANCH   5   6
ATOM      6  C   UNL     1      29.944   6.751 -12.721  1.00  0.00     0.000 C 
BRANCH   6   7
ATOM      7  C   UNL     1      29.143   7.188 -13.966  1.00  0.00     0.000 C 
BRANCH   7   8
ATOM      8  C   UNL     1      29.676   6.652 -15.307  1.00  0.00     0.000 C 
BRANCH   8   9
ATOM      9  C   UNL     1      28.592   6.592 -16.397  1.00  0.00     0.000 C 
BRANCH   9  10
ATOM     10  C   UNL     1      29.149   6.869 -17.803  1.00  0.00     0.000 C 
BRANCH  10  11
ATOM     11  C   UNL     1      28.383   6.124 -18.909  1.00  0.00     0.000 C 
BRANCH  11  12
ATOM     12  C   UNL     1      27.315   5.201 -18.308  1.00  0.00     0.006 C 
BRANCH  12  13
ATOM     13  C   UNL     1      27.367   3.783 -18.899  1.00  0.00     0.053 C 
BRANCH  13  14
ATOM     14  C   UNL     1      28.300   2.895 -18.139  1.00  0.00     0.041 C 
ATOM     15  O   UNL     1      28.909   1.962 -18.727  1.00  0.00    -0.550 OA
ATOM     16  O   UNL     1      28.520   3.115 -16.784  1.00  0.00    -0.550 OA
ENDBRANCH  13  14
ENDBRANCH  12  13
ENDBRANCH  11  12
ENDBRANCH  10  11
ENDBRANCH   9  10
ENDBRANCH   8   9
ENDBRANCH   7   8
ENDBRANCH   6   7
ENDBRANCH   5   6
ENDBRANCH   4   5
ENDBRANCH   3   4
ENDBRANCH   2   3
ENDBRANCH   1   2
BRANCH   1  17
ATOM     17  C   UNL     1      28.604  12.748 -11.296  1.00  0.00     0.000 C 
BRANCH  17  18
ATOM     18  C   UNL     1      27.750  13.397 -12.407  1.00  0.00     0.000 C 
BRANCH  18  19
ATOM     19  C   UNL     1      27.731  14.944 -12.388  1.00  0.00     0.000 C 
BRANCH  19  20
ATOM     20  C   UNL     1      28.515  15.638 -13.523  1.00  0.00     0.000 C 
BRANCH  20  21
ATOM     21  C   UNL     1      29.336  14.696 -14.426  1.00  0.00     0.000 C 
BRANCH  21  22
ATOM     22  C   UNL     1      30.373  15.396 -15.333  1.00  0.00    -0.000 C 
BRANCH  22  23
ATOM     23  C   UNL     1      30.096  15.235 -16.845  1.00  0.00    -0.000 C 
BRANCH  23  24
ATOM     24  C   UNL     1      29.138  14.083 -17.215  1.00  0.00    -0.000 C 
BRANCH  24  25
ATOM     25  C   UNL     1      29.615  13.170 -18.361  1.00  0.00    -0.000 C 
BRANCH  25  26
ATOM     26  C   UNL     1      30.866  12.357 -17.997  1.00  0.00    -0.000 C 
BRANCH  26  27
ATOM     27  C   UNL     1      30.621  10.853 -18.181  1.00  0.00    -0.000 C 
BRANCH  27  28
ATOM     28  C   UNL     1      30.649  10.125 -16.832  1.00  0.00    -0.000 C 
BRANCH  28  29
ATOM     29  C   UNL     1      29.293  10.223 -16.125  1.00  0.00    -0.003 C 
ATOM     30  C   UNL     1      29.380  11.089 -14.871  1.00  0.00     0.004 C 
ENDBRANCH  28  29
ENDBRANCH  27  28
ENDBRANCH  26  27
ENDBRANCH  25  26
ENDBRANCH  24  25
ENDBRANCH  23  24
ENDBRANCH  22  23
ENDBRANCH  21  22
ENDBRANCH  20  21
ENDBRANCH  19  20
ENDBRANCH  18  19
ENDBRANCH  17  18
ENDBRANCH   1  17
TORSDOF 26
ENDMDL
MODEL 6
REMARK VINA RESULT:    -3.983      8.489     14.250
REMARK INTER + INTRA:         -14.210
REMARK INTER:                  -9.954
REMARK INTRA:                  -4.256
REMARK UNBOUND:                -4.172
REMARK SMILES CCCCCCCCCCCCCCCCCCCCCCCCCCCC(=O)[O-]
REMARK SMILES IDX 15 1 16 2 17 3 18 4 19 5 20 6 21 7 22 8 23 9 24 10 25 11
REMARK SMILES IDX 26 12 27 13 28 14 29 15 30 16 14 17 13 18 12 19 11 20 10 21
REMARK SMILES IDX 9 22 8 23 7 24 6 25 5 26 4 27 3 28 2 29 1 30
REMARK H PARENT
REMARK Flexibility Score: inf
ROOT
ATOM      1  C   UNL     1      20.311  -0.203 -13.574  1.00  0.00     0.000 C 
ENDROOT
BRANCH   1   2
ATOM      2  C   UNL     1      20.957  -0.448 -14.950  1.00  0.00     0.000 C 
BRANCH   2   3
ATOM      3  C   UNL     1      22.491  -0.536 -14.865  1.00  0.00     0.000 C 
BRANCH   3   4
ATOM      4  C   UNL     1      22.971  -1.818 -14.158  1.00  0.00     0.000 C 
BRANCH   4   5
ATOM      5  C   UNL     1      24.435  -1.734 -13.695  1.00  0.00     0.000 C 
BRANCH   5   6
ATOM      6  C   UNL     1      24.632  -1.619 -12.171  1.00  0.00     0.000 C 
BRANCH   6   7
ATOM      7  C   UNL     1      23.367  -1.833 -11.312  1.00  0.00     0.000 C 
BRANCH   7   8
ATOM      8  C   UNL     1      22.937  -0.619 -10.468  1.00  0.00     0.000 C 
BRANCH   8   9
ATOM      9  C   UNL     1      23.631   0.684 -10.903  1.00  0.00     0.000 C 
BRANCH   9  10
ATOM     10  C   UNL     1      22.671   1.662 -11.598  1.00  0.00     0.000 C 
BRANCH  10  11
ATOM     11  C   UNL     1      23.321   2.402 -12.780  1.00  0.00     0.000 C 
BRANCH  11  12
ATOM     12  C   UNL     1      24.755   1.909 -13.011  1.00  0.00     0.006 C 
BRANCH  12  13
ATOM     13  C   UNL     1      25.596   2.914 -13.815  1.00  0.00     0.053 C 
BRANCH  13  14
ATOM     14  C   UNL     1      26.151   3.999 -12.948  1.00  0.00     0.041 C 
ATOM     15  O   UNL     1      26.524   3.744 -11.772  1.00  0.00    -0.550 OA
ATOM     16  O   UNL     1      26.284   5.288 -13.450  1.00  0.00    -0.550 OA
ENDBRANCH  13  14
ENDBRANCH  12  13
ENDBRANCH  11  12
ENDBRANCH  10  11
ENDBRANCH   9  10
ENDBRANCH   8   9
ENDBRANCH   7   8
ENDBRANCH   6   7
ENDBRANCH   5   6
ENDBRANCH   4   5
ENDBRANCH   3   4
ENDBRANCH   2   3
ENDBRANCH   1   2
BRANCH   1  17
ATOM     17  C   UNL     1      19.557  -1.432 -13.030  1.00  0.00     0.000 C 
BRANCH  17  18
ATOM     18  C   UNL     1      19.648  -1.649 -11.503  1.00  0.00     0.000 C 
BRANCH  18  19
ATOM     19  C   UNL     1      18.284  -1.799 -10.788  1.00  0.00     0.000 C 
BRANCH  19  20
ATOM     20  C   UNL     1      17.037  -1.669 -11.690  1.00  0.00     0.000 C 
BRANCH  20  21
ATOM     21  C   UNL     1      16.095  -0.498 -11.346  1.00  0.00     0.000 C 
BRANCH  21  22
ATOM     22  C   UNL     1      15.625   0.343 -12.553  1.00  0.00    -0.000 C 
BRANCH  22  23
ATOM     23  C   UNL     1      14.670  -0.407 -13.509  1.00  0.00    -0.000 C 
BRANCH  23  24
ATOM     24  C   UNL     1      15.147  -0.494 -14.975  1.00  0.00    -0.000 C 
BRANCH  24  25
ATOM     25  C   UNL     1      16.675  -0.508 -15.172  1.00  0.00    -0.000 C 
BRANCH  25  26
ATOM     26  C   UNL     1      17.224   0.829 -15.688  1.00  0.00    -0.000 C 
BRANCH  26  27
ATOM     27  C   UNL     1      17.796   0.682 -17.104  1.00  0.00    -0.000 C 
BRANCH  27  28
ATOM     28  C   UNL     1      16.825   1.245 -18.149  1.00  0.00    -0.000 C 
BRANCH  28  29
ATOM     29  C   UNL     1      16.379   2.663 -17.778  1.00  0.00    -0.003 C 
ATOM     30  C   UNL     1      16.885   3.688 -18.788  1.00  0.00     0.004 C 
ENDBRANCH  28  29
ENDBRANCH  27  28
ENDBRANCH  26  27
ENDBRANCH  25  26
ENDBRANCH  24  25
ENDBRANCH  23  24
ENDBRANCH  22  23
ENDBRANCH  21  22
ENDBRANCH  20  21
ENDBRANCH  19  20
ENDBRANCH  18  19
ENDBRANCH  17  18
ENDBRANCH   1  17
TORSDOF 26
ENDMDL
MODEL 7
REMARK VINA RESULT:    -3.973      1.660      2.786
REMARK INTER + INTRA:         -14.184
REMARK INTER:                  -9.811
REMARK INTRA:                  -4.374
REMARK UNBOUND:                -4.172
REMARK SMILES CCCCCCCCCCCCCCCCCCCCCCCCCCCC(=O)[O-]
REMARK SMILES IDX 15 1 16 2 17 3 18 4 19 5 20 6 21 7 22 8 23 9 24 10 25 11
REMARK SMILES IDX 26 12 27 13 28 14 29 15 30 16 14 17 13 18 12 19 11 20 10 21
REMARK SMILES IDX 9 22 8 23 7 24 6 25 5 26 4 27 3 28 2 29 1 30
REMARK H PARENT
REMARK Flexibility Score: inf
ROOT
ATOM      1  C   UNL     1      30.115   9.775 -14.055  1.00  0.00     0.000 C 
ENDROOT
BRANCH   1   2
ATOM      2  C   UNL     1      29.696  10.327 -15.430  1.00  0.00     0.000 C 
BRANCH   2   3
ATOM      3  C   UNL     1      30.908  10.696 -16.303  1.00  0.00     0.000 C 
BRANCH   3   4
ATOM      4  C   UNL     1      30.519  10.974 -17.767  1.00  0.00     0.000 C 
BRANCH   4   5
ATOM      5  C   UNL     1      30.745  12.438 -18.180  1.00  0.00     0.000 C 
BRANCH   5   6
ATOM      6  C   UNL     1      29.463  13.281 -18.324  1.00  0.00     0.000 C 
BRANCH   6   7
ATOM      7  C   UNL     1      29.262  14.385 -17.265  1.00  0.00     0.000 C 
BRANCH   7   8
ATOM      8  C   UNL     1      30.558  15.001 -16.708  1.00  0.00     0.000 C 
BRANCH   8   9
ATOM      9  C   UNL     1      30.556  15.105 -15.173  1.00  0.00     0.000 C 
BRANCH   9  10
ATOM     10  C   UNL     1      30.107  13.802 -14.492  1.00  0.00     0.000 C 
BRANCH  10  11
ATOM     11  C   UNL     1      28.856  13.983 -13.616  1.00  0.00     0.000 C 
BRANCH  11  12
ATOM     12  C   UNL     1      28.770  12.884 -12.550  1.00  0.00     0.006 C 
BRANCH  12  13
ATOM     13  C   UNL     1      27.687  13.172 -11.498  1.00  0.00     0.053 C 
BRANCH  13  14
ATOM     14  C   UNL     1      26.928  14.424 -11.805  1.00  0.00     0.041 C 
ATOM     15  O   UNL     1      25.797  14.362 -12.357  1.00  0.00    -0.550 OA
ATOM     16  O   UNL     1      27.457  15.660 -11.455  1.00  0.00    -0.550 OA
ENDBRANCH  13  14
ENDBRANCH  12  13
ENDBRANCH  11  12
ENDBRANCH  10  11
ENDBRANCH   9  10
ENDBRANCH   8   9
ENDBRANCH   7   8
ENDBRANCH   6   7
ENDBRANCH   5   6
ENDBRANCH   4   5
ENDBRANCH   3   4
ENDBRANCH   2   3
ENDBRANCH   1   2
BRANCH   1  17
ATOM     17  C   UNL     1      29.129   8.730 -13.495  1.00  0.00     0.000 C 
BRANCH  17  18
ATOM     18  C   UNL     1      29.619   7.265 -13.528  1.00  0.00     0.000 C 
BRANCH  18  19
ATOM     19  C   UNL     1      30.839   7.011 -14.445  1.00  0.00     0.000 C 
BRANCH  19  20
ATOM     20  C   UNL     1      30.536   6.294 -15.779  1.00  0.00     0.000 C 
BRANCH  20  21
ATOM     21  C   UNL     1      30.906   7.085 -17.050  1.00  0.00     0.000 C 
BRANCH  21  22
ATOM     22  C   UNL     1      29.718   7.440 -17.971  1.00  0.00    -0.000 C 
BRANCH  22  23
ATOM     23  C   UNL     1      28.342   7.394 -17.268  1.00  0.00    -0.000 C 
BRANCH  23  24
ATOM     24  C   UNL     1      27.201   6.779 -18.106  1.00  0.00    -0.000 C 
BRANCH  24  25
ATOM     25  C   UNL     1      27.644   5.772 -19.185  1.00  0.00    -0.000 C 
BRANCH  25  26
ATOM     26  C   UNL     1      27.403   4.312 -18.776  1.00  0.00    -0.000 C 
BRANCH  26  27
ATOM     27  C   UNL     1      28.607   3.746 -18.011  1.00  0.00    -0.000 C 
BRANCH  27  28
ATOM     28  C   UNL     1      28.153   3.002 -16.749  1.00  0.00    -0.000 C 
BRANCH  28  29
ATOM     29  C   UNL     1      27.041   3.770 -16.026  1.00  0.00    -0.003 C 
ATOM     30  C   UNL     1      27.561   4.443 -14.760  1.00  0.00     0.004 C 
ENDBRANCH  28  29
ENDBRANCH  27  28
ENDBRANCH  26  27
ENDBRANCH  25  26
ENDBRANCH  24  25
ENDBRANCH  23  24
ENDBRANCH  22  23
ENDBRANCH  21  22
ENDBRANCH  20  21
ENDBRANCH  19  20
ENDBRANCH  18  19
ENDBRANCH  17  18
ENDBRANCH   1  17
TORSDOF 26
ENDMDL
MODEL 8
REMARK VINA RESULT:    -3.953      4.025      8.264
REMARK INTER + INTRA:         -14.134
REMARK INTER:                 -10.247
REMARK INTRA:                  -3.887
REMARK UNBOUND:                -4.172
REMARK SMILES CCCCCCCCCCCCCCCCCCCCCCCCCCCC(=O)[O-]
REMARK SMILES IDX 15 1 16 2 17 3 18 4 19 5 20 6 21 7 22 8 23 9 24 10 25 11
REMARK SMILES IDX 26 12 27 13 28 14 29 15 30 16 14 17 13 18 12 19 11 20 10 21
REMARK SMILES IDX 9 22 8 23 7 24 6 25 5 26 4 27 3 28 2 29 1 30
REMARK H PARENT
REMARK Flexibility Score: inf
ROOT
ATOM      1  C   UNL     1      28.533  11.401 -10.916  1.00  0.00     0.000 C 
ENDROOT
BRANCH   1   2
ATOM      2  C   UNL     1      29.818  10.625 -10.569  1.00  0.00     0.000 C 
BRANCH   2   3
ATOM      3  C   UNL     1      29.785   9.180 -11.098  1.00  0.00     0.000 C 
BRANCH   3   4
ATOM      4  C   UNL     1      30.919   8.893 -12.100  1.00  0.00     0.000 C 
BRANCH   4   5
ATOM      5  C   UNL     1      30.402   8.439 -13.476  1.00  0.00     0.000 C 
BRANCH   5   6
ATOM      6  C   UNL     1      28.946   7.933 -13.492  1.00  0.00     0.000 C 
BRANCH   6   7
ATOM      7  C   UNL     1      28.767   6.407 -13.639  1.00  0.00     0.000 C 
BRANCH   7   8
ATOM      8  C   UNL     1      27.318   5.937 -13.856  1.00  0.00     0.000 C 
BRANCH   8   9
ATOM      9  C   UNL     1      27.234   4.589 -14.593  1.00  0.00     0.000 C 
BRANCH   9  10
ATOM     10  C   UNL     1      25.955   4.453 -15.436  1.00  0.00     0.000 C 
BRANCH  10  11
ATOM     11  C   UNL     1      24.675   4.743 -14.634  1.00  0.00     0.000 C 
BRANCH  11  12
ATOM     12  C   UNL     1      23.655   3.609 -14.804  1.00  0.00     0.006 C 
BRANCH  12  13
ATOM     13  C   UNL     1      24.233   2.240 -14.412  1.00  0.00     0.053 C 
BRANCH  13  14
ATOM     14  C   UNL     1      24.263   2.049 -12.928  1.00  0.00     0.041 C 
ATOM     15  O   UNL     1      23.269   2.376 -12.226  1.00  0.00    -0.550 OA
ATOM     16  O   UNL     1      25.378   1.481 -12.324  1.00  0.00    -0.550 OA
ENDBRANCH  13  14
ENDBRANCH  12  13
ENDBRANCH  11  12
ENDBRANCH  10  11
ENDBRANCH   9  10
ENDBRANCH   8   9
ENDBRANCH   7   8
ENDBRANCH   6   7
ENDBRANCH   5   6
ENDBRANCH   4   5
ENDBRANCH   3   4
ENDBRANCH   2   3
ENDBRANCH   1   2
BRANCH   1  17
ATOM     17  C   UNL     1      28.691  12.316 -12.147  1.00  0.00     0.000 C 
BRANCH  17  18
ATOM     18  C   UNL     1      30.134  12.484 -12.673  1.00  0.00     0.000 C 
BRANCH  18  19
ATOM     19  C   UNL     1      30.306  12.218 -14.188  1.00  0.00     0.000 C 
BRANCH  19  20
ATOM     20  C   UNL     1      29.098  11.563 -14.894  1.00  0.00     0.000 C 
BRANCH  20  21
ATOM     21  C   UNL     1      28.403  12.439 -15.956  1.00  0.00     0.000 C 
BRANCH  21  22
ATOM     22  C   UNL     1      29.289  13.539 -16.580  1.00  0.00    -0.000 C 
BRANCH  22  23
ATOM     23  C   UNL     1      29.802  13.204 -17.999  1.00  0.00    -0.000 C 
BRANCH  23  24
ATOM     24  C   UNL     1      30.999  12.232 -18.048  1.00  0.00    -0.000 C 
BRANCH  24  25
ATOM     25  C   UNL     1      30.718  10.872 -18.716  1.00  0.00    -0.000 C 
BRANCH  25  26
ATOM     26  C   UNL     1      30.345   9.776 -17.707  1.00  0.00    -0.000 C 
BRANCH  26  27
ATOM     27  C   UNL     1      30.346   8.392 -18.368  1.00  0.00    -0.000 C 
BRANCH  27  28
ATOM     28  C   UNL     1      30.653   7.294 -17.342  1.00  0.00    -0.000 C 
BRANCH  28  29
ATOM     29  C   UNL     1      29.496   6.294 -17.242  1.00  0.00    -0.003 C 
ATOM     30  C   UNL     1      28.156   6.963 -17.536  1.00  0.00     0.004 C 
ENDBRANCH  28  29
ENDBRANCH  27  28
ENDBRANCH  26  27
ENDBRANCH  25  26
ENDBRANCH  24  25
ENDBRANCH  23  24
ENDBRANCH  22  23
ENDBRANCH  21  22
ENDBRANCH  20  21
ENDBRANCH  19  20
ENDBRANCH  18  19
ENDBRANCH  17  18
ENDBRANCH   1  17
TORSDOF 26
ENDMDL
MODEL 9
REMARK VINA RESULT:    -3.951      3.305      7.078
REMARK INTER + INTRA:         -14.128
REMARK INTER:                 -10.546
REMARK INTRA:                  -3.581
REMARK UNBOUND:                -4.172
REMARK SMILES CCCCCCCCCCCCCCCCCCCCCCCCCCCC(=O)[O-]
REMARK SMILES IDX 15 1 16 2 17 3 18 4 19 5 20 6 21 7 22 8 23 9 24 10 25 11
REMARK SMILES IDX 26 12 27 13 28 14 29 15 30 16 14 17 13 18 12 19 11 20 10 21
REMARK SMILES IDX 9 22 8 23 7 24 6 25 5 26 4 27 3 28 2 29 1 30
REMARK H PARENT
REMARK Flexibility Score: inf
ROOT
ATOM      1  C   UNL     1      27.781  13.612 -13.127  1.00  0.00     0.000 C 
ENDROOT
BRANCH   1   2
ATOM      2  C   UNL     1      28.102  13.549 -11.622  1.00  0.00     0.000 C 
BRANCH   2   3
ATOM      3  C   UNL     1      29.164  12.482 -11.299  1.00  0.00     0.000 C 
BRANCH   3   4
ATOM      4  C   UNL     1      28.551  11.088 -11.073  1.00  0.00     0.000 C 
BRANCH   4   5
ATOM      5  C   UNL     1      29.564  10.070 -10.521  1.00  0.00     0.000 C 
BRANCH   5   6
ATOM      6  C   UNL     1      29.917   8.915 -11.478  1.00  0.00     0.000 C 
BRANCH   6   7
ATOM      7  C   UNL     1      29.506   9.116 -12.953  1.00  0.00     0.000 C 
BRANCH   7   8
ATOM      8  C   UNL     1      28.683   7.967 -13.564  1.00  0.00     0.000 C 
BRANCH   8   9
ATOM      9  C   UNL     1      29.421   6.618 -13.518  1.00  0.00     0.000 C 
BRANCH   9  10
ATOM     10  C   UNL     1      28.531   5.441 -13.953  1.00  0.00     0.000 C 
BRANCH  10  11
ATOM     11  C   UNL     1      27.086   5.563 -13.443  1.00  0.00     0.000 C 
BRANCH  11  12
ATOM     12  C   UNL     1      26.120   4.783 -14.345  1.00  0.00     0.006 C 
BRANCH  12  13
ATOM     13  C   UNL     1      25.266   5.710 -15.226  1.00  0.00     0.053 C 
BRANCH  13  14
ATOM     14  C   UNL     1      23.849   5.240 -15.322  1.00  0.00     0.041 C 
ATOM     15  O   UNL     1      23.586   4.116 -15.828  1.00  0.00    -0.550 OA
ATOM     16  O   UNL     1      22.820   6.031 -14.826  1.00  0.00    -0.550 OA
ENDBRANCH  13  14
ENDBRANCH  12  13
ENDBRANCH  11  12
ENDBRANCH  10  11
ENDBRANCH   9  10
ENDBRANCH   8   9
ENDBRANCH   7   8
ENDBRANCH   6   7
ENDBRANCH   5   6
ENDBRANCH   4   5
ENDBRANCH   3   4
ENDBRANCH   2   3
ENDBRANCH   1   2
BRANCH   1  17
ATOM     17  C   UNL     1      29.015  13.382 -14.021  1.00  0.00     0.000 C 
BRANCH  17  18
ATOM     18  C   UNL     1      28.884  12.246 -15.061  1.00  0.00     0.000 C 
BRANCH  18  19
ATOM     19  C   UNL     1      28.526  12.716 -16.491  1.00  0.00     0.000 C 
BRANCH  19  20
ATOM     20  C   UNL     1      29.632  13.495 -17.236  1.00  0.00     0.000 C 
BRANCH  20  21
ATOM     21  C   UNL     1      30.817  12.643 -17.732  1.00  0.00     0.000 C 
BRANCH  21  22
ATOM     22  C   UNL     1      30.427  11.351 -18.483  1.00  0.00    -0.000 C 
BRANCH  22  23
ATOM     23  C   UNL     1      30.935  10.055 -17.811  1.00  0.00    -0.000 C 
BRANCH  23  24
ATOM     24  C   UNL     1      29.883   9.298 -16.973  1.00  0.00    -0.000 C 
BRANCH  24  25
ATOM     25  C   UNL     1      29.876   7.767 -17.149  1.00  0.00    -0.000 C 
BRANCH  25  26
ATOM     26  C   UNL     1      28.494   7.215 -17.526  1.00  0.00    -0.000 C 
BRANCH  26  27
ATOM     27  C   UNL     1      28.512   5.682 -17.598  1.00  0.00    -0.000 C 
BRANCH  27  28
ATOM     28  C   UNL     1      27.473   5.168 -18.602  1.00  0.00    -0.000 C 
BRANCH  28  29
ATOM     29  C   UNL     1      26.639   4.032 -17.999  1.00  0.00    -0.003 C 
ATOM     30  C   UNL     1      27.346   2.688 -18.139  1.00  0.00     0.004 C 
ENDBRANCH  28  29
ENDBRANCH  27  28
ENDBRANCH  26  27
ENDBRANCH  25  26
ENDBRANCH  24  25
ENDBRANCH  23  24
ENDBRANCH  22  23
ENDBRANCH  21  22
ENDBRANCH  20  21
ENDBRANCH  19  20
ENDBRANCH  18  19
ENDBRANCH  17  18
ENDBRANCH   1  17
TORSDOF 26
ENDMDL
