MODEL 1
REMARK VINA RESULT:    -5.994      0.000      0.000
REMARK INTER + INTRA:          -6.440
REMARK INTER:                  -6.344
REMARK INTRA:                  -0.096
REMARK UNBOUND:                -0.096
REMARK SMILES C=C(C)[C@@H]1CC=C(C)C(=O)C1
REMARK SMILES IDX 8 1 7 2 6 3 5 4 4 5 11 6 9 7 10 8 2 9 1 10 3 11
REMARK H PARENT
REMARK Flexibility Score: inf
ROOT
ATOM      1  C   UNL     1      -8.279  35.240  26.084  1.00  0.00     0.048 C 
ATOM      2  C   UNL     1      -8.160  34.508  24.775  1.00  0.00    -0.012 C 
ATOM      3  C   UNL     1      -8.049  35.201  23.629  1.00  0.00    -0.019 C 
ATOM      4  C   UNL     1      -7.909  34.518  22.295  1.00  0.00     0.036 C 
ATOM      5  C   UNL     1      -8.672  33.179  22.273  1.00  0.00     0.025 C 
ATOM      6  C   UNL     1      -8.211  32.283  23.439  1.00  0.00     0.089 C 
ATOM      7  C   UNL     1      -8.289  33.030  24.742  1.00  0.00     0.158 C 
ATOM      8  O   UNL     1      -8.429  32.381  25.813  1.00  0.00    -0.295 OA
ENDROOT
BRANCH   5   9
ATOM      9  C   UNL     1      -8.531  32.472  20.932  1.00  0.00    -0.077 C 
ATOM     10  C   UNL     1      -7.561  32.806  20.064  1.00  0.00     0.008 C 
ATOM     11  C   UNL     1      -9.490  31.374  20.552  1.00  0.00     0.039 C 
ENDBRANCH   5   9
TORSDOF 1
ENDMDL
MODEL 2
REMARK VINA RESULT:    -5.987      1.621      4.259
REMARK INTER + INTRA:          -6.432
REMARK INTER:                  -6.336
REMARK INTRA:                  -0.096
REMARK UNBOUND:                -0.096
REMARK SMILES C=C(C)[C@@H]1CC=C(C)C(=O)C1
REMARK SMILES IDX 8 1 7 2 6 3 5 4 4 5 11 6 9 7 10 8 2 9 1 10 3 11
REMARK H PARENT
REMARK Flexibility Score: inf
ROOT
ATOM      1  C   UNL     1      -7.334  32.898  19.852  1.00  0.00     0.048 C 
ATOM      2  C   UNL     1      -7.757  33.290  21.242  1.00  0.00    -0.012 C 
ATOM      3  C   UNL     1      -7.703  34.579  21.618  1.00  0.00    -0.019 C 
ATOM      4  C   UNL     1      -8.130  35.027  22.990  1.00  0.00     0.036 C 
ATOM      5  C   UNL     1      -7.841  33.942  24.045  1.00  0.00     0.025 C 
ATOM      6  C   UNL     1      -8.499  32.610  23.635  1.00  0.00     0.089 C 
ATOM      7  C   UNL     1      -8.112  32.240  22.229  1.00  0.00     0.158 C 
ATOM      8  O   UNL     1      -8.128  31.027  21.888  1.00  0.00    -0.295 OA
ENDROOT
BRANCH   5   9
ATOM      9  C   UNL     1      -8.278  34.379  25.437  1.00  0.00    -0.077 C 
ATOM     10  C   UNL     1      -8.512  35.670  25.723  1.00  0.00     0.008 C 
ATOM     11  C   UNL     1      -8.454  33.356  26.529  1.00  0.00     0.039 C 
ENDBRANCH   5   9
TORSDOF 1
ENDMDL
MODEL 3
REMARK VINA RESULT:    -5.741      2.062      3.253
REMARK INTER + INTRA:          -6.172
REMARK INTER:                  -6.079
REMARK INTRA:                  -0.093
REMARK UNBOUND:                -0.096
REMARK SMILES C=C(C)[C@@H]1CC=C(C)C(=O)C1
REMARK SMILES IDX 8 1 7 2 6 3 5 4 4 5 11 6 9 7 10 8 2 9 1 10 3 11
REMARK H PARENT
REMARK Flexibility Score: inf
ROOT
ATOM      1  C   UNL     1      -7.520  29.817  26.424  1.00  0.00     0.048 C 
ATOM      2  C   UNL     1      -7.892  30.317  25.055  1.00  0.00    -0.012 C 
ATOM      3  C   UNL     1      -7.379  29.722  23.964  1.00  0.00    -0.019 C 
ATOM      4  C   UNL     1      -7.732  30.171  22.571  1.00  0.00     0.036 C 
ATOM      5  C   UNL     1      -7.994  31.688  22.525  1.00  0.00     0.025 C 
ATOM      6  C   UNL     1      -9.074  32.075  23.554  1.00  0.00     0.089 C 
ATOM      7  C   UNL     1      -8.723  31.539  24.915  1.00  0.00     0.158 C 
ATOM      8  O   UNL     1      -9.176  32.118  25.938  1.00  0.00    -0.295 OA
ENDROOT
BRANCH   5   9
ATOM      9  C   UNL     1      -8.362  32.154  21.123  1.00  0.00    -0.077 C 
ATOM     10  C   UNL     1      -9.450  31.681  20.491  1.00  0.00     0.008 C 
ATOM     11  C   UNL     1      -7.501  33.166  20.412  1.00  0.00     0.039 C 
ENDBRANCH   5   9
TORSDOF 1
ENDMDL
MODEL 4
REMARK VINA RESULT:    -5.728      1.530      2.175
REMARK INTER + INTRA:          -6.159
REMARK INTER:                  -6.070
REMARK INTRA:                  -0.089
REMARK UNBOUND:                -0.096
REMARK SMILES C=C(C)[C@@H]1CC=C(C)C(=O)C1
REMARK SMILES IDX 8 1 7 2 6 3 5 4 4 5 11 6 9 7 10 8 2 9 1 10 3 11
REMARK H PARENT
REMARK Flexibility Score: inf
ROOT
ATOM      1  C   UNL     1      -8.638  35.693  25.456  1.00  0.00     0.048 C 
ATOM      2  C   UNL     1      -8.300  34.358  24.851  1.00  0.00    -0.012 C 
ATOM      3  C   UNL     1      -7.907  34.285  23.568  1.00  0.00    -0.019 C 
ATOM      4  C   UNL     1      -7.539  32.977  22.919  1.00  0.00     0.036 C 
ATOM      5  C   UNL     1      -8.369  31.816  23.500  1.00  0.00     0.025 C 
ATOM      6  C   UNL     1      -8.222  31.769  25.033  1.00  0.00     0.089 C 
ATOM      7  C   UNL     1      -8.518  33.116  25.634  1.00  0.00     0.158 C 
ATOM      8  O   UNL     1      -8.920  33.180  26.826  1.00  0.00    -0.295 OA
ENDROOT
BRANCH   5   9
ATOM      9  C   UNL     1      -8.001  30.485  22.859  1.00  0.00    -0.077 C 
ATOM     10  C   UNL     1      -8.745  29.952  21.875  1.00  0.00     0.008 C 
ATOM     11  C   UNL     1      -6.780  29.734  23.325  1.00  0.00     0.039 C 
ENDBRANCH   5   9
TORSDOF 1
ENDMDL
MODEL 5
REMARK VINA RESULT:    -5.692      2.022      2.841
REMARK INTER + INTRA:          -6.120
REMARK INTER:                  -6.031
REMARK INTRA:                  -0.089
REMARK UNBOUND:                -0.096
REMARK SMILES C=C(C)[C@@H]1CC=C(C)C(=O)C1
REMARK SMILES IDX 8 1 7 2 6 3 5 4 4 5 11 6 9 7 10 8 2 9 1 10 3 11
REMARK H PARENT
REMARK Flexibility Score: inf
ROOT
ATOM      1  C   UNL     1      -8.620  35.831  24.959  1.00  0.00     0.048 C 
ATOM      2  C   UNL     1      -8.547  34.434  24.407  1.00  0.00    -0.012 C 
ATOM      3  C   UNL     1      -8.619  33.382  25.240  1.00  0.00    -0.019 C 
ATOM      4  C   UNL     1      -8.570  31.963  24.738  1.00  0.00     0.036 C 
ATOM      5  C   UNL     1      -7.681  31.848  23.484  1.00  0.00     0.025 C 
ATOM      6  C   UNL     1      -8.157  32.834  22.401  1.00  0.00     0.089 C 
ATOM      7  C   UNL     1      -8.272  34.224  22.964  1.00  0.00     0.158 C 
ATOM      8  O   UNL     1      -8.169  35.211  22.187  1.00  0.00    -0.295 OA
ENDROOT
BRANCH   5   9
ATOM      9  C   UNL     1      -7.629  30.420  22.960  1.00  0.00    -0.077 C 
ATOM     10  C   UNL     1      -6.690  29.554  23.379  1.00  0.00     0.008 C 
ATOM     11  C   UNL     1      -8.643  29.948  21.950  1.00  0.00     0.039 C 
ENDBRANCH   5   9
TORSDOF 1
ENDMDL
MODEL 6
REMARK VINA RESULT:    -5.587      1.380      2.116
REMARK INTER + INTRA:          -6.009
REMARK INTER:                  -5.914
REMARK INTRA:                  -0.095
REMARK UNBOUND:                -0.096
REMARK SMILES C=C(C)[C@@H]1CC=C(C)C(=O)C1
REMARK SMILES IDX 8 1 7 2 6 3 5 4 4 5 11 6 9 7 10 8 2 9 1 10 3 11
REMARK H PARENT
REMARK Flexibility Score: inf
ROOT
ATOM      1  C   UNL     1      -8.228  32.961  27.122  1.00  0.00     0.048 C 
ATOM      2  C   UNL     1      -8.425  32.956  25.631  1.00  0.00    -0.012 C 
ATOM      3  C   UNL     1      -8.723  31.807  25.000  1.00  0.00    -0.019 C 
ATOM      4  C   UNL     1      -8.948  31.750  23.512  1.00  0.00     0.036 C 
ATOM      5  C   UNL     1      -8.076  32.787  22.778  1.00  0.00     0.025 C 
ATOM      6  C   UNL     1      -8.324  34.195  23.352  1.00  0.00     0.089 C 
ATOM      7  C   UNL     1      -8.169  34.191  24.848  1.00  0.00     0.158 C 
ATOM      8  O   UNL     1      -7.856  35.261  25.434  1.00  0.00    -0.295 OA
ENDROOT
BRANCH   5   9
ATOM      9  C   UNL     1      -8.300  32.746  21.272  1.00  0.00    -0.077 C 
ATOM     10  C   UNL     1      -7.568  33.500  20.435  1.00  0.00     0.008 C 
ATOM     11  C   UNL     1      -9.361  31.848  20.690  1.00  0.00     0.039 C 
ENDBRANCH   5   9
TORSDOF 1
ENDMDL
MODEL 7
REMARK VINA RESULT:    -5.484      2.550      3.894
REMARK INTER + INTRA:          -5.900
REMARK INTER:                  -5.803
REMARK INTRA:                  -0.097
REMARK UNBOUND:                -0.096
REMARK SMILES C=C(C)[C@@H]1CC=C(C)C(=O)C1
REMARK SMILES IDX 8 1 7 2 6 3 5 4 4 5 11 6 9 7 10 8 2 9 1 10 3 11
REMARK H PARENT
REMARK Flexibility Score: inf
ROOT
ATOM      1  C   UNL     1      -7.535  35.186  21.558  1.00  0.00     0.048 C 
ATOM      2  C   UNL     1      -7.859  33.840  22.145  1.00  0.00    -0.012 C 
ATOM      3  C   UNL     1      -8.038  33.714  23.471  1.00  0.00    -0.019 C 
ATOM      4  C   UNL     1      -8.381  32.393  24.108  1.00  0.00     0.036 C 
ATOM      5  C   UNL     1      -7.738  31.222  23.339  1.00  0.00     0.025 C 
ATOM      6  C   UNL     1      -8.140  31.276  21.853  1.00  0.00     0.089 C 
ATOM      7  C   UNL     1      -7.857  32.636  21.277  1.00  0.00     0.158 C 
ATOM      8  O   UNL     1      -7.655  32.747  20.038  1.00  0.00    -0.295 OA
ENDROOT
BRANCH   5   9
ATOM      9  C   UNL     1      -8.085  29.879  23.967  1.00  0.00    -0.077 C 
ATOM     10  C   UNL     1      -8.596  28.875  23.234  1.00  0.00     0.008 C 
ATOM     11  C   UNL     1      -7.859  29.652  25.440  1.00  0.00     0.039 C 
ENDBRANCH   5   9
TORSDOF 1
ENDMDL
MODEL 8
REMARK VINA RESULT:    -5.456      1.835      2.869
REMARK INTER + INTRA:          -5.871
REMARK INTER:                  -5.775
REMARK INTRA:                  -0.096
REMARK UNBOUND:                -0.096
REMARK SMILES C=C(C)[C@@H]1CC=C(C)C(=O)C1
REMARK SMILES IDX 8 1 7 2 6 3 5 4 4 5 11 6 9 7 10 8 2 9 1 10 3 11
REMARK H PARENT
REMARK Flexibility Score: inf
ROOT
ATOM      1  C   UNL     1      -8.896  30.308  26.498  1.00  0.00     0.048 C 
ATOM      2  C   UNL     1      -8.461  31.130  25.316  1.00  0.00    -0.012 C 
ATOM      3  C   UNL     1      -8.594  32.467  25.347  1.00  0.00    -0.019 C 
ATOM      4  C   UNL     1      -8.157  33.339  24.199  1.00  0.00     0.036 C 
ATOM      5  C   UNL     1      -8.337  32.613  22.852  1.00  0.00     0.025 C 
ATOM      6  C   UNL     1      -7.600  31.261  22.871  1.00  0.00     0.089 C 
ATOM      7  C   UNL     1      -8.003  30.456  24.076  1.00  0.00     0.158 C 
ATOM      8  O   UNL     1      -7.911  29.200  24.033  1.00  0.00    -0.295 OA
ENDROOT
BRANCH   5   9
ATOM      9  C   UNL     1      -7.891  33.480  21.682  1.00  0.00    -0.077 C 
ATOM     10  C   UNL     1      -7.736  34.809  21.815  1.00  0.00     0.008 C 
ATOM     11  C   UNL     1      -7.613  32.854  20.340  1.00  0.00     0.039 C 
ENDBRANCH   5   9
TORSDOF 1
ENDMDL
MODEL 9
REMARK VINA RESULT:    -5.399      2.056      4.585
REMARK INTER + INTRA:          -5.810
REMARK INTER:                  -5.712
REMARK INTRA:                  -0.098
REMARK UNBOUND:                -0.096
REMARK SMILES C=C(C)[C@@H]1CC=C(C)C(=O)C1
REMARK SMILES IDX 8 1 7 2 6 3 5 4 4 5 11 6 9 7 10 8 2 9 1 10 3 11
REMARK H PARENT
REMARK Flexibility Score: inf
ROOT
ATOM      1  C   UNL     1      -7.954  32.632  20.007  1.00  0.00     0.048 C 
ATOM      2  C   UNL     1      -7.877  32.383  21.488  1.00  0.00    -0.012 C 
ATOM      3  C   UNL     1      -7.809  31.124  21.952  1.00  0.00    -0.019 C 
ATOM      4  C   UNL     1      -7.711  30.820  23.424  1.00  0.00     0.036 C 
ATOM      5  C   UNL     1      -8.469  31.870  24.259  1.00  0.00     0.025 C 
ATOM      6  C   UNL     1      -7.964  33.286  23.920  1.00  0.00     0.089 C 
ATOM      7  C   UNL     1      -8.001  33.520  22.435  1.00  0.00     0.158 C 
ATOM      8  O   UNL     1      -8.101  34.699  22.002  1.00  0.00    -0.295 OA
ENDROOT
BRANCH   5   9
ATOM      9  C   UNL     1      -8.371  31.581  25.750  1.00  0.00    -0.077 C 
ATOM     10  C   UNL     1      -8.661  32.521  26.666  1.00  0.00     0.008 C 
ATOM     11  C   UNL     1      -7.941  30.218  26.229  1.00  0.00     0.039 C 
ENDBRANCH   5   9
TORSDOF 1
ENDMDL
