MODEL 1
REMARK VINA RESULT:    -5.571      0.000      0.000
REMARK INTER + INTRA:          -7.643
REMARK INTER:                  -7.036
REMARK INTRA:                  -0.606
REMARK UNBOUND:                -0.606
REMARK SMILES O=C(C=Cc1ccc(O)cc1)c1ccc(O)cc1O
REMARK SMILES IDX 4 1 3 2 5 3 6 4 7 5 8 6 11 7 10 8 9 9 2 11 1 12 12 13 18 14
REMARK SMILES IDX 13 15 17 16 14 17 15 18 19 19 16 21
REMARK H PARENT 9 10 19 20 16 22
REMARK Flexibility Score: inf
ROOT
ATOM      1  C   UNL     1      26.820  -9.538  29.286  1.00  0.00     0.012 C 
ATOM      2  C   UNL     1      27.461  -9.500  30.464  1.00  0.00     0.053 C 
ENDROOT
BRANCH   1   3
ATOM      3  C   UNL     1      25.420  -9.082  29.097  1.00  0.00    -0.025 A 
ATOM      4  C   UNL     1      24.850  -8.237  30.064  1.00  0.00     0.012 A 
ATOM      5  C   UNL     1      23.532  -7.791  29.932  1.00  0.00     0.047 A 
ATOM      6  C   UNL     1      22.760  -8.193  28.836  1.00  0.00     0.115 A 
ATOM      7  C   UNL     1      24.630  -9.494  28.003  1.00  0.00     0.012 A 
ATOM      8  C   UNL     1      23.311  -9.046  27.875  1.00  0.00     0.047 A 
BRANCH   6   9
ATOM      9  O   UNL     1      21.446  -7.754  28.692  1.00  0.00    -0.508 OA
ATOM     10  H   UNL     1      21.211  -6.972  28.092  1.00  0.00     0.293 HD
ENDBRANCH   6   9
ENDBRANCH   1   3
BRANCH   2  11
ATOM     11  C   UNL     1      28.853  -9.976  30.617  1.00  0.00     0.189 C 
ATOM     12  O   UNL     1      29.261 -10.970  29.956  1.00  0.00    -0.289 OA
BRANCH  11  13
ATOM     13  C   UNL     1      29.788  -9.272  31.523  1.00  0.00     0.064 A 
ATOM     14  C   UNL     1      31.004  -9.861  31.949  1.00  0.00     0.130 A 
ATOM     15  C   UNL     1      29.479  -7.965  31.943  1.00  0.00     0.020 A 
ATOM     16  C   UNL     1      31.889  -9.125  32.747  1.00  0.00     0.093 A 
ATOM     17  C   UNL     1      30.364  -7.248  32.750  1.00  0.00     0.047 A 
ATOM     18  C   UNL     1      31.572  -7.822  33.150  1.00  0.00     0.119 A 
BRANCH  14  19
ATOM     19  O   UNL     1      31.350 -11.174  31.625  1.00  0.00    -0.507 OA
ATOM     20  H   UNL     1      32.043 -11.707  32.135  1.00  0.00     0.293 HD
ENDBRANCH  14  19
BRANCH  18  21
ATOM     21  O   UNL     1      32.449  -7.093  33.949  1.00  0.00    -0.508 OA
ATOM     22  H   UNL     1      32.117  -6.380  34.587  1.00  0.00     0.293 HD
ENDBRANCH  18  21
ENDBRANCH  11  13
ENDBRANCH   2  11
TORSDOF 6
ENDMDL
MODEL 2
REMARK VINA RESULT:    -5.156      2.368      7.414
REMARK INTER + INTRA:          -7.119
REMARK INTER:                  -6.441
REMARK INTRA:                  -0.678
REMARK UNBOUND:                -0.606
REMARK SMILES O=C(C=Cc1ccc(O)cc1)c1ccc(O)cc1O
REMARK SMILES IDX 4 1 3 2 5 3 6 4 7 5 8 6 11 7 10 8 9 9 2 11 1 12 12 13 18 14
REMARK SMILES IDX 13 15 17 16 14 17 15 18 19 19 16 21
REMARK H PARENT 9 10 19 20 16 22
REMARK Flexibility Score: inf
ROOT
ATOM      1  C   UNL     1      29.389  -9.826  31.584  1.00  0.00     0.012 C 
ATOM      2  C   UNL     1      28.511 -10.490  30.818  1.00  0.00     0.053 C 
ENDROOT
BRANCH   1   3
ATOM      3  C   UNL     1      30.778  -9.514  31.164  1.00  0.00    -0.025 A 
ATOM      4  C   UNL     1      31.627 -10.575  30.806  1.00  0.00     0.012 A 
ATOM      5  C   UNL     1      32.946 -10.330  30.413  1.00  0.00     0.047 A 
ATOM      6  C   UNL     1      33.439  -9.020  30.382  1.00  0.00     0.115 A 
ATOM      7  C   UNL     1      31.287  -8.199  31.143  1.00  0.00     0.012 A 
ATOM      8  C   UNL     1      32.608  -7.958  30.750  1.00  0.00     0.047 A 
BRANCH   6   9
ATOM      9  O   UNL     1      34.751  -8.763  29.990  1.00  0.00    -0.508 OA
ATOM     10  H   UNL     1      34.974  -8.011  29.348  1.00  0.00     0.293 HD
ENDBRANCH   6   9
ENDBRANCH   1   3
BRANCH   2  11
ATOM     11  C   UNL     1      27.139 -10.794  31.277  1.00  0.00     0.189 C 
ATOM     12  O   UNL     1      26.912 -11.833  31.955  1.00  0.00    -0.289 OA
BRANCH  11  13
ATOM     13  C   UNL     1      26.027  -9.867  30.973  1.00  0.00     0.064 A 
ATOM     14  C   UNL     1      25.093  -9.467  31.961  1.00  0.00     0.130 A 
ATOM     15  C   UNL     1      25.915  -9.336  29.675  1.00  0.00     0.020 A 
ATOM     16  C   UNL     1      24.102  -8.530  31.642  1.00  0.00     0.093 A 
ATOM     17  C   UNL     1      24.913  -8.413  29.367  1.00  0.00     0.047 A 
ATOM     18  C   UNL     1      24.008  -8.004  30.348  1.00  0.00     0.119 A 
BRANCH  14  19
ATOM     19  O   UNL     1      25.102  -9.997  33.253  1.00  0.00    -0.507 OA
ATOM     20  H   UNL     1      24.270 -10.335  33.720  1.00  0.00     0.293 HD
ENDBRANCH  14  19
BRANCH  18  21
ATOM     21  O   UNL     1      23.019  -7.077  30.028  1.00  0.00    -0.508 OA
ATOM     22  H   UNL     1      22.512  -6.575  30.747  1.00  0.00     0.293 HD
ENDBRANCH  18  21
ENDBRANCH  11  13
ENDBRANCH   2  11
TORSDOF 6
ENDMDL
MODEL 3
REMARK VINA RESULT:    -5.115      1.485      7.366
REMARK INTER + INTRA:          -7.067
REMARK INTER:                  -6.365
REMARK INTRA:                  -0.702
REMARK UNBOUND:                -0.606
REMARK SMILES O=C(C=Cc1ccc(O)cc1)c1ccc(O)cc1O
REMARK SMILES IDX 4 1 3 2 5 3 6 4 7 5 8 6 11 7 10 8 9 9 2 11 1 12 12 13 18 14
REMARK SMILES IDX 13 15 17 16 14 17 15 18 19 19 16 21
REMARK H PARENT 9 10 19 20 16 22
REMARK Flexibility Score: inf
ROOT
ATOM      1  C   UNL     1      29.285  -8.765  31.280  1.00  0.00     0.012 C 
ATOM      2  C   UNL     1      28.819 -10.023  31.296  1.00  0.00     0.053 C 
ENDROOT
BRANCH   1   3
ATOM      3  C   UNL     1      30.329  -8.262  32.208  1.00  0.00    -0.025 A 
ATOM      4  C   UNL     1      30.458  -6.875  32.387  1.00  0.00     0.012 A 
ATOM      5  C   UNL     1      31.434  -6.356  33.243  1.00  0.00     0.047 A 
ATOM      6  C   UNL     1      32.301  -7.217  33.925  1.00  0.00     0.115 A 
ATOM      7  C   UNL     1      31.217  -9.122  32.888  1.00  0.00     0.012 A 
ATOM      8  C   UNL     1      32.192  -8.598  33.743  1.00  0.00     0.047 A 
BRANCH   6   9
ATOM      9  O   UNL     1      33.276  -6.712  34.782  1.00  0.00    -0.508 OA
ATOM     10  H   UNL     1      34.260  -6.737  34.539  1.00  0.00     0.293 HD
ENDBRANCH   6   9
ENDBRANCH   1   3
BRANCH   2  11
ATOM     11  C   UNL     1      27.768 -10.484  30.364  1.00  0.00     0.189 C 
ATOM     12  O   UNL     1      27.977 -11.473  29.610  1.00  0.00    -0.289 OA
BRANCH  11  13
ATOM     13  C   UNL     1      26.451  -9.809  30.330  1.00  0.00     0.064 A 
ATOM     14  C   UNL     1      25.831  -9.440  29.111  1.00  0.00     0.130 A 
ATOM     15  C   UNL     1      25.778  -9.562  31.540  1.00  0.00     0.020 A 
ATOM     16  C   UNL     1      24.551  -8.870  29.128  1.00  0.00     0.093 A 
ATOM     17  C   UNL     1      24.509  -8.980  31.543  1.00  0.00     0.047 A 
ATOM     18  C   UNL     1      23.890  -8.638  30.340  1.00  0.00     0.119 A 
BRANCH  14  19
ATOM     19  O   UNL     1      26.462  -9.596  27.875  1.00  0.00    -0.507 OA
ATOM     20  H   UNL     1      27.428  -9.348  27.710  1.00  0.00     0.293 HD
ENDBRANCH  14  19
BRANCH  18  21
ATOM     21  O   UNL     1      22.620  -8.065  30.358  1.00  0.00    -0.508 OA
ATOM     22  H   UNL     1      21.865  -8.468  30.900  1.00  0.00     0.293 HD
ENDBRANCH  18  21
ENDBRANCH  11  13
ENDBRANCH   2  11
TORSDOF 6
ENDMDL
MODEL 4
REMARK VINA RESULT:    -5.061      1.568      7.201
REMARK INTER + INTRA:          -6.999
REMARK INTER:                  -6.398
REMARK INTRA:                  -0.601
REMARK UNBOUND:                -0.606
REMARK SMILES O=C(C=Cc1ccc(O)cc1)c1ccc(O)cc1O
REMARK SMILES IDX 4 1 3 2 5 3 6 4 7 5 8 6 11 7 10 8 9 9 2 11 1 12 12 13 18 14
REMARK SMILES IDX 13 15 17 16 14 17 15 18 19 19 16 21
REMARK H PARENT 9 10 19 20 16 22
REMARK Flexibility Score: inf
ROOT
ATOM      1  C   UNL     1      29.403  -9.007  31.240  1.00  0.00     0.012 C 
ATOM      2  C   UNL     1      29.535 -10.273  30.817  1.00  0.00     0.053 C 
ENDROOT
BRANCH   1   3
ATOM      3  C   UNL     1      30.363  -8.340  32.153  1.00  0.00    -0.025 A 
ATOM      4  C   UNL     1      31.234  -9.138  32.914  1.00  0.00     0.012 A 
ATOM      5  C   UNL     1      32.148  -8.553  33.795  1.00  0.00     0.047 A 
ATOM      6  C   UNL     1      32.199  -7.161  33.935  1.00  0.00     0.115 A 
ATOM      7  C   UNL     1      30.411  -6.939  32.311  1.00  0.00     0.012 A 
ATOM      8  C   UNL     1      31.327  -6.358  33.194  1.00  0.00     0.047 A 
BRANCH   6   9
ATOM      9  O   UNL     1      33.107  -6.567  34.808  1.00  0.00    -0.508 OA
ATOM     10  H   UNL     1      33.158  -5.560  34.914  1.00  0.00     0.293 HD
ENDBRANCH   6   9
ENDBRANCH   1   3
BRANCH   2  11
ATOM     11  C   UNL     1      28.549 -10.910  29.917  1.00  0.00     0.189 C 
ATOM     12  O   UNL     1      28.898 -11.857  29.160  1.00  0.00    -0.289 OA
BRANCH  11  13
ATOM     13  C   UNL     1      27.139 -10.462  29.918  1.00  0.00     0.064 A 
ATOM     14  C   UNL     1      26.232 -10.848  30.936  1.00  0.00     0.130 A 
ATOM     15  C   UNL     1      26.695  -9.597  28.901  1.00  0.00     0.020 A 
ATOM     16  C   UNL     1      24.926 -10.339  30.932  1.00  0.00     0.093 A 
ATOM     17  C   UNL     1      25.387  -9.107  28.903  1.00  0.00     0.047 A 
ATOM     18  C   UNL     1      24.502  -9.471  29.919  1.00  0.00     0.119 A 
BRANCH  14  19
ATOM     19  O   UNL     1      26.580 -11.752  31.941  1.00  0.00    -0.507 OA
ATOM     20  H   UNL     1      27.416 -12.321  31.912  1.00  0.00     0.293 HD
ENDBRANCH  14  19
BRANCH  18  21
ATOM     21  O   UNL     1      23.203  -8.970  29.912  1.00  0.00    -0.508 OA
ATOM     22  H   UNL     1      23.018  -7.975  29.973  1.00  0.00     0.293 HD
ENDBRANCH  18  21
ENDBRANCH  11  13
ENDBRANCH   2  11
TORSDOF 6
ENDMDL
MODEL 5
REMARK VINA RESULT:    -5.041      1.587      7.599
REMARK INTER + INTRA:          -6.974
REMARK INTER:                  -6.333
REMARK INTRA:                  -0.641
REMARK UNBOUND:                -0.606
REMARK SMILES O=C(C=Cc1ccc(O)cc1)c1ccc(O)cc1O
REMARK SMILES IDX 4 1 3 2 5 3 6 4 7 5 8 6 11 7 10 8 9 9 2 11 1 12 12 13 18 14
REMARK SMILES IDX 13 15 17 16 14 17 15 18 19 19 16 21
REMARK H PARENT 9 10 19 20 16 22
REMARK Flexibility Score: inf
ROOT
ATOM      1  C   UNL     1      28.676  -9.764  30.597  1.00  0.00     0.012 C 
ATOM      2  C   UNL     1      27.378  -9.709  30.931  1.00  0.00     0.053 C 
ENDROOT
BRANCH   1   3
ATOM      3  C   UNL     1      29.763  -9.173  31.416  1.00  0.00    -0.025 A 
ATOM      4  C   UNL     1      30.957  -9.896  31.574  1.00  0.00     0.012 A 
ATOM      5  C   UNL     1      32.004  -9.383  32.345  1.00  0.00     0.047 A 
ATOM      6  C   UNL     1      31.868  -8.142  32.978  1.00  0.00     0.115 A 
ATOM      7  C   UNL     1      29.629  -7.930  32.069  1.00  0.00     0.012 A 
ATOM      8  C   UNL     1      30.679  -7.420  32.841  1.00  0.00     0.047 A 
BRANCH   6   9
ATOM      9  O   UNL     1      32.905  -7.619  33.748  1.00  0.00    -0.508 OA
ATOM     10  H   UNL     1      33.851  -7.973  33.673  1.00  0.00     0.293 HD
ENDBRANCH   6   9
ENDBRANCH   1   3
BRANCH   2  11
ATOM     11  C   UNL     1      26.321 -10.299  30.082  1.00  0.00     0.189 C 
ATOM     12  O   UNL     1      26.520 -11.395  29.490  1.00  0.00    -0.289 OA
BRANCH  11  13
ATOM     13  C   UNL     1      25.011  -9.625  29.944  1.00  0.00     0.064 A 
ATOM     14  C   UNL     1      23.794 -10.285  30.246  1.00  0.00     0.130 A 
ATOM     15  C   UNL     1      24.974  -8.278  29.538  1.00  0.00     0.020 A 
ATOM     16  C   UNL     1      22.585  -9.581  30.170  1.00  0.00     0.093 A 
ATOM     17  C   UNL     1      23.761  -7.593  29.454  1.00  0.00     0.047 A 
ATOM     18  C   UNL     1      22.565  -8.238  29.773  1.00  0.00     0.119 A 
BRANCH  14  19
ATOM     19  O   UNL     1      23.745 -11.636  30.594  1.00  0.00    -0.507 OA
ATOM     20  H   UNL     1      24.068 -11.992  31.484  1.00  0.00     0.293 HD
ENDBRANCH  14  19
BRANCH  18  21
ATOM     21  O   UNL     1      21.363  -7.540  29.692  1.00  0.00    -0.508 OA
ATOM     22  H   UNL     1      20.476  -8.021  29.601  1.00  0.00     0.293 HD
ENDBRANCH  18  21
ENDBRANCH  11  13
ENDBRANCH   2  11
TORSDOF 6
ENDMDL
MODEL 6
REMARK VINA RESULT:    -4.782     16.997     18.472
REMARK INTER + INTRA:          -6.647
REMARK INTER:                  -6.018
REMARK INTRA:                  -0.628
REMARK UNBOUND:                -0.606
REMARK SMILES O=C(C=Cc1ccc(O)cc1)c1ccc(O)cc1O
REMARK SMILES IDX 4 1 3 2 5 3 6 4 7 5 8 6 11 7 10 8 9 9 2 11 1 12 12 13 18 14
REMARK SMILES IDX 13 15 17 16 14 17 15 18 19 19 16 21
REMARK H PARENT 9 10 19 20 16 22
REMARK Flexibility Score: inf
ROOT
ATOM      1  C   UNL     1      20.202   2.146  44.718  1.00  0.00     0.012 C 
ATOM      2  C   UNL     1      20.513   1.478  43.597  1.00  0.00     0.053 C 
ENDROOT
BRANCH   1   3
ATOM      3  C   UNL     1      20.145   3.626  44.804  1.00  0.00    -0.025 A 
ATOM      4  C   UNL     1      20.291   4.375  43.625  1.00  0.00     0.012 A 
ATOM      5  C   UNL     1      20.254   5.772  43.660  1.00  0.00     0.047 A 
ATOM      6  C   UNL     1      20.081   6.441  44.877  1.00  0.00     0.115 A 
ATOM      7  C   UNL     1      19.986   4.308  46.028  1.00  0.00     0.012 A 
ATOM      8  C   UNL     1      19.950   5.706  46.059  1.00  0.00     0.047 A 
BRANCH   6   9
ATOM      9  O   UNL     1      20.041   7.833  44.925  1.00  0.00    -0.508 OA
ATOM     10  H   UNL     1      20.516   8.401  44.232  1.00  0.00     0.293 HD
ENDBRANCH   6   9
ENDBRANCH   1   3
BRANCH   2  11
ATOM     11  C   UNL     1      20.573   0.001  43.552  1.00  0.00     0.189 C 
ATOM     12  O   UNL     1      19.875  -0.688  44.346  1.00  0.00    -0.289 OA
BRANCH  11  13
ATOM     13  C   UNL     1      21.428  -0.682  42.556  1.00  0.00     0.064 A 
ATOM     14  C   UNL     1      22.122  -1.880  42.861  1.00  0.00     0.130 A 
ATOM     15  C   UNL     1      21.525  -0.150  41.258  1.00  0.00     0.020 A 
ATOM     16  C   UNL     1      22.860  -2.528  41.862  1.00  0.00     0.093 A 
ATOM     17  C   UNL     1      22.275  -0.799  40.276  1.00  0.00     0.047 A 
ATOM     18  C   UNL     1      22.940  -1.990  40.571  1.00  0.00     0.119 A 
BRANCH  14  19
ATOM     19  O   UNL     1      22.126  -2.435  44.142  1.00  0.00    -0.507 OA
ATOM     20  H   UNL     1      21.354  -2.341  44.790  1.00  0.00     0.293 HD
ENDBRANCH  14  19
BRANCH  18  21
ATOM     21  O   UNL     1      23.678  -2.631  39.580  1.00  0.00    -0.508 OA
ATOM     22  H   UNL     1      23.684  -2.296  38.623  1.00  0.00     0.293 HD
ENDBRANCH  18  21
ENDBRANCH  11  13
ENDBRANCH   2  11
TORSDOF 6
ENDMDL
MODEL 7
REMARK VINA RESULT:    -4.633      3.584      4.500
REMARK INTER + INTRA:          -6.458
REMARK INTER:                  -6.027
REMARK INTRA:                  -0.430
REMARK UNBOUND:                -0.606
REMARK SMILES O=C(C=Cc1ccc(O)cc1)c1ccc(O)cc1O
REMARK SMILES IDX 4 1 3 2 5 3 6 4 7 5 8 6 11 7 10 8 9 9 2 11 1 12 12 13 18 14
REMARK SMILES IDX 13 15 17 16 14 17 15 18 19 19 16 21
REMARK H PARENT 9 10 19 20 16 22
REMARK Flexibility Score: inf
ROOT
ATOM      1  C   UNL     1      26.402 -10.799  31.990  1.00  0.00     0.012 C 
ATOM      2  C   UNL     1      26.927  -9.737  31.361  1.00  0.00     0.053 C 
ENDROOT
BRANCH   1   3
ATOM      3  C   UNL     1      25.420 -10.696  33.099  1.00  0.00    -0.025 A 
ATOM      4  C   UNL     1      25.238 -11.805  33.942  1.00  0.00     0.012 A 
ATOM      5  C   UNL     1      24.317 -11.757  34.992  1.00  0.00     0.047 A 
ATOM      6  C   UNL     1      23.556 -10.603  35.208  1.00  0.00     0.115 A 
ATOM      7  C   UNL     1      24.639  -9.542  33.315  1.00  0.00     0.012 A 
ATOM      8  C   UNL     1      23.717  -9.499  34.366  1.00  0.00     0.047 A 
BRANCH   6   9
ATOM      9  O   UNL     1      22.636 -10.542  36.252  1.00  0.00    -0.508 OA
ATOM     10  H   UNL     1      21.839 -11.167  36.293  1.00  0.00     0.293 HD
ENDBRANCH   6   9
ENDBRANCH   1   3
BRANCH   2  11
ATOM     11  C   UNL     1      27.914  -9.879  30.269  1.00  0.00     0.189 C 
ATOM     12  O   UNL     1      27.561  -9.719  29.069  1.00  0.00    -0.289 OA
BRANCH  11  13
ATOM     13  C   UNL     1      29.330 -10.178  30.577  1.00  0.00     0.064 A 
ATOM     14  C   UNL     1      30.143  -9.278  31.310  1.00  0.00     0.130 A 
ATOM     15  C   UNL     1      29.875 -11.407  30.163  1.00  0.00     0.020 A 
ATOM     16  C   UNL     1      31.456  -9.639  31.639  1.00  0.00     0.093 A 
ATOM     17  C   UNL     1      31.190 -11.748  30.486  1.00  0.00     0.047 A 
ATOM     18  C   UNL     1      31.982 -10.870  31.228  1.00  0.00     0.119 A 
BRANCH  14  19
ATOM     19  O   UNL     1      29.694  -8.015  31.701  1.00  0.00    -0.507 OA
ATOM     20  H   UNL     1      30.212  -7.164  31.530  1.00  0.00     0.293 HD
ENDBRANCH  14  19
BRANCH  18  21
ATOM     21  O   UNL     1      33.289 -11.227  31.550  1.00  0.00    -0.508 OA
ATOM     22  H   UNL     1      33.495 -12.070  32.073  1.00  0.00     0.293 HD
ENDBRANCH  18  21
ENDBRANCH  11  13
ENDBRANCH   2  11
TORSDOF 6
ENDMDL
MODEL 8
REMARK VINA RESULT:    -4.288      2.978      7.266
REMARK INTER + INTRA:          -6.022
REMARK INTER:                  -5.558
REMARK INTRA:                  -0.464
REMARK UNBOUND:                -0.606
REMARK SMILES O=C(C=Cc1ccc(O)cc1)c1ccc(O)cc1O
REMARK SMILES IDX 4 1 3 2 5 3 6 4 7 5 8 6 11 7 10 8 9 9 2 11 1 12 12 13 18 14
REMARK SMILES IDX 13 15 17 16 14 17 15 18 19 19 16 21
REMARK H PARENT 9 10 19 20 16 22
REMARK Flexibility Score: inf
ROOT
ATOM      1  C   UNL     1      28.034  -9.293  31.189  1.00  0.00     0.012 C 
ATOM      2  C   UNL     1      27.124  -9.609  30.254  1.00  0.00     0.053 C 
ENDROOT
BRANCH   1   3
ATOM      3  C   UNL     1      29.443  -9.759  31.156  1.00  0.00    -0.025 A 
ATOM      4  C   UNL     1      30.453  -8.873  31.566  1.00  0.00     0.012 A 
ATOM      5  C   UNL     1      31.795  -9.264  31.543  1.00  0.00     0.047 A 
ATOM      6  C   UNL     1      32.147 -10.544  31.100  1.00  0.00     0.115 A 
ATOM      7  C   UNL     1      29.807 -11.041  30.698  1.00  0.00     0.012 A 
ATOM      8  C   UNL     1      31.151 -11.429  30.675  1.00  0.00     0.047 A 
BRANCH   6   9
ATOM      9  O   UNL     1      33.480 -10.947  31.074  1.00  0.00    -0.508 OA
ATOM     10  H   UNL     1      34.185 -10.482  31.635  1.00  0.00     0.293 HD
ENDBRANCH   6   9
ENDBRANCH   1   3
BRANCH   2  11
ATOM     11  C   UNL     1      25.725  -9.137  30.327  1.00  0.00     0.189 C 
ATOM     12  O   UNL     1      25.239  -8.442  29.393  1.00  0.00    -0.289 OA
BRANCH  11  13
ATOM     13  C   UNL     1      24.873  -9.503  31.481  1.00  0.00     0.064 A 
ATOM     14  C   UNL     1      23.821 -10.445  31.365  1.00  0.00     0.130 A 
ATOM     15  C   UNL     1      25.138  -8.928  32.737  1.00  0.00     0.020 A 
ATOM     16  C   UNL     1      23.090 -10.812  32.503  1.00  0.00     0.093 A 
ATOM     17  C   UNL     1      24.393  -9.293  33.859  1.00  0.00     0.047 A 
ATOM     18  C   UNL     1      23.372 -10.238  33.748  1.00  0.00     0.119 A 
BRANCH  14  19
ATOM     19  O   UNL     1      23.457 -11.011  30.142  1.00  0.00    -0.507 OA
ATOM     20  H   UNL     1      22.504 -11.254  29.903  1.00  0.00     0.293 HD
ENDBRANCH  14  19
BRANCH  18  21
ATOM     21  O   UNL     1      22.641 -10.598  34.878  1.00  0.00    -0.508 OA
ATOM     22  H   UNL     1      22.601 -10.001  35.695  1.00  0.00     0.293 HD
ENDBRANCH  18  21
ENDBRANCH  11  13
ENDBRANCH   2  11
TORSDOF 6
ENDMDL
MODEL 9
REMARK VINA RESULT:    -4.200      3.350      4.036
REMARK INTER + INTRA:          -5.911
REMARK INTER:                  -5.266
REMARK INTRA:                  -0.645
REMARK UNBOUND:                -0.606
REMARK SMILES O=C(C=Cc1ccc(O)cc1)c1ccc(O)cc1O
REMARK SMILES IDX 4 1 3 2 5 3 6 4 7 5 8 6 11 7 10 8 9 9 2 11 1 12 12 13 18 14
REMARK SMILES IDX 13 15 17 16 14 17 15 18 19 19 16 21
REMARK H PARENT 9 10 19 20 16 22
REMARK Flexibility Score: inf
ROOT
ATOM      1  C   UNL     1      25.382 -10.248  31.947  1.00  0.00     0.012 C 
ATOM      2  C   UNL     1      26.275  -9.324  31.562  1.00  0.00     0.053 C 
ENDROOT
BRANCH   1   3
ATOM      3  C   UNL     1      24.358 -10.017  32.996  1.00  0.00    -0.025 A 
ATOM      4  C   UNL     1      24.717  -9.278  34.135  1.00  0.00     0.012 A 
ATOM      5  C   UNL     1      23.788  -9.044  35.153  1.00  0.00     0.047 A 
ATOM      6  C   UNL     1      22.489  -9.554  35.051  1.00  0.00     0.115 A 
ATOM      7  C   UNL     1      23.051 -10.539  32.907  1.00  0.00     0.012 A 
ATOM      8  C   UNL     1      22.124 -10.302  33.928  1.00  0.00     0.047 A 
BRANCH   6   9
ATOM      9  O   UNL     1      21.554  -9.325  36.058  1.00  0.00    -0.508 OA
ATOM     10  H   UNL     1      21.357 -10.023  36.767  1.00  0.00     0.293 HD
ENDBRANCH   6   9
ENDBRANCH   1   3
BRANCH   2  11
ATOM     11  C   UNL     1      27.290  -9.596  30.522  1.00  0.00     0.189 C 
ATOM     12  O   UNL     1      26.973  -9.565  29.301  1.00  0.00    -0.289 OA
BRANCH  11  13
ATOM     13  C   UNL     1      28.692  -9.877  30.902  1.00  0.00     0.064 A 
ATOM     14  C   UNL     1      29.340 -11.083  30.536  1.00  0.00     0.130 A 
ATOM     15  C   UNL     1      29.416  -8.903  31.614  1.00  0.00     0.020 A 
ATOM     16  C   UNL     1      30.691 -11.270  30.857  1.00  0.00     0.093 A 
ATOM     17  C   UNL     1      30.758  -9.109  31.939  1.00  0.00     0.047 A 
ATOM     18  C   UNL     1      31.401 -10.288  31.559  1.00  0.00     0.119 A 
BRANCH  14  19
ATOM     19  O   UNL     1      28.671 -12.121  29.885  1.00  0.00    -0.507 OA
ATOM     20  H   UNL     1      28.988 -12.525  29.013  1.00  0.00     0.293 HD
ENDBRANCH  14  19
BRANCH  18  21
ATOM     21  O   UNL     1      32.742 -10.477  31.883  1.00  0.00    -0.508 OA
ATOM     22  H   UNL     1      33.485 -10.151  31.276  1.00  0.00     0.293 HD
ENDBRANCH  18  21
ENDBRANCH  11  13
ENDBRANCH   2  11
TORSDOF 6
ENDMDL
