MODEL 1
REMARK VINA RESULT:    -4.254      0.000      0.000
REMARK INTER + INTRA:         -10.788
REMARK INTER:                  -9.725
REMARK INTRA:                  -1.062
REMARK UNBOUND:                -1.062
REMARK SMILES CCCCCCCCCCCCCCCCCCCCCCCC(=O)[O-]
REMARK SMILES IDX 13 1 14 2 15 3 16 4 17 5 18 6 19 7 20 8 21 9 22 10 23 11
REMARK SMILES IDX 24 12 25 13 26 14 12 15 11 16 10 17 9 18 8 19 7 20 6 21 5 22
REMARK SMILES IDX 4 23 3 24 2 25 1 26
REMARK H PARENT
REMARK Flexibility Score: inf
ROOT
ATOM      1  C   UNL     1      41.604  67.995  22.971  1.00  0.00     0.000 C 
ENDROOT
BRANCH   1   2
ATOM      2  C   UNL     1      42.506  67.960  24.222  1.00  0.00     0.000 C 
BRANCH   2   3
ATOM      3  C   UNL     1      41.757  67.849  25.562  1.00  0.00     0.000 C 
BRANCH   3   4
ATOM      4  C   UNL     1      40.905  66.576  25.655  1.00  0.00     0.000 C 
BRANCH   4   5
ATOM      5  C   UNL     1      41.780  65.330  25.851  1.00  0.00     0.000 C 
BRANCH   5   6
ATOM      6  C   UNL     1      41.807  64.417  24.612  1.00  0.00     0.000 C 
BRANCH   6   7
ATOM      7  C   UNL     1      41.834  62.913  24.955  1.00  0.00     0.000 C 
BRANCH   7   8
ATOM      8  C   UNL     1      42.733  62.612  26.169  1.00  0.00     0.000 C 
BRANCH   8   9
ATOM      9  C   UNL     1      43.699  61.445  25.920  1.00  0.00     0.000 C 
BRANCH   9  10
ATOM     10  C   UNL     1      45.106  61.918  25.516  1.00  0.00     0.006 C 
BRANCH  10  11
ATOM     11  C   UNL     1      45.789  62.657  26.672  1.00  0.00     0.053 C 
BRANCH  11  12
ATOM     12  C   UNL     1      47.118  63.205  26.251  1.00  0.00     0.041 C 
ATOM     13  O   UNL     1      47.966  63.556  27.117  1.00  0.00    -0.550 OA
ATOM     14  O   UNL     1      47.430  63.314  24.900  1.00  0.00    -0.550 OA
ENDBRANCH  11  12
ENDBRANCH  10  11
ENDBRANCH   9  10
ENDBRANCH   8   9
ENDBRANCH   7   8
ENDBRANCH   6   7
ENDBRANCH   5   6
ENDBRANCH   4   5
ENDBRANCH   3   4
ENDBRANCH   2   3
ENDBRANCH   1   2
BRANCH   1  15
ATOM     15  C   UNL     1      41.649  66.725  22.100  1.00  0.00     0.000 C 
BRANCH  15  16
ATOM     16  C   UNL     1      40.285  66.025  22.011  1.00  0.00     0.000 C 
BRANCH  16  17
ATOM     17  C   UNL     1      39.146  66.962  22.430  1.00  0.00     0.000 C 
BRANCH  17  18
ATOM     18  C   UNL     1      38.777  66.744  23.904  1.00  0.00    -0.000 C 
BRANCH  18  19
ATOM     19  C   UNL     1      37.683  67.704  24.392  1.00  0.00    -0.000 C 
BRANCH  19  20
ATOM     20  C   UNL     1      36.969  67.198  25.659  1.00  0.00    -0.000 C 
BRANCH  20  21
ATOM     21  C   UNL     1      35.493  67.618  25.708  1.00  0.00    -0.000 C 
BRANCH  21  22
ATOM     22  C   UNL     1      34.660  66.747  26.666  1.00  0.00    -0.000 C 
BRANCH  22  23
ATOM     23  C   UNL     1      34.768  65.249  26.337  1.00  0.00    -0.000 C 
BRANCH  23  24
ATOM     24  C   UNL     1      35.084  64.397  27.577  1.00  0.00    -0.000 C 
BRANCH  24  25
ATOM     25  C   UNL     1      34.646  62.942  27.373  1.00  0.00    -0.003 C 
ATOM     26  C   UNL     1      33.882  62.420  28.588  1.00  0.00     0.004 C 
ENDBRANCH  24  25
ENDBRANCH  23  24
ENDBRANCH  22  23
ENDBRANCH  21  22
ENDBRANCH  20  21
ENDBRANCH  19  20
ENDBRANCH  18  19
ENDBRANCH  17  18
ENDBRANCH  16  17
ENDBRANCH  15  16
ENDBRANCH   1  15
TORSDOF 22
ENDMDL
MODEL 2
REMARK VINA RESULT:    -4.227      4.128      6.395
REMARK INTER + INTRA:         -10.727
REMARK INTER:                  -9.706
REMARK INTRA:                  -1.020
REMARK UNBOUND:                -1.062
REMARK SMILES CCCCCCCCCCCCCCCCCCCCCCCC(=O)[O-]
REMARK SMILES IDX 13 1 14 2 15 3 16 4 17 5 18 6 19 7 20 8 21 9 22 10 23 11
REMARK SMILES IDX 24 12 25 13 26 14 12 15 11 16 10 17 9 18 8 19 7 20 6 21 5 22
REMARK SMILES IDX 4 23 3 24 2 25 1 26
REMARK H PARENT
REMARK Flexibility Score: inf
ROOT
ATOM      1  C   UNL     1      41.864  64.731  24.254  1.00  0.00     0.000 C 
ENDROOT
BRANCH   1   2
ATOM      2  C   UNL     1      40.930  65.109  23.087  1.00  0.00     0.000 C 
BRANCH   2   3
ATOM      3  C   UNL     1      41.570  65.990  21.999  1.00  0.00     0.000 C 
BRANCH   3   4
ATOM      4  C   UNL     1      41.373  67.488  22.264  1.00  0.00     0.000 C 
BRANCH   4   5
ATOM      5  C   UNL     1      42.547  68.075  23.060  1.00  0.00     0.000 C 
BRANCH   5   6
ATOM      6  C   UNL     1      42.107  68.732  24.379  1.00  0.00     0.000 C 
BRANCH   6   7
ATOM      7  C   UNL     1      43.234  69.517  25.083  1.00  0.00     0.000 C 
BRANCH   7   8
ATOM      8  C   UNL     1      44.102  70.304  24.084  1.00  0.00     0.000 C 
BRANCH   8   9
ATOM      9  C   UNL     1      44.648  71.614  24.671  1.00  0.00     0.000 C 
BRANCH   9  10
ATOM     10  C   UNL     1      43.548  72.482  25.304  1.00  0.00     0.006 C 
BRANCH  10  11
ATOM     11  C   UNL     1      42.668  73.125  24.226  1.00  0.00     0.053 C 
BRANCH  11  12
ATOM     12  C   UNL     1      41.445  73.746  24.827  1.00  0.00     0.041 C 
ATOM     13  O   UNL     1      40.540  74.220  24.086  1.00  0.00    -0.550 OA
ATOM     14  O   UNL     1      41.293  73.786  26.209  1.00  0.00    -0.550 OA
ENDBRANCH  11  12
ENDBRANCH  10  11
ENDBRANCH   9  10
ENDBRANCH   8   9
ENDBRANCH   7   8
ENDBRANCH   6   7
ENDBRANCH   5   6
ENDBRANCH   4   5
ENDBRANCH   3   4
ENDBRANCH   2   3
ENDBRANCH   1   2
BRANCH   1  15
ATOM     15  C   UNL     1      41.368  65.156  25.649  1.00  0.00     0.000 C 
BRANCH  15  16
ATOM     16  C   UNL     1      40.955  66.633  25.701  1.00  0.00     0.000 C 
BRANCH  16  17
ATOM     17  C   UNL     1      39.432  66.785  25.802  1.00  0.00     0.000 C 
BRANCH  17  18
ATOM     18  C   UNL     1      38.825  67.104  24.428  1.00  0.00    -0.000 C 
BRANCH  18  19
ATOM     19  C   UNL     1      37.364  67.567  24.516  1.00  0.00    -0.000 C 
BRANCH  19  20
ATOM     20  C   UNL     1      36.820  67.546  25.956  1.00  0.00    -0.000 C 
BRANCH  20  21
ATOM     21  C   UNL     1      35.286  67.613  26.003  1.00  0.00    -0.000 C 
BRANCH  21  22
ATOM     22  C   UNL     1      34.654  66.335  26.584  1.00  0.00    -0.000 C 
BRANCH  22  23
ATOM     23  C   UNL     1      34.474  65.237  25.523  1.00  0.00    -0.000 C 
BRANCH  23  24
ATOM     24  C   UNL     1      34.672  63.826  26.100  1.00  0.00    -0.000 C 
BRANCH  24  25
ATOM     25  C   UNL     1      35.008  63.883  27.594  1.00  0.00    -0.003 C 
ATOM     26  C   UNL     1      34.265  62.797  28.370  1.00  0.00     0.004 C 
ENDBRANCH  24  25
ENDBRANCH  23  24
ENDBRANCH  22  23
ENDBRANCH  21  22
ENDBRANCH  20  21
ENDBRANCH  19  20
ENDBRANCH  18  19
ENDBRANCH  17  18
ENDBRANCH  16  17
ENDBRANCH  15  16
ENDBRANCH   1  15
TORSDOF 22
ENDMDL
MODEL 3
REMARK VINA RESULT:    -4.077      4.562      9.010
REMARK INTER + INTRA:         -10.384
REMARK INTER:                  -9.330
REMARK INTRA:                  -1.054
REMARK UNBOUND:                -1.062
REMARK SMILES CCCCCCCCCCCCCCCCCCCCCCCC(=O)[O-]
REMARK SMILES IDX 13 1 14 2 15 3 16 4 17 5 18 6 19 7 20 8 21 9 22 10 23 11
REMARK SMILES IDX 24 12 25 13 26 14 12 15 11 16 10 17 9 18 8 19 7 20 6 21 5 22
REMARK SMILES IDX 4 23 3 24 2 25 1 26
REMARK H PARENT
REMARK Flexibility Score: inf
ROOT
ATOM      1  C   UNL     1      38.848  67.189  23.873  1.00  0.00     0.000 C 
ENDROOT
BRANCH   1   2
ATOM      2  C   UNL     1      39.459  66.293  22.777  1.00  0.00     0.000 C 
BRANCH   2   3
ATOM      3  C   UNL     1      40.304  67.033  21.725  1.00  0.00     0.000 C 
BRANCH   3   4
ATOM      4  C   UNL     1      41.746  67.271  22.191  1.00  0.00     0.000 C 
BRANCH   4   5
ATOM      5  C   UNL     1      41.812  68.348  23.283  1.00  0.00     0.000 C 
BRANCH   5   6
ATOM      6  C   UNL     1      43.233  68.550  23.839  1.00  0.00     0.000 C 
BRANCH   6   7
ATOM      7  C   UNL     1      43.350  69.743  24.811  1.00  0.00     0.000 C 
BRANCH   7   8
ATOM      8  C   UNL     1      44.396  70.771  24.341  1.00  0.00     0.000 C 
BRANCH   8   9
ATOM      9  C   UNL     1      44.274  72.119  25.067  1.00  0.00     0.000 C 
BRANCH   9  10
ATOM     10  C   UNL     1      43.045  72.925  24.615  1.00  0.00     0.006 C 
BRANCH  10  11
ATOM     11  C   UNL     1      42.120  73.226  25.800  1.00  0.00     0.053 C 
BRANCH  11  12
ATOM     12  C   UNL     1      41.041  74.190  25.412  1.00  0.00     0.041 C 
ATOM     13  O   UNL     1      40.576  74.187  24.239  1.00  0.00    -0.550 OA
ATOM     14  O   UNL     1      40.535  75.083  26.350  1.00  0.00    -0.550 OA
ENDBRANCH  11  12
ENDBRANCH  10  11
ENDBRANCH   9  10
ENDBRANCH   8   9
ENDBRANCH   7   8
ENDBRANCH   6   7
ENDBRANCH   5   6
ENDBRANCH   4   5
ENDBRANCH   3   4
ENDBRANCH   2   3
ENDBRANCH   1   2
BRANCH   1  15
ATOM     15  C   UNL     1      39.150  66.749  25.318  1.00  0.00     0.000 C 
BRANCH  15  16
ATOM     16  C   UNL     1      40.606  67.018  25.723  1.00  0.00     0.000 C 
BRANCH  16  17
ATOM     17  C   UNL     1      41.374  65.711  25.953  1.00  0.00     0.000 C 
BRANCH  17  18
ATOM     18  C   UNL     1      41.704  65.031  24.617  1.00  0.00    -0.000 C 
BRANCH  18  19
ATOM     19  C   UNL     1      41.746  63.500  24.722  1.00  0.00    -0.000 C 
BRANCH  19  20
ATOM     20  C   UNL     1      42.464  63.012  25.993  1.00  0.00    -0.000 C 
BRANCH  20  21
ATOM     21  C   UNL     1      43.343  61.778  25.733  1.00  0.00    -0.000 C 
BRANCH  21  22
ATOM     22  C   UNL     1      44.781  61.956  26.253  1.00  0.00    -0.000 C 
BRANCH  22  23
ATOM     23  C   UNL     1      45.812  62.015  25.113  1.00  0.00    -0.000 C 
BRANCH  23  24
ATOM     24  C   UNL     1      46.934  63.029  25.390  1.00  0.00    -0.000 C 
BRANCH  24  25
ATOM     25  C   UNL     1      46.991  63.397  26.876  1.00  0.00    -0.003 C 
ATOM     26  C   UNL     1      48.336  63.012  27.489  1.00  0.00     0.004 C 
ENDBRANCH  24  25
ENDBRANCH  23  24
ENDBRANCH  22  23
ENDBRANCH  21  22
ENDBRANCH  20  21
ENDBRANCH  19  20
ENDBRANCH  18  19
ENDBRANCH  17  18
ENDBRANCH  16  17
ENDBRANCH  15  16
ENDBRANCH   1  15
TORSDOF 22
ENDMDL
MODEL 4
REMARK VINA RESULT:    -4.049      2.711      6.199
REMARK INTER + INTRA:         -10.320
REMARK INTER:                  -8.528
REMARK INTRA:                  -1.792
REMARK UNBOUND:                -1.062
REMARK SMILES CCCCCCCCCCCCCCCCCCCCCCCC(=O)[O-]
REMARK SMILES IDX 13 1 14 2 15 3 16 4 17 5 18 6 19 7 20 8 21 9 22 10 23 11
REMARK SMILES IDX 24 12 25 13 26 14 12 15 11 16 10 17 9 18 8 19 7 20 6 21 5 22
REMARK SMILES IDX 4 23 3 24 2 25 1 26
REMARK H PARENT
REMARK Flexibility Score: inf
ROOT
ATOM      1  C   UNL     1      38.958  66.345  23.224  1.00  0.00     0.000 C 
ENDROOT
BRANCH   1   2
ATOM      2  C   UNL     1      38.536  67.237  24.409  1.00  0.00     0.000 C 
BRANCH   2   3
ATOM      3  C   UNL     1      39.213  66.901  25.750  1.00  0.00     0.000 C 
BRANCH   3   4
ATOM      4  C   UNL     1      40.741  67.013  25.681  1.00  0.00     0.000 C 
BRANCH   4   5
ATOM      5  C   UNL     1      41.412  65.648  25.891  1.00  0.00     0.000 C 
BRANCH   5   6
ATOM      6  C   UNL     1      41.756  64.941  24.569  1.00  0.00     0.000 C 
BRANCH   6   7
ATOM      7  C   UNL     1      41.777  63.401  24.680  1.00  0.00     0.000 C 
BRANCH   7   8
ATOM      8  C   UNL     1      42.303  62.928  26.048  1.00  0.00     0.000 C 
BRANCH   8   9
ATOM      9  C   UNL     1      43.219  61.700  25.942  1.00  0.00     0.000 C 
BRANCH   9  10
ATOM     10  C   UNL     1      44.617  61.952  26.530  1.00  0.00     0.006 C 
BRANCH  10  11
ATOM     11  C   UNL     1      45.645  62.193  25.419  1.00  0.00     0.053 C 
BRANCH  11  12
ATOM     12  C   UNL     1      46.767  63.061  25.900  1.00  0.00     0.041 C 
ATOM     13  O   UNL     1      47.642  63.478  25.093  1.00  0.00    -0.550 OA
ATOM     14  O   UNL     1      46.838  63.425  27.241  1.00  0.00    -0.550 OA
ENDBRANCH  11  12
ENDBRANCH  10  11
ENDBRANCH   9  10
ENDBRANCH   8   9
ENDBRANCH   7   8
ENDBRANCH   6   7
ENDBRANCH   5   6
ENDBRANCH   4   5
ENDBRANCH   3   4
ENDBRANCH   2   3
ENDBRANCH   1   2
BRANCH   1  15
ATOM     15  C   UNL     1      39.640  67.088  22.060  1.00  0.00     0.000 C 
BRANCH  15  16
ATOM     16  C   UNL     1      40.911  66.378  21.573  1.00  0.00     0.000 C 
BRANCH  16  17
ATOM     17  C   UNL     1      42.168  67.194  21.901  1.00  0.00     0.000 C 
BRANCH  17  18
ATOM     18  C   UNL     1      41.899  68.165  23.058  1.00  0.00    -0.000 C 
BRANCH  18  19
ATOM     19  C   UNL     1      43.173  68.540  23.829  1.00  0.00    -0.000 C 
BRANCH  19  20
ATOM     20  C   UNL     1      43.010  69.829  24.655  1.00  0.00    -0.000 C 
BRANCH  20  21
ATOM     21  C   UNL     1      44.338  70.581  24.835  1.00  0.00    -0.000 C 
BRANCH  21  22
ATOM     22  C   UNL     1      44.202  72.092  24.574  1.00  0.00    -0.000 C 
BRANCH  22  23
ATOM     23  C   UNL     1      42.851  72.650  25.051  1.00  0.00    -0.000 C 
BRANCH  23  24
ATOM     24  C   UNL     1      42.174  73.533  23.991  1.00  0.00    -0.000 C 
BRANCH  24  25
ATOM     25  C   UNL     1      40.853  74.107  24.513  1.00  0.00    -0.003 C 
ATOM     26  C   UNL     1      40.891  74.289  26.029  1.00  0.00     0.004 C 
ENDBRANCH  24  25
ENDBRANCH  23  24
ENDBRANCH  22  23
ENDBRANCH  21  22
ENDBRANCH  20  21
ENDBRANCH  19  20
ENDBRANCH  18  19
ENDBRANCH  17  18
ENDBRANCH  16  17
ENDBRANCH  15  16
ENDBRANCH   1  15
TORSDOF 22
ENDMDL
MODEL 5
REMARK VINA RESULT:    -4.043      2.300      3.821
REMARK INTER + INTRA:         -10.304
REMARK INTER:                  -9.104
REMARK INTRA:                  -1.200
REMARK UNBOUND:                -1.062
REMARK SMILES CCCCCCCCCCCCCCCCCCCCCCCC(=O)[O-]
REMARK SMILES IDX 13 1 14 2 15 3 16 4 17 5 18 6 19 7 20 8 21 9 22 10 23 11
REMARK SMILES IDX 24 12 25 13 26 14 12 15 11 16 10 17 9 18 8 19 7 20 6 21 5 22
REMARK SMILES IDX 4 23 3 24 2 25 1 26
REMARK H PARENT
REMARK Flexibility Score: inf
ROOT
ATOM      1  C   UNL     1      41.461  64.935  24.831  1.00  0.00     0.000 C 
ENDROOT
BRANCH   1   2
ATOM      2  C   UNL     1      41.974  63.481  24.791  1.00  0.00     0.000 C 
BRANCH   2   3
ATOM      3  C   UNL     1      42.330  62.878  26.162  1.00  0.00     0.000 C 
BRANCH   3   4
ATOM      4  C   UNL     1      43.036  61.521  26.041  1.00  0.00     0.000 C 
BRANCH   4   5
ATOM      5  C   UNL     1      44.460  61.578  26.612  1.00  0.00     0.000 C 
BRANCH   5   6
ATOM      6  C   UNL     1      45.406  62.454  25.772  1.00  0.00     0.000 C 
BRANCH   6   7
ATOM      7  C   UNL     1      46.525  63.121  26.600  1.00  0.00     0.000 C 
BRANCH   7   8
ATOM      8  C   UNL     1      47.818  63.305  25.783  1.00  0.00     0.000 C 
BRANCH   8   9
ATOM      9  C   UNL     1      47.551  63.762  24.341  1.00  0.00     0.000 C 
BRANCH   9  10
ATOM     10  C   UNL     1      48.844  63.927  23.525  1.00  0.00     0.006 C 
BRANCH  10  11
ATOM     11  C   UNL     1      48.832  65.242  22.738  1.00  0.00     0.053 C 
BRANCH  11  12
ATOM     12  C   UNL     1      50.074  65.390  21.914  1.00  0.00     0.041 C 
ATOM     13  O   UNL     1      50.470  66.533  21.557  1.00  0.00    -0.550 OA
ATOM     14  O   UNL     1      50.807  64.265  21.553  1.00  0.00    -0.550 OA
ENDBRANCH  11  12
ENDBRANCH  10  11
ENDBRANCH   9  10
ENDBRANCH   8   9
ENDBRANCH   7   8
ENDBRANCH   6   7
ENDBRANCH   5   6
ENDBRANCH   4   5
ENDBRANCH   3   4
ENDBRANCH   2   3
ENDBRANCH   1   2
BRANCH   1  15
ATOM     15  C   UNL     1      41.470  65.665  23.475  1.00  0.00     0.000 C 
BRANCH  15  16
ATOM     16  C   UNL     1      40.698  66.992  23.517  1.00  0.00     0.000 C 
BRANCH  16  17
ATOM     17  C   UNL     1      39.818  67.088  24.770  1.00  0.00     0.000 C 
BRANCH  17  18
ATOM     18  C   UNL     1      38.330  67.085  24.390  1.00  0.00    -0.000 C 
BRANCH  18  19
ATOM     19  C   UNL     1      37.412  67.402  25.580  1.00  0.00    -0.000 C 
BRANCH  19  20
ATOM     20  C   UNL     1      35.980  67.763  25.145  1.00  0.00    -0.000 C 
BRANCH  20  21
ATOM     21  C   UNL     1      34.932  67.379  26.201  1.00  0.00    -0.000 C 
BRANCH  21  22
ATOM     22  C   UNL     1      35.129  65.950  26.739  1.00  0.00    -0.000 C 
BRANCH  22  23
ATOM     23  C   UNL     1      34.590  64.881  25.774  1.00  0.00    -0.000 C 
BRANCH  23  24
ATOM     24  C   UNL     1      34.706  63.460  26.349  1.00  0.00    -0.000 C 
BRANCH  24  25
ATOM     25  C   UNL     1      34.831  63.491  27.876  1.00  0.00    -0.003 C 
ATOM     26  C   UNL     1      33.949  62.426  28.524  1.00  0.00     0.004 C 
ENDBRANCH  24  25
ENDBRANCH  23  24
ENDBRANCH  22  23
ENDBRANCH  21  22
ENDBRANCH  20  21
ENDBRANCH  19  20
ENDBRANCH  18  19
ENDBRANCH  17  18
ENDBRANCH  16  17
ENDBRANCH  15  16
ENDBRANCH   1  15
TORSDOF 22
ENDMDL
MODEL 6
REMARK VINA RESULT:    -4.022      5.853      8.475
REMARK INTER + INTRA:         -10.258
REMARK INTER:                  -8.949
REMARK INTRA:                  -1.309
REMARK UNBOUND:                -1.062
REMARK SMILES CCCCCCCCCCCCCCCCCCCCCCCC(=O)[O-]
REMARK SMILES IDX 13 1 14 2 15 3 16 4 17 5 18 6 19 7 20 8 21 9 22 10 23 11
REMARK SMILES IDX 24 12 25 13 26 14 12 15 11 16 10 17 9 18 8 19 7 20 6 21 5 22
REMARK SMILES IDX 4 23 3 24 2 25 1 26
REMARK H PARENT
REMARK Flexibility Score: inf
ROOT
ATOM      1  C   UNL     1      41.750  68.092  24.089  1.00  0.00     0.000 C 
ENDROOT
BRANCH   1   2
ATOM      2  C   UNL     1      42.976  68.998  23.853  1.00  0.00     0.000 C 
BRANCH   2   3
ATOM      3  C   UNL     1      43.301  69.967  25.003  1.00  0.00     0.000 C 
BRANCH   3   4
ATOM      4  C   UNL     1      44.374  70.995  24.620  1.00  0.00     0.000 C 
BRANCH   4   5
ATOM      5  C   UNL     1      44.032  72.390  25.162  1.00  0.00     0.000 C 
BRANCH   5   6
ATOM      6  C   UNL     1      42.737  72.964  24.560  1.00  0.00     0.000 C 
BRANCH   6   7
ATOM      7  C   UNL     1      41.720  73.434  25.621  1.00  0.00     0.000 C 
BRANCH   7   8
ATOM      8  C   UNL     1      40.670  74.394  25.031  1.00  0.00     0.000 C 
BRANCH   8   9
ATOM      9  C   UNL     1      40.262  74.024  23.598  1.00  0.00     0.000 C 
BRANCH   9  10
ATOM     10  C   UNL     1      39.102  74.885  23.072  1.00  0.00     0.006 C 
BRANCH  10  11
ATOM     11  C   UNL     1      37.947  74.007  22.576  1.00  0.00     0.053 C 
BRANCH  11  12
ATOM     12  C   UNL     1      36.931  74.820  21.835  1.00  0.00     0.041 C 
ATOM     13  O   UNL     1      35.722  74.815  22.198  1.00  0.00    -0.550 OA
ATOM     14  O   UNL     1      37.320  75.599  20.751  1.00  0.00    -0.550 OA
ENDBRANCH  11  12
ENDBRANCH  10  11
ENDBRANCH   9  10
ENDBRANCH   8   9
ENDBRANCH   7   8
ENDBRANCH   6   7
ENDBRANCH   5   6
ENDBRANCH   4   5
ENDBRANCH   3   4
ENDBRANCH   2   3
ENDBRANCH   1   2
BRANCH   1  15
ATOM     15  C   UNL     1      41.264  67.318  22.850  1.00  0.00     0.000 C 
BRANCH  15  16
ATOM     16  C   UNL     1      40.025  66.460  23.141  1.00  0.00     0.000 C 
BRANCH  16  17
ATOM     17  C   UNL     1      39.460  66.748  24.538  1.00  0.00     0.000 C 
BRANCH  17  18
ATOM     18  C   UNL     1      37.992  67.189  24.449  1.00  0.00    -0.000 C 
BRANCH  18  19
ATOM     19  C   UNL     1      37.288  67.190  25.814  1.00  0.00    -0.000 C 
BRANCH  19  20
ATOM     20  C   UNL     1      35.873  67.795  25.752  1.00  0.00    -0.000 C 
BRANCH  20  21
ATOM     21  C   UNL     1      34.812  66.868  26.364  1.00  0.00    -0.000 C 
BRANCH  21  22
ATOM     22  C   UNL     1      34.362  65.761  25.394  1.00  0.00    -0.000 C 
BRANCH  22  23
ATOM     23  C   UNL     1      34.625  64.352  25.950  1.00  0.00    -0.000 C 
BRANCH  23  24
ATOM     24  C   UNL     1      34.964  64.367  27.450  1.00  0.00    -0.000 C 
BRANCH  24  25
ATOM     25  C   UNL     1      35.007  62.946  28.020  1.00  0.00    -0.003 C 
ATOM     26  C   UNL     1      33.671  62.563  28.653  1.00  0.00     0.004 C 
ENDBRANCH  24  25
ENDBRANCH  23  24
ENDBRANCH  22  23
ENDBRANCH  21  22
ENDBRANCH  20  21
ENDBRANCH  19  20
ENDBRANCH  18  19
ENDBRANCH  17  18
ENDBRANCH  16  17
ENDBRANCH  15  16
ENDBRANCH   1  15
TORSDOF 22
ENDMDL
MODEL 7
REMARK VINA RESULT:    -4.021      4.737      8.795
REMARK INTER + INTRA:         -10.254
REMARK INTER:                  -8.817
REMARK INTRA:                  -1.437
REMARK UNBOUND:                -1.062
REMARK SMILES CCCCCCCCCCCCCCCCCCCCCCCC(=O)[O-]
REMARK SMILES IDX 13 1 14 2 15 3 16 4 17 5 18 6 19 7 20 8 21 9 22 10 23 11
REMARK SMILES IDX 24 12 25 13 26 14 12 15 11 16 10 17 9 18 8 19 7 20 6 21 5 22
REMARK SMILES IDX 4 23 3 24 2 25 1 26
REMARK H PARENT
REMARK Flexibility Score: inf
ROOT
ATOM      1  C   UNL     1      40.691  65.160  22.745  1.00  0.00     0.000 C 
ENDROOT
BRANCH   1   2
ATOM      2  C   UNL     1      41.673  65.254  23.930  1.00  0.00     0.000 C 
BRANCH   2   3
ATOM      3  C   UNL     1      41.013  65.351  25.317  1.00  0.00     0.000 C 
BRANCH   3   4
ATOM      4  C   UNL     1      40.734  66.800  25.735  1.00  0.00     0.000 C 
BRANCH   4   5
ATOM      5  C   UNL     1      39.228  67.057  25.893  1.00  0.00     0.000 C 
BRANCH   5   6
ATOM      6  C   UNL     1      38.479  67.068  24.549  1.00  0.00     0.000 C 
BRANCH   6   7
ATOM      7  C   UNL     1      37.079  67.714  24.630  1.00  0.00     0.000 C 
BRANCH   7   8
ATOM      8  C   UNL     1      36.508  67.681  26.060  1.00  0.00     0.000 C 
BRANCH   8   9
ATOM      9  C   UNL     1      35.025  67.285  26.100  1.00  0.00     0.000 C 
BRANCH   9  10
ATOM     10  C   UNL     1      34.812  65.771  25.933  1.00  0.00     0.006 C 
BRANCH  10  11
ATOM     11  C   UNL     1      35.088  65.031  27.247  1.00  0.00     0.053 C 
BRANCH  11  12
ATOM     12  C   UNL     1      34.747  63.577  27.129  1.00  0.00     0.041 C 
ATOM     13  O   UNL     1      34.495  62.895  28.161  1.00  0.00    -0.550 OA
ATOM     14  O   UNL     1      34.689  62.975  25.877  1.00  0.00    -0.550 OA
ENDBRANCH  11  12
ENDBRANCH  10  11
ENDBRANCH   9  10
ENDBRANCH   8   9
ENDBRANCH   7   8
ENDBRANCH   6   7
ENDBRANCH   5   6
ENDBRANCH   4   5
ENDBRANCH   3   4
ENDBRANCH   2   3
ENDBRANCH   1   2
BRANCH   1  15
ATOM     15  C   UNL     1      40.690  66.378  21.802  1.00  0.00     0.000 C 
BRANCH  15  16
ATOM     16  C   UNL     1      41.931  67.263  21.984  1.00  0.00     0.000 C 
BRANCH  16  17
ATOM     17  C   UNL     1      41.760  68.231  23.162  1.00  0.00     0.000 C 
BRANCH  17  18
ATOM     18  C   UNL     1      43.125  68.621  23.747  1.00  0.00    -0.000 C 
BRANCH  18  19
ATOM     19  C   UNL     1      43.030  69.761  24.770  1.00  0.00    -0.000 C 
BRANCH  19  20
ATOM     20  C   UNL     1      44.350  70.539  24.918  1.00  0.00    -0.000 C 
BRANCH  20  21
ATOM     21  C   UNL     1      44.228  71.997  24.449  1.00  0.00    -0.000 C 
BRANCH  21  22
ATOM     22  C   UNL     1      43.035  72.728  25.092  1.00  0.00    -0.000 C 
BRANCH  22  23
ATOM     23  C   UNL     1      42.089  73.339  24.046  1.00  0.00    -0.000 C 
BRANCH  23  24
ATOM     24  C   UNL     1      40.990  74.204  24.684  1.00  0.00    -0.000 C 
BRANCH  24  25
ATOM     25  C   UNL     1      41.052  74.137  26.213  1.00  0.00    -0.003 C 
ATOM     26  C   UNL     1      40.985  75.531  26.831  1.00  0.00     0.004 C 
ENDBRANCH  24  25
ENDBRANCH  23  24
ENDBRANCH  22  23
ENDBRANCH  21  22
ENDBRANCH  20  21
ENDBRANCH  19  20
ENDBRANCH  18  19
ENDBRANCH  17  18
ENDBRANCH  16  17
ENDBRANCH  15  16
ENDBRANCH   1  15
TORSDOF 22
ENDMDL
MODEL 8
REMARK VINA RESULT:    -4.014      3.693      8.845
REMARK INTER + INTRA:         -10.238
REMARK INTER:                  -8.573
REMARK INTRA:                  -1.665
REMARK UNBOUND:                -1.062
REMARK SMILES CCCCCCCCCCCCCCCCCCCCCCCC(=O)[O-]
REMARK SMILES IDX 13 1 14 2 15 3 16 4 17 5 18 6 19 7 20 8 21 9 22 10 23 11
REMARK SMILES IDX 24 12 25 13 26 14 12 15 11 16 10 17 9 18 8 19 7 20 6 21 5 22
REMARK SMILES IDX 4 23 3 24 2 25 1 26
REMARK H PARENT
REMARK Flexibility Score: inf
ROOT
ATOM      1  C   UNL     1      42.516  67.843  24.133  1.00  0.00     0.000 C 
ENDROOT
BRANCH   1   2
ATOM      2  C   UNL     1      41.669  67.868  22.845  1.00  0.00     0.000 C 
BRANCH   2   3
ATOM      3  C   UNL     1      41.529  66.512  22.132  1.00  0.00     0.000 C 
BRANCH   3   4
ATOM      4  C   UNL     1      40.065  66.076  21.980  1.00  0.00     0.000 C 
BRANCH   4   5
ATOM      5  C   UNL     1      39.105  67.130  22.549  1.00  0.00     0.000 C 
BRANCH   5   6
ATOM      6  C   UNL     1      38.561  66.754  23.939  1.00  0.00     0.000 C 
BRANCH   6   7
ATOM      7  C   UNL     1      37.481  67.725  24.461  1.00  0.00     0.000 C 
BRANCH   7   8
ATOM      8  C   UNL     1      36.968  67.324  25.856  1.00  0.00     0.000 C 
BRANCH   8   9
ATOM      9  C   UNL     1      35.441  67.429  25.983  1.00  0.00     0.000 C 
BRANCH   9  10
ATOM     10  C   UNL     1      34.749  66.056  25.940  1.00  0.00     0.006 C 
BRANCH  10  11
ATOM     11  C   UNL     1      35.066  65.242  27.199  1.00  0.00     0.053 C 
BRANCH  11  12
ATOM     12  C   UNL     1      34.797  63.785  26.981  1.00  0.00     0.041 C 
ATOM     13  O   UNL     1      34.695  63.323  25.811  1.00  0.00    -0.550 OA
ATOM     14  O   UNL     1      34.676  62.929  28.071  1.00  0.00    -0.550 OA
ENDBRANCH  11  12
ENDBRANCH  10  11
ENDBRANCH   9  10
ENDBRANCH   8   9
ENDBRANCH   7   8
ENDBRANCH   6   7
ENDBRANCH   5   6
ENDBRANCH   4   5
ENDBRANCH   3   4
ENDBRANCH   2   3
ENDBRANCH   1   2
BRANCH   1  15
ATOM     15  C   UNL     1      41.737  68.129  25.431  1.00  0.00     0.000 C 
BRANCH  15  16
ATOM     16  C   UNL     1      40.841  66.955  25.850  1.00  0.00     0.000 C 
BRANCH  16  17
ATOM     17  C   UNL     1      41.647  65.658  25.988  1.00  0.00     0.000 C 
BRANCH  17  18
ATOM     18  C   UNL     1      41.303  64.681  24.854  1.00  0.00    -0.000 C 
BRANCH  18  19
ATOM     19  C   UNL     1      42.296  63.514  24.753  1.00  0.00    -0.000 C 
BRANCH  19  20
ATOM     20  C   UNL     1      42.242  62.580  25.975  1.00  0.00    -0.000 C 
BRANCH  20  21
ATOM     21  C   UNL     1      43.340  61.507  25.942  1.00  0.00    -0.000 C 
BRANCH  21  22
ATOM     22  C   UNL     1      44.719  62.057  26.350  1.00  0.00    -0.000 C 
BRANCH  22  23
ATOM     23  C   UNL     1      45.726  62.034  25.189  1.00  0.00    -0.000 C 
BRANCH  23  24
ATOM     24  C   UNL     1      46.868  63.044  25.383  1.00  0.00    -0.000 C 
BRANCH  24  25
ATOM     25  C   UNL     1      46.983  63.473  26.850  1.00  0.00    -0.003 C 
ATOM     26  C   UNL     1      48.317  63.037  27.451  1.00  0.00     0.004 C 
ENDBRANCH  24  25
ENDBRANCH  23  24
ENDBRANCH  22  23
ENDBRANCH  21  22
ENDBRANCH  20  21
ENDBRANCH  19  20
ENDBRANCH  18  19
ENDBRANCH  17  18
ENDBRANCH  16  17
ENDBRANCH  15  16
ENDBRANCH   1  15
TORSDOF 22
ENDMDL
MODEL 9
REMARK VINA RESULT:    -3.986      4.063      6.665
REMARK INTER + INTRA:         -10.175
REMARK INTER:                  -9.453
REMARK INTRA:                  -0.722
REMARK UNBOUND:                -1.062
REMARK SMILES CCCCCCCCCCCCCCCCCCCCCCCC(=O)[O-]
REMARK SMILES IDX 13 1 14 2 15 3 16 4 17 5 18 6 19 7 20 8 21 9 22 10 23 11
REMARK SMILES IDX 24 12 25 13 26 14 12 15 11 16 10 17 9 18 8 19 7 20 6 21 5 22
REMARK SMILES IDX 4 23 3 24 2 25 1 26
REMARK H PARENT
REMARK Flexibility Score: inf
ROOT
ATOM      1  C   UNL     1      42.124  68.167  24.437  1.00  0.00     0.000 C 
ENDROOT
BRANCH   1   2
ATOM      2  C   UNL     1      41.056  67.485  25.316  1.00  0.00     0.000 C 
BRANCH   2   3
ATOM      3  C   UNL     1      39.955  66.739  24.543  1.00  0.00     0.000 C 
BRANCH   3   4
ATOM      4  C   UNL     1      40.361  66.428  23.096  1.00  0.00     0.000 C 
BRANCH   4   5
ATOM      5  C   UNL     1      41.210  65.152  23.014  1.00  0.00     0.000 C 
BRANCH   5   6
ATOM      6  C   UNL     1      41.786  64.728  24.377  1.00  0.00     0.000 C 
BRANCH   6   7
ATOM      7  C   UNL     1      41.752  63.203  24.613  1.00  0.00     0.000 C 
BRANCH   7   8
ATOM      8  C   UNL     1      42.336  62.817  25.985  1.00  0.00     0.000 C 
BRANCH   8   9
ATOM      9  C   UNL     1      43.325  61.645  25.902  1.00  0.00     0.000 C 
BRANCH   9  10
ATOM     10  C   UNL     1      44.719  62.007  26.443  1.00  0.00     0.006 C 
BRANCH  10  11
ATOM     11  C   UNL     1      45.715  62.213  25.296  1.00  0.00     0.053 C 
BRANCH  11  12
ATOM     12  C   UNL     1      46.853  63.089  25.721  1.00  0.00     0.041 C 
ATOM     13  O   UNL     1      47.696  63.495  24.874  1.00  0.00    -0.550 OA
ATOM     14  O   UNL     1      46.976  63.473  27.052  1.00  0.00    -0.550 OA
ENDBRANCH  11  12
ENDBRANCH  10  11
ENDBRANCH   9  10
ENDBRANCH   8   9
ENDBRANCH   7   8
ENDBRANCH   6   7
ENDBRANCH   5   6
ENDBRANCH   4   5
ENDBRANCH   3   4
ENDBRANCH   2   3
ENDBRANCH   1   2
BRANCH   1  15
ATOM     15  C   UNL     1      42.981  69.226  25.157  1.00  0.00     0.000 C 
BRANCH  15  16
ATOM     16  C   UNL     1      43.281  70.442  24.269  1.00  0.00     0.000 C 
BRANCH  16  17
ATOM     17  C   UNL     1      44.460  71.257  24.815  1.00  0.00     0.000 C 
BRANCH  17  18
ATOM     18  C   UNL     1      44.006  72.668  25.216  1.00  0.00    -0.000 C 
BRANCH  18  19
ATOM     19  C   UNL     1      42.651  73.052  24.606  1.00  0.00    -0.000 C 
BRANCH  19  20
ATOM     20  C   UNL     1      41.660  73.593  25.652  1.00  0.00    -0.000 C 
BRANCH  20  21
ATOM     21  C   UNL     1      40.513  74.393  25.016  1.00  0.00    -0.000 C 
BRANCH  21  22
ATOM     22  C   UNL     1      40.323  74.070  23.523  1.00  0.00    -0.000 C 
BRANCH  22  23
ATOM     23  C   UNL     1      39.141  74.834  22.904  1.00  0.00    -0.000 C 
BRANCH  23  24
ATOM     24  C   UNL     1      37.876  73.969  22.792  1.00  0.00    -0.000 C 
BRANCH  24  25
ATOM     25  C   UNL     1      36.924  74.518  21.725  1.00  0.00    -0.003 C 
ATOM     26  C   UNL     1      37.271  75.961  21.364  1.00  0.00     0.004 C 
ENDBRANCH  24  25
ENDBRANCH  23  24
ENDBRANCH  22  23
ENDBRANCH  21  22
ENDBRANCH  20  21
ENDBRANCH  19  20
ENDBRANCH  18  19
ENDBRANCH  17  18
ENDBRANCH  16  17
ENDBRANCH  15  16
ENDBRANCH   1  15
TORSDOF 22
ENDMDL
