MODEL 1
REMARK VINA RESULT:    -5.389      0.000      0.000
REMARK INTER + INTRA:          -5.389
REMARK INTER:                  -5.389
REMARK INTRA:                   0.000
REMARK UNBOUND:                 0.000
REMARK SMILES CC1=CC[C@@H]2C[C@H]1C2(C)C
REMARK SMILES IDX 1 1 2 2 3 3 4 4 5 5 6 6 7 7 8 8 9 9 10 10
REMARK H PARENT
REMARK Flexibility Score: inf
ROOT
ATOM      1  C   UNL     1       4.790  15.268   3.438  1.00  0.00     0.039 C 
ATOM      2  C   UNL     1       3.867  14.098   3.587  1.00  0.00    -0.074 C 
ATOM      3  C   UNL     1       4.343  12.820   3.648  1.00  0.00    -0.027 C 
ATOM      4  C   UNL     1       3.339  11.663   3.829  1.00  0.00     0.031 C 
ATOM      5  C   UNL     1       1.875  12.222   3.869  1.00  0.00    -0.000 C 
ATOM      6  C   UNL     1       1.775  13.213   2.691  1.00  0.00     0.013 C 
ATOM      7  C   UNL     1       2.343  14.272   3.657  1.00  0.00     0.021 C 
ATOM      8  C   UNL     1       1.784  13.433   4.837  1.00  0.00    -0.026 C 
ATOM      9  C   UNL     1       0.318  13.802   5.178  1.00  0.00     0.012 C 
ATOM     10  C   UNL     1       2.596  13.390   6.162  1.00  0.00     0.012 C 
ENDROOT
TORSDOF 0
ENDMDL
MODEL 2
REMARK VINA RESULT:    -4.669      1.055      2.378
REMARK INTER + INTRA:          -4.669
REMARK INTER:                  -4.669
REMARK INTRA:                   0.000
REMARK UNBOUND:                 0.000
REMARK SMILES CC1=CC[C@@H]2C[C@H]1C2(C)C
REMARK SMILES IDX 1 1 2 2 3 3 4 4 5 5 6 6 7 7 8 8 9 9 10 10
REMARK H PARENT
REMARK Flexibility Score: inf
ROOT
ATOM      1  C   UNL     1       0.983  14.902   1.893  1.00  0.00     0.039 C 
ATOM      2  C   UNL     1       1.713  13.824   2.635  1.00  0.00    -0.074 C 
ATOM      3  C   UNL     1       2.422  12.863   1.975  1.00  0.00    -0.027 C 
ATOM      4  C   UNL     1       3.174  11.798   2.800  1.00  0.00     0.031 C 
ATOM      5  C   UNL     1       2.921  12.027   4.331  1.00  0.00    -0.000 C 
ATOM      6  C   UNL     1       1.401  12.249   4.473  1.00  0.00     0.013 C 
ATOM      7  C   UNL     1       1.685  13.733   4.167  1.00  0.00     0.021 C 
ATOM      8  C   UNL     1       3.128  13.522   4.696  1.00  0.00    -0.026 C 
ATOM      9  C   UNL     1       3.232  13.742   6.227  1.00  0.00     0.012 C 
ATOM     10  C   UNL     1       4.286  14.302   4.012  1.00  0.00     0.012 C 
ENDROOT
TORSDOF 0
ENDMDL
MODEL 3
REMARK VINA RESULT:    -4.589      1.086      3.269
REMARK INTER + INTRA:          -4.589
REMARK INTER:                  -4.589
REMARK INTRA:                   0.000
REMARK UNBOUND:                 0.000
REMARK SMILES CC1=CC[C@@H]2C[C@H]1C2(C)C
REMARK SMILES IDX 1 1 2 2 3 3 4 4 5 5 6 6 7 7 8 8 9 9 10 10
REMARK H PARENT
REMARK Flexibility Score: inf
ROOT
ATOM      1  C   UNL     1       0.046  13.166   5.189  1.00  0.00     0.039 C 
ATOM      2  C   UNL     1       1.381  13.024   4.523  1.00  0.00    -0.074 C 
ATOM      3  C   UNL     1       1.905  11.797   4.236  1.00  0.00    -0.027 C 
ATOM      4  C   UNL     1       3.271  11.723   3.524  1.00  0.00     0.031 C 
ATOM      5  C   UNL     1       3.837  13.167   3.296  1.00  0.00    -0.000 C 
ATOM      6  C   UNL     1       3.655  13.904   4.638  1.00  0.00     0.013 C 
ATOM      7  C   UNL     1       2.233  14.245   4.149  1.00  0.00     0.021 C 
ATOM      8  C   UNL     1       2.743  14.089   2.692  1.00  0.00    -0.026 C 
ATOM      9  C   UNL     1       3.332  15.408   2.130  1.00  0.00     0.012 C 
ATOM     10  C   UNL     1       1.774  13.497   1.630  1.00  0.00     0.012 C 
ENDROOT
TORSDOF 0
ENDMDL
MODEL 4
REMARK VINA RESULT:    -4.205      1.915      4.527
REMARK INTER + INTRA:          -4.205
REMARK INTER:                  -4.205
REMARK INTRA:                   0.000
REMARK UNBOUND:                 0.000
REMARK SMILES CC1=CC[C@@H]2C[C@H]1C2(C)C
REMARK SMILES IDX 1 1 2 2 3 3 4 4 5 5 6 6 7 7 8 8 9 9 10 10
REMARK H PARENT
REMARK Flexibility Score: inf
ROOT
ATOM      1  C   UNL     1      -2.091  15.217   6.540  1.00  0.00     0.039 C 
ATOM      2  C   UNL     1      -1.245  14.048   6.137  1.00  0.00    -0.074 C 
ATOM      3  C   UNL     1      -1.782  12.804   5.975  1.00  0.00    -0.027 C 
ATOM      4  C   UNL     1      -0.860  11.650   5.532  1.00  0.00     0.031 C 
ATOM      5  C   UNL     1       0.614  12.165   5.386  1.00  0.00    -0.000 C 
ATOM      6  C   UNL     1       0.894  12.992   6.657  1.00  0.00     0.013 C 
ATOM      7  C   UNL     1       0.267  14.184   5.906  1.00  0.00     0.021 C 
ATOM      8  C   UNL     1       0.648  13.488   4.573  1.00  0.00    -0.026 C 
ATOM      9  C   UNL     1       2.080  13.852   4.106  1.00  0.00     0.012 C 
ATOM     10  C   UNL     1      -0.314  13.640   3.360  1.00  0.00     0.012 C 
ENDROOT
TORSDOF 0
ENDMDL
MODEL 5
REMARK VINA RESULT:    -4.073      1.060      2.369
REMARK INTER + INTRA:          -4.073
REMARK INTER:                  -4.073
REMARK INTRA:                   0.000
REMARK UNBOUND:                 0.000
REMARK SMILES CC1=CC[C@@H]2C[C@H]1C2(C)C
REMARK SMILES IDX 1 1 2 2 3 3 4 4 5 5 6 6 7 7 8 8 9 9 10 10
REMARK H PARENT
REMARK Flexibility Score: inf
ROOT
ATOM      1  C   UNL     1       5.074  15.203   4.148  1.00  0.00     0.039 C 
ATOM      2  C   UNL     1       4.000  14.158   4.117  1.00  0.00    -0.074 C 
ATOM      3  C   UNL     1       3.272  13.854   5.230  1.00  0.00    -0.027 C 
ATOM      4  C   UNL     1       2.162  12.789   5.122  1.00  0.00     0.031 C 
ATOM      5  C   UNL     1       2.119  12.203   3.668  1.00  0.00    -0.000 C 
ATOM      6  C   UNL     1       3.584  11.897   3.298  1.00  0.00     0.013 C 
ATOM      7  C   UNL     1       3.678  13.366   2.842  1.00  0.00     0.021 C 
ATOM      8  C   UNL     1       2.142  13.351   2.621  1.00  0.00    -0.026 C 
ATOM      9  C   UNL     1       1.756  12.858   1.203  1.00  0.00     0.012 C 
ATOM     10  C   UNL     1       1.340  14.648   2.921  1.00  0.00     0.012 C 
ENDROOT
TORSDOF 0
ENDMDL
MODEL 6
REMARK VINA RESULT:    -3.995     14.811     16.325
REMARK INTER + INTRA:          -3.995
REMARK INTER:                  -3.995
REMARK INTRA:                   0.000
REMARK UNBOUND:                 0.000
REMARK SMILES CC1=CC[C@@H]2C[C@H]1C2(C)C
REMARK SMILES IDX 1 1 2 2 3 3 4 4 5 5 6 6 7 7 8 8 9 9 10 10
REMARK H PARENT
REMARK Flexibility Score: inf
ROOT
ATOM      1  C   UNL     1       8.541   5.509  14.323  1.00  0.00     0.039 C 
ATOM      2  C   UNL     1       8.332   4.934  15.691  1.00  0.00    -0.074 C 
ATOM      3  C   UNL     1       9.383   4.682  16.525  1.00  0.00    -0.027 C 
ATOM      4  C   UNL     1       9.096   4.116  17.930  1.00  0.00     0.031 C 
ATOM      5  C   UNL     1       7.555   3.890  18.114  1.00  0.00    -0.000 C 
ATOM      6  C   UNL     1       7.083   3.175  16.832  1.00  0.00     0.013 C 
ATOM      7  C   UNL     1       6.934   4.580  16.216  1.00  0.00     0.021 C 
ATOM      8  C   UNL     1       6.765   5.145  17.651  1.00  0.00    -0.026 C 
ATOM      9  C   UNL     1       5.290   5.117  18.125  1.00  0.00     0.012 C 
ATOM     10  C   UNL     1       7.351   6.550  17.964  1.00  0.00     0.012 C 
ENDROOT
TORSDOF 0
ENDMDL
MODEL 7
REMARK VINA RESULT:    -3.953      2.262      3.941
REMARK INTER + INTRA:          -3.953
REMARK INTER:                  -3.953
REMARK INTRA:                   0.000
REMARK UNBOUND:                 0.000
REMARK SMILES CC1=CC[C@@H]2C[C@H]1C2(C)C
REMARK SMILES IDX 1 1 2 2 3 3 4 4 5 5 6 6 7 7 8 8 9 9 10 10
REMARK H PARENT
REMARK Flexibility Score: inf
ROOT
ATOM      1  C   UNL     1       0.956  12.665  -0.624  1.00  0.00     0.039 C 
ATOM      2  C   UNL     1       1.363  13.656   0.423  1.00  0.00    -0.074 C 
ATOM      3  C   UNL     1       1.534  14.977   0.124  1.00  0.00    -0.027 C 
ATOM      4  C   UNL     1       1.927  15.948   1.256  1.00  0.00     0.031 C 
ATOM      5  C   UNL     1       2.101  15.163   2.602  1.00  0.00    -0.000 C 
ATOM      6  C   UNL     1       2.953  13.926   2.256  1.00  0.00     0.013 C 
ATOM      7  C   UNL     1       1.628  13.236   1.876  1.00  0.00     0.021 C 
ATOM      8  C   UNL     1       0.895  14.212   2.835  1.00  0.00    -0.026 C 
ATOM      9  C   UNL     1       0.841  13.680   4.289  1.00  0.00     0.012 C 
ATOM     10  C   UNL     1      -0.526  14.705   2.443  1.00  0.00     0.012 C 
ENDROOT
TORSDOF 0
ENDMDL
MODEL 8
REMARK VINA RESULT:    -3.898      2.496      4.288
REMARK INTER + INTRA:          -3.898
REMARK INTER:                  -3.898
REMARK INTRA:                   0.000
REMARK UNBOUND:                 0.000
REMARK SMILES CC1=CC[C@@H]2C[C@H]1C2(C)C
REMARK SMILES IDX 1 1 2 2 3 3 4 4 5 5 6 6 7 7 8 8 9 9 10 10
REMARK H PARENT
REMARK Flexibility Score: inf
ROOT
ATOM      1  C   UNL     1       2.775  12.611   3.327  1.00  0.00     0.039 C 
ATOM      2  C   UNL     1       1.841  13.419   2.478  1.00  0.00    -0.074 C 
ATOM      3  C   UNL     1       0.734  14.016   3.010  1.00  0.00    -0.027 C 
ATOM      4  C   UNL     1      -0.170  14.856   2.086  1.00  0.00     0.031 C 
ATOM      5  C   UNL     1       0.378  14.818   0.617  1.00  0.00    -0.000 C 
ATOM      6  C   UNL     1       0.691  13.337   0.327  1.00  0.00     0.013 C 
ATOM      7  C   UNL     1       2.066  13.599   0.971  1.00  0.00     0.021 C 
ATOM      8  C   UNL     1       1.906  15.097   0.602  1.00  0.00    -0.026 C 
ATOM      9  C   UNL     1       2.430  15.413  -0.822  1.00  0.00     0.012 C 
ATOM     10  C   UNL     1       2.477  16.163   1.579  1.00  0.00     0.012 C 
ENDROOT
TORSDOF 0
ENDMDL
MODEL 9
REMARK VINA RESULT:    -3.856      3.000      4.745
REMARK INTER + INTRA:          -3.856
REMARK INTER:                  -3.856
REMARK INTRA:                   0.000
REMARK UNBOUND:                 0.000
REMARK SMILES CC1=CC[C@@H]2C[C@H]1C2(C)C
REMARK SMILES IDX 1 1 2 2 3 3 4 4 5 5 6 6 7 7 8 8 9 9 10 10
REMARK H PARENT
REMARK Flexibility Score: inf
ROOT
ATOM      1  C   UNL     1       1.172  13.701   3.819  1.00  0.00     0.039 C 
ATOM      2  C   UNL     1       0.968  14.381   2.499  1.00  0.00    -0.074 C 
ATOM      3  C   UNL     1       1.889  15.256   2.000  1.00  0.00    -0.027 C 
ATOM      4  C   UNL     1       1.631  15.901   0.624  1.00  0.00     0.031 C 
ATOM      5  C   UNL     1       0.250  15.421   0.056  1.00  0.00    -0.000 C 
ATOM      6  C   UNL     1      -0.750  15.556   1.223  1.00  0.00     0.013 C 
ATOM      7  C   UNL     1      -0.292  14.148   1.654  1.00  0.00     0.021 C 
ATOM      8  C   UNL     1       0.119  13.878   0.182  1.00  0.00    -0.026 C 
ATOM      9  C   UNL     1      -1.053  13.318  -0.663  1.00  0.00     0.012 C 
ATOM     10  C   UNL     1       1.375  13.001  -0.084  1.00  0.00     0.012 C 
ENDROOT
TORSDOF 0
ENDMDL
