MODEL 1
REMARK VINA RESULT:    -3.626      0.000      0.000
REMARK INTER + INTRA:          -9.444
REMARK INTER:                  -6.593
REMARK INTRA:                  -2.851
REMARK UNBOUND:                -2.851
REMARK SMILES CCCCCC=CCC=CCCCCCCCC(=O)[O-]
REMARK SMILES IDX 11 1 12 2 13 3 14 4 15 5 16 6 17 7 18 8 19 9 20 10 10 11
REMARK SMILES IDX 9 12 8 13 7 14 6 15 5 16 4 17 3 18 2 19 1 20
REMARK H PARENT
REMARK Flexibility Score: inf
ROOT
ATOM      1  C   UNL     1      60.439  31.982  59.796  1.00  0.00     0.027 C 
ENDROOT
BRANCH   1   2
ATOM      2  C   UNL     1      60.758  31.657  61.266  1.00  0.00     0.004 C 
BRANCH   2   3
ATOM      3  C   UNL     1      61.167  30.193  61.527  1.00  0.00     0.000 C 
BRANCH   3   4
ATOM      4  C   UNL     1      62.594  30.002  62.071  1.00  0.00     0.000 C 
BRANCH   4   5
ATOM      5  C   UNL     1      63.463  29.108  61.174  1.00  0.00     0.000 C 
BRANCH   5   6
ATOM      6  C   UNL     1      62.664  27.901  60.662  1.00  0.00     0.006 C 
BRANCH   6   7
ATOM      7  C   UNL     1      62.878  26.652  61.527  1.00  0.00     0.053 C 
BRANCH   7   8
ATOM      8  C   UNL     1      61.663  26.312  62.335  1.00  0.00     0.041 C 
ATOM      9  O   UNL     1      60.523  26.688  61.955  1.00  0.00    -0.550 OA
ATOM     10  O   UNL     1      61.789  25.575  63.506  1.00  0.00    -0.550 OA
ENDBRANCH   7   8
ENDBRANCH   6   7
ENDBRANCH   5   6
ENDBRANCH   4   5
ENDBRANCH   3   4
ENDBRANCH   2   3
ENDBRANCH   1   2
BRANCH   1  11
ATOM     11  C   UNL     1      61.115  31.030  58.841  1.00  0.00    -0.031 C 
ATOM     12  C   UNL     1      62.268  31.283  58.196  1.00  0.00    -0.027 C 
BRANCH  12  13
ATOM     13  C   UNL     1      63.104  32.520  58.396  1.00  0.00     0.054 C 
BRANCH  13  14
ATOM     14  C   UNL     1      64.420  32.183  59.055  1.00  0.00    -0.027 C 
ATOM     15  C   UNL     1      64.721  32.500  60.327  1.00  0.00    -0.031 C 
BRANCH  15  16
ATOM     16  C   UNL     1      63.815  33.278  61.249  1.00  0.00     0.027 C 
BRANCH  16  17
ATOM     17  C   UNL     1      64.365  34.681  61.572  1.00  0.00     0.004 C 
BRANCH  17  18
ATOM     18  C   UNL     1      63.382  35.822  61.258  1.00  0.00     0.000 C 
BRANCH  18  19
ATOM     19  C   UNL     1      62.049  35.320  60.687  1.00  0.00    -0.003 C 
ATOM     20  C   UNL     1      60.936  36.344  60.898  1.00  0.00     0.004 C 
ENDBRANCH  18  19
ENDBRANCH  17  18
ENDBRANCH  16  17
ENDBRANCH  15  16
ENDBRANCH  13  14
ENDBRANCH  12  13
ENDBRANCH   1  11
TORSDOF 14
ENDMDL
MODEL 2
REMARK VINA RESULT:    -3.389      1.352      2.778
REMARK INTER + INTRA:          -9.013
REMARK INTER:                  -6.293
REMARK INTRA:                  -2.719
REMARK UNBOUND:                -2.851
REMARK SMILES CCCCCC=CCC=CCCCCCCCC(=O)[O-]
REMARK SMILES IDX 11 1 12 2 13 3 14 4 15 5 16 6 17 7 18 8 19 9 20 10 10 11
REMARK SMILES IDX 9 12 8 13 7 14 6 15 5 16 4 17 3 18 2 19 1 20
REMARK H PARENT
REMARK Flexibility Score: inf
ROOT
ATOM      1  C   UNL     1      62.578  32.567  58.582  1.00  0.00     0.027 C 
ENDROOT
BRANCH   1   2
ATOM      2  C   UNL     1      61.406  31.647  58.968  1.00  0.00     0.004 C 
BRANCH   2   3
ATOM      3  C   UNL     1      60.537  32.167  60.131  1.00  0.00     0.000 C 
BRANCH   3   4
ATOM      4  C   UNL     1      60.766  31.465  61.481  1.00  0.00     0.000 C 
BRANCH   4   5
ATOM      5  C   UNL     1      61.103  29.974  61.331  1.00  0.00     0.000 C 
BRANCH   5   6
ATOM      6  C   UNL     1      62.442  29.643  62.006  1.00  0.00     0.006 C 
BRANCH   6   7
ATOM      7  C   UNL     1      63.277  28.652  61.184  1.00  0.00     0.053 C 
BRANCH   7   8
ATOM      8  C   UNL     1      63.065  27.236  61.626  1.00  0.00     0.041 C 
ATOM      9  O   UNL     1      63.869  26.334  61.272  1.00  0.00    -0.550 OA
ATOM     10  O   UNL     1      61.982  26.914  62.435  1.00  0.00    -0.550 OA
ENDBRANCH   7   8
ENDBRANCH   6   7
ENDBRANCH   5   6
ENDBRANCH   4   5
ENDBRANCH   3   4
ENDBRANCH   2   3
ENDBRANCH   1   2
BRANCH   1  11
ATOM     11  C   UNL     1      63.916  31.958  58.914  1.00  0.00    -0.031 C 
ATOM     12  C   UNL     1      64.573  32.138  60.074  1.00  0.00    -0.027 C 
BRANCH  12  13
ATOM     13  C   UNL     1      64.030  32.907  61.251  1.00  0.00     0.054 C 
BRANCH  13  14
ATOM     14  C   UNL     1      64.503  34.340  61.225  1.00  0.00    -0.027 C 
ATOM     15  C   UNL     1      63.674  35.400  61.211  1.00  0.00    -0.031 C 
BRANCH  15  16
ATOM     16  C   UNL     1      62.169  35.304  61.165  1.00  0.00     0.027 C 
BRANCH  16  17
ATOM     17  C   UNL     1      61.500  36.654  60.846  1.00  0.00     0.004 C 
BRANCH  17  18
ATOM     18  C   UNL     1      60.977  36.764  59.403  1.00  0.00     0.000 C 
BRANCH  18  19
ATOM     19  C   UNL     1      60.072  35.589  59.007  1.00  0.00    -0.003 C 
ATOM     20  C   UNL     1      60.176  35.289  57.514  1.00  0.00     0.004 C 
ENDBRANCH  18  19
ENDBRANCH  17  18
ENDBRANCH  16  17
ENDBRANCH  15  16
ENDBRANCH  13  14
ENDBRANCH  12  13
ENDBRANCH   1  11
TORSDOF 14
ENDMDL
MODEL 3
REMARK VINA RESULT:    -3.280      1.779      1.989
REMARK INTER + INTRA:          -8.815
REMARK INTER:                  -5.809
REMARK INTRA:                  -3.006
REMARK UNBOUND:                -2.851
REMARK SMILES CCCCCC=CCC=CCCCCCCCC(=O)[O-]
REMARK SMILES IDX 11 1 12 2 13 3 14 4 15 5 16 6 17 7 18 8 19 9 20 10 10 11
REMARK SMILES IDX 9 12 8 13 7 14 6 15 5 16 4 17 3 18 2 19 1 20
REMARK H PARENT
REMARK Flexibility Score: inf
ROOT
ATOM      1  C   UNL     1      60.478  32.010  59.790  1.00  0.00     0.027 C 
ENDROOT
BRANCH   1   2
ATOM      2  C   UNL     1      60.775  31.637  61.253  1.00  0.00     0.004 C 
BRANCH   2   3
ATOM      3  C   UNL     1      61.192  30.169  61.470  1.00  0.00     0.000 C 
BRANCH   3   4
ATOM      4  C   UNL     1      62.588  29.972  62.089  1.00  0.00     0.000 C 
BRANCH   4   5
ATOM      5  C   UNL     1      63.508  29.097  61.226  1.00  0.00     0.000 C 
BRANCH   5   6
ATOM      6  C   UNL     1      62.724  27.944  60.580  1.00  0.00     0.006 C 
BRANCH   6   7
ATOM      7  C   UNL     1      63.038  27.793  59.086  1.00  0.00     0.053 C 
BRANCH   7   8
ATOM      8  C   UNL     1      63.994  26.669  58.824  1.00  0.00     0.041 C 
ATOM      9  O   UNL     1      64.262  26.326  57.643  1.00  0.00    -0.550 OA
ATOM     10  O   UNL     1      64.592  26.002  59.886  1.00  0.00    -0.550 OA
ENDBRANCH   7   8
ENDBRANCH   6   7
ENDBRANCH   5   6
ENDBRANCH   4   5
ENDBRANCH   3   4
ENDBRANCH   2   3
ENDBRANCH   1   2
BRANCH   1  11
ATOM     11  C   UNL     1      61.136  31.067  58.815  1.00  0.00    -0.031 C 
ATOM     12  C   UNL     1      62.296  31.311  58.179  1.00  0.00    -0.027 C 
BRANCH  12  13
ATOM     13  C   UNL     1      63.157  32.526  58.410  1.00  0.00     0.054 C 
BRANCH  13  14
ATOM     14  C   UNL     1      64.459  32.147  59.074  1.00  0.00    -0.027 C 
ATOM     15  C   UNL     1      64.759  32.440  60.352  1.00  0.00    -0.031 C 
BRANCH  15  16
ATOM     16  C   UNL     1      63.866  33.231  61.277  1.00  0.00     0.027 C 
BRANCH  16  17
ATOM     17  C   UNL     1      64.414  34.642  61.563  1.00  0.00     0.004 C 
BRANCH  17  18
ATOM     18  C   UNL     1      63.388  35.765  61.336  1.00  0.00     0.000 C 
BRANCH  18  19
ATOM     19  C   UNL     1      62.145  35.291  60.571  1.00  0.00    -0.003 C 
ATOM     20  C   UNL     1      60.931  36.158  60.895  1.00  0.00     0.004 C 
ENDBRANCH  18  19
ENDBRANCH  17  18
ENDBRANCH  16  17
ENDBRANCH  15  16
ENDBRANCH  13  14
ENDBRANCH  12  13
ENDBRANCH   1  11
TORSDOF 14
ENDMDL
MODEL 4
REMARK VINA RESULT:    -3.248     10.602     12.349
REMARK INTER + INTRA:          -8.758
REMARK INTER:                  -6.012
REMARK INTRA:                  -2.746
REMARK UNBOUND:                -2.851
REMARK SMILES CCCCCC=CCC=CCCCCCCCC(=O)[O-]
REMARK SMILES IDX 11 1 12 2 13 3 14 4 15 5 16 6 17 7 18 8 19 9 20 10 10 11
REMARK SMILES IDX 9 12 8 13 7 14 6 15 5 16 4 17 3 18 2 19 1 20
REMARK H PARENT
REMARK Flexibility Score: inf
ROOT
ATOM      1  C   UNL     1      54.602  26.848  50.728  1.00  0.00     0.027 C 
ENDROOT
BRANCH   1   2
ATOM      2  C   UNL     1      55.353  25.927  49.750  1.00  0.00     0.004 C 
BRANCH   2   3
ATOM      3  C   UNL     1      56.868  25.808  50.014  1.00  0.00     0.000 C 
BRANCH   3   4
ATOM      4  C   UNL     1      57.252  25.460  51.463  1.00  0.00     0.000 C 
BRANCH   4   5
ATOM      5  C   UNL     1      58.642  24.818  51.577  1.00  0.00     0.000 C 
BRANCH   5   6
ATOM      6  C   UNL     1      59.742  25.815  51.181  1.00  0.00     0.006 C 
BRANCH   6   7
ATOM      7  C   UNL     1      60.450  25.412  49.881  1.00  0.00     0.053 C 
BRANCH   7   8
ATOM      8  C   UNL     1      61.316  24.203  50.064  1.00  0.00     0.041 C 
ATOM      9  O   UNL     1      62.348  24.265  50.783  1.00  0.00    -0.550 OA
ATOM     10  O   UNL     1      60.980  23.005  49.445  1.00  0.00    -0.550 OA
ENDBRANCH   7   8
ENDBRANCH   6   7
ENDBRANCH   5   6
ENDBRANCH   4   5
ENDBRANCH   3   4
ENDBRANCH   2   3
ENDBRANCH   1   2
BRANCH   1  11
ATOM     11  C   UNL     1      54.211  28.158  50.093  1.00  0.00    -0.031 C 
ATOM     12  C   UNL     1      53.884  29.272  50.773  1.00  0.00    -0.027 C 
BRANCH  12  13
ATOM     13  C   UNL     1      53.944  29.404  52.273  1.00  0.00     0.054 C 
BRANCH  13  14
ATOM     14  C   UNL     1      54.885  30.512  52.681  1.00  0.00    -0.027 C 
ATOM     15  C   UNL     1      56.203  30.336  52.882  1.00  0.00    -0.031 C 
BRANCH  15  16
ATOM     16  C   UNL     1      56.911  29.007  52.783  1.00  0.00     0.027 C 
BRANCH  16  17
ATOM     17  C   UNL     1      58.100  29.043  51.803  1.00  0.00     0.004 C 
BRANCH  17  18
ATOM     18  C   UNL     1      57.688  29.217  50.331  1.00  0.00     0.000 C 
BRANCH  18  19
ATOM     19  C   UNL     1      58.847  28.968  49.356  1.00  0.00    -0.003 C 
ATOM     20  C   UNL     1      60.186  29.358  49.976  1.00  0.00     0.004 C 
ENDBRANCH  18  19
ENDBRANCH  17  18
ENDBRANCH  16  17
ENDBRANCH  15  16
ENDBRANCH  13  14
ENDBRANCH  12  13
ENDBRANCH   1  11
TORSDOF 14
ENDMDL
MODEL 5
REMARK VINA RESULT:    -3.231      1.718      3.445
REMARK INTER + INTRA:          -8.727
REMARK INTER:                  -6.536
REMARK INTRA:                  -2.191
REMARK UNBOUND:                -2.851
REMARK SMILES CCCCCC=CCC=CCCCCCCCC(=O)[O-]
REMARK SMILES IDX 11 1 12 2 13 3 14 4 15 5 16 6 17 7 18 8 19 9 20 10 10 11
REMARK SMILES IDX 9 12 8 13 7 14 6 15 5 16 4 17 3 18 2 19 1 20
REMARK H PARENT
REMARK Flexibility Score: inf
ROOT
ATOM      1  C   UNL     1      63.622  29.731  60.888  1.00  0.00     0.027 C 
ENDROOT
BRANCH   1   2
ATOM      2  C   UNL     1      63.505  28.352  60.216  1.00  0.00     0.004 C 
BRANCH   2   3
ATOM      3  C   UNL     1      63.444  27.162  61.195  1.00  0.00     0.000 C 
BRANCH   3   4
ATOM      4  C   UNL     1      62.746  25.904  60.649  1.00  0.00     0.000 C 
BRANCH   4   5
ATOM      5  C   UNL     1      61.599  25.417  61.546  1.00  0.00     0.000 C 
BRANCH   5   6
ATOM      6  C   UNL     1      60.856  26.603  62.180  1.00  0.00     0.006 C 
BRANCH   6   7
ATOM      7  C   UNL     1      59.753  27.153  61.267  1.00  0.00     0.053 C 
BRANCH   7   8
ATOM      8  C   UNL     1      58.385  26.904  61.825  1.00  0.00     0.041 C 
ATOM      9  O   UNL     1      57.603  27.867  62.042  1.00  0.00    -0.550 OA
ATOM     10  O   UNL     1      57.972  25.607  62.102  1.00  0.00    -0.550 OA
ENDBRANCH   7   8
ENDBRANCH   6   7
ENDBRANCH   5   6
ENDBRANCH   4   5
ENDBRANCH   3   4
ENDBRANCH   2   3
ENDBRANCH   1   2
BRANCH   1  11
ATOM     11  C   UNL     1      62.649  29.895  62.028  1.00  0.00    -0.031 C 
ATOM     12  C   UNL     1      61.498  30.590  61.958  1.00  0.00    -0.027 C 
BRANCH  12  13
ATOM     13  C   UNL     1      60.967  31.236  60.705  1.00  0.00     0.054 C 
BRANCH  13  14
ATOM     14  C   UNL     1      60.968  32.741  60.831  1.00  0.00    -0.027 C 
ATOM     15  C   UNL     1      61.904  33.536  60.281  1.00  0.00    -0.031 C 
BRANCH  15  16
ATOM     16  C   UNL     1      63.104  33.035  59.515  1.00  0.00     0.027 C 
BRANCH  16  17
ATOM     17  C   UNL     1      64.435  33.387  60.206  1.00  0.00     0.004 C 
BRANCH  17  18
ATOM     18  C   UNL     1      64.266  34.014  61.600  1.00  0.00     0.000 C 
BRANCH  18  19
ATOM     19  C   UNL     1      64.961  35.377  61.729  1.00  0.00    -0.003 C 
ATOM     20  C   UNL     1      63.947  36.517  61.740  1.00  0.00     0.004 C 
ENDBRANCH  18  19
ENDBRANCH  17  18
ENDBRANCH  16  17
ENDBRANCH  15  16
ENDBRANCH  13  14
ENDBRANCH  12  13
ENDBRANCH   1  11
TORSDOF 14
ENDMDL
MODEL 6
REMARK VINA RESULT:    -3.214      1.858      3.564
REMARK INTER + INTRA:          -8.696
REMARK INTER:                  -6.207
REMARK INTRA:                  -2.489
REMARK UNBOUND:                -2.851
REMARK SMILES CCCCCC=CCC=CCCCCCCCC(=O)[O-]
REMARK SMILES IDX 11 1 12 2 13 3 14 4 15 5 16 6 17 7 18 8 19 9 20 10 10 11
REMARK SMILES IDX 9 12 8 13 7 14 6 15 5 16 4 17 3 18 2 19 1 20
REMARK H PARENT
REMARK Flexibility Score: inf
ROOT
ATOM      1  C   UNL     1      63.051  30.565  61.844  1.00  0.00     0.027 C 
ENDROOT
BRANCH   1   2
ATOM      2  C   UNL     1      63.339  29.134  61.358  1.00  0.00     0.004 C 
BRANCH   2   3
ATOM      3  C   UNL     1      62.182  28.137  61.573  1.00  0.00     0.000 C 
BRANCH   3   4
ATOM      4  C   UNL     1      61.658  27.461  60.293  1.00  0.00     0.000 C 
BRANCH   4   5
ATOM      5  C   UNL     1      60.279  27.981  59.862  1.00  0.00     0.000 C 
BRANCH   5   6
ATOM      6  C   UNL     1      59.403  28.295  61.084  1.00  0.00     0.006 C 
BRANCH   6   7
ATOM      7  C   UNL     1      58.140  27.425  61.132  1.00  0.00     0.053 C 
BRANCH   7   8
ATOM      8  C   UNL     1      58.299  26.253  62.051  1.00  0.00     0.041 C 
ATOM      9  O   UNL     1      57.365  25.419  62.184  1.00  0.00    -0.550 OA
ATOM     10  O   UNL     1      59.482  26.079  62.760  1.00  0.00    -0.550 OA
ENDBRANCH   7   8
ENDBRANCH   6   7
ENDBRANCH   5   6
ENDBRANCH   4   5
ENDBRANCH   3   4
ENDBRANCH   2   3
ENDBRANCH   1   2
BRANCH   1  11
ATOM     11  C   UNL     1      61.576  30.821  62.023  1.00  0.00    -0.031 C 
ATOM     12  C   UNL     1      60.870  31.741  61.340  1.00  0.00    -0.027 C 
BRANCH  12  13
ATOM     13  C   UNL     1      61.429  32.595  60.231  1.00  0.00     0.054 C 
BRANCH  13  14
ATOM     14  C   UNL     1      61.386  34.058  60.602  1.00  0.00    -0.027 C 
ATOM     15  C   UNL     1      62.463  34.759  60.999  1.00  0.00    -0.031 C 
BRANCH  15  16
ATOM     16  C   UNL     1      63.841  34.174  61.183  1.00  0.00     0.027 C 
BRANCH  16  17
ATOM     17  C   UNL     1      64.805  34.566  60.046  1.00  0.00     0.004 C 
BRANCH  17  18
ATOM     18  C   UNL     1      64.741  33.631  58.826  1.00  0.00     0.000 C 
BRANCH  18  19
ATOM     19  C   UNL     1      65.031  32.166  59.183  1.00  0.00    -0.003 C 
ATOM     20  C   UNL     1      64.274  31.213  58.261  1.00  0.00     0.004 C 
ENDBRANCH  18  19
ENDBRANCH  17  18
ENDBRANCH  16  17
ENDBRANCH  15  16
ENDBRANCH  13  14
ENDBRANCH  12  13
ENDBRANCH   1  11
TORSDOF 14
ENDMDL
MODEL 7
REMARK VINA RESULT:    -3.179      9.805     12.548
REMARK INTER + INTRA:          -8.632
REMARK INTER:                  -6.010
REMARK INTRA:                  -2.622
REMARK UNBOUND:                -2.851
REMARK SMILES CCCCCC=CCC=CCCCCCCCC(=O)[O-]
REMARK SMILES IDX 11 1 12 2 13 3 14 4 15 5 16 6 17 7 18 8 19 9 20 10 10 11
REMARK SMILES IDX 9 12 8 13 7 14 6 15 5 16 4 17 3 18 2 19 1 20
REMARK H PARENT
REMARK Flexibility Score: inf
ROOT
ATOM      1  C   UNL     1      60.440  26.532  52.094  1.00  0.00     0.027 C 
ENDROOT
BRANCH   1   2
ATOM      2  C   UNL     1      60.798  27.542  53.198  1.00  0.00     0.004 C 
BRANCH   2   3
ATOM      3  C   UNL     1      60.387  28.998  52.896  1.00  0.00     0.000 C 
BRANCH   3   4
ATOM      4  C   UNL     1      61.540  29.928  52.479  1.00  0.00     0.000 C 
BRANCH   4   5
ATOM      5  C   UNL     1      61.139  30.928  51.385  1.00  0.00     0.000 C 
BRANCH   5   6
ATOM      6  C   UNL     1      61.874  30.628  50.071  1.00  0.00     0.006 C 
BRANCH   6   7
ATOM      7  C   UNL     1      63.173  29.843  50.297  1.00  0.00     0.053 C 
BRANCH   7   8
ATOM      8  C   UNL     1      64.268  30.293  49.378  1.00  0.00     0.041 C 
ATOM      9  O   UNL     1      65.177  31.055  49.799  1.00  0.00    -0.550 OA
ATOM     10  O   UNL     1      64.287  29.865  48.056  1.00  0.00    -0.550 OA
ENDBRANCH   7   8
ENDBRANCH   6   7
ENDBRANCH   5   6
ENDBRANCH   4   5
ENDBRANCH   3   4
ENDBRANCH   2   3
ENDBRANCH   1   2
BRANCH   1  11
ATOM     11  C   UNL     1      61.361  26.634  50.906  1.00  0.00    -0.031 C 
ATOM     12  C   UNL     1      60.956  26.818  49.636  1.00  0.00    -0.027 C 
BRANCH  12  13
ATOM     13  C   UNL     1      59.524  27.038  49.221  1.00  0.00     0.054 C 
BRANCH  13  14
ATOM     14  C   UNL     1      59.200  28.511  49.155  1.00  0.00    -0.027 C 
ATOM     15  C   UNL     1      58.198  29.087  49.843  1.00  0.00    -0.031 C 
BRANCH  15  16
ATOM     16  C   UNL     1      57.230  28.339  50.726  1.00  0.00     0.027 C 
BRANCH  16  17
ATOM     17  C   UNL     1      55.792  28.880  50.618  1.00  0.00     0.004 C 
BRANCH  17  18
ATOM     18  C   UNL     1      54.773  27.842  50.116  1.00  0.00     0.000 C 
BRANCH  18  19
ATOM     19  C   UNL     1      55.324  26.409  50.136  1.00  0.00    -0.003 C 
ATOM     20  C   UNL     1      54.416  25.457  49.361  1.00  0.00     0.004 C 
ENDBRANCH  18  19
ENDBRANCH  17  18
ENDBRANCH  16  17
ENDBRANCH  15  16
ENDBRANCH  13  14
ENDBRANCH  12  13
ENDBRANCH   1  11
TORSDOF 14
ENDMDL
MODEL 8
REMARK VINA RESULT:    -3.166      2.030      3.345
REMARK INTER + INTRA:          -8.609
REMARK INTER:                  -5.653
REMARK INTRA:                  -2.956
REMARK UNBOUND:                -2.851
REMARK SMILES CCCCCC=CCC=CCCCCCCCC(=O)[O-]
REMARK SMILES IDX 11 1 12 2 13 3 14 4 15 5 16 6 17 7 18 8 19 9 20 10 10 11
REMARK SMILES IDX 9 12 8 13 7 14 6 15 5 16 4 17 3 18 2 19 1 20
REMARK H PARENT
REMARK Flexibility Score: inf
ROOT
ATOM      1  C   UNL     1      60.984  32.314  58.547  1.00  0.00     0.027 C 
ENDROOT
BRANCH   1   2
ATOM      2  C   UNL     1      59.832  31.518  59.186  1.00  0.00     0.004 C 
BRANCH   2   3
ATOM      3  C   UNL     1      60.272  30.501  60.259  1.00  0.00     0.000 C 
BRANCH   3   4
ATOM      4  C   UNL     1      60.780  31.118  61.573  1.00  0.00     0.000 C 
BRANCH   4   5
ATOM      5  C   UNL     1      62.002  30.386  62.147  1.00  0.00     0.000 C 
BRANCH   5   6
ATOM      6  C   UNL     1      62.079  28.947  61.615  1.00  0.00     0.006 C 
BRANCH   6   7
ATOM      7  C   UNL     1      63.476  28.599  61.082  1.00  0.00     0.053 C 
BRANCH   7   8
ATOM      8  C   UNL     1      63.539  28.663  59.587  1.00  0.00     0.041 C 
ATOM      9  O   UNL     1      62.570  28.258  58.893  1.00  0.00    -0.550 OA
ATOM     10  O   UNL     1      64.668  29.175  58.959  1.00  0.00    -0.550 OA
ENDBRANCH   7   8
ENDBRANCH   6   7
ENDBRANCH   5   6
ENDBRANCH   4   5
ENDBRANCH   3   4
ENDBRANCH   2   3
ENDBRANCH   1   2
BRANCH   1  11
ATOM     11  C   UNL     1      60.647  33.775  58.386  1.00  0.00    -0.031 C 
ATOM     12  C   UNL     1      60.797  34.705  59.346  1.00  0.00    -0.027 C 
BRANCH  12  13
ATOM     13  C   UNL     1      61.406  34.444  60.700  1.00  0.00     0.054 C 
BRANCH  13  14
ATOM     14  C   UNL     1      62.669  35.248  60.889  1.00  0.00    -0.027 C 
ATOM     15  C   UNL     1      63.874  34.701  61.132  1.00  0.00    -0.031 C 
BRANCH  15  16
ATOM     16  C   UNL     1      64.119  33.223  61.304  1.00  0.00     0.027 C 
BRANCH  16  17
ATOM     17  C   UNL     1      64.188  32.476  59.958  1.00  0.00     0.004 C 
BRANCH  17  18
ATOM     18  C   UNL     1      65.147  33.116  58.939  1.00  0.00     0.000 C 
BRANCH  18  19
ATOM     19  C   UNL     1      64.475  33.409  57.591  1.00  0.00    -0.003 C 
ATOM     20  C   UNL     1      64.076  34.878  57.479  1.00  0.00     0.004 C 
ENDBRANCH  18  19
ENDBRANCH  17  18
ENDBRANCH  16  17
ENDBRANCH  15  16
ENDBRANCH  13  14
ENDBRANCH  12  13
ENDBRANCH   1  11
TORSDOF 14
ENDMDL
MODEL 9
REMARK VINA RESULT:    -3.159     11.201     12.741
REMARK INTER + INTRA:          -8.595
REMARK INTER:                  -6.002
REMARK INTRA:                  -2.593
REMARK UNBOUND:                -2.851
REMARK SMILES CCCCCC=CCC=CCCCCCCCC(=O)[O-]
REMARK SMILES IDX 11 1 12 2 13 3 14 4 15 5 16 6 17 7 18 8 19 9 20 10 10 11
REMARK SMILES IDX 9 12 8 13 7 14 6 15 5 16 4 17 3 18 2 19 1 20
REMARK H PARENT
REMARK Flexibility Score: inf
ROOT
ATOM      1  C   UNL     1      57.003  27.041  51.643  1.00  0.00     0.027 C 
ENDROOT
BRANCH   1   2
ATOM      2  C   UNL     1      57.741  28.379  51.459  1.00  0.00     0.004 C 
BRANCH   2   3
ATOM      3  C   UNL     1      57.626  28.988  50.047  1.00  0.00     0.000 C 
BRANCH   3   4
ATOM      4  C   UNL     1      58.942  29.039  49.250  1.00  0.00     0.000 C 
BRANCH   4   5
ATOM      5  C   UNL     1      60.182  28.804  50.124  1.00  0.00     0.000 C 
BRANCH   5   6
ATOM      6  C   UNL     1      60.951  27.557  49.664  1.00  0.00     0.006 C 
BRANCH   6   7
ATOM      7  C   UNL     1      60.013  26.397  49.303  1.00  0.00     0.053 C 
BRANCH   7   8
ATOM      8  C   UNL     1      60.396  25.127  49.999  1.00  0.00     0.041 C 
ATOM      9  O   UNL     1      61.599  24.755  50.026  1.00  0.00    -0.550 OA
ATOM     10  O   UNL     1      59.424  24.355  50.624  1.00  0.00    -0.550 OA
ENDBRANCH   7   8
ENDBRANCH   6   7
ENDBRANCH   5   6
ENDBRANCH   4   5
ENDBRANCH   3   4
ENDBRANCH   2   3
ENDBRANCH   1   2
BRANCH   1  11
ATOM     11  C   UNL     1      56.560  26.448  50.330  1.00  0.00    -0.031 C 
ATOM     12  C   UNL     1      55.284  26.395  49.905  1.00  0.00    -0.027 C 
BRANCH  12  13
ATOM     13  C   UNL     1      54.115  26.998  50.640  1.00  0.00     0.054 C 
BRANCH  13  14
ATOM     14  C   UNL     1      53.638  28.256  49.956  1.00  0.00    -0.027 C 
ATOM     15  C   UNL     1      53.796  29.490  50.467  1.00  0.00    -0.031 C 
BRANCH  15  16
ATOM     16  C   UNL     1      54.418  29.783  51.811  1.00  0.00     0.027 C 
BRANCH  16  17
ATOM     17  C   UNL     1      53.367  29.945  52.926  1.00  0.00     0.004 C 
BRANCH  17  18
ATOM     18  C   UNL     1      53.697  29.166  54.210  1.00  0.00     0.000 C 
BRANCH  18  19
ATOM     19  C   UNL     1      53.361  27.672  54.103  1.00  0.00    -0.003 C 
ATOM     20  C   UNL     1      54.577  26.806  54.421  1.00  0.00     0.004 C 
ENDBRANCH  18  19
ENDBRANCH  17  18
ENDBRANCH  16  17
ENDBRANCH  15  16
ENDBRANCH  13  14
ENDBRANCH  12  13
ENDBRANCH   1  11
TORSDOF 14
ENDMDL
