MODEL 1
REMARK VINA RESULT:    -2.619      0.000      0.000
REMARK INTER + INTRA:          -2.847
REMARK INTER:                  -3.231
REMARK INTRA:                   0.384
REMARK UNBOUND:                 0.384
REMARK SMILES Oc1cc(O)c2cc(O)c(-c3cc(O)c(O)c(O)c3)[o+]c2c1.[Cl-]
REMARK SMILES IDX 10 1 20 2 21 3 22 4 2 5 3 6 4 7 6 8 7 9 8 10 11 11 12 12
REMARK SMILES IDX 13 13 19 14 15 15 17 16 14 17 16 19 18 21 9 23 1 25 5 27
REMARK H PARENT 14 18 16 20 18 22 9 24 1 26 5 28
REMARK Flexibility Score: inf
ROOT
ATOM      1  C   UNL     1      48.319  47.254  41.208  1.00  0.00     0.402 A 
ATOM      2  O   UNL     1      47.340  48.149  41.103  1.00  0.00    -0.202 OA
ATOM      3  C   UNL     1      46.051  47.836  41.190  1.00  0.00     0.368 A 
ATOM      4  C   UNL     1      45.095  48.848  41.070  1.00  0.00     0.162 A 
ATOM      5  C   UNL     1      43.736  48.548  41.160  1.00  0.00     0.128 A 
ATOM      6  C   UNL     1      43.326  47.226  41.373  1.00  0.00     0.093 A 
ATOM      7  C   UNL     1      44.265  46.195  41.497  1.00  0.00     0.136 A 
ATOM      8  C   UNL     1      45.648  46.495  41.404  1.00  0.00     0.125 A 
ATOM      9  C   UNL     1      46.658  45.524  41.503  1.00  0.00     0.078 A 
ATOM     10  C   UNL     1      48.002  45.896  41.395  1.00  0.00     0.223 A 
ENDROOT
BRANCH   1  11
ATOM     11  C   UNL     1      49.717  47.730  41.104  1.00  0.00     0.091 A 
ATOM     12  C   UNL     1      50.799  46.833  41.122  1.00  0.00     0.068 A 
ATOM     13  C   UNL     1      52.116  47.305  41.045  1.00  0.00     0.162 A 
ATOM     14  C   UNL     1      49.973  49.108  41.041  1.00  0.00     0.068 A 
ATOM     15  C   UNL     1      52.363  48.686  40.960  1.00  0.00     0.200 A 
ATOM     16  C   UNL     1      51.285  49.588  40.962  1.00  0.00     0.162 A 
BRANCH  13  17
ATOM     17  O   UNL     1      53.182  46.406  41.057  1.00  0.00    -0.504 OA
ATOM     18  H   UNL     1      53.685  46.190  41.910  1.00  0.00     0.293 HD
ENDBRANCH  13  17
BRANCH  15  19
ATOM     19  O   UNL     1      53.668  49.173  40.877  1.00  0.00    -0.502 OA
ATOM     20  H   UNL     1      54.450  48.699  41.315  1.00  0.00     0.293 HD
ENDBRANCH  15  19
BRANCH  16  21
ATOM     21  O   UNL     1      51.497  50.964  40.887  1.00  0.00    -0.504 OA
ATOM     22  H   UNL     1      51.897  51.490  41.654  1.00  0.00     0.293 HD
ENDBRANCH  16  21
ENDBRANCH   1  11
BRANCH  10  23
ATOM     23  O   UNL     1      49.002  44.925  41.444  1.00  0.00    -0.500 OA
ATOM     24  H   UNL     1      49.768  44.916  40.781  1.00  0.00     0.294 HD
ENDBRANCH  10  23
BRANCH   5  25
ATOM     25  O   UNL     1      42.797  49.571  41.037  1.00  0.00    -0.507 OA
ATOM     26  H   UNL     1      41.960  49.456  40.479  1.00  0.00     0.293 HD
ENDBRANCH   5  25
BRANCH   7  27
ATOM     27  O   UNL     1      43.776  44.903  41.713  1.00  0.00    -0.507 OA
ATOM     28  H   UNL     1      43.099  44.443  41.121  1.00  0.00     0.293 HD
ENDBRANCH   7  27
TORSDOF 7
ENDMDL
MODEL 2
REMARK VINA RESULT:    -2.575      1.071      2.179
REMARK INTER + INTRA:          -2.793
REMARK INTER:                  -3.254
REMARK INTRA:                   0.461
REMARK UNBOUND:                 0.384
REMARK SMILES Oc1cc(O)c2cc(O)c(-c3cc(O)c(O)c(O)c3)[o+]c2c1.[Cl-]
REMARK SMILES IDX 10 1 20 2 21 3 22 4 2 5 3 6 4 7 6 8 7 9 8 10 11 11 12 12
REMARK SMILES IDX 13 13 19 14 15 15 17 16 14 17 16 19 18 21 9 23 1 25 5 27
REMARK H PARENT 14 18 16 20 18 22 9 24 1 26 5 28
REMARK Flexibility Score: inf
ROOT
ATOM      1  C   UNL     1      48.459  47.377  41.195  1.00  0.00     0.402 A 
ATOM      2  O   UNL     1      47.830  48.544  41.080  1.00  0.00    -0.202 OA
ATOM      3  C   UNL     1      46.507  48.666  41.104  1.00  0.00     0.368 A 
ATOM      4  C   UNL     1      45.939  49.937  40.978  1.00  0.00     0.162 A 
ATOM      5  C   UNL     1      44.553  50.095  41.002  1.00  0.00     0.128 A 
ATOM      6  C   UNL     1      43.726  48.976  41.155  1.00  0.00     0.093 A 
ATOM      7  C   UNL     1      44.271  47.692  41.283  1.00  0.00     0.136 A 
ATOM      8  C   UNL     1      45.680  47.527  41.256  1.00  0.00     0.125 A 
ATOM      9  C   UNL     1      46.313  46.278  41.364  1.00  0.00     0.078 A 
ATOM     10  C   UNL     1      47.709  46.193  41.324  1.00  0.00     0.223 A 
ENDROOT
BRANCH   1  11
ATOM     11  C   UNL     1      49.939  47.373  41.165  1.00  0.00     0.091 A 
ATOM     12  C   UNL     1      50.672  48.566  41.048  1.00  0.00     0.068 A 
ATOM     13  C   UNL     1      52.072  48.539  40.998  1.00  0.00     0.162 A 
ATOM     14  C   UNL     1      50.626  46.150  41.199  1.00  0.00     0.068 A 
ATOM     15  C   UNL     1      52.754  47.311  41.055  1.00  0.00     0.200 A 
ATOM     16  C   UNL     1      52.024  46.114  41.151  1.00  0.00     0.162 A 
BRANCH  13  17
ATOM     17  O   UNL     1      52.790  49.730  40.888  1.00  0.00    -0.504 OA
ATOM     18  H   UNL     1      53.078  50.095  39.988  1.00  0.00     0.293 HD
ENDBRANCH  13  17
BRANCH  15  19
ATOM     19  O   UNL     1      54.148  47.267  41.012  1.00  0.00    -0.502 OA
ATOM     20  H   UNL     1      54.724  47.951  41.487  1.00  0.00     0.293 HD
ENDBRANCH  15  19
BRANCH  16  21
ATOM     21  O   UNL     1      52.670  44.878  41.201  1.00  0.00    -0.504 OA
ATOM     22  H   UNL     1      52.749  44.280  40.388  1.00  0.00     0.293 HD
ENDBRANCH  16  21
ENDBRANCH   1  11
BRANCH  10  23
ATOM     23  O   UNL     1      48.336  44.948  41.381  1.00  0.00    -0.500 OA
ATOM     24  H   UNL     1      47.986  44.202  41.969  1.00  0.00     0.294 HD
ENDBRANCH  10  23
BRANCH   5  25
ATOM     25  O   UNL     1      44.005  51.370  40.875  1.00  0.00    -0.507 OA
ATOM     26  H   UNL     1      44.468  52.094  40.340  1.00  0.00     0.293 HD
ENDBRANCH   5  25
BRANCH   7  27
ATOM     27  O   UNL     1      43.379  46.627  41.435  1.00  0.00    -0.507 OA
ATOM     28  H   UNL     1      43.490  45.724  40.997  1.00  0.00     0.293 HD
ENDBRANCH   7  27
TORSDOF 7
ENDMDL
MODEL 3
REMARK VINA RESULT:    -2.150      1.870      2.261
REMARK INTER + INTRA:          -2.269
REMARK INTER:                  -1.886
REMARK INTRA:                  -0.383
REMARK UNBOUND:                 0.384
REMARK SMILES Oc1cc(O)c2cc(O)c(-c3cc(O)c(O)c(O)c3)[o+]c2c1.[Cl-]
REMARK SMILES IDX 10 1 20 2 21 3 22 4 2 5 3 6 4 7 6 8 7 9 8 10 11 11 12 12
REMARK SMILES IDX 13 13 19 14 15 15 17 16 14 17 16 19 18 21 9 23 1 25 5 27
REMARK H PARENT 14 18 16 20 18 22 9 24 1 26 5 28
REMARK Flexibility Score: inf
ROOT
ATOM      1  C   UNL     1      47.476  46.969  42.126  1.00  0.00     0.402 A 
ATOM      2  O   UNL     1      46.818  48.037  42.569  1.00  0.00    -0.202 OA
ATOM      3  C   UNL     1      45.512  48.215  42.392  1.00  0.00     0.368 A 
ATOM      4  C   UNL     1      44.909  49.370  42.897  1.00  0.00     0.162 A 
ATOM      5  C   UNL     1      43.540  49.582  42.728  1.00  0.00     0.128 A 
ATOM      6  C   UNL     1      42.766  48.632  42.050  1.00  0.00     0.093 A 
ATOM      7  C   UNL     1      43.348  47.467  41.535  1.00  0.00     0.136 A 
ATOM      8  C   UNL     1      44.740  47.249  41.703  1.00  0.00     0.125 A 
ATOM      9  C   UNL     1      45.409  46.118  41.209  1.00  0.00     0.078 A 
ATOM     10  C   UNL     1      46.786  45.974  41.409  1.00  0.00     0.223 A 
ENDROOT
BRANCH   1  11
ATOM     11  C   UNL     1      48.929  46.881  42.396  1.00  0.00     0.091 A 
ATOM     12  C   UNL     1      49.427  46.165  43.499  1.00  0.00     0.068 A 
ATOM     13  C   UNL     1      50.805  46.113  43.750  1.00  0.00     0.162 A 
ATOM     14  C   UNL     1      49.828  47.569  41.567  1.00  0.00     0.068 A 
ATOM     15  C   UNL     1      51.699  46.787  42.901  1.00  0.00     0.200 A 
ATOM     16  C   UNL     1      51.205  47.521  41.809  1.00  0.00     0.162 A 
BRANCH  13  17
ATOM     17  O   UNL     1      51.288  45.395  44.843  1.00  0.00    -0.504 OA
ATOM     18  H   UNL     1      51.334  45.804  45.769  1.00  0.00     0.293 HD
ENDBRANCH  13  17
BRANCH  15  19
ATOM     19  O   UNL     1      53.074  46.741  43.134  1.00  0.00    -0.502 OA
ATOM     20  H   UNL     1      53.538  45.903  43.465  1.00  0.00     0.293 HD
ENDBRANCH  15  19
BRANCH  16  21
ATOM     21  O   UNL     1      52.066  48.208  40.953  1.00  0.00    -0.504 OA
ATOM     22  H   UNL     1      53.072  48.171  41.059  1.00  0.00     0.293 HD
ENDBRANCH  16  21
ENDBRANCH   1  11
BRANCH  10  23
ATOM     23  O   UNL     1      47.460  44.875  40.875  1.00  0.00    -0.500 OA
ATOM     24  H   UNL     1      48.351  44.975  40.405  1.00  0.00     0.294 HD
ENDBRANCH  10  23
BRANCH   5  25
ATOM     25  O   UNL     1      42.957  50.740  43.238  1.00  0.00    -0.507 OA
ATOM     26  H   UNL     1      41.957  50.893  43.192  1.00  0.00     0.293 HD
ENDBRANCH   5  25
BRANCH   7  27
ATOM     27  O   UNL     1      42.507  46.567  40.875  1.00  0.00    -0.507 OA
ATOM     28  H   UNL     1      41.637  46.218  41.251  1.00  0.00     0.293 HD
ENDBRANCH   7  27
TORSDOF 7
ENDMDL
MODEL 4
REMARK VINA RESULT:    -1.669      1.959      3.366
REMARK INTER + INTRA:          -1.675
REMARK INTER:                  -1.509
REMARK INTRA:                  -0.166
REMARK UNBOUND:                 0.384
REMARK SMILES Oc1cc(O)c2cc(O)c(-c3cc(O)c(O)c(O)c3)[o+]c2c1.[Cl-]
REMARK SMILES IDX 10 1 20 2 21 3 22 4 2 5 3 6 4 7 6 8 7 9 8 10 11 11 12 12
REMARK SMILES IDX 13 13 19 14 15 15 17 16 14 17 16 19 18 21 9 23 1 25 5 27
REMARK H PARENT 14 18 16 20 18 22 9 24 1 26 5 28
REMARK Flexibility Score: inf
ROOT
ATOM      1  C   UNL     1      48.505  46.941  42.191  1.00  0.00     0.402 A 
ATOM      2  O   UNL     1      47.468  46.109  42.254  1.00  0.00    -0.202 OA
ATOM      3  C   UNL     1      46.221  46.473  41.970  1.00  0.00     0.368 A 
ATOM      4  C   UNL     1      45.199  45.526  42.062  1.00  0.00     0.162 A 
ATOM      5  C   UNL     1      43.881  45.879  41.768  1.00  0.00     0.128 A 
ATOM      6  C   UNL     1      43.582  47.190  41.377  1.00  0.00     0.093 A 
ATOM      7  C   UNL     1      44.590  48.157  41.277  1.00  0.00     0.136 A 
ATOM      8  C   UNL     1      45.930  47.802  41.578  1.00  0.00     0.125 A 
ATOM      9  C   UNL     1      47.001  48.708  41.518  1.00  0.00     0.078 A 
ATOM     10  C   UNL     1      48.296  48.285  41.834  1.00  0.00     0.223 A 
ENDROOT
BRANCH   1  11
ATOM     11  C   UNL     1      49.848  46.411  42.521  1.00  0.00     0.091 A 
ATOM     12  C   UNL     1      50.134  45.881  43.791  1.00  0.00     0.068 A 
ATOM     13  C   UNL     1      51.418  45.405  44.090  1.00  0.00     0.162 A 
ATOM     14  C   UNL     1      50.873  46.489  41.566  1.00  0.00     0.068 A 
ATOM     15  C   UNL     1      52.433  45.466  43.121  1.00  0.00     0.200 A 
ATOM     16  C   UNL     1      52.157  46.015  41.856  1.00  0.00     0.162 A 
BRANCH  13  17
ATOM     17  O   UNL     1      51.689  44.875  45.351  1.00  0.00    -0.504 OA
ATOM     18  H   UNL     1      51.045  44.241  45.811  1.00  0.00     0.293 HD
ENDBRANCH  13  17
BRANCH  15  19
ATOM     19  O   UNL     1      53.715  44.993  43.401  1.00  0.00    -0.502 OA
ATOM     20  H   UNL     1      54.547  45.431  43.022  1.00  0.00     0.293 HD
ENDBRANCH  15  19
BRANCH  16  21
ATOM     21  O   UNL     1      53.145  46.098  40.875  1.00  0.00    -0.504 OA
ATOM     22  H   UNL     1      53.363  46.967  40.404  1.00  0.00     0.293 HD
ENDBRANCH  16  21
ENDBRANCH   1  11
BRANCH  10  23
ATOM     23  O   UNL     1      49.352  49.197  41.823  1.00  0.00    -0.500 OA
ATOM     24  H   UNL     1      50.246  48.972  41.403  1.00  0.00     0.294 HD
ENDBRANCH  10  23
BRANCH   5  25
ATOM     25  O   UNL     1      42.875  44.921  41.866  1.00  0.00    -0.507 OA
ATOM     26  H   UNL     1      42.686  44.439  42.736  1.00  0.00     0.293 HD
ENDBRANCH   5  25
BRANCH   7  27
ATOM     27  O   UNL     1      44.211  49.442  40.877  1.00  0.00    -0.507 OA
ATOM     28  H   UNL     1      44.853  50.208  40.738  1.00  0.00     0.293 HD
ENDBRANCH   7  27
TORSDOF 7
ENDMDL
