MODEL 1
REMARK VINA RESULT:    -8.371      0.000      0.000
REMARK INTER + INTRA:         -10.145
REMARK INTER:                  -9.840
REMARK INTRA:                  -0.306
REMARK UNBOUND:                -0.306
REMARK SMILES O=c1cc(-c2ccc(O)c(O)c2)oc2cc(O)cc(O)c12
REMARK SMILES IDX 4 1 3 2 2 3 1 4 21 5 19 6 18 7 16 8 15 9 14 10 13 11 5 12
REMARK SMILES IDX 6 13 7 14 8 15 12 16 10 17 9 18 11 20 20 22 17 24
REMARK H PARENT 9 19 11 21 20 23 17 25
REMARK Flexibility Score: inf
ROOT
ATOM      1  C   UNL     1     -28.904  57.428   1.695  1.00  0.00     0.138 A 
ATOM      2  C   UNL     1     -27.520  57.235   1.582  1.00  0.00     0.100 A 
ATOM      3  C   UNL     1     -26.943  57.097   0.319  1.00  0.00     0.197 A 
ATOM      4  O   UNL     1     -25.708  56.863   0.252  1.00  0.00    -0.289 OA
ATOM      5  C   UNL     1     -27.753  57.184  -0.838  1.00  0.00     0.107 A 
ATOM      6  C   UNL     1     -27.269  57.098  -2.177  1.00  0.00     0.134 A 
ATOM      7  C   UNL     1     -28.180  57.081  -3.241  1.00  0.00     0.093 A 
ATOM      8  C   UNL     1     -29.551  57.207  -3.018  1.00  0.00     0.123 A 
ATOM      9  C   UNL     1     -30.031  57.345  -1.715  1.00  0.00     0.094 A 
ATOM     10  C   UNL     1     -29.151  57.332  -0.631  1.00  0.00     0.146 A 
ATOM     11  O   UNL     1     -29.650  57.452   0.595  1.00  0.00    -0.456 OA
ENDROOT
BRANCH   1  12
ATOM     12  C   UNL     1     -29.569  57.582   3.014  1.00  0.00     0.021 A 
ATOM     13  C   UNL     1     -28.921  58.194   4.101  1.00  0.00     0.016 A 
ATOM     14  C   UNL     1     -29.575  58.335   5.326  1.00  0.00     0.051 A 
ATOM     15  C   UNL     1     -30.886  57.878   5.494  1.00  0.00     0.157 A 
ATOM     16  C   UNL     1     -30.891  57.135   3.178  1.00  0.00     0.062 A 
ATOM     17  C   UNL     1     -31.554  57.272   4.404  1.00  0.00     0.158 A 
BRANCH  15  18
ATOM     18  O   UNL     1     -31.481  58.046   6.745  1.00  0.00    -0.504 OA
ATOM     19  H   UNL     1     -32.331  58.569   6.901  1.00  0.00     0.293 HD
ENDBRANCH  15  18
BRANCH  17  20
ATOM     20  O   UNL     1     -32.864  56.796   4.493  1.00  0.00    -0.504 OA
ATOM     21  H   UNL     1     -33.616  57.097   3.890  1.00  0.00     0.293 HD
ENDBRANCH  17  20
ENDBRANCH   1  12
BRANCH   6  22
ATOM     22  O   UNL     1     -25.914  57.055  -2.517  1.00  0.00    -0.507 OA
ATOM     23  H   UNL     1     -25.433  57.753  -3.064  1.00  0.00     0.293 HD
ENDBRANCH   6  22
BRANCH   8  24
ATOM     24  O   UNL     1     -30.427  57.201  -4.101  1.00  0.00    -0.508 OA
ATOM     25  H   UNL     1     -30.227  57.724  -4.946  1.00  0.00     0.293 HD
ENDBRANCH   8  24
TORSDOF 5
ENDMDL
MODEL 2
REMARK VINA RESULT:    -7.882      4.250      6.958
REMARK INTER + INTRA:          -9.570
REMARK INTER:                  -9.301
REMARK INTRA:                  -0.269
REMARK UNBOUND:                -0.306
REMARK SMILES O=c1cc(-c2ccc(O)c(O)c2)oc2cc(O)cc(O)c12
REMARK SMILES IDX 4 1 3 2 2 3 1 4 21 5 19 6 18 7 16 8 15 9 14 10 13 11 5 12
REMARK SMILES IDX 6 13 7 14 8 15 12 16 10 17 9 18 11 20 20 22 17 24
REMARK H PARENT 9 19 11 21 20 23 17 25
REMARK Flexibility Score: inf
ROOT
ATOM      1  C   UNL     1     -24.746  58.073   2.608  1.00  0.00     0.138 A 
ATOM      2  C   UNL     1     -24.942  57.442   1.371  1.00  0.00     0.100 A 
ATOM      3  C   UNL     1     -26.237  57.135   0.952  1.00  0.00     0.197 A 
ATOM      4  O   UNL     1     -26.378  56.513  -0.133  1.00  0.00    -0.289 OA
ATOM      5  C   UNL     1     -27.342  57.491   1.761  1.00  0.00     0.107 A 
ATOM      6  C   UNL     1     -28.708  57.266   1.417  1.00  0.00     0.134 A 
ATOM      7  C   UNL     1     -29.712  57.556   2.349  1.00  0.00     0.093 A 
ATOM      8  C   UNL     1     -29.405  58.118   3.587  1.00  0.00     0.123 A 
ATOM      9  C   UNL     1     -28.076  58.393   3.913  1.00  0.00     0.094 A 
ATOM     10  C   UNL     1     -27.050  58.084   3.019  1.00  0.00     0.146 A 
ATOM     11  O   UNL     1     -25.797  58.348   3.373  1.00  0.00    -0.456 OA
ENDROOT
BRANCH   1  12
ATOM     12  C   UNL     1     -23.389  58.422   3.102  1.00  0.00     0.021 A 
ATOM     13  C   UNL     1     -22.671  59.513   2.581  1.00  0.00     0.016 A 
ATOM     14  C   UNL     1     -21.402  59.824   3.073  1.00  0.00     0.051 A 
ATOM     15  C   UNL     1     -20.826  59.065   4.097  1.00  0.00     0.157 A 
ATOM     16  C   UNL     1     -22.816  57.668   4.140  1.00  0.00     0.062 A 
ATOM     17  C   UNL     1     -21.543  57.973   4.639  1.00  0.00     0.158 A 
BRANCH  15  18
ATOM     18  O   UNL     1     -19.553  59.428   4.541  1.00  0.00    -0.504 OA
ATOM     19  H   UNL     1     -19.281  60.374   4.763  1.00  0.00     0.293 HD
ENDBRANCH  15  18
BRANCH  17  20
ATOM     20  O   UNL     1     -21.036  57.173   5.665  1.00  0.00    -0.504 OA
ATOM     21  H   UNL     1     -21.480  56.328   5.994  1.00  0.00     0.293 HD
ENDBRANCH  17  20
ENDBRANCH   1  12
BRANCH   6  22
ATOM     22  O   UNL     1     -29.131  56.787   0.173  1.00  0.00    -0.507 OA
ATOM     23  H   UNL     1     -29.636  55.926   0.027  1.00  0.00     0.293 HD
ENDBRANCH   6  22
BRANCH   8  24
ATOM     24  O   UNL     1     -30.432  58.408   4.484  1.00  0.00    -0.508 OA
ATOM     25  H   UNL     1     -30.326  58.251   5.479  1.00  0.00     0.293 HD
ENDBRANCH   8  24
TORSDOF 5
ENDMDL
MODEL 3
REMARK VINA RESULT:    -7.823      9.808     13.238
REMARK INTER + INTRA:          -9.501
REMARK INTER:                  -9.236
REMARK INTRA:                  -0.265
REMARK UNBOUND:                -0.306
REMARK SMILES O=c1cc(-c2ccc(O)c(O)c2)oc2cc(O)cc(O)c12
REMARK SMILES IDX 4 1 3 2 2 3 1 4 21 5 19 6 18 7 16 8 15 9 14 10 13 11 5 12
REMARK SMILES IDX 6 13 7 14 8 15 12 16 10 17 9 18 11 20 20 22 17 24
REMARK H PARENT 9 19 11 21 20 23 17 25
REMARK Flexibility Score: inf
ROOT
ATOM      1  C   UNL     1     -18.612  58.646  -4.786  1.00  0.00     0.138 A 
ATOM      2  C   UNL     1     -17.792  58.538  -5.917  1.00  0.00     0.100 A 
ATOM      3  C   UNL     1     -16.515  59.101  -5.900  1.00  0.00     0.197 A 
ATOM      4  O   UNL     1     -15.826  59.043  -6.951  1.00  0.00    -0.289 OA
ATOM      5  C   UNL     1     -16.047  59.749  -4.732  1.00  0.00     0.107 A 
ATOM      6  C   UNL     1     -14.750  60.323  -4.585  1.00  0.00     0.134 A 
ATOM      7  C   UNL     1     -14.439  61.040  -3.423  1.00  0.00     0.093 A 
ATOM      8  C   UNL     1     -15.357  61.152  -2.378  1.00  0.00     0.123 A 
ATOM      9  C   UNL     1     -16.610  60.547  -2.489  1.00  0.00     0.094 A 
ATOM     10  C   UNL     1     -16.961  59.855  -3.649  1.00  0.00     0.146 A 
ATOM     11  O   UNL     1     -18.170  59.306  -3.721  1.00  0.00    -0.456 OA
ENDROOT
BRANCH   1  12
ATOM     12  C   UNL     1     -19.979  58.065  -4.750  1.00  0.00     0.021 A 
ATOM     13  C   UNL     1     -21.088  58.753  -5.274  1.00  0.00     0.016 A 
ATOM     14  C   UNL     1     -22.359  58.178  -5.237  1.00  0.00     0.051 A 
ATOM     15  C   UNL     1     -22.553  56.907  -4.688  1.00  0.00     0.157 A 
ATOM     16  C   UNL     1     -20.172  56.783  -4.211  1.00  0.00     0.062 A 
ATOM     17  C   UNL     1     -21.444  56.198  -4.169  1.00  0.00     0.158 A 
BRANCH  15  18
ATOM     18  O   UNL     1     -23.850  56.390  -4.679  1.00  0.00    -0.504 OA
ATOM     19  H   UNL     1     -24.655  56.891  -4.332  1.00  0.00     0.293 HD
ENDBRANCH  15  18
BRANCH  17  20
ATOM     20  O   UNL     1     -21.558  54.923  -3.611  1.00  0.00    -0.504 OA
ATOM     21  H   UNL     1     -22.109  54.179  -4.012  1.00  0.00     0.293 HD
ENDBRANCH  17  20
ENDBRANCH   1  12
BRANCH   6  22
ATOM     22  O   UNL     1     -13.729  60.198  -5.532  1.00  0.00    -0.507 OA
ATOM     23  H   UNL     1     -13.225  59.347  -5.729  1.00  0.00     0.293 HD
ENDBRANCH   6  22
BRANCH   8  24
ATOM     24  O   UNL     1     -15.007  61.859  -1.230  1.00  0.00    -0.508 OA
ATOM     25  H   UNL     1     -14.239  62.520  -1.228  1.00  0.00     0.293 HD
ENDBRANCH   8  24
TORSDOF 5
ENDMDL
MODEL 4
REMARK VINA RESULT:    -7.686      8.002     11.202
REMARK INTER + INTRA:          -9.340
REMARK INTER:                  -9.049
REMARK INTRA:                  -0.291
REMARK UNBOUND:                -0.306
REMARK SMILES O=c1cc(-c2ccc(O)c(O)c2)oc2cc(O)cc(O)c12
REMARK SMILES IDX 4 1 3 2 2 3 1 4 21 5 19 6 18 7 16 8 15 9 14 10 13 11 5 12
REMARK SMILES IDX 6 13 7 14 8 15 12 16 10 17 9 18 11 20 20 22 17 24
REMARK H PARENT 9 19 11 21 20 23 17 25
REMARK Flexibility Score: inf
ROOT
ATOM      1  C   UNL     1     -20.485  58.733   4.665  1.00  0.00     0.138 A 
ATOM      2  C   UNL     1     -19.672  59.075   5.755  1.00  0.00     0.100 A 
ATOM      3  C   UNL     1     -19.954  58.550   7.017  1.00  0.00     0.197 A 
ATOM      4  O   UNL     1     -19.245  58.923   7.988  1.00  0.00    -0.289 OA
ATOM      5  C   UNL     1     -21.037  57.654   7.181  1.00  0.00     0.107 A 
ATOM      6  C   UNL     1     -21.393  57.025   8.410  1.00  0.00     0.134 A 
ATOM      7  C   UNL     1     -22.556  56.246   8.477  1.00  0.00     0.093 A 
ATOM      8  C   UNL     1     -23.340  56.025   7.345  1.00  0.00     0.123 A 
ATOM      9  C   UNL     1     -22.972  56.592   6.124  1.00  0.00     0.094 A 
ATOM     10  C   UNL     1     -21.837  57.400   6.033  1.00  0.00     0.146 A 
ATOM     11  O   UNL     1     -21.528  57.933   4.856  1.00  0.00    -0.456 OA
ENDROOT
BRANCH   1  12
ATOM     12  C   UNL     1     -20.230  59.264   3.301  1.00  0.00     0.021 A 
ATOM     13  C   UNL     1     -18.950  59.221   2.720  1.00  0.00     0.016 A 
ATOM     14  C   UNL     1     -18.742  59.717   1.432  1.00  0.00     0.051 A 
ATOM     15  C   UNL     1     -19.800  60.256   0.693  1.00  0.00     0.157 A 
ATOM     16  C   UNL     1     -21.295  59.793   2.554  1.00  0.00     0.062 A 
ATOM     17  C   UNL     1     -21.094  60.293   1.261  1.00  0.00     0.158 A 
BRANCH  15  18
ATOM     18  O   UNL     1     -19.523  60.737  -0.588  1.00  0.00    -0.504 OA
ATOM     19  H   UNL     1     -19.134  60.175  -1.331  1.00  0.00     0.293 HD
ENDBRANCH  15  18
BRANCH  17  20
ATOM     20  O   UNL     1     -22.200  60.810   0.583  1.00  0.00    -0.504 OA
ATOM     21  H   UNL     1     -22.964  60.248   0.237  1.00  0.00     0.293 HD
ENDBRANCH  17  20
ENDBRANCH   1  12
BRANCH   6  22
ATOM     22  O   UNL     1     -20.632  57.110   9.580  1.00  0.00    -0.507 OA
ATOM     23  H   UNL     1     -20.676  56.455  10.347  1.00  0.00     0.293 HD
ENDBRANCH   6  22
BRANCH   8  24
ATOM     24  O   UNL     1     -24.482  55.232   7.445  1.00  0.00    -0.508 OA
ATOM     25  H   UNL     1     -24.458  54.242   7.235  1.00  0.00     0.293 HD
ENDBRANCH   8  24
TORSDOF 5
ENDMDL
MODEL 5
REMARK VINA RESULT:    -7.604      9.659     11.446
REMARK INTER + INTRA:          -9.244
REMARK INTER:                  -8.977
REMARK INTRA:                  -0.266
REMARK UNBOUND:                -0.306
REMARK SMILES O=c1cc(-c2ccc(O)c(O)c2)oc2cc(O)cc(O)c12
REMARK SMILES IDX 4 1 3 2 2 3 1 4 21 5 19 6 18 7 16 8 15 9 14 10 13 11 5 12
REMARK SMILES IDX 6 13 7 14 8 15 12 16 10 17 9 18 11 20 20 22 17 24
REMARK H PARENT 9 19 11 21 20 23 17 25
REMARK Flexibility Score: inf
ROOT
ATOM      1  C   UNL     1     -18.290  59.583  -1.046  1.00  0.00     0.138 A 
ATOM      2  C   UNL     1     -17.112  60.271  -1.372  1.00  0.00     0.100 A 
ATOM      3  C   UNL     1     -16.645  60.253  -2.687  1.00  0.00     0.197 A 
ATOM      4  O   UNL     1     -15.554  60.827  -2.937  1.00  0.00    -0.289 OA
ATOM      5  C   UNL     1     -17.379  59.569  -3.685  1.00  0.00     0.107 A 
ATOM      6  C   UNL     1     -17.021  59.517  -5.065  1.00  0.00     0.134 A 
ATOM      7  C   UNL     1     -17.760  58.712  -5.941  1.00  0.00     0.093 A 
ATOM      8  C   UNL     1     -18.879  58.006  -5.500  1.00  0.00     0.123 A 
ATOM      9  C   UNL     1     -19.270  58.092  -4.163  1.00  0.00     0.094 A 
ATOM     10  C   UNL     1     -18.533  58.859  -3.258  1.00  0.00     0.146 A 
ATOM     11  O   UNL     1     -18.931  58.903  -1.991  1.00  0.00    -0.456 OA
ENDROOT
BRANCH   1  12
ATOM     12  C   UNL     1     -18.831  59.569   0.337  1.00  0.00     0.021 A 
ATOM     13  C   UNL     1     -20.117  60.057   0.632  1.00  0.00     0.016 A 
ATOM     14  C   UNL     1     -20.604  60.021   1.939  1.00  0.00     0.051 A 
ATOM     15  C   UNL     1     -19.829  59.494   2.978  1.00  0.00     0.157 A 
ATOM     16  C   UNL     1     -18.058  59.027   1.377  1.00  0.00     0.062 A 
ATOM     17  C   UNL     1     -18.540  58.988   2.693  1.00  0.00     0.158 A 
BRANCH  15  18
ATOM     18  O   UNL     1     -20.375  59.490   4.263  1.00  0.00    -0.504 OA
ATOM     19  H   UNL     1     -21.365  59.446   4.456  1.00  0.00     0.293 HD
ENDBRANCH  15  18
BRANCH  17  20
ATOM     20  O   UNL     1     -17.710  58.441   3.674  1.00  0.00    -0.504 OA
ATOM     21  H   UNL     1     -18.036  58.120   4.574  1.00  0.00     0.293 HD
ENDBRANCH  17  20
ENDBRANCH   1  12
BRANCH   6  22
ATOM     22  O   UNL     1     -15.973  60.252  -5.628  1.00  0.00    -0.507 OA
ATOM     23  H   UNL     1     -15.677  60.192  -6.591  1.00  0.00     0.293 HD
ENDBRANCH   6  22
BRANCH   8  24
ATOM     24  O   UNL     1     -19.600  57.228  -6.403  1.00  0.00    -0.508 OA
ATOM     25  H   UNL     1     -20.515  56.859  -6.171  1.00  0.00     0.293 HD
ENDBRANCH   8  24
TORSDOF 5
ENDMDL
MODEL 6
REMARK VINA RESULT:    -7.589      7.803      9.049
REMARK INTER + INTRA:          -9.225
REMARK INTER:                  -8.930
REMARK INTRA:                  -0.295
REMARK UNBOUND:                -0.306
REMARK SMILES O=c1cc(-c2ccc(O)c(O)c2)oc2cc(O)cc(O)c12
REMARK SMILES IDX 4 1 3 2 2 3 1 4 21 5 19 6 18 7 16 8 15 9 14 10 13 11 5 12
REMARK SMILES IDX 6 13 7 14 8 15 12 16 10 17 9 18 11 20 20 22 17 24
REMARK H PARENT 9 19 11 21 20 23 17 25
REMARK Flexibility Score: inf
ROOT
ATOM      1  C   UNL     1     -20.551  58.611   4.323  1.00  0.00     0.138 A 
ATOM      2  C   UNL     1     -19.177  58.626   4.046  1.00  0.00     0.100 A 
ATOM      3  C   UNL     1     -18.718  59.209   2.864  1.00  0.00     0.197 A 
ATOM      4  O   UNL     1     -17.486  59.152   2.613  1.00  0.00    -0.289 OA
ATOM      5  C   UNL     1     -19.638  59.806   1.970  1.00  0.00     0.107 A 
ATOM      6  C   UNL     1     -19.282  60.464   0.756  1.00  0.00     0.134 A 
ATOM      7  C   UNL     1     -20.289  60.916  -0.106  1.00  0.00     0.093 A 
ATOM      8  C   UNL     1     -21.636  60.787   0.229  1.00  0.00     0.123 A 
ATOM      9  C   UNL     1     -21.995  60.193   1.440  1.00  0.00     0.094 A 
ATOM     10  C   UNL     1     -21.016  59.702   2.305  1.00  0.00     0.146 A 
ATOM     11  O   UNL     1     -21.399  59.130   3.442  1.00  0.00    -0.456 OA
ENDROOT
BRANCH   1  12
ATOM     12  C   UNL     1     -21.093  58.005   5.566  1.00  0.00     0.021 A 
ATOM     13  C   UNL     1     -20.503  58.240   6.821  1.00  0.00     0.016 A 
ATOM     14  C   UNL     1     -21.041  57.666   7.974  1.00  0.00     0.051 A 
ATOM     15  C   UNL     1     -22.179  56.855   7.905  1.00  0.00     0.157 A 
ATOM     16  C   UNL     1     -22.244  57.201   5.499  1.00  0.00     0.062 A 
ATOM     17  C   UNL     1     -22.789  56.621   6.652  1.00  0.00     0.158 A 
BRANCH  15  18
ATOM     18  O   UNL     1     -22.664  56.309   9.096  1.00  0.00    -0.504 OA
ATOM     19  H   UNL     1     -23.627  56.367   9.392  1.00  0.00     0.293 HD
ENDBRANCH  15  18
BRANCH  17  20
ATOM     20  O   UNL     1     -23.929  55.828   6.505  1.00  0.00    -0.504 OA
ATOM     21  H   UNL     1     -24.767  56.126   6.026  1.00  0.00     0.293 HD
ENDBRANCH  17  20
ENDBRANCH   1  12
BRANCH   6  22
ATOM     22  O   UNL     1     -17.964  60.721   0.365  1.00  0.00    -0.507 OA
ATOM     23  H   UNL     1     -17.240  61.076   0.972  1.00  0.00     0.293 HD
ENDBRANCH   6  22
BRANCH   8  24
ATOM     24  O   UNL     1     -22.611  61.262  -0.646  1.00  0.00    -0.508 OA
ATOM     25  H   UNL     1     -22.592  61.036  -1.633  1.00  0.00     0.293 HD
ENDBRANCH   8  24
TORSDOF 5
ENDMDL
MODEL 7
REMARK VINA RESULT:    -7.563     10.829     12.422
REMARK INTER + INTRA:          -9.195
REMARK INTER:                  -8.877
REMARK INTRA:                  -0.318
REMARK UNBOUND:                -0.306
REMARK SMILES O=c1cc(-c2ccc(O)c(O)c2)oc2cc(O)cc(O)c12
REMARK SMILES IDX 4 1 3 2 2 3 1 4 21 5 19 6 18 7 16 8 15 9 14 10 13 11 5 12
REMARK SMILES IDX 6 13 7 14 8 15 12 16 10 17 9 18 11 20 20 22 17 24
REMARK H PARENT 9 19 11 21 20 23 17 25
REMARK Flexibility Score: inf
ROOT
ATOM      1  C   UNL     1     -17.173  59.875  -2.004  1.00  0.00     0.138 A 
ATOM      2  C   UNL     1     -16.304  60.263  -3.033  1.00  0.00     0.100 A 
ATOM      3  C   UNL     1     -16.591  59.905  -4.350  1.00  0.00     0.197 A 
ATOM      4  O   UNL     1     -15.761  60.214  -5.244  1.00  0.00    -0.289 OA
ATOM      5  C   UNL     1     -17.772  59.182  -4.642  1.00  0.00     0.107 A 
ATOM      6  C   UNL     1     -18.189  58.798  -5.951  1.00  0.00     0.134 A 
ATOM      7  C   UNL     1     -19.318  57.984  -6.106  1.00  0.00     0.093 A 
ATOM      8  C   UNL     1     -20.078  57.590  -5.005  1.00  0.00     0.123 A 
ATOM      9  C   UNL     1     -19.711  58.004  -3.724  1.00  0.00     0.094 A 
ATOM     10  C   UNL     1     -18.571  58.788  -3.534  1.00  0.00     0.146 A 
ATOM     11  O   UNL     1     -18.247  59.150  -2.297  1.00  0.00    -0.456 OA
ENDROOT
BRANCH   1  12
ATOM     12  C   UNL     1     -16.915  60.229  -0.584  1.00  0.00     0.021 A 
ATOM     13  C   UNL     1     -15.760  60.931  -0.197  1.00  0.00     0.016 A 
ATOM     14  C   UNL     1     -15.548  61.260   1.143  1.00  0.00     0.051 A 
ATOM     15  C   UNL     1     -16.483  60.907   2.122  1.00  0.00     0.157 A 
ATOM     16  C   UNL     1     -17.859  59.886   0.397  1.00  0.00     0.062 A 
ATOM     17  C   UNL     1     -17.655  60.212   1.744  1.00  0.00     0.158 A 
BRANCH  15  18
ATOM     18  O   UNL     1     -16.209  61.263   3.444  1.00  0.00    -0.504 OA
ATOM     19  H   UNL     1     -16.545  60.753   4.248  1.00  0.00     0.293 HD
ENDBRANCH  15  18
BRANCH  17  20
ATOM     20  O   UNL     1     -18.635  59.831   2.663  1.00  0.00    -0.504 OA
ATOM     21  H   UNL     1     -19.575  59.565   2.408  1.00  0.00     0.293 HD
ENDBRANCH  17  20
ENDBRANCH   1  12
BRANCH   6  22
ATOM     22  O   UNL     1     -17.550  59.208  -7.125  1.00  0.00    -0.507 OA
ATOM     23  H   UNL     1     -17.483  60.163  -7.443  1.00  0.00     0.293 HD
ENDBRANCH   6  22
BRANCH   8  24
ATOM     24  O   UNL     1     -21.204  56.792  -5.199  1.00  0.00    -0.508 OA
ATOM     25  H   UNL     1     -21.526  56.546  -6.127  1.00  0.00     0.293 HD
ENDBRANCH   8  24
TORSDOF 5
ENDMDL
MODEL 8
REMARK VINA RESULT:    -7.465      7.997     11.456
REMARK INTER + INTRA:          -9.080
REMARK INTER:                  -8.802
REMARK INTRA:                  -0.278
REMARK UNBOUND:                -0.306
REMARK SMILES O=c1cc(-c2ccc(O)c(O)c2)oc2cc(O)cc(O)c12
REMARK SMILES IDX 4 1 3 2 2 3 1 4 21 5 19 6 18 7 16 8 15 9 14 10 13 11 5 12
REMARK SMILES IDX 6 13 7 14 8 15 12 16 10 17 9 18 11 20 20 22 17 24
REMARK H PARENT 9 19 11 21 20 23 17 25
REMARK Flexibility Score: inf
ROOT
ATOM      1  C   UNL     1     -21.179  58.453   4.549  1.00  0.00     0.138 A 
ATOM      2  C   UNL     1     -22.258  57.563   4.651  1.00  0.00     0.100 A 
ATOM      3  C   UNL     1     -22.538  56.957   5.876  1.00  0.00     0.197 A 
ATOM      4  O   UNL     1     -23.473  56.116   5.923  1.00  0.00    -0.289 OA
ATOM      5  C   UNL     1     -21.752  57.268   7.011  1.00  0.00     0.107 A 
ATOM      6  C   UNL     1     -21.970  56.743   8.320  1.00  0.00     0.134 A 
ATOM      7  C   UNL     1     -21.057  57.033   9.341  1.00  0.00     0.093 A 
ATOM      8  C   UNL     1     -19.969  57.876   9.117  1.00  0.00     0.123 A 
ATOM      9  C   UNL     1     -19.776  58.439   7.855  1.00  0.00     0.094 A 
ATOM     10  C   UNL     1     -20.650  58.142   6.807  1.00  0.00     0.146 A 
ATOM     11  O   UNL     1     -20.424  58.687   5.617  1.00  0.00    -0.456 OA
ENDROOT
BRANCH   1  12
ATOM     12  C   UNL     1     -20.837  59.126   3.269  1.00  0.00     0.021 A 
ATOM     13  C   UNL     1     -19.508  59.233   2.823  1.00  0.00     0.016 A 
ATOM     14  C   UNL     1     -19.217  59.861   1.611  1.00  0.00     0.051 A 
ATOM     15  C   UNL     1     -20.239  60.387   0.815  1.00  0.00     0.157 A 
ATOM     16  C   UNL     1     -21.865  59.642   2.463  1.00  0.00     0.062 A 
ATOM     17  C   UNL     1     -21.581  60.275   1.245  1.00  0.00     0.158 A 
BRANCH  15  18
ATOM     18  O   UNL     1     -19.880  61.005  -0.385  1.00  0.00    -0.504 OA
ATOM     19  H   UNL     1     -19.266  60.590  -1.072  1.00  0.00     0.293 HD
ENDBRANCH  15  18
BRANCH  17  20
ATOM     20  O   UNL     1     -22.655  60.770   0.502  1.00  0.00    -0.504 OA
ATOM     21  H   UNL     1     -22.947  60.394  -0.388  1.00  0.00     0.293 HD
ENDBRANCH  17  20
ENDBRANCH   1  12
BRANCH   6  22
ATOM     22  O   UNL     1     -23.073  55.959   8.673  1.00  0.00    -0.507 OA
ATOM     23  H   UNL     1     -23.875  56.290   9.189  1.00  0.00     0.293 HD
ENDBRANCH   6  22
BRANCH   8  24
ATOM     24  O   UNL     1     -19.090  58.155  10.162  1.00  0.00    -0.508 OA
ATOM     25  H   UNL     1     -18.365  57.501  10.432  1.00  0.00     0.293 HD
ENDBRANCH   8  24
TORSDOF 5
ENDMDL
MODEL 9
REMARK VINA RESULT:    -7.364      4.135      6.600
REMARK INTER + INTRA:          -8.961
REMARK INTER:                  -8.688
REMARK INTRA:                  -0.273
REMARK UNBOUND:                -0.306
REMARK SMILES O=c1cc(-c2ccc(O)c(O)c2)oc2cc(O)cc(O)c12
REMARK SMILES IDX 4 1 3 2 2 3 1 4 21 5 19 6 18 7 16 8 15 9 14 10 13 11 5 12
REMARK SMILES IDX 6 13 7 14 8 15 12 16 10 17 9 18 11 20 20 22 17 24
REMARK H PARENT 9 19 11 21 20 23 17 25
REMARK Flexibility Score: inf
ROOT
ATOM      1  C   UNL     1     -25.179  58.098   3.126  1.00  0.00     0.138 A 
ATOM      2  C   UNL     1     -26.230  58.449   3.986  1.00  0.00     0.100 A 
ATOM      3  C   UNL     1     -27.547  58.375   3.531  1.00  0.00     0.197 A 
ATOM      4  O   UNL     1     -28.465  58.755   4.304  1.00  0.00    -0.289 OA
ATOM      5  C   UNL     1     -27.814  57.918   2.219  1.00  0.00     0.107 A 
ATOM      6  C   UNL     1     -29.118  57.763   1.662  1.00  0.00     0.134 A 
ATOM      7  C   UNL     1     -29.256  57.413   0.312  1.00  0.00     0.093 A 
ATOM      8  C   UNL     1     -28.139  57.154  -0.482  1.00  0.00     0.123 A 
ATOM      9  C   UNL     1     -26.860  57.250   0.067  1.00  0.00     0.094 A 
ATOM     10  C   UNL     1     -26.689  57.630   1.400  1.00  0.00     0.146 A 
ATOM     11  O   UNL     1     -25.454  57.724   1.881  1.00  0.00    -0.456 OA
ENDROOT
BRANCH   1  12
ATOM     12  C   UNL     1     -23.760  58.159   3.559  1.00  0.00     0.021 A 
ATOM     13  C   UNL     1     -23.233  57.250   4.494  1.00  0.00     0.016 A 
ATOM     14  C   UNL     1     -21.892  57.323   4.873  1.00  0.00     0.051 A 
ATOM     15  C   UNL     1     -21.046  58.294   4.327  1.00  0.00     0.157 A 
ATOM     16  C   UNL     1     -22.907  59.125   3.000  1.00  0.00     0.062 A 
ATOM     17  C   UNL     1     -21.560  59.206   3.376  1.00  0.00     0.158 A 
BRANCH  15  18
ATOM     18  O   UNL     1     -19.716  58.314   4.752  1.00  0.00    -0.504 OA
ATOM     19  H   UNL     1     -18.928  58.437   4.134  1.00  0.00     0.293 HD
ENDBRANCH  15  18
BRANCH  17  20
ATOM     20  O   UNL     1     -20.776  60.198   2.783  1.00  0.00    -0.504 OA
ATOM     21  H   UNL     1     -20.060  60.016   2.095  1.00  0.00     0.293 HD
ENDBRANCH  17  20
ENDBRANCH   1  12
BRANCH   6  22
ATOM     22  O   UNL     1     -30.302  57.914   2.390  1.00  0.00    -0.507 OA
ATOM     23  H   UNL     1     -30.728  57.195   2.956  1.00  0.00     0.293 HD
ENDBRANCH   6  22
BRANCH   8  24
ATOM     24  O   UNL     1     -28.314  56.793  -1.816  1.00  0.00    -0.508 OA
ATOM     25  H   UNL     1     -29.180  56.380  -2.144  1.00  0.00     0.293 HD
ENDBRANCH   8  24
TORSDOF 5
ENDMDL
