MODEL 1
REMARK VINA RESULT:    -3.298      0.000      0.000
REMARK INTER + INTRA:          -4.968
REMARK INTER:                  -4.454
REMARK INTRA:                  -0.514
REMARK UNBOUND:                -0.514
REMARK SMILES CCCCCCC=CC(=O)[O-]
REMARK SMILES IDX 5 1 6 2 7 3 8 4 9 5 10 6 11 7 4 8 3 9 2 10 1 11
REMARK H PARENT
REMARK Flexibility Score: inf
ROOT
ATOM      1  C   UNL     1      63.262  33.248  59.096  1.00  0.00     0.004 C 
ENDROOT
BRANCH   1   2
ATOM      2  C   UNL     1      63.749  31.806  59.319  1.00  0.00     0.027 C 
BRANCH   2   3
ATOM      3  C   UNL     1      64.852  31.759  60.342  1.00  0.00    -0.025 C 
ATOM      4  C   UNL     1      65.123  30.727  61.159  1.00  0.00     0.020 C 
BRANCH   4   5
ATOM      5  C   UNL     1      64.428  29.424  61.197  1.00  0.00     0.064 C 
ATOM      6  O   UNL     1      63.282  29.290  61.699  1.00  0.00    -0.545 OA
ATOM      7  O   UNL     1      65.052  28.316  60.640  1.00  0.00    -0.545 OA
ENDBRANCH   4   5
ENDBRANCH   2   3
ENDBRANCH   1   2
BRANCH   1   8
ATOM      8  C   UNL     1      64.090  34.276  59.881  1.00  0.00     0.000 C 
BRANCH   8   9
ATOM      9  C   UNL     1      63.214  35.328  60.579  1.00  0.00    -0.000 C 
BRANCH   9  10
ATOM     10  C   UNL     1      63.918  35.895  61.817  1.00  0.00    -0.003 C 
ATOM     11  C   UNL     1      65.255  35.200  62.058  1.00  0.00     0.004 C 
ENDBRANCH   9  10
ENDBRANCH   8   9
ENDBRANCH   1   8
TORSDOF 6
ENDMDL
MODEL 2
REMARK VINA RESULT:    -3.187      1.747      2.340
REMARK INTER + INTRA:          -4.818
REMARK INTER:                  -4.492
REMARK INTRA:                  -0.326
REMARK UNBOUND:                -0.514
REMARK SMILES CCCCCCC=CC(=O)[O-]
REMARK SMILES IDX 5 1 6 2 7 3 8 4 9 5 10 6 11 7 4 8 3 9 2 10 1 11
REMARK H PARENT
REMARK Flexibility Score: inf
ROOT
ATOM      1  C   UNL     1      64.441  32.200  59.664  1.00  0.00     0.004 C 
ENDROOT
BRANCH   1   2
ATOM      2  C   UNL     1      65.174  31.538  60.843  1.00  0.00     0.027 C 
BRANCH   2   3
ATOM      3  C   UNL     1      64.664  30.142  61.083  1.00  0.00    -0.025 C 
ATOM      4  C   UNL     1      65.379  29.012  60.959  1.00  0.00     0.020 C 
BRANCH   4   5
ATOM      5  C   UNL     1      66.809  28.906  60.603  1.00  0.00     0.064 C 
ATOM      6  O   UNL     1      67.245  29.243  59.471  1.00  0.00    -0.545 OA
ATOM      7  O   UNL     1      67.704  28.440  61.556  1.00  0.00    -0.545 OA
ENDBRANCH   4   5
ENDBRANCH   2   3
ENDBRANCH   1   2
BRANCH   1   8
ATOM      8  C   UNL     1      64.141  33.685  59.918  1.00  0.00     0.000 C 
BRANCH   8   9
ATOM      9  C   UNL     1      64.955  34.259  61.089  1.00  0.00    -0.000 C 
BRANCH   9  10
ATOM     10  C   UNL     1      64.303  35.532  61.638  1.00  0.00    -0.003 C 
ATOM     11  C   UNL     1      62.969  35.810  60.950  1.00  0.00     0.004 C 
ENDBRANCH   9  10
ENDBRANCH   8   9
ENDBRANCH   1   8
TORSDOF 6
ENDMDL
MODEL 3
REMARK VINA RESULT:    -3.160     13.670     14.629
REMARK INTER + INTRA:          -4.782
REMARK INTER:                  -4.417
REMARK INTRA:                  -0.365
REMARK UNBOUND:                -0.514
REMARK SMILES CCCCCCC=CC(=O)[O-]
REMARK SMILES IDX 5 1 6 2 7 3 8 4 9 5 10 6 11 7 4 8 3 9 2 10 1 11
REMARK H PARENT
REMARK Flexibility Score: inf
ROOT
ATOM      1  C   UNL     1      57.410  25.623  51.031  1.00  0.00     0.004 C 
ENDROOT
BRANCH   1   2
ATOM      2  C   UNL     1      58.196  25.255  49.761  1.00  0.00     0.027 C 
BRANCH   2   3
ATOM      3  C   UNL     1      59.652  25.607  49.903  1.00  0.00    -0.025 C 
ATOM      4  C   UNL     1      60.649  24.745  50.165  1.00  0.00     0.020 C 
BRANCH   4   5
ATOM      5  C   UNL     1      60.530  23.281  50.326  1.00  0.00     0.064 C 
ATOM      6  O   UNL     1      60.022  22.760  51.353  1.00  0.00    -0.545 OA
ATOM      7  O   UNL     1      60.974  22.456  49.302  1.00  0.00    -0.545 OA
ENDBRANCH   4   5
ENDBRANCH   2   3
ENDBRANCH   1   2
BRANCH   1   8
ATOM      8  C   UNL     1      56.049  26.261  50.716  1.00  0.00     0.000 C 
BRANCH   8   9
ATOM      9  C   UNL     1      55.367  25.620  49.498  1.00  0.00    -0.000 C 
BRANCH   9  10
ATOM     10  C   UNL     1      54.132  26.423  49.075  1.00  0.00    -0.003 C 
ATOM     11  C   UNL     1      54.100  27.786  49.759  1.00  0.00     0.004 C 
ENDBRANCH   9  10
ENDBRANCH   8   9
ENDBRANCH   1   8
TORSDOF 6
ENDMDL
MODEL 4
REMARK VINA RESULT:    -3.030     12.894     14.396
REMARK INTER + INTRA:          -4.606
REMARK INTER:                  -4.049
REMARK INTRA:                  -0.557
REMARK UNBOUND:                -0.514
REMARK SMILES CCCCCCC=CC(=O)[O-]
REMARK SMILES IDX 5 1 6 2 7 3 8 4 9 5 10 6 11 7 4 8 3 9 2 10 1 11
REMARK H PARENT
REMARK Flexibility Score: inf
ROOT
ATOM      1  C   UNL     1      56.404  25.544  51.986  1.00  0.00     0.004 C 
ENDROOT
BRANCH   1   2
ATOM      2  C   UNL     1      57.518  26.199  51.151  1.00  0.00     0.027 C 
BRANCH   2   3
ATOM      3  C   UNL     1      58.124  25.213  50.189  1.00  0.00    -0.025 C 
ATOM      4  C   UNL     1      59.399  25.211  49.764  1.00  0.00     0.020 C 
BRANCH   4   5
ATOM      5  C   UNL     1      60.469  26.141  50.178  1.00  0.00     0.064 C 
ATOM      6  O   UNL     1      61.223  25.902  51.157  1.00  0.00    -0.545 OA
ATOM      7  O   UNL     1      60.663  27.307  49.450  1.00  0.00    -0.545 OA
ENDBRANCH   4   5
ENDBRANCH   2   3
ENDBRANCH   1   2
BRANCH   1   8
ATOM      8  C   UNL     1      55.000  25.937  51.505  1.00  0.00     0.000 C 
BRANCH   8   9
ATOM      9  C   UNL     1      55.023  27.121  50.526  1.00  0.00    -0.000 C 
BRANCH   9  10
ATOM     10  C   UNL     1      54.137  26.842  49.307  1.00  0.00    -0.003 C 
ATOM     11  C   UNL     1      54.474  25.494  48.677  1.00  0.00     0.004 C 
ENDBRANCH   9  10
ENDBRANCH   8   9
ENDBRANCH   1   8
TORSDOF 6
ENDMDL
MODEL 5
REMARK VINA RESULT:    -3.008      1.540      2.446
REMARK INTER + INTRA:          -4.577
REMARK INTER:                  -4.288
REMARK INTRA:                  -0.289
REMARK UNBOUND:                -0.514
REMARK SMILES CCCCCCC=CC(=O)[O-]
REMARK SMILES IDX 5 1 6 2 7 3 8 4 9 5 10 6 11 7 4 8 3 9 2 10 1 11
REMARK H PARENT
REMARK Flexibility Score: inf
ROOT
ATOM      1  C   UNL     1      65.185  31.910  60.236  1.00  0.00     0.004 C 
ENDROOT
BRANCH   1   2
ATOM      2  C   UNL     1      64.223  30.725  60.048  1.00  0.00     0.027 C 
BRANCH   2   3
ATOM      3  C   UNL     1      64.292  29.781  61.218  1.00  0.00    -0.025 C 
ATOM      4  C   UNL     1      63.380  28.844  61.528  1.00  0.00     0.020 C 
BRANCH   4   5
ATOM      5  C   UNL     1      62.152  28.523  60.771  1.00  0.00     0.064 C 
ATOM      6  O   UNL     1      62.081  27.532  59.998  1.00  0.00    -0.545 OA
ATOM      7  O   UNL     1      61.033  29.329  60.936  1.00  0.00    -0.545 OA
ENDBRANCH   4   5
ENDBRANCH   2   3
ENDBRANCH   1   2
BRANCH   1   8
ATOM      8  C   UNL     1      64.458  33.263  60.241  1.00  0.00     0.000 C 
BRANCH   8   9
ATOM      9  C   UNL     1      65.043  34.242  61.271  1.00  0.00    -0.000 C 
BRANCH   9  10
ATOM     10  C   UNL     1      64.245  35.551  61.298  1.00  0.00    -0.003 C 
ATOM     11  C   UNL     1      62.929  35.411  60.539  1.00  0.00     0.004 C 
ENDBRANCH   9  10
ENDBRANCH   8   9
ENDBRANCH   1   8
TORSDOF 6
ENDMDL
MODEL 6
REMARK VINA RESULT:    -2.984      3.274      5.596
REMARK INTER + INTRA:          -4.544
REMARK INTER:                  -4.345
REMARK INTRA:                  -0.199
REMARK UNBOUND:                -0.514
REMARK SMILES CCCCCCC=CC(=O)[O-]
REMARK SMILES IDX 5 1 6 2 7 3 8 4 9 5 10 6 11 7 4 8 3 9 2 10 1 11
REMARK H PARENT
REMARK Flexibility Score: inf
ROOT
ATOM      1  C   UNL     1      64.573  31.782  60.040  1.00  0.00     0.004 C 
ENDROOT
BRANCH   1   2
ATOM      2  C   UNL     1      65.165  33.178  60.293  1.00  0.00     0.027 C 
BRANCH   2   3
ATOM      3  C   UNL     1      64.082  34.221  60.366  1.00  0.00    -0.025 C 
ATOM      4  C   UNL     1      64.087  35.307  61.156  1.00  0.00     0.020 C 
BRANCH   4   5
ATOM      5  C   UNL     1      65.163  35.721  62.081  1.00  0.00     0.064 C 
ATOM      6  O   UNL     1      64.980  35.812  63.323  1.00  0.00    -0.545 OA
ATOM      7  O   UNL     1      66.421  35.997  61.564  1.00  0.00    -0.545 OA
ENDBRANCH   4   5
ENDBRANCH   2   3
ENDBRANCH   1   2
BRANCH   1   8
ATOM      8  C   UNL     1      64.748  30.842  61.242  1.00  0.00     0.000 C 
BRANCH   8   9
ATOM      9  C   UNL     1      65.319  29.473  60.841  1.00  0.00    -0.000 C 
BRANCH   9  10
ATOM     10  C   UNL     1      64.216  28.410  60.800  1.00  0.00    -0.003 C 
ATOM     11  C   UNL     1      62.973  28.874  61.552  1.00  0.00     0.004 C 
ENDBRANCH   9  10
ENDBRANCH   8   9
ENDBRANCH   1   8
TORSDOF 6
ENDMDL
MODEL 7
REMARK VINA RESULT:    -2.898     13.159     14.388
REMARK INTER + INTRA:          -4.429
REMARK INTER:                  -3.859
REMARK INTRA:                  -0.569
REMARK UNBOUND:                -0.514
REMARK SMILES CCCCCCC=CC(=O)[O-]
REMARK SMILES IDX 5 1 6 2 7 3 8 4 9 5 10 6 11 7 4 8 3 9 2 10 1 11
REMARK H PARENT
REMARK Flexibility Score: inf
ROOT
ATOM      1  C   UNL     1      59.096  24.477  50.771  1.00  0.00     0.004 C 
ENDROOT
BRANCH   1   2
ATOM      2  C   UNL     1      60.077  23.304  50.932  1.00  0.00     0.027 C 
BRANCH   2   3
ATOM      3  C   UNL     1      60.856  23.071  49.665  1.00  0.00    -0.025 C 
ATOM      4  C   UNL     1      61.203  21.875  49.163  1.00  0.00     0.020 C 
BRANCH   4   5
ATOM      5  C   UNL     1      60.863  20.550  49.723  1.00  0.00     0.064 C 
ATOM      6  O   UNL     1      59.805  19.944  49.414  1.00  0.00    -0.545 OA
ATOM      7  O   UNL     1      61.752  19.946  50.602  1.00  0.00    -0.545 OA
ENDBRANCH   4   5
ENDBRANCH   2   3
ENDBRANCH   1   2
BRANCH   1   8
ATOM      8  C   UNL     1      59.547  25.479  49.699  1.00  0.00     0.000 C 
BRANCH   8   9
ATOM      9  C   UNL     1      60.152  26.756  50.303  1.00  0.00    -0.000 C 
BRANCH   9  10
ATOM     10  C   UNL     1      61.296  27.286  49.432  1.00  0.00    -0.003 C 
ATOM     11  C   UNL     1      62.594  26.534  49.709  1.00  0.00     0.004 C 
ENDBRANCH   9  10
ENDBRANCH   8   9
ENDBRANCH   1   8
TORSDOF 6
ENDMDL
MODEL 8
REMARK VINA RESULT:    -2.894     13.289     14.348
REMARK INTER + INTRA:          -4.423
REMARK INTER:                  -4.107
REMARK INTRA:                  -0.316
REMARK UNBOUND:                -0.514
REMARK SMILES CCCCCCC=CC(=O)[O-]
REMARK SMILES IDX 5 1 6 2 7 3 8 4 9 5 10 6 11 7 4 8 3 9 2 10 1 11
REMARK H PARENT
REMARK Flexibility Score: inf
ROOT
ATOM      1  C   UNL     1      59.575  24.505  50.182  1.00  0.00     0.004 C 
ENDROOT
BRANCH   1   2
ATOM      2  C   UNL     1      58.330  25.366  49.912  1.00  0.00     0.027 C 
BRANCH   2   3
ATOM      3  C   UNL     1      57.397  25.356  51.092  1.00  0.00    -0.025 C 
ATOM      4  C   UNL     1      56.089  25.660  51.064  1.00  0.00     0.020 C 
BRANCH   4   5
ATOM      5  C   UNL     1      55.293  26.025  49.873  1.00  0.00     0.064 C 
ATOM      6  O   UNL     1      55.062  25.207  48.945  1.00  0.00    -0.545 OA
ATOM      7  O   UNL     1      54.765  27.306  49.787  1.00  0.00    -0.545 OA
ENDBRANCH   4   5
ENDBRANCH   2   3
ENDBRANCH   1   2
BRANCH   1   8
ATOM      8  C   UNL     1      60.876  25.321  50.137  1.00  0.00     0.000 C 
BRANCH   8   9
ATOM      9  C   UNL     1      60.657  26.748  49.613  1.00  0.00    -0.000 C 
BRANCH   9  10
ATOM     10  C   UNL     1      61.993  27.476  49.430  1.00  0.00    -0.003 C 
ATOM     11  C   UNL     1      63.169  26.514  49.569  1.00  0.00     0.004 C 
ENDBRANCH   9  10
ENDBRANCH   8   9
ENDBRANCH   1   8
TORSDOF 6
ENDMDL
MODEL 9
REMARK VINA RESULT:    -2.761      1.505      2.559
REMARK INTER + INTRA:          -4.244
REMARK INTER:                  -3.822
REMARK INTRA:                  -0.421
REMARK UNBOUND:                -0.514
REMARK SMILES CCCCCCC=CC(=O)[O-]
REMARK SMILES IDX 5 1 6 2 7 3 8 4 9 5 10 6 11 7 4 8 3 9 2 10 1 11
REMARK H PARENT
REMARK Flexibility Score: inf
ROOT
ATOM      1  C   UNL     1      65.777  30.989  59.718  1.00  0.00     0.004 C 
ENDROOT
BRANCH   1   2
ATOM      2  C   UNL     1      65.569  29.757  60.615  1.00  0.00     0.027 C 
BRANCH   2   3
ATOM      3  C   UNL     1      64.274  29.853  61.375  1.00  0.00    -0.025 C 
ATOM      4  C   UNL     1      63.292  28.935  61.376  1.00  0.00     0.020 C 
BRANCH   4   5
ATOM      5  C   UNL     1      63.297  27.637  60.670  1.00  0.00     0.064 C 
ATOM      6  O   UNL     1      62.702  27.468  59.574  1.00  0.00    -0.545 OA
ATOM      7  O   UNL     1      64.000  26.575  61.224  1.00  0.00    -0.545 OA
ENDBRANCH   4   5
ENDBRANCH   2   3
ENDBRANCH   1   2
BRANCH   1   8
ATOM      8  C   UNL     1      65.125  32.254  60.297  1.00  0.00     0.000 C 
BRANCH   8   9
ATOM      9  C   UNL     1      64.208  32.959  59.285  1.00  0.00    -0.000 C 
BRANCH   9  10
ATOM     10  C   UNL     1      63.630  34.250  59.875  1.00  0.00    -0.003 C 
ATOM     11  C   UNL     1      64.508  34.783  61.003  1.00  0.00     0.004 C 
ENDBRANCH   9  10
ENDBRANCH   8   9
ENDBRANCH   1   8
TORSDOF 6
ENDMDL
