MODEL 1
REMARK VINA RESULT:    -4.199      0.000      0.000
REMARK INTER + INTRA:          -4.952
REMARK INTER:                  -4.936
REMARK INTRA:                  -0.016
REMARK UNBOUND:                -0.016
REMARK SMILES CCCCC(=O)[O-]
REMARK SMILES IDX 4 1 5 2 6 3 7 4 3 5 2 6 1 7
REMARK H PARENT
REMARK Flexibility Score: inf
ROOT
ATOM      1  C   UNL     1       6.944  32.296  34.168  1.00  0.00     0.053 C 
ENDROOT
BRANCH   1   2
ATOM      2  C   UNL     1       5.972  32.427  33.038  1.00  0.00     0.041 C 
ATOM      3  O   UNL     1       4.742  32.248  33.236  1.00  0.00    -0.550 OA
ATOM      4  O   UNL     1       6.430  32.698  31.754  1.00  0.00    -0.550 OA
ENDBRANCH   1   2
BRANCH   1   5
ATOM      5  C   UNL     1       6.721  33.411  35.197  1.00  0.00     0.006 C 
BRANCH   5   6
ATOM      6  C   UNL     1       7.924  33.598  36.135  1.00  0.00    -0.003 C 
ATOM      7  C   UNL     1       7.511  33.789  37.594  1.00  0.00     0.004 C 
ENDBRANCH   5   6
ENDBRANCH   1   5
TORSDOF 3
ENDMDL
MODEL 2
REMARK VINA RESULT:    -3.994      3.158      4.287
REMARK INTER + INTRA:          -4.710
REMARK INTER:                  -4.653
REMARK INTRA:                  -0.057
REMARK UNBOUND:                -0.016
REMARK SMILES CCCCC(=O)[O-]
REMARK SMILES IDX 4 1 5 2 6 3 7 4 3 5 2 6 1 7
REMARK H PARENT
REMARK Flexibility Score: inf
ROOT
ATOM      1  C   UNL     1       8.063  33.112  36.438  1.00  0.00     0.053 C 
ENDROOT
BRANCH   1   2
ATOM      2  C   UNL     1       7.553  32.191  37.501  1.00  0.00     0.041 C 
ATOM      3  O   UNL     1       6.901  32.649  38.477  1.00  0.00    -0.550 OA
ATOM      4  O   UNL     1       7.841  30.833  37.442  1.00  0.00    -0.550 OA
ENDBRANCH   1   2
BRANCH   1   5
ATOM      5  C   UNL     1       6.964  33.401  35.408  1.00  0.00     0.006 C 
BRANCH   5   6
ATOM      6  C   UNL     1       6.888  32.329  34.310  1.00  0.00    -0.003 C 
ATOM      7  C   UNL     1       5.778  32.600  33.296  1.00  0.00     0.004 C 
ENDBRANCH   5   6
ENDBRANCH   1   5
TORSDOF 3
ENDMDL
MODEL 3
REMARK VINA RESULT:    -3.868      1.982      2.739
REMARK INTER + INTRA:          -4.562
REMARK INTER:                  -4.592
REMARK INTRA:                   0.029
REMARK UNBOUND:                -0.016
REMARK SMILES CCCCC(=O)[O-]
REMARK SMILES IDX 4 1 5 2 6 3 7 4 3 5 2 6 1 7
REMARK H PARENT
REMARK Flexibility Score: inf
ROOT
ATOM      1  C   UNL     1       8.219  33.121  36.394  1.00  0.00     0.053 C 
ENDROOT
BRANCH   1   2
ATOM      2  C   UNL     1       7.271  33.068  35.237  1.00  0.00     0.041 C 
ATOM      3  O   UNL     1       6.174  33.684  35.288  1.00  0.00    -0.550 OA
ATOM      4  O   UNL     1       7.578  32.299  34.122  1.00  0.00    -0.550 OA
ENDBRANCH   1   2
BRANCH   1   5
ATOM      5  C   UNL     1       7.477  33.523  37.675  1.00  0.00     0.006 C 
BRANCH   5   6
ATOM      6  C   UNL     1       7.201  32.326  38.598  1.00  0.00    -0.003 C 
ATOM      7  C   UNL     1       7.508  30.985  37.933  1.00  0.00     0.004 C 
ENDBRANCH   5   6
ENDBRANCH   1   5
TORSDOF 3
ENDMDL
MODEL 4
REMARK VINA RESULT:    -3.756      7.602      8.101
REMARK INTER + INTRA:          -4.431
REMARK INTER:                  -4.395
REMARK INTRA:                  -0.036
REMARK UNBOUND:                -0.016
REMARK SMILES CCCCC(=O)[O-]
REMARK SMILES IDX 4 1 5 2 6 3 7 4 3 5 2 6 1 7
REMARK H PARENT
REMARK Flexibility Score: inf
ROOT
ATOM      1  C   UNL     1       3.350  26.446  37.679  1.00  0.00     0.053 C 
ENDROOT
BRANCH   1   2
ATOM      2  C   UNL     1       4.551  27.012  36.988  1.00  0.00     0.041 C 
ATOM      3  O   UNL     1       5.355  27.750  37.617  1.00  0.00    -0.550 OA
ATOM      4  O   UNL     1       4.756  26.766  35.636  1.00  0.00    -0.550 OA
ENDBRANCH   1   2
BRANCH   1   5
ATOM      5  C   UNL     1       2.127  26.501  36.755  1.00  0.00     0.006 C 
BRANCH   5   6
ATOM      6  C   UNL     1       0.876  27.044  37.464  1.00  0.00    -0.003 C 
ATOM      7  C   UNL     1       0.899  26.799  38.972  1.00  0.00     0.004 C 
ENDBRANCH   5   6
ENDBRANCH   1   5
TORSDOF 3
ENDMDL
MODEL 5
REMARK VINA RESULT:    -3.651      4.818      5.418
REMARK INTER + INTRA:          -4.307
REMARK INTER:                  -4.198
REMARK INTRA:                  -0.109
REMARK UNBOUND:                -0.016
REMARK SMILES CCCCC(=O)[O-]
REMARK SMILES IDX 4 1 5 2 6 3 7 4 3 5 2 6 1 7
REMARK H PARENT
REMARK Flexibility Score: inf
ROOT
ATOM      1  C   UNL     1       8.397  31.034  29.582  1.00  0.00     0.053 C 
ENDROOT
BRANCH   1   2
ATOM      2  C   UNL     1       7.900  32.365  30.052  1.00  0.00     0.041 C 
ATOM      3  O   UNL     1       8.379  33.426  29.572  1.00  0.00    -0.550 OA
ATOM      4  O   UNL     1       6.943  32.435  31.056  1.00  0.00    -0.550 OA
ENDBRANCH   1   2
BRANCH   1   5
ATOM      5  C   UNL     1       9.903  30.904  29.840  1.00  0.00     0.006 C 
BRANCH   5   6
ATOM      6  C   UNL     1      10.233  30.733  31.331  1.00  0.00    -0.003 C 
ATOM      7  C   UNL     1       9.814  29.368  31.876  1.00  0.00     0.004 C 
ENDBRANCH   5   6
ENDBRANCH   1   5
TORSDOF 3
ENDMDL
MODEL 6
REMARK VINA RESULT:    -3.578      4.431      6.289
REMARK INTER + INTRA:          -4.222
REMARK INTER:                  -4.180
REMARK INTRA:                  -0.042
REMARK UNBOUND:                -0.016
REMARK SMILES CCCCC(=O)[O-]
REMARK SMILES IDX 4 1 5 2 6 3 7 4 3 5 2 6 1 7
REMARK H PARENT
REMARK Flexibility Score: inf
ROOT
ATOM      1  C   UNL     1       9.759  30.436  31.157  1.00  0.00     0.053 C 
ENDROOT
BRANCH   1   2
ATOM      2  C   UNL     1       8.938  31.467  31.865  1.00  0.00     0.041 C 
ATOM      3  O   UNL     1       9.272  31.864  33.013  1.00  0.00    -0.550 OA
ATOM      4  O   UNL     1       7.776  31.954  31.280  1.00  0.00    -0.550 OA
ENDBRANCH   1   2
BRANCH   1   5
ATOM      5  C   UNL     1       9.267  30.258  29.715  1.00  0.00     0.006 C 
BRANCH   5   6
ATOM      6  C   UNL     1       8.400  29.002  29.538  1.00  0.00    -0.003 C 
ATOM      7  C   UNL     1       7.620  29.004  28.225  1.00  0.00     0.004 C 
ENDBRANCH   5   6
ENDBRANCH   1   5
TORSDOF 3
ENDMDL
MODEL 7
REMARK VINA RESULT:    -3.497      4.650      6.024
REMARK INTER + INTRA:          -4.127
REMARK INTER:                  -4.014
REMARK INTRA:                  -0.113
REMARK UNBOUND:                -0.016
REMARK SMILES CCCCC(=O)[O-]
REMARK SMILES IDX 4 1 5 2 6 3 7 4 3 5 2 6 1 7
REMARK H PARENT
REMARK Flexibility Score: inf
ROOT
ATOM      1  C   UNL     1      10.003  30.646  31.201  1.00  0.00     0.053 C 
ENDROOT
BRANCH   1   2
ATOM      2  C   UNL     1       8.927  31.477  31.827  1.00  0.00     0.041 C 
ATOM      3  O   UNL     1       7.885  31.759  31.178  1.00  0.00    -0.550 OA
ATOM      4  O   UNL     1       9.096  31.981  33.111  1.00  0.00    -0.550 OA
ENDBRANCH   1   2
BRANCH   1   5
ATOM      5  C   UNL     1       9.917  30.725  29.672  1.00  0.00     0.006 C 
BRANCH   5   6
ATOM      6  C   UNL     1      10.884  31.762  29.079  1.00  0.00    -0.003 C 
ATOM      7  C   UNL     1      10.174  33.031  28.612  1.00  0.00     0.004 C 
ENDBRANCH   5   6
ENDBRANCH   1   5
TORSDOF 3
ENDMDL
MODEL 8
REMARK VINA RESULT:    -3.463     18.710     19.269
REMARK INTER + INTRA:          -4.086
REMARK INTER:                  -3.987
REMARK INTRA:                  -0.099
REMARK UNBOUND:                -0.016
REMARK SMILES CCCCC(=O)[O-]
REMARK SMILES IDX 4 1 5 2 6 3 7 4 3 5 2 6 1 7
REMARK H PARENT
REMARK Flexibility Score: inf
ROOT
ATOM      1  C   UNL     1      20.830  19.147  37.014  1.00  0.00     0.053 C 
ENDROOT
BRANCH   1   2
ATOM      2  C   UNL     1      20.281  20.174  37.955  1.00  0.00     0.041 C 
ATOM      3  O   UNL     1      21.061  20.933  38.589  1.00  0.00    -0.550 OA
ATOM      4  O   UNL     1      18.911  20.259  38.169  1.00  0.00    -0.550 OA
ENDBRANCH   1   2
BRANCH   1   5
ATOM      5  C   UNL     1      21.076  19.764  35.633  1.00  0.00     0.006 C 
BRANCH   5   6
ATOM      6  C   UNL     1      20.072  19.272  34.579  1.00  0.00    -0.003 C 
ATOM      7  C   UNL     1      18.907  20.238  34.376  1.00  0.00     0.004 C 
ENDBRANCH   5   6
ENDBRANCH   1   5
TORSDOF 3
ENDMDL
MODEL 9
REMARK VINA RESULT:    -3.437     17.721     18.264
REMARK INTER + INTRA:          -4.056
REMARK INTER:                  -4.027
REMARK INTRA:                  -0.028
REMARK UNBOUND:                -0.016
REMARK SMILES CCCCC(=O)[O-]
REMARK SMILES IDX 4 1 5 2 6 3 7 4 3 5 2 6 1 7
REMARK H PARENT
REMARK Flexibility Score: inf
ROOT
ATOM      1  C   UNL     1      18.032  19.813  35.744  1.00  0.00     0.053 C 
ENDROOT
BRANCH   1   2
ATOM      2  C   UNL     1      17.807  19.544  37.199  1.00  0.00     0.041 C 
ATOM      3  O   UNL     1      16.923  18.724  37.563  1.00  0.00    -0.550 OA
ATOM      4  O   UNL     1      18.540  20.236  38.155  1.00  0.00    -0.550 OA
ENDBRANCH   1   2
BRANCH   1   5
ATOM      5  C   UNL     1      19.494  20.197  35.490  1.00  0.00     0.006 C 
BRANCH   5   6
ATOM      6  C   UNL     1      20.037  19.619  34.174  1.00  0.00    -0.003 C 
ATOM      7  C   UNL     1      18.991  19.604  33.060  1.00  0.00     0.004 C 
ENDBRANCH   5   6
ENDBRANCH   1   5
TORSDOF 3
ENDMDL
