MODEL 1
REMARK VINA RESULT:    16.007      0.000      0.000
REMARK INTER + INTRA:          17.878
REMARK INTER:                  17.878
REMARK INTRA:                   0.000
REMARK UNBOUND:                 0.000
REMARK SMILES Oc1cc(O)c2c(ccc3ccc(O)c(O)c32)c1
REMARK SMILES IDX 9 1 8 2 7 3 18 4 2 5 3 6 4 7 6 8 17 9 10 10 11 11 12 12
REMARK SMILES IDX 13 13 15 14 16 15 1 17 5 19 14 21
REMARK H PARENT 16 16 1 18 5 20 14 22
REMARK Flexibility Score: inf
ROOT
ATOM      1  C   UNL     1      10.297  17.758   0.687  1.00  0.00     0.009 A 
ATOM      2  C   UNL     1      11.372  17.034   0.184  1.00  0.00     0.009 A 
ATOM      3  C   UNL     1      11.378  15.637   0.251  1.00  0.00    -0.010 A 
ATOM      4  C   UNL     1      12.508  14.935  -0.195  1.00  0.00     0.055 A 
ATOM      5  C   UNL     1      12.597  13.557  -0.021  1.00  0.00     0.119 A 
ATOM      6  C   UNL     1      11.582  12.878   0.654  1.00  0.00     0.093 A 
ATOM      7  C   UNL     1      10.454  13.564   1.126  1.00  0.00     0.127 A 
ATOM      8  C   UNL     1      10.269  14.939   0.809  1.00  0.00     0.035 A 
ATOM      9  C   UNL     1       9.078  15.677   1.111  1.00  0.00     0.039 A 
ATOM     10  C   UNL     1       9.150  17.098   1.141  1.00  0.00    -0.014 A 
ATOM     11  C   UNL     1       8.057  17.853   1.582  1.00  0.00     0.013 A 
ATOM     12  C   UNL     1       6.870  17.227   1.943  1.00  0.00     0.051 A 
ATOM     13  C   UNL     1       6.722  15.849   1.782  1.00  0.00     0.158 A 
ATOM     14  C   UNL     1       7.795  15.079   1.277  1.00  0.00     0.166 A 
ENDROOT
BRANCH  14  15
ATOM     15  O   UNL     1       7.571  13.776   0.823  1.00  0.00    -0.504 OA
ATOM     16  H   UNL     1       8.156  13.308   0.147  1.00  0.00     0.293 HD
ENDBRANCH  14  15
BRANCH   5  17
ATOM     17  O   UNL     1      13.717  12.875  -0.492  1.00  0.00    -0.508 OA
ATOM     18  H   UNL     1      14.644  13.060  -0.125  1.00  0.00     0.293 HD
ENDBRANCH   5  17
BRANCH   7  19
ATOM     19  O   UNL     1       9.585  12.894   1.987  1.00  0.00    -0.507 OA
ATOM     20  H   UNL     1       9.063  12.077   1.692  1.00  0.00     0.293 HD
ENDBRANCH   7  19
BRANCH  13  21
ATOM     21  O   UNL     1       5.492  15.281   2.125  1.00  0.00    -0.504 OA
ATOM     22  H   UNL     1       4.681  15.825   2.384  1.00  0.00     0.293 HD
ENDBRANCH  13  21
TORSDOF 4
ENDMDL
MODEL 2
REMARK VINA RESULT:    18.941     16.234     16.936
REMARK INTER + INTRA:          21.155
REMARK INTER:                  21.155
REMARK INTRA:                   0.000
REMARK UNBOUND:                 0.000
REMARK SMILES Oc1cc(O)c2c(ccc3ccc(O)c(O)c32)c1
REMARK SMILES IDX 9 1 8 2 7 3 18 4 2 5 3 6 4 7 6 8 17 9 10 10 11 11 12 12
REMARK SMILES IDX 13 13 15 14 16 15 1 17 5 19 14 21
REMARK H PARENT 16 16 1 18 5 20 14 22
REMARK Flexibility Score: inf
ROOT
ATOM      1  C   UNL     1      21.220  18.478 -11.541  1.00  0.00     0.009 A 
ATOM      2  C   UNL     1      21.319  17.108 -11.757  1.00  0.00     0.009 A 
ATOM      3  C   UNL     1      20.239  16.397 -12.291  1.00  0.00    -0.010 A 
ATOM      4  C   UNL     1      20.339  15.004 -12.428  1.00  0.00     0.055 A 
ATOM      5  C   UNL     1      19.238  14.254 -12.833  1.00  0.00     0.119 A 
ATOM      6  C   UNL     1      18.012  14.885 -13.046  1.00  0.00     0.093 A 
ATOM      7  C   UNL     1      17.886  16.274 -12.894  1.00  0.00     0.127 A 
ATOM      8  C   UNL     1      19.038  17.073 -12.646  1.00  0.00     0.035 A 
ATOM      9  C   UNL     1      19.030  18.506 -12.635  1.00  0.00     0.039 A 
ATOM     10  C   UNL     1      20.095  19.184 -11.979  1.00  0.00    -0.014 A 
ATOM     11  C   UNL     1      20.050  20.573 -11.807  1.00  0.00     0.013 A 
ATOM     12  C   UNL     1      18.992  21.311 -12.323  1.00  0.00     0.051 A 
ATOM     13  C   UNL     1      18.011  20.692 -13.098  1.00  0.00     0.158 A 
ATOM     14  C   UNL     1      18.076  19.300 -13.335  1.00  0.00     0.166 A 
ENDROOT
BRANCH  14  15
ATOM     15  O   UNL     1      17.297  18.724 -14.343  1.00  0.00    -0.504 OA
ATOM     16  H   UNL     1      17.678  18.318 -15.186  1.00  0.00     0.293 HD
ENDBRANCH  14  15
BRANCH   5  17
ATOM     17  O   UNL     1      19.363  12.875 -12.985  1.00  0.00    -0.508 OA
ATOM     18  H   UNL     1      20.202  12.383 -12.700  1.00  0.00     0.293 HD
ENDBRANCH   5  17
BRANCH   7  19
ATOM     19  O   UNL     1      16.605  16.825 -12.892  1.00  0.00    -0.507 OA
ATOM     20  H   UNL     1      16.416  17.744 -13.276  1.00  0.00     0.293 HD
ENDBRANCH   7  19
BRANCH  13  21
ATOM     21  O   UNL     1      16.993  21.492 -13.622  1.00  0.00    -0.504 OA
ATOM     22  H   UNL     1      16.568  22.256 -13.114  1.00  0.00     0.293 HD
ENDBRANCH  13  21
TORSDOF 4
ENDMDL
