MODEL 1
REMARK VINA RESULT:    -7.622      0.000      0.000
REMARK INTER + INTRA:         -11.010
REMARK INTER:                  -9.627
REMARK INTRA:                  -1.383
REMARK UNBOUND:                -1.383
REMARK SMILES CC(C)[C@H](C)C=C[C@@H](C)[C@@H]1CC[C@H]2C3=CC=C4C[C@H](O)CC[C@@]4(C)[C@H]3CC[C@@]21C
REMARK SMILES IDX 8 1 9 2 7 3 6 4 4 5 5 6 2 7 1 8 3 9 10 10 11 11 28 12 12 13
REMARK SMILES IDX 13 14 27 15 29 16 14 17 26 18 25 19 15 20 23 21 16 22 17 23
REMARK SMILES IDX 22 24 24 25 18 26 21 27 19 28 20 29
REMARK H PARENT 20 30
REMARK Flexibility Score: inf
ROOT
ATOM      1  C   UNL     1     115.523 119.662 128.268  1.00  0.00     0.012 C 
ATOM      2  C   UNL     1     114.045 119.836 127.878  1.00  0.00     0.012 C 
ENDROOT
BRANCH   1   3
ATOM      3  C   UNL     1     115.877 118.188 128.393  1.00  0.00    -0.028 C 
ATOM      4  C   UNL     1     117.035 117.615 128.001  1.00  0.00    -0.028 C 
BRANCH   4   5
ATOM      5  C   UNL     1     118.204 118.329 127.343  1.00  0.00     0.011 C 
ATOM      6  C   UNL     1     119.188 118.807 128.426  1.00  0.00     0.012 C 
BRANCH   5   7
ATOM      7  C   UNL     1     118.874 117.431 126.259  1.00  0.00    -0.011 C 
ATOM      8  C   UNL     1     117.937 116.314 125.778  1.00  0.00     0.008 C 
ATOM      9  C   UNL     1     119.418 118.223 125.059  1.00  0.00     0.008 C 
ENDBRANCH   5   7
ENDBRANCH   4   5
ENDBRANCH   1   3
BRANCH   1  10
ATOM     10  C   UNL     1     115.955 120.543 129.492  1.00  0.00     0.002 C 
ATOM     11  C   UNL     1     114.744 120.847 130.426  1.00  0.00     0.005 C 
ATOM     12  C   UNL     1     116.641 121.939 129.281  1.00  0.00    -0.023 C 
ATOM     13  C   UNL     1     114.613 122.373 130.550  1.00  0.00     0.009 C 
ATOM     14  C   UNL     1     115.452 122.901 129.395  1.00  0.00     0.021 C 
ATOM     15  C   UNL     1     117.386 122.236 127.943  1.00  0.00     0.008 C 
ATOM     16  C   UNL     1     117.663 122.124 130.452  1.00  0.00     0.012 C 
ATOM     17  C   UNL     1     115.933 124.330 129.349  1.00  0.00    -0.063 C 
ATOM     18  C   UNL     1     117.802 123.732 127.811  1.00  0.00     0.009 C 
ATOM     19  C   UNL     1     116.600 124.695 128.028  1.00  0.00     0.025 C 
ATOM     20  C   UNL     1     116.142 125.068 130.454  1.00  0.00    -0.000 C 
ATOM     21  C   UNL     1     116.906 126.239 127.938  1.00  0.00    -0.005 C 
ATOM     22  C   UNL     1     117.014 126.254 130.419  1.00  0.00    -0.000 C 
ATOM     23  C   UNL     1     117.463 126.749 129.256  1.00  0.00    -0.061 C 
ATOM     24  C   UNL     1     117.868 126.616 126.761  1.00  0.00     0.014 C 
ATOM     25  C   UNL     1     115.562 126.973 127.693  1.00  0.00     0.017 C 
ATOM     26  C   UNL     1     118.470 127.864 129.223  1.00  0.00     0.063 C 
ATOM     27  C   UNL     1     119.365 126.616 127.137  1.00  0.00     0.033 C 
ATOM     28  C   UNL     1     119.705 127.431 128.417  1.00  0.00     0.118 C 
BRANCH  28  29
ATOM     29  O   UNL     1     120.449 128.575 128.083  1.00  0.00    -0.393 OA
ATOM     30  H   UNL     1     121.384 128.274 127.930  1.00  0.00     0.210 HD
ENDBRANCH  28  29
ENDBRANCH   1  10
TORSDOF 5
ENDMDL
MODEL 2
REMARK VINA RESULT:    -7.611      1.693      3.063
REMARK INTER + INTRA:         -10.996
REMARK INTER:                 -10.466
REMARK INTRA:                  -0.530
REMARK UNBOUND:                -1.383
REMARK SMILES CC(C)[C@H](C)C=C[C@@H](C)[C@@H]1CC[C@H]2C3=CC=C4C[C@H](O)CC[C@@]4(C)[C@H]3CC[C@@]21C
REMARK SMILES IDX 8 1 9 2 7 3 6 4 4 5 5 6 2 7 1 8 3 9 10 10 11 11 28 12 12 13
REMARK SMILES IDX 13 14 27 15 29 16 14 17 26 18 25 19 15 20 23 21 16 22 17 23
REMARK SMILES IDX 22 24 24 25 18 26 21 27 19 28 20 29
REMARK H PARENT 20 30
REMARK Flexibility Score: inf
ROOT
ATOM      1  C   UNL     1     116.175 119.749 129.528  1.00  0.00     0.012 C 
ATOM      2  C   UNL     1     116.931 119.873 128.194  1.00  0.00     0.012 C 
ENDROOT
BRANCH   1   3
ATOM      3  C   UNL     1     114.677 119.636 129.288  1.00  0.00    -0.028 C 
ATOM      4  C   UNL     1     114.006 120.129 128.225  1.00  0.00    -0.028 C 
BRANCH   4   5
ATOM      5  C   UNL     1     114.613 120.906 127.070  1.00  0.00     0.011 C 
ATOM      6  C   UNL     1     114.379 120.139 125.756  1.00  0.00     0.012 C 
BRANCH   5   7
ATOM      7  C   UNL     1     114.073 122.369 127.030  1.00  0.00    -0.011 C 
ATOM      8  C   UNL     1     113.245 122.642 125.765  1.00  0.00     0.008 C 
ATOM      9  C   UNL     1     113.274 122.760 128.284  1.00  0.00     0.008 C 
ENDBRANCH   5   7
ENDBRANCH   4   5
ENDBRANCH   1   3
BRANCH   1  10
ATOM     10  C   UNL     1     116.587 120.835 130.583  1.00  0.00     0.002 C 
ATOM     11  C   UNL     1     115.386 121.217 131.501  1.00  0.00     0.005 C 
ATOM     12  C   UNL     1     117.185 122.214 130.133  1.00  0.00    -0.023 C 
ATOM     13  C   UNL     1     115.170 122.734 131.389  1.00  0.00     0.009 C 
ATOM     14  C   UNL     1     115.945 123.117 130.137  1.00  0.00     0.021 C 
ATOM     15  C   UNL     1     117.876 122.336 128.739  1.00  0.00     0.008 C 
ATOM     16  C   UNL     1     118.225 122.637 131.224  1.00  0.00     0.012 C 
ATOM     17  C   UNL     1     116.340 124.544 129.851  1.00  0.00    -0.063 C 
ATOM     18  C   UNL     1     118.200 123.812 128.361  1.00  0.00     0.009 C 
ATOM     19  C   UNL     1     116.950 124.731 128.467  1.00  0.00     0.025 C 
ATOM     20  C   UNL     1     116.535 125.458 130.819  1.00  0.00    -0.000 C 
ATOM     21  C   UNL     1     117.163 126.255 128.125  1.00  0.00    -0.005 C 
ATOM     22  C   UNL     1     117.336 126.669 130.568  1.00  0.00    -0.000 C 
ATOM     23  C   UNL     1     117.723 126.997 129.327  1.00  0.00    -0.061 C 
ATOM     24  C   UNL     1     118.070 126.493 126.871  1.00  0.00     0.014 C 
ATOM     25  C   UNL     1     115.772 126.869 127.816  1.00  0.00     0.017 C 
ATOM     26  C   UNL     1     118.663 128.145 129.085  1.00  0.00     0.063 C 
ATOM     27  C   UNL     1     119.574 126.632 127.190  1.00  0.00     0.033 C 
ATOM     28  C   UNL     1     119.899 127.657 128.313  1.00  0.00     0.118 C 
BRANCH  28  29
ATOM     29  O   UNL     1     120.566 128.772 127.779  1.00  0.00    -0.393 OA
ATOM     30  H   UNL     1     120.653 128.612 126.802  1.00  0.00     0.210 HD
ENDBRANCH  28  29
ENDBRANCH   1  10
TORSDOF 5
ENDMDL
MODEL 3
REMARK VINA RESULT:    -7.587      2.523      4.195
REMARK INTER + INTRA:         -10.966
REMARK INTER:                  -9.635
REMARK INTRA:                  -1.331
REMARK UNBOUND:                -1.383
REMARK SMILES CC(C)[C@H](C)C=C[C@@H](C)[C@@H]1CC[C@H]2C3=CC=C4C[C@H](O)CC[C@@]4(C)[C@H]3CC[C@@]21C
REMARK SMILES IDX 8 1 9 2 7 3 6 4 4 5 5 6 2 7 1 8 3 9 10 10 11 11 28 12 12 13
REMARK SMILES IDX 13 14 27 15 29 16 14 17 26 18 25 19 15 20 23 21 16 22 17 23
REMARK SMILES IDX 22 24 24 25 18 26 21 27 19 28 20 29
REMARK H PARENT 20 30
REMARK Flexibility Score: inf
ROOT
ATOM      1  C   UNL     1     114.751 120.497 129.778  1.00  0.00     0.012 C 
ATOM      2  C   UNL     1     114.616 119.837 128.395  1.00  0.00     0.012 C 
ENDROOT
BRANCH   1   3
ATOM      3  C   UNL     1     114.011 119.689 130.834  1.00  0.00    -0.028 C 
ATOM      4  C   UNL     1     114.134 119.834 132.171  1.00  0.00    -0.028 C 
BRANCH   4   5
ATOM      5  C   UNL     1     115.046 120.820 132.881  1.00  0.00     0.011 C 
ATOM      6  C   UNL     1     114.381 121.283 134.190  1.00  0.00     0.012 C 
BRANCH   5   7
ATOM      7  C   UNL     1     116.468 120.218 133.095  1.00  0.00    -0.011 C 
ATOM      8  C   UNL     1     117.564 121.292 133.036  1.00  0.00     0.008 C 
ATOM      9  C   UNL     1     116.597 119.397 134.389  1.00  0.00     0.008 C 
ENDBRANCH   5   7
ENDBRANCH   4   5
ENDBRANCH   1   3
BRANCH   1  10
ATOM     10  C   UNL     1     114.414 122.029 129.774  1.00  0.00     0.002 C 
ATOM     11  C   UNL     1     113.475 122.401 128.586  1.00  0.00     0.005 C 
ATOM     12  C   UNL     1     115.554 123.107 129.719  1.00  0.00    -0.023 C 
ATOM     13  C   UNL     1     114.171 123.491 127.756  1.00  0.00     0.009 C 
ATOM     14  C   UNL     1     115.619 123.427 128.220  1.00  0.00     0.021 C 
ATOM     15  C   UNL     1     116.989 122.735 130.204  1.00  0.00     0.008 C 
ATOM     16  C   UNL     1     115.063 124.332 130.562  1.00  0.00     0.012 C 
ATOM     17  C   UNL     1     116.585 124.559 127.971  1.00  0.00    -0.063 C 
ATOM     18  C   UNL     1     118.038 123.836 129.864  1.00  0.00     0.009 C 
ATOM     19  C   UNL     1     118.019 124.217 128.356  1.00  0.00     0.025 C 
ATOM     20  C   UNL     1     116.194 125.839 127.835  1.00  0.00    -0.000 C 
ATOM     21  C   UNL     1     119.028 125.339 127.898  1.00  0.00    -0.005 C 
ATOM     22  C   UNL     1     117.141 126.947 128.047  1.00  0.00    -0.000 C 
ATOM     23  C   UNL     1     118.455 126.717 128.182  1.00  0.00    -0.061 C 
ATOM     24  C   UNL     1     120.449 125.200 128.541  1.00  0.00     0.014 C 
ATOM     25  C   UNL     1     119.200 125.221 126.361  1.00  0.00     0.017 C 
ATOM     26  C   UNL     1     119.404 127.825 128.546  1.00  0.00     0.063 C 
ATOM     27  C   UNL     1     120.624 125.964 129.872  1.00  0.00     0.033 C 
ATOM     28  C   UNL     1     120.180 127.453 129.819  1.00  0.00     0.118 C 
BRANCH  28  29
ATOM     29  O   UNL     1     121.296 128.300 129.930  1.00  0.00    -0.393 OA
ATOM     30  H   UNL     1     121.039 129.032 130.550  1.00  0.00     0.210 HD
ENDBRANCH  28  29
ENDBRANCH   1  10
TORSDOF 5
ENDMDL
MODEL 4
REMARK VINA RESULT:    -7.284      2.479      5.043
REMARK INTER + INTRA:         -10.583
REMARK INTER:                  -9.289
REMARK INTRA:                  -1.294
REMARK UNBOUND:                -1.383
REMARK SMILES CC(C)[C@H](C)C=C[C@@H](C)[C@@H]1CC[C@H]2C3=CC=C4C[C@H](O)CC[C@@]4(C)[C@H]3CC[C@@]21C
REMARK SMILES IDX 8 1 9 2 7 3 6 4 4 5 5 6 2 7 1 8 3 9 10 10 11 11 28 12 12 13
REMARK SMILES IDX 13 14 27 15 29 16 14 17 26 18 25 19 15 20 23 21 16 22 17 23
REMARK SMILES IDX 22 24 24 25 18 26 21 27 19 28 20 29
REMARK H PARENT 20 30
REMARK Flexibility Score: inf
ROOT
ATOM      1  C   UNL     1     119.320 117.359 125.912  1.00  0.00     0.012 C 
ATOM      2  C   UNL     1     118.805 116.223 125.013  1.00  0.00     0.012 C 
ENDROOT
BRANCH   1   3
ATOM      3  C   UNL     1     120.841 117.414 125.891  1.00  0.00    -0.028 C 
ATOM      4  C   UNL     1     121.589 118.464 125.489  1.00  0.00    -0.028 C 
BRANCH   4   5
ATOM      5  C   UNL     1     121.059 119.787 124.964  1.00  0.00     0.011 C 
ATOM      6  C   UNL     1     121.646 120.941 125.797  1.00  0.00     0.012 C 
BRANCH   5   7
ATOM      7  C   UNL     1     121.329 119.935 123.435  1.00  0.00    -0.011 C 
ATOM      8  C   UNL     1     120.772 121.253 122.877  1.00  0.00     0.008 C 
ATOM      9  C   UNL     1     122.812 119.783 123.059  1.00  0.00     0.008 C 
ENDBRANCH   5   7
ENDBRANCH   4   5
ENDBRANCH   1   3
BRANCH   1  10
ATOM     10  C   UNL     1     118.688 117.355 127.348  1.00  0.00     0.002 C 
ATOM     11  C   UNL     1     117.544 116.301 127.461  1.00  0.00     0.005 C 
ATOM     12  C   UNL     1     118.073 118.661 127.963  1.00  0.00    -0.023 C 
ATOM     13  C   UNL     1     116.268 117.034 127.902  1.00  0.00     0.009 C 
ATOM     14  C   UNL     1     116.583 118.498 127.636  1.00  0.00     0.021 C 
ATOM     15  C   UNL     1     118.540 120.054 127.439  1.00  0.00     0.008 C 
ATOM     16  C   UNL     1     118.346 118.611 129.504  1.00  0.00     0.012 C 
ATOM     17  C   UNL     1     115.786 119.611 128.270  1.00  0.00    -0.063 C 
ATOM     18  C   UNL     1     117.668 121.222 127.987  1.00  0.00     0.009 C 
ATOM     19  C   UNL     1     116.152 120.990 127.733  1.00  0.00     0.025 C 
ATOM     20  C   UNL     1     115.148 119.477 129.447  1.00  0.00    -0.000 C 
ATOM     21  C   UNL     1     115.168 122.101 128.264  1.00  0.00    -0.005 C 
ATOM     22  C   UNL     1     114.777 120.657 130.246  1.00  0.00    -0.000 C 
ATOM     23  C   UNL     1     114.880 121.895 129.741  1.00  0.00    -0.061 C 
ATOM     24  C   UNL     1     115.678 123.560 128.010  1.00  0.00     0.014 C 
ATOM     25  C   UNL     1     113.822 121.942 127.508  1.00  0.00     0.017 C 
ATOM     26  C   UNL     1     114.645 123.106 130.600  1.00  0.00     0.063 C 
ATOM     27  C   UNL     1     116.529 124.146 129.158  1.00  0.00     0.033 C 
ATOM     28  C   UNL     1     115.880 124.021 130.565  1.00  0.00     0.118 C 
BRANCH  28  29
ATOM     29  O   UNL     1     115.516 125.289 131.049  1.00  0.00    -0.393 OA
ATOM     30  H   UNL     1     115.563 125.913 130.277  1.00  0.00     0.210 HD
ENDBRANCH  28  29
ENDBRANCH   1  10
TORSDOF 5
ENDMDL
MODEL 5
REMARK VINA RESULT:    -7.101      3.513      7.050
REMARK INTER + INTRA:         -10.353
REMARK INTER:                  -9.308
REMARK INTRA:                  -1.045
REMARK UNBOUND:                -1.383
REMARK SMILES CC(C)[C@H](C)C=C[C@@H](C)[C@@H]1CC[C@H]2C3=CC=C4C[C@H](O)CC[C@@]4(C)[C@H]3CC[C@@]21C
REMARK SMILES IDX 8 1 9 2 7 3 6 4 4 5 5 6 2 7 1 8 3 9 10 10 11 11 28 12 12 13
REMARK SMILES IDX 13 14 27 15 29 16 14 17 26 18 25 19 15 20 23 21 16 22 17 23
REMARK SMILES IDX 22 24 24 25 18 26 21 27 19 28 20 29
REMARK H PARENT 20 30
REMARK Flexibility Score: inf
ROOT
ATOM      1  C   UNL     1     114.799 122.661 127.694  1.00  0.00     0.012 C 
ATOM      2  C   UNL     1     114.346 122.095 126.338  1.00  0.00     0.012 C 
ENDROOT
BRANCH   1   3
ATOM      3  C   UNL     1     116.302 122.900 127.702  1.00  0.00    -0.028 C 
ATOM      4  C   UNL     1     116.929 123.982 128.210  1.00  0.00    -0.028 C 
BRANCH   4   5
ATOM      5  C   UNL     1     116.254 125.181 128.858  1.00  0.00     0.011 C 
ATOM      6  C   UNL     1     116.562 125.188 130.366  1.00  0.00     0.012 C 
BRANCH   5   7
ATOM      7  C   UNL     1     116.656 126.507 128.144  1.00  0.00    -0.011 C 
ATOM      8  C   UNL     1     117.042 127.606 129.145  1.00  0.00     0.008 C 
ATOM      9  C   UNL     1     117.767 126.326 127.097  1.00  0.00     0.008 C 
ENDBRANCH   5   7
ENDBRANCH   4   5
ENDBRANCH   1   3
BRANCH   1  10
ATOM     10  C   UNL     1     114.262 121.846 128.922  1.00  0.00     0.002 C 
ATOM     11  C   UNL     1     113.404 122.743 129.866  1.00  0.00     0.005 C 
ATOM     12  C   UNL     1     115.246 121.098 129.889  1.00  0.00    -0.023 C 
ATOM     13  C   UNL     1     114.026 122.684 131.270  1.00  0.00     0.009 C 
ATOM     14  C   UNL     1     115.416 122.116 131.024  1.00  0.00     0.021 C 
ATOM     15  C   UNL     1     116.664 120.690 129.381  1.00  0.00     0.008 C 
ATOM     16  C   UNL     1     114.515 119.799 130.368  1.00  0.00     0.012 C 
ATOM     17  C   UNL     1     116.240 121.521 132.138  1.00  0.00    -0.063 C 
ATOM     18  C   UNL     1     117.583 120.173 130.527  1.00  0.00     0.009 C 
ATOM     19  C   UNL     1     117.663 121.177 131.712  1.00  0.00     0.025 C 
ATOM     20  C   UNL     1     115.696 120.966 133.236  1.00  0.00    -0.000 C 
ATOM     21  C   UNL     1     118.552 120.750 132.942  1.00  0.00    -0.005 C 
ATOM     22  C   UNL     1     116.461 120.015 134.062  1.00  0.00    -0.000 C 
ATOM     23  C   UNL     1     117.774 119.829 133.866  1.00  0.00    -0.061 C 
ATOM     24  C   UNL     1     119.908 120.084 132.530  1.00  0.00     0.014 C 
ATOM     25  C   UNL     1     118.889 122.031 133.749  1.00  0.00     0.017 C 
ATOM     26  C   UNL     1     118.524 118.755 134.603  1.00  0.00     0.063 C 
ATOM     27  C   UNL     1     119.846 118.548 132.386  1.00  0.00     0.033 C 
ATOM     28  C   UNL     1     119.213 117.815 133.602  1.00  0.00     0.118 C 
BRANCH  28  29
ATOM     29  O   UNL     1     120.189 117.068 134.283  1.00  0.00    -0.393 OA
ATOM     30  H   UNL     1     120.881 116.823 133.613  1.00  0.00     0.210 HD
ENDBRANCH  28  29
ENDBRANCH   1  10
TORSDOF 5
ENDMDL
MODEL 6
REMARK VINA RESULT:    -7.051      3.206      8.532
REMARK INTER + INTRA:         -10.290
REMARK INTER:                  -9.720
REMARK INTRA:                  -0.570
REMARK UNBOUND:                -1.383
REMARK SMILES CC(C)[C@H](C)C=C[C@@H](C)[C@@H]1CC[C@H]2C3=CC=C4C[C@H](O)CC[C@@]4(C)[C@H]3CC[C@@]21C
REMARK SMILES IDX 8 1 9 2 7 3 6 4 4 5 5 6 2 7 1 8 3 9 10 10 11 11 28 12 12 13
REMARK SMILES IDX 13 14 27 15 29 16 14 17 26 18 25 19 15 20 23 21 16 22 17 23
REMARK SMILES IDX 22 24 24 25 18 26 21 27 19 28 20 29
REMARK H PARENT 20 30
REMARK Flexibility Score: inf
ROOT
ATOM      1  C   UNL     1     119.217 127.067 128.300  1.00  0.00     0.012 C 
ATOM      2  C   UNL     1     118.104 127.322 127.270  1.00  0.00     0.012 C 
ENDROOT
BRANCH   1   3
ATOM      3  C   UNL     1     120.413 127.969 128.033  1.00  0.00    -0.028 C 
ATOM      4  C   UNL     1     120.526 129.264 128.400  1.00  0.00    -0.028 C 
BRANCH   4   5
ATOM      5  C   UNL     1     119.473 130.077 129.135  1.00  0.00     0.011 C 
ATOM      6  C   UNL     1     119.217 129.453 130.518  1.00  0.00     0.012 C 
BRANCH   5   7
ATOM      7  C   UNL     1     119.874 131.582 129.206  1.00  0.00    -0.011 C 
ATOM      8  C   UNL     1     121.331 131.811 128.780  1.00  0.00     0.008 C 
ATOM      9  C   UNL     1     118.936 132.504 128.410  1.00  0.00     0.008 C 
ENDBRANCH   5   7
ENDBRANCH   4   5
ENDBRANCH   1   3
BRANCH   1  10
ATOM     10  C   UNL     1     119.571 125.549 128.476  1.00  0.00     0.002 C 
ATOM     11  C   UNL     1     120.032 124.915 127.128  1.00  0.00     0.005 C 
ATOM     12  C   UNL     1     118.516 124.534 129.041  1.00  0.00    -0.023 C 
ATOM     13  C   UNL     1     119.115 123.719 126.830  1.00  0.00     0.009 C 
ATOM     14  C   UNL     1     117.928 123.936 127.757  1.00  0.00     0.021 C 
ATOM     15  C   UNL     1     117.340 125.056 129.923  1.00  0.00     0.008 C 
ATOM     16  C   UNL     1     119.309 123.472 129.875  1.00  0.00     0.012 C 
ATOM     17  C   UNL     1     116.968 122.822 128.093  1.00  0.00    -0.063 C 
ATOM     18  C   UNL     1     116.269 123.959 130.200  1.00  0.00     0.009 C 
ATOM     19  C   UNL     1     115.757 123.296 128.890  1.00  0.00     0.025 C 
ATOM     20  C   UNL     1     117.319 121.523 128.080  1.00  0.00    -0.000 C 
ATOM     21  C   UNL     1     114.682 122.154 129.049  1.00  0.00    -0.005 C 
ATOM     22  C   UNL     1     116.540 120.520 128.826  1.00  0.00    -0.000 C 
ATOM     23  C   UNL     1     115.355 120.831 129.372  1.00  0.00    -0.061 C 
ATOM     24  C   UNL     1     113.582 122.477 130.115  1.00  0.00     0.014 C 
ATOM     25  C   UNL     1     113.968 121.983 127.682  1.00  0.00     0.017 C 
ATOM     26  C   UNL     1     114.630 119.857 130.259  1.00  0.00     0.063 C 
ATOM     27  C   UNL     1     113.916 121.991 131.542  1.00  0.00     0.033 C 
ATOM     28  C   UNL     1     114.351 120.500 131.626  1.00  0.00     0.118 C 
BRANCH  28  29
ATOM     29  O   UNL     1     113.371 119.742 132.290  1.00  0.00    -0.393 OA
ATOM     30  H   UNL     1     112.821 119.308 131.585  1.00  0.00     0.210 HD
ENDBRANCH  28  29
ENDBRANCH   1  10
TORSDOF 5
ENDMDL
MODEL 7
REMARK VINA RESULT:    -6.896      2.571      7.751
REMARK INTER + INTRA:         -10.094
REMARK INTER:                  -8.938
REMARK INTRA:                  -1.156
REMARK UNBOUND:                -1.383
REMARK SMILES CC(C)[C@H](C)C=C[C@@H](C)[C@@H]1CC[C@H]2C3=CC=C4C[C@H](O)CC[C@@]4(C)[C@H]3CC[C@@]21C
REMARK SMILES IDX 8 1 9 2 7 3 6 4 4 5 5 6 2 7 1 8 3 9 10 10 11 11 28 12 12 13
REMARK SMILES IDX 13 14 27 15 29 16 14 17 26 18 25 19 15 20 23 21 16 22 17 23
REMARK SMILES IDX 22 24 24 25 18 26 21 27 19 28 20 29
REMARK H PARENT 20 30
REMARK Flexibility Score: inf
ROOT
ATOM      1  C   UNL     1     116.430 124.992 129.331  1.00  0.00     0.012 C 
ATOM      2  C   UNL     1     116.205 125.412 130.793  1.00  0.00     0.012 C 
ENDROOT
BRANCH   1   3
ATOM      3  C   UNL     1     116.340 126.196 128.405  1.00  0.00    -0.028 C 
ATOM      4  C   UNL     1     117.381 126.934 127.962  1.00  0.00    -0.028 C 
BRANCH   4   5
ATOM      5  C   UNL     1     118.843 126.716 128.315  1.00  0.00     0.011 C 
ATOM      6  C   UNL     1     119.655 126.504 127.025  1.00  0.00     0.012 C 
BRANCH   5   7
ATOM      7  C   UNL     1     119.387 127.879 129.199  1.00  0.00    -0.011 C 
ATOM      8  C   UNL     1     120.343 128.795 128.420  1.00  0.00     0.008 C 
ATOM      9  C   UNL     1     118.280 128.710 129.867  1.00  0.00     0.008 C 
ENDBRANCH   5   7
ENDBRANCH   4   5
ENDBRANCH   1   3
BRANCH   1  10
ATOM     10  C   UNL     1     115.558 123.764 128.892  1.00  0.00     0.002 C 
ATOM     11  C   UNL     1     114.694 123.231 130.075  1.00  0.00     0.005 C 
ATOM     12  C   UNL     1     116.220 122.478 128.285  1.00  0.00    -0.023 C 
ATOM     13  C   UNL     1     115.033 121.746 130.276  1.00  0.00     0.009 C 
ATOM     14  C   UNL     1     116.338 121.568 129.514  1.00  0.00     0.021 C 
ATOM     15  C   UNL     1     117.624 122.578 127.613  1.00  0.00     0.008 C 
ATOM     16  C   UNL     1     115.219 121.907 127.224  1.00  0.00     0.012 C 
ATOM     17  C   UNL     1     116.842 120.206 129.107  1.00  0.00    -0.063 C 
ATOM     18  C   UNL     1     118.228 121.181 127.278  1.00  0.00     0.009 C 
ATOM     19  C   UNL     1     118.247 120.240 128.516  1.00  0.00     0.025 C 
ATOM     20  C   UNL     1     116.027 119.158 128.889  1.00  0.00    -0.000 C 
ATOM     21  C   UNL     1     118.819 118.789 128.291  1.00  0.00    -0.005 C 
ATOM     22  C   UNL     1     116.470 118.011 128.078  1.00  0.00    -0.000 C 
ATOM     23  C   UNL     1     117.752 117.880 127.705  1.00  0.00    -0.061 C 
ATOM     24  C   UNL     1     120.106 118.756 127.400  1.00  0.00     0.014 C 
ATOM     25  C   UNL     1     119.201 118.210 129.679  1.00  0.00     0.017 C 
ATOM     26  C   UNL     1     118.177 116.795 126.756  1.00  0.00     0.063 C 
ATOM     27  C   UNL     1     119.831 118.590 125.889  1.00  0.00     0.033 C 
ATOM     28  C   UNL     1     118.881 117.411 125.536  1.00  0.00     0.118 C 
BRANCH  28  29
ATOM     29  O   UNL     1     119.588 116.399 124.865  1.00  0.00    -0.393 OA
ATOM     30  H   UNL     1     120.116 115.915 125.553  1.00  0.00     0.210 HD
ENDBRANCH  28  29
ENDBRANCH   1  10
TORSDOF 5
ENDMDL
MODEL 8
REMARK VINA RESULT:    -6.842      3.047      5.181
REMARK INTER + INTRA:         -10.026
REMARK INTER:                  -8.786
REMARK INTRA:                  -1.240
REMARK UNBOUND:                -1.383
REMARK SMILES CC(C)[C@H](C)C=C[C@@H](C)[C@@H]1CC[C@H]2C3=CC=C4C[C@H](O)CC[C@@]4(C)[C@H]3CC[C@@]21C
REMARK SMILES IDX 8 1 9 2 7 3 6 4 4 5 5 6 2 7 1 8 3 9 10 10 11 11 28 12 12 13
REMARK SMILES IDX 13 14 27 15 29 16 14 17 26 18 25 19 15 20 23 21 16 22 17 23
REMARK SMILES IDX 22 24 24 25 18 26 21 27 19 28 20 29
REMARK H PARENT 20 30
REMARK Flexibility Score: inf
ROOT
ATOM      1  C   UNL     1     114.409 121.940 130.256  1.00  0.00     0.012 C 
ATOM      2  C   UNL     1     113.128 122.779 130.389  1.00  0.00     0.012 C 
ENDROOT
BRANCH   1   3
ATOM      3  C   UNL     1     114.189 120.532 130.790  1.00  0.00    -0.028 C 
ATOM      4  C   UNL     1     114.523 120.091 132.021  1.00  0.00    -0.028 C 
BRANCH   4   5
ATOM      5  C   UNL     1     115.200 120.910 133.108  1.00  0.00     0.011 C 
ATOM      6  C   UNL     1     114.182 121.231 134.217  1.00  0.00     0.012 C 
BRANCH   5   7
ATOM      7  C   UNL     1     116.479 120.192 133.639  1.00  0.00    -0.011 C 
ATOM      8  C   UNL     1     117.377 119.697 132.496  1.00  0.00     0.008 C 
ATOM      9  C   UNL     1     117.294 121.045 134.626  1.00  0.00     0.008 C 
ENDBRANCH   5   7
ENDBRANCH   4   5
ENDBRANCH   1   3
BRANCH   1  10
ATOM     10  C   UNL     1     115.687 122.657 130.816  1.00  0.00     0.002 C 
ATOM     11  C   UNL     1     115.446 124.187 130.994  1.00  0.00     0.005 C 
ATOM     12  C   UNL     1     117.061 122.567 130.063  1.00  0.00    -0.023 C 
ATOM     13  C   UNL     1     116.513 124.932 130.176  1.00  0.00     0.009 C 
ATOM     14  C   UNL     1     117.063 123.863 129.244  1.00  0.00     0.021 C 
ATOM     15  C   UNL     1     117.331 121.374 129.094  1.00  0.00     0.008 C 
ATOM     16  C   UNL     1     118.181 122.560 131.157  1.00  0.00     0.012 C 
ATOM     17  C   UNL     1     118.384 124.029 128.535  1.00  0.00    -0.063 C 
ATOM     18  C   UNL     1     118.634 121.563 128.262  1.00  0.00     0.009 C 
ATOM     19  C   UNL     1     118.660 122.929 127.517  1.00  0.00     0.025 C 
ATOM     20  C   UNL     1     119.385 124.787 129.019  1.00  0.00    -0.000 C 
ATOM     21  C   UNL     1     119.944 123.240 126.657  1.00  0.00    -0.005 C 
ATOM     22  C   UNL     1     120.774 124.581 128.575  1.00  0.00    -0.000 C 
ATOM     23  C   UNL     1     121.057 123.779 127.538  1.00  0.00    -0.061 C 
ATOM     24  C   UNL     1     120.454 122.012 125.830  1.00  0.00     0.014 C 
ATOM     25  C   UNL     1     119.576 124.359 125.647  1.00  0.00     0.017 C 
ATOM     26  C   UNL     1     122.479 123.449 127.177  1.00  0.00     0.063 C 
ATOM     27  C   UNL     1     121.490 121.135 126.566  1.00  0.00     0.033 C 
ATOM     28  C   UNL     1     122.680 121.926 127.179  1.00  0.00     0.118 C 
BRANCH  28  29
ATOM     29  O   UNL     1     123.869 121.627 126.492  1.00  0.00    -0.393 OA
ATOM     30  H   UNL     1     123.645 121.619 125.524  1.00  0.00     0.210 HD
ENDBRANCH  28  29
ENDBRANCH   1  10
TORSDOF 5
ENDMDL
MODEL 9
REMARK VINA RESULT:    -5.314      2.581      4.490
REMARK INTER + INTRA:          -8.096
REMARK INTER:                  -7.485
REMARK INTRA:                  -0.610
REMARK UNBOUND:                -1.383
REMARK SMILES CC(C)[C@H](C)C=C[C@@H](C)[C@@H]1CC[C@H]2C3=CC=C4C[C@H](O)CC[C@@]4(C)[C@H]3CC[C@@]21C
REMARK SMILES IDX 8 1 9 2 7 3 6 4 4 5 5 6 2 7 1 8 3 9 10 10 11 11 28 12 12 13
REMARK SMILES IDX 13 14 27 15 29 16 14 17 26 18 25 19 15 20 23 21 16 22 17 23
REMARK SMILES IDX 22 24 24 25 18 26 21 27 19 28 20 29
REMARK H PARENT 20 30
REMARK Flexibility Score: inf
ROOT
ATOM      1  C   UNL     1     114.871 120.702 131.522  1.00  0.00     0.012 C 
ATOM      2  C   UNL     1     113.621 119.946 132.002  1.00  0.00     0.012 C 
ENDROOT
BRANCH   1   3
ATOM      3  C   UNL     1     115.477 121.516 132.656  1.00  0.00    -0.028 C 
ATOM      4  C   UNL     1     116.650 121.260 133.274  1.00  0.00    -0.028 C 
BRANCH   4   5
ATOM      5  C   UNL     1     117.585 120.101 132.969  1.00  0.00     0.011 C 
ATOM      6  C   UNL     1     118.617 120.540 131.914  1.00  0.00     0.012 C 
BRANCH   5   7
ATOM      7  C   UNL     1     118.238 119.546 134.271  1.00  0.00    -0.011 C 
ATOM      8  C   UNL     1     119.222 118.404 133.980  1.00  0.00     0.008 C 
ATOM      9  C   UNL     1     118.917 120.630 135.125  1.00  0.00     0.008 C 
ENDBRANCH   5   7
ENDBRANCH   4   5
ENDBRANCH   1   3
BRANCH   1  10
ATOM     10  C   UNL     1     114.643 121.505 130.193  1.00  0.00     0.002 C 
ATOM     11  C   UNL     1     114.570 120.552 128.961  1.00  0.00     0.005 C 
ATOM     12  C   UNL     1     115.638 122.635 129.750  1.00  0.00    -0.023 C 
ATOM     13  C   UNL     1     115.649 120.992 127.959  1.00  0.00     0.009 C 
ATOM     14  C   UNL     1     116.563 121.885 128.783  1.00  0.00     0.021 C 
ATOM     15  C   UNL     1     116.522 123.346 130.822  1.00  0.00     0.008 C 
ATOM     16  C   UNL     1     114.789 123.730 129.023  1.00  0.00     0.012 C 
ATOM     17  C   UNL     1     117.529 122.847 128.137  1.00  0.00    -0.063 C 
ATOM     18  C   UNL     1     117.607 124.265 130.186  1.00  0.00     0.009 C 
ATOM     19  C   UNL     1     118.471 123.512 129.135  1.00  0.00     0.025 C 
ATOM     20  C   UNL     1     117.326 123.383 126.920  1.00  0.00    -0.000 C 
ATOM     21  C   UNL     1     119.592 124.349 128.409  1.00  0.00    -0.005 C 
ATOM     22  C   UNL     1     118.011 124.622 126.513  1.00  0.00    -0.000 C 
ATOM     23  C   UNL     1     119.001 125.140 127.254  1.00  0.00    -0.061 C 
ATOM     24  C   UNL     1     120.380 125.302 129.371  1.00  0.00     0.014 C 
ATOM     25  C   UNL     1     120.613 123.350 127.806  1.00  0.00     0.017 C 
ATOM     26  C   UNL     1     119.600 126.478 126.923  1.00  0.00     0.063 C 
ATOM     27  C   UNL     1     119.779 126.719 129.496  1.00  0.00     0.033 C 
ATOM     28  C   UNL     1     119.490 127.416 128.137  1.00  0.00     0.118 C 
BRANCH  28  29
ATOM     29  O   UNL     1     120.365 128.500 127.949  1.00  0.00    -0.393 OA
ATOM     30  H   UNL     1     119.932 129.291 128.365  1.00  0.00     0.210 HD
ENDBRANCH  28  29
ENDBRANCH   1  10
TORSDOF 5
ENDMDL
