MODEL 1
REMARK VINA RESULT:    -4.743      0.000      0.000
REMARK INTER + INTRA:          -4.743
REMARK INTER:                  -4.743
REMARK INTRA:                   0.000
REMARK UNBOUND:                 0.000
REMARK SMILES C[C@@H]1CCC=C2CC[C@@H]3[C@@H](C3(C)C)[C@]21C
REMARK SMILES IDX 1 1 2 2 3 3 4 4 5 5 6 6 14 7 10 8 9 9 11 10 12 11 13 12 8 13
REMARK SMILES IDX 7 14 15 15
REMARK H PARENT
REMARK Flexibility Score: inf
ROOT
ATOM      1  C   UNL     1     145.355 145.673 129.126  1.00  0.00     0.008 C 
ATOM      2  C   UNL     1     145.597 146.003 130.611  1.00  0.00    -0.004 C 
ATOM      3  C   UNL     1     146.411 147.299 130.736  1.00  0.00     0.008 C 
ATOM      4  C   UNL     1     146.494 147.737 132.199  1.00  0.00     0.027 C 
ATOM      5  C   UNL     1     146.868 146.613 133.126  1.00  0.00    -0.027 C 
ATOM      6  C   UNL     1     146.659 145.308 132.838  1.00  0.00    -0.068 C 
ATOM      7  C   UNL     1     146.248 144.834 131.441  1.00  0.00    -0.005 C 
ATOM      8  C   UNL     1     145.267 143.612 131.496  1.00  0.00     0.009 C 
ATOM      9  C   UNL     1     145.092 142.849 132.830  1.00  0.00    -0.000 C 
ATOM     10  C   UNL     1     143.908 143.630 132.222  1.00  0.00    -0.028 C 
ATOM     11  C   UNL     1     142.826 142.747 131.589  1.00  0.00     0.012 C 
ATOM     12  C   UNL     1     143.384 144.891 132.937  1.00  0.00     0.012 C 
ATOM     13  C   UNL     1     145.723 143.402 134.125  1.00  0.00     0.009 C 
ATOM     14  C   UNL     1     146.956 144.262 133.882  1.00  0.00     0.031 C 
ATOM     15  C   UNL     1     147.543 144.330 130.749  1.00  0.00     0.017 C 
ENDROOT
TORSDOF 0
ENDMDL
MODEL 2
REMARK VINA RESULT:    -4.477      1.268      4.061
REMARK INTER + INTRA:          -4.477
REMARK INTER:                  -4.477
REMARK INTRA:                   0.000
REMARK UNBOUND:                 0.000
REMARK SMILES C[C@@H]1CCC=C2CC[C@@H]3[C@@H](C3(C)C)[C@]21C
REMARK SMILES IDX 1 1 2 2 3 3 4 4 5 5 6 6 14 7 10 8 9 9 11 10 12 11 13 12 8 13
REMARK SMILES IDX 7 14 15 15
REMARK H PARENT
REMARK Flexibility Score: inf
ROOT
ATOM      1  C   UNL     1     147.650 143.857 130.831  1.00  0.00     0.008 C 
ATOM      2  C   UNL     1     146.707 144.120 132.020  1.00  0.00    -0.004 C 
ATOM      3  C   UNL     1     146.524 142.835 132.842  1.00  0.00     0.008 C 
ATOM      4  C   UNL     1     145.747 143.128 134.125  1.00  0.00     0.027 C 
ATOM      5  C   UNL     1     144.515 143.957 133.887  1.00  0.00    -0.027 C 
ATOM      6  C   UNL     1     144.361 144.774 132.820  1.00  0.00    -0.068 C 
ATOM      7  C   UNL     1     145.318 144.751 131.626  1.00  0.00    -0.005 C 
ATOM      8  C   UNL     1     145.538 146.177 131.015  1.00  0.00     0.009 C 
ATOM      9  C   UNL     1     144.585 147.324 131.423  1.00  0.00    -0.000 C 
ATOM     10  C   UNL     1     146.077 147.381 131.811  1.00  0.00    -0.028 C 
ATOM     11  C   UNL     1     146.905 148.379 130.992  1.00  0.00     0.012 C 
ATOM     12  C   UNL     1     146.482 147.262 133.294  1.00  0.00     0.012 C 
ATOM     13  C   UNL     1     143.560 147.110 132.558  1.00  0.00     0.009 C 
ATOM     14  C   UNL     1     143.142 145.656 132.733  1.00  0.00     0.031 C 
ATOM     15  C   UNL     1     144.628 143.900 130.525  1.00  0.00     0.017 C 
ENDROOT
TORSDOF 0
ENDMDL
MODEL 3
REMARK VINA RESULT:    -4.260      1.603      3.559
REMARK INTER + INTRA:          -4.260
REMARK INTER:                  -4.260
REMARK INTRA:                   0.000
REMARK UNBOUND:                 0.000
REMARK SMILES C[C@@H]1CCC=C2CC[C@@H]3[C@@H](C3(C)C)[C@]21C
REMARK SMILES IDX 1 1 2 2 3 3 4 4 5 5 6 6 14 7 10 8 9 9 11 10 12 11 13 12 8 13
REMARK SMILES IDX 7 14 15 15
REMARK H PARENT
REMARK Flexibility Score: inf
ROOT
ATOM      1  C   UNL     1     144.146 142.750 131.401  1.00  0.00     0.008 C 
ATOM      2  C   UNL     1     145.281 143.718 131.785  1.00  0.00    -0.004 C 
ATOM      3  C   UNL     1     146.530 142.926 132.199  1.00  0.00     0.008 C 
ATOM      4  C   UNL     1     147.717 143.868 132.399  1.00  0.00     0.027 C 
ATOM      5  C   UNL     1     147.374 145.073 133.233  1.00  0.00    -0.027 C 
ATOM      6  C   UNL     1     146.117 145.555 133.364  1.00  0.00    -0.068 C 
ATOM      7  C   UNL     1     144.889 144.783 132.876  1.00  0.00    -0.005 C 
ATOM      8  C   UNL     1     143.776 145.733 132.315  1.00  0.00     0.009 C 
ATOM      9  C   UNL     1     143.873 147.251 132.596  1.00  0.00    -0.000 C 
ATOM     10  C   UNL     1     143.994 146.720 131.152  1.00  0.00    -0.028 C 
ATOM     11  C   UNL     1     142.758 146.974 130.280  1.00  0.00     0.012 C 
ATOM     12  C   UNL     1     145.343 146.826 130.414  1.00  0.00     0.012 C 
ATOM     13  C   UNL     1     145.143 147.836 133.250  1.00  0.00     0.009 C 
ATOM     14  C   UNL     1     145.892 146.838 134.122  1.00  0.00     0.031 C 
ATOM     15  C   UNL     1     144.285 144.085 134.125  1.00  0.00     0.017 C 
ENDROOT
TORSDOF 0
ENDMDL
MODEL 4
REMARK VINA RESULT:    -4.245      1.451      3.037
REMARK INTER + INTRA:          -4.245
REMARK INTER:                  -4.245
REMARK INTRA:                   0.000
REMARK UNBOUND:                 0.000
REMARK SMILES C[C@@H]1CCC=C2CC[C@@H]3[C@@H](C3(C)C)[C@]21C
REMARK SMILES IDX 1 1 2 2 3 3 4 4 5 5 6 6 14 7 10 8 9 9 11 10 12 11 13 12 8 13
REMARK SMILES IDX 7 14 15 15
REMARK H PARENT
REMARK Flexibility Score: inf
ROOT
ATOM      1  C   UNL     1     146.595 148.000 131.409  1.00  0.00     0.008 C 
ATOM      2  C   UNL     1     145.466 147.028 131.801  1.00  0.00    -0.004 C 
ATOM      3  C   UNL     1     144.221 147.814 132.237  1.00  0.00     0.008 C 
ATOM      4  C   UNL     1     143.038 146.868 132.445  1.00  0.00     0.027 C 
ATOM      5  C   UNL     1     143.394 145.658 133.265  1.00  0.00    -0.027 C 
ATOM      6  C   UNL     1     144.653 145.176 133.376  1.00  0.00    -0.068 C 
ATOM      7  C   UNL     1     145.874 145.955 132.879  1.00  0.00    -0.005 C 
ATOM      8  C   UNL     1     146.981 145.011 132.296  1.00  0.00     0.009 C 
ATOM      9  C   UNL     1     146.890 143.490 132.567  1.00  0.00    -0.000 C 
ATOM     10  C   UNL     1     146.750 144.032 131.129  1.00  0.00    -0.028 C 
ATOM     11  C   UNL     1     147.975 143.787 130.239  1.00  0.00     0.012 C 
ATOM     12  C   UNL     1     145.391 143.929 130.408  1.00  0.00     0.012 C 
ATOM     13  C   UNL     1     145.630 142.898 133.233  1.00  0.00     0.009 C 
ATOM     14  C   UNL     1     144.890 143.888 134.122  1.00  0.00     0.031 C 
ATOM     15  C   UNL     1     146.493 146.644 134.125  1.00  0.00     0.017 C 
ENDROOT
TORSDOF 0
ENDMDL
MODEL 5
REMARK VINA RESULT:    -4.117      1.498      2.949
REMARK INTER + INTRA:          -4.117
REMARK INTER:                  -4.117
REMARK INTRA:                   0.000
REMARK UNBOUND:                 0.000
REMARK SMILES C[C@@H]1CCC=C2CC[C@@H]3[C@@H](C3(C)C)[C@]21C
REMARK SMILES IDX 1 1 2 2 3 3 4 4 5 5 6 6 14 7 10 8 9 9 11 10 12 11 13 12 8 13
REMARK SMILES IDX 7 14 15 15
REMARK H PARENT
REMARK Flexibility Score: inf
ROOT
ATOM      1  C   UNL     1     145.097 145.324 129.018  1.00  0.00     0.008 C 
ATOM      2  C   UNL     1     144.678 145.643 130.466  1.00  0.00    -0.004 C 
ATOM      3  C   UNL     1     143.382 146.469 130.469  1.00  0.00     0.008 C 
ATOM      4  C   UNL     1     142.856 146.629 131.895  1.00  0.00     0.027 C 
ATOM      5  C   UNL     1     143.923 147.044 132.870  1.00  0.00    -0.027 C 
ATOM      6  C   UNL     1     145.241 146.815 132.675  1.00  0.00    -0.068 C 
ATOM      7  C   UNL     1     145.798 146.330 131.334  1.00  0.00    -0.005 C 
ATOM      8  C   UNL     1     147.006 145.349 131.514  1.00  0.00     0.009 C 
ATOM      9  C   UNL     1     147.684 145.238 132.900  1.00  0.00    -0.000 C 
ATOM     10  C   UNL     1     146.933 144.029 132.305  1.00  0.00    -0.028 C 
ATOM     11  C   UNL     1     147.846 142.912 131.784  1.00  0.00     0.012 C 
ATOM     12  C   UNL     1     145.626 143.547 132.966  1.00  0.00     0.012 C 
ATOM     13  C   UNL     1     147.056 145.937 134.124  1.00  0.00     0.009 C 
ATOM     14  C   UNL     1     146.223 147.160 133.766  1.00  0.00     0.031 C 
ATOM     15  C   UNL     1     146.354 147.586 130.609  1.00  0.00     0.017 C 
ENDROOT
TORSDOF 0
ENDMDL
MODEL 6
REMARK VINA RESULT:    -3.888      1.342      3.684
REMARK INTER + INTRA:          -3.888
REMARK INTER:                  -3.888
REMARK INTRA:                   0.000
REMARK UNBOUND:                 0.000
REMARK SMILES C[C@@H]1CCC=C2CC[C@@H]3[C@@H](C3(C)C)[C@]21C
REMARK SMILES IDX 1 1 2 2 3 3 4 4 5 5 6 6 14 7 10 8 9 9 11 10 12 11 13 12 8 13
REMARK SMILES IDX 7 14 15 15
REMARK H PARENT
REMARK Flexibility Score: inf
ROOT
ATOM      1  C   UNL     1     143.637 143.074 131.794  1.00  0.00     0.008 C 
ATOM      2  C   UNL     1     144.016 144.329 132.603  1.00  0.00    -0.004 C 
ATOM      3  C   UNL     1     142.751 144.993 133.167  1.00  0.00     0.008 C 
ATOM      4  C   UNL     1     143.125 146.125 134.124  1.00  0.00     0.027 C 
ATOM      5  C   UNL     1     144.176 147.043 133.563  1.00  0.00    -0.027 C 
ATOM      6  C   UNL     1     145.054 146.673 132.603  1.00  0.00    -0.068 C 
ATOM      7  C   UNL     1     144.907 145.365 131.821  1.00  0.00    -0.005 C 
ATOM      8  C   UNL     1     146.295 144.720 131.481  1.00  0.00     0.009 C 
ATOM      9  C   UNL     1     147.578 145.566 131.653  1.00  0.00    -0.000 C 
ATOM     10  C   UNL     1     147.343 144.324 132.538  1.00  0.00    -0.028 C 
ATOM     11  C   UNL     1     148.206 143.112 132.169  1.00  0.00     0.012 C 
ATOM     12  C   UNL     1     147.086 144.506 134.047  1.00  0.00     0.012 C 
ATOM     13  C   UNL     1     147.506 146.951 132.331  1.00  0.00     0.009 C 
ATOM     14  C   UNL     1     146.147 147.625 132.193  1.00  0.00     0.031 C 
ATOM     15  C   UNL     1     144.248 145.736 130.465  1.00  0.00     0.017 C 
ENDROOT
TORSDOF 0
ENDMDL
MODEL 7
REMARK VINA RESULT:    -2.346      1.488      2.917
REMARK INTER + INTRA:          -2.346
REMARK INTER:                  -2.346
REMARK INTRA:                   0.000
REMARK UNBOUND:                 0.000
REMARK SMILES C[C@@H]1CCC=C2CC[C@@H]3[C@@H](C3(C)C)[C@]21C
REMARK SMILES IDX 1 1 2 2 3 3 4 4 5 5 6 6 14 7 10 8 9 9 11 10 12 11 13 12 8 13
REMARK SMILES IDX 7 14 15 15
REMARK H PARENT
REMARK Flexibility Score: inf
ROOT
ATOM      1  C   UNL     1     145.499 145.376 128.970  1.00  0.00     0.008 C 
ATOM      2  C   UNL     1     145.937 145.136 130.427  1.00  0.00    -0.004 C 
ATOM      3  C   UNL     1     147.237 144.317 130.457  1.00  0.00     0.008 C 
ATOM      4  C   UNL     1     147.782 144.235 131.883  1.00  0.00     0.027 C 
ATOM      5  C   UNL     1     146.728 143.868 132.893  1.00  0.00    -0.027 C 
ATOM      6  C   UNL     1     145.406 144.081 132.702  1.00  0.00    -0.068 C 
ATOM      7  C   UNL     1     144.831 144.491 131.344  1.00  0.00    -0.005 C 
ATOM      8  C   UNL     1     143.620 145.476 131.486  1.00  0.00     0.009 C 
ATOM      9  C   UNL     1     142.959 145.658 132.873  1.00  0.00    -0.000 C 
ATOM     10  C   UNL     1     143.697 146.837 132.205  1.00  0.00    -0.028 C 
ATOM     11  C   UNL     1     142.773 147.921 131.637  1.00  0.00     0.012 C 
ATOM     12  C   UNL     1     145.010 147.358 132.823  1.00  0.00     0.012 C 
ATOM     13  C   UNL     1     143.605 145.027 134.125  1.00  0.00     0.009 C 
ATOM     14  C   UNL     1     144.440 143.791 133.821  1.00  0.00     0.031 C 
ATOM     15  C   UNL     1     144.273 143.196 130.694  1.00  0.00     0.017 C 
ENDROOT
TORSDOF 0
ENDMDL
