MODEL 1
REMARK VINA RESULT:    -5.608      0.000      0.000
REMARK INTER + INTRA:         -17.403
REMARK INTER:                 -14.133
REMARK INTRA:                  -3.270
REMARK UNBOUND:                -3.270
REMARK SMILES CCCCCCCCCCCCCCCCCCCCCCCCCCCC(=O)[O-]
REMARK SMILES IDX 15 1 16 2 17 3 18 4 19 5 20 6 21 7 22 8 23 9 24 10 25 11
REMARK SMILES IDX 26 12 27 13 28 14 29 15 30 16 14 17 13 18 12 19 11 20 10 21
REMARK SMILES IDX 9 22 8 23 7 24 6 25 5 26 4 27 3 28 2 29 1 30
REMARK H PARENT
REMARK Flexibility Score: inf
ROOT
ATOM      1  C   UNL     1      -0.250  10.869  25.868  1.00  0.00     0.000 C 
ENDROOT
BRANCH   1   2
ATOM      2  C   UNL     1       0.201   9.552  25.206  1.00  0.00     0.000 C 
BRANCH   2   3
ATOM      3  C   UNL     1      -0.570   9.231  23.917  1.00  0.00     0.000 C 
BRANCH   3   4
ATOM      4  C   UNL     1      -1.724   8.253  24.186  1.00  0.00     0.000 C 
BRANCH   4   5
ATOM      5  C   UNL     1      -2.495   7.874  22.907  1.00  0.00     0.000 C 
BRANCH   5   6
ATOM      6  C   UNL     1      -1.891   8.417  21.596  1.00  0.00     0.000 C 
BRANCH   6   7
ATOM      7  C   UNL     1      -2.877   9.189  20.696  1.00  0.00     0.000 C 
BRANCH   7   8
ATOM      8  C   UNL     1      -3.818  10.156  21.443  1.00  0.00     0.000 C 
BRANCH   8   9
ATOM      9  C   UNL     1      -3.152  11.455  21.936  1.00  0.00     0.000 C 
BRANCH   9  10
ATOM     10  C   UNL     1      -3.234  11.625  23.462  1.00  0.00     0.000 C 
BRANCH  10  11
ATOM     11  C   UNL     1      -4.406  10.826  24.075  1.00  0.00     0.000 C 
BRANCH  11  12
ATOM     12  C   UNL     1      -4.583  11.058  25.588  1.00  0.00     0.006 C 
BRANCH  12  13
ATOM     13  C   UNL     1      -3.878  10.016  26.470  1.00  0.00     0.053 C 
BRANCH  13  14
ATOM     14  C   UNL     1      -3.375  10.606  27.753  1.00  0.00     0.041 C 
ATOM     15  O   UNL     1      -2.870   9.863  28.637  1.00  0.00    -0.550 OA
ATOM     16  O   UNL     1      -3.504  11.969  27.993  1.00  0.00    -0.550 OA
ENDBRANCH  13  14
ENDBRANCH  12  13
ENDBRANCH  11  12
ENDBRANCH  10  11
ENDBRANCH   9  10
ENDBRANCH   8   9
ENDBRANCH   7   8
ENDBRANCH   6   7
ENDBRANCH   5   6
ENDBRANCH   4   5
ENDBRANCH   3   4
ENDBRANCH   2   3
ENDBRANCH   1   2
BRANCH   1  17
ATOM     17  C   UNL     1       0.858  11.919  26.072  1.00  0.00     0.000 C 
BRANCH  17  18
ATOM     18  C   UNL     1       0.317  13.286  26.523  1.00  0.00     0.000 C 
BRANCH  18  19
ATOM     19  C   UNL     1       0.808  14.444  25.635  1.00  0.00     0.000 C 
BRANCH  19  20
ATOM     20  C   UNL     1       2.233  14.280  25.075  1.00  0.00     0.000 C 
BRANCH  20  21
ATOM     21  C   UNL     1       2.601  15.360  24.049  1.00  0.00     0.000 C 
BRANCH  21  22
ATOM     22  C   UNL     1       1.388  16.248  23.733  1.00  0.00    -0.000 C 
BRANCH  22  23
ATOM     23  C   UNL     1       1.585  17.712  24.172  1.00  0.00    -0.000 C 
BRANCH  23  24
ATOM     24  C   UNL     1       2.766  17.948  25.132  1.00  0.00    -0.000 C 
BRANCH  24  25
ATOM     25  C   UNL     1       3.915  18.805  24.565  1.00  0.00    -0.000 C 
BRANCH  25  26
ATOM     26  C   UNL     1       4.391  18.361  23.164  1.00  0.00    -0.000 C 
BRANCH  26  27
ATOM     27  C   UNL     1       4.505  19.537  22.179  1.00  0.00    -0.000 C 
BRANCH  27  28
ATOM     28  C   UNL     1       3.215  20.371  22.099  1.00  0.00    -0.000 C 
BRANCH  28  29
ATOM     29  C   UNL     1       3.028  21.043  20.730  1.00  0.00    -0.003 C 
ATOM     30  C   UNL     1       4.195  20.731  19.798  1.00  0.00     0.004 C 
ENDBRANCH  28  29
ENDBRANCH  27  28
ENDBRANCH  26  27
ENDBRANCH  25  26
ENDBRANCH  24  25
ENDBRANCH  23  24
ENDBRANCH  22  23
ENDBRANCH  21  22
ENDBRANCH  20  21
ENDBRANCH  19  20
ENDBRANCH  18  19
ENDBRANCH  17  18
ENDBRANCH   1  17
TORSDOF 26
ENDMDL
MODEL 2
REMARK VINA RESULT:    -5.587      2.539      4.872
REMARK INTER + INTRA:         -17.350
REMARK INTER:                 -13.675
REMARK INTRA:                  -3.675
REMARK UNBOUND:                -3.270
REMARK SMILES CCCCCCCCCCCCCCCCCCCCCCCCCCCC(=O)[O-]
REMARK SMILES IDX 15 1 16 2 17 3 18 4 19 5 20 6 21 7 22 8 23 9 24 10 25 11
REMARK SMILES IDX 26 12 27 13 28 14 29 15 30 16 14 17 13 18 12 19 11 20 10 21
REMARK SMILES IDX 9 22 8 23 7 24 6 25 5 26 4 27 3 28 2 29 1 30
REMARK H PARENT
REMARK Flexibility Score: inf
ROOT
ATOM      1  C   UNL     1      -3.629   9.541  25.969  1.00  0.00     0.000 C 
ENDROOT
BRANCH   1   2
ATOM      2  C   UNL     1      -4.563  10.723  25.641  1.00  0.00     0.000 C 
BRANCH   2   3
ATOM      3  C   UNL     1      -4.597  11.066  24.144  1.00  0.00     0.000 C 
BRANCH   3   4
ATOM      4  C   UNL     1      -3.219  11.523  23.644  1.00  0.00     0.000 C 
BRANCH   4   5
ATOM      5  C   UNL     1      -2.877  10.970  22.247  1.00  0.00     0.000 C 
BRANCH   5   6
ATOM      6  C   UNL     1      -3.382   9.540  21.970  1.00  0.00     0.000 C 
BRANCH   6   7
ATOM      7  C   UNL     1      -2.438   8.414  22.437  1.00  0.00     0.000 C 
BRANCH   7   8
ATOM      8  C   UNL     1      -1.014   8.873  22.811  1.00  0.00     0.000 C 
BRANCH   8   9
ATOM      9  C   UNL     1      -0.695   8.825  24.318  1.00  0.00     0.000 C 
BRANCH   9  10
ATOM     10  C   UNL     1       0.146  10.024  24.788  1.00  0.00     0.000 C 
BRANCH  10  11
ATOM     11  C   UNL     1       1.654   9.690  24.847  1.00  0.00     0.000 C 
BRANCH  11  12
ATOM     12  C   UNL     1       2.043   8.823  26.059  1.00  0.00     0.006 C 
BRANCH  12  13
ATOM     13  C   UNL     1       3.551   8.553  26.181  1.00  0.00     0.053 C 
BRANCH  13  14
ATOM     14  C   UNL     1       3.855   7.467  27.169  1.00  0.00     0.041 C 
ATOM     15  O   UNL     1       5.050   7.185  27.452  1.00  0.00    -0.550 OA
ATOM     16  O   UNL     1       2.822   6.735  27.742  1.00  0.00    -0.550 OA
ENDBRANCH  13  14
ENDBRANCH  12  13
ENDBRANCH  11  12
ENDBRANCH  10  11
ENDBRANCH   9  10
ENDBRANCH   8   9
ENDBRANCH   7   8
ENDBRANCH   6   7
ENDBRANCH   5   6
ENDBRANCH   4   5
ENDBRANCH   3   4
ENDBRANCH   2   3
ENDBRANCH   1   2
BRANCH   1  17
ATOM     17  C   UNL     1      -2.726   9.735  27.202  1.00  0.00     0.000 C 
BRANCH  17  18
ATOM     18  C   UNL     1      -2.955  11.081  27.911  1.00  0.00     0.000 C 
BRANCH  18  19
ATOM     19  C   UNL     1      -1.727  12.008  27.840  1.00  0.00     0.000 C 
BRANCH  19  20
ATOM     20  C   UNL     1      -1.911  13.271  26.979  1.00  0.00     0.000 C 
BRANCH  20  21
ATOM     21  C   UNL     1      -0.918  13.348  25.811  1.00  0.00     0.000 C 
BRANCH  21  22
ATOM     22  C   UNL     1       0.525  13.460  26.327  1.00  0.00    -0.000 C 
BRANCH  22  23
ATOM     23  C   UNL     1       1.276  14.674  25.748  1.00  0.00    -0.000 C 
BRANCH  23  24
ATOM     24  C   UNL     1       2.396  14.328  24.748  1.00  0.00    -0.000 C 
BRANCH  24  25
ATOM     25  C   UNL     1       2.644  15.378  23.648  1.00  0.00    -0.000 C 
BRANCH  25  26
ATOM     26  C   UNL     1       3.895  16.251  23.889  1.00  0.00    -0.000 C 
BRANCH  26  27
ATOM     27  C   UNL     1       3.559  17.748  23.998  1.00  0.00    -0.000 C 
BRANCH  27  28
ATOM     28  C   UNL     1       2.786  18.091  25.281  1.00  0.00    -0.000 C 
BRANCH  28  29
ATOM     29  C   UNL     1       1.466  18.826  25.000  1.00  0.00    -0.003 C 
ATOM     30  C   UNL     1       1.016  18.619  23.558  1.00  0.00     0.004 C 
ENDBRANCH  28  29
ENDBRANCH  27  28
ENDBRANCH  26  27
ENDBRANCH  25  26
ENDBRANCH  24  25
ENDBRANCH  23  24
ENDBRANCH  22  23
ENDBRANCH  21  22
ENDBRANCH  20  21
ENDBRANCH  19  20
ENDBRANCH  18  19
ENDBRANCH  17  18
ENDBRANCH   1  17
TORSDOF 26
ENDMDL
MODEL 3
REMARK VINA RESULT:    -5.541      1.341      2.306
REMARK INTER + INTRA:         -17.234
REMARK INTER:                 -13.573
REMARK INTRA:                  -3.661
REMARK UNBOUND:                -3.270
REMARK SMILES CCCCCCCCCCCCCCCCCCCCCCCCCCCC(=O)[O-]
REMARK SMILES IDX 15 1 16 2 17 3 18 4 19 5 20 6 21 7 22 8 23 9 24 10 25 11
REMARK SMILES IDX 26 12 27 13 28 14 29 15 30 16 14 17 13 18 12 19 11 20 10 21
REMARK SMILES IDX 9 22 8 23 7 24 6 25 5 26 4 27 3 28 2 29 1 30
REMARK H PARENT
REMARK Flexibility Score: inf
ROOT
ATOM      1  C   UNL     1       0.721   9.287  24.295  1.00  0.00     0.000 C 
ENDROOT
BRANCH   1   2
ATOM      2  C   UNL     1      -0.656   9.424  23.616  1.00  0.00     0.000 C 
BRANCH   2   3
ATOM      3  C   UNL     1      -1.617   8.278  23.967  1.00  0.00     0.000 C 
BRANCH   3   4
ATOM      4  C   UNL     1      -2.569   7.972  22.802  1.00  0.00     0.000 C 
BRANCH   4   5
ATOM      5  C   UNL     1      -2.037   8.477  21.447  1.00  0.00     0.000 C 
BRANCH   5   6
ATOM      6  C   UNL     1      -3.094   9.131  20.534  1.00  0.00     0.000 C 
BRANCH   6   7
ATOM      7  C   UNL     1      -3.989  10.181  21.222  1.00  0.00     0.000 C 
BRANCH   7   8
ATOM      8  C   UNL     1      -3.252  11.449  21.700  1.00  0.00     0.000 C 
BRANCH   8   9
ATOM      9  C   UNL     1      -3.436  11.780  23.193  1.00  0.00     0.000 C 
BRANCH   9  10
ATOM     10  C   UNL     1      -4.764  11.251  23.761  1.00  0.00     0.000 C 
BRANCH  10  11
ATOM     11  C   UNL     1      -4.550  10.329  24.983  1.00  0.00     0.000 C 
BRANCH  11  12
ATOM     12  C   UNL     1      -3.300  10.687  25.809  1.00  0.00     0.006 C 
BRANCH  12  13
ATOM     13  C   UNL     1      -3.583  10.945  27.297  1.00  0.00     0.053 C 
BRANCH  13  14
ATOM     14  C   UNL     1      -2.592  10.260  28.190  1.00  0.00     0.041 C 
ATOM     15  O   UNL     1      -2.101   9.149  27.856  1.00  0.00    -0.550 OA
ATOM     16  O   UNL     1      -2.246  10.824  29.412  1.00  0.00    -0.550 OA
ENDBRANCH  13  14
ENDBRANCH  12  13
ENDBRANCH  11  12
ENDBRANCH  10  11
ENDBRANCH   9  10
ENDBRANCH   8   9
ENDBRANCH   7   8
ENDBRANCH   6   7
ENDBRANCH   5   6
ENDBRANCH   4   5
ENDBRANCH   3   4
ENDBRANCH   2   3
ENDBRANCH   1   2
BRANCH   1  17
ATOM     17  C   UNL     1       0.789   9.775  25.754  1.00  0.00     0.000 C 
BRANCH  17  18
ATOM     18  C   UNL     1       1.181  11.257  25.878  1.00  0.00     0.000 C 
BRANCH  18  19
ATOM     19  C   UNL     1       0.044  12.129  26.442  1.00  0.00     0.000 C 
BRANCH  19  20
ATOM     20  C   UNL     1       0.412  13.604  26.687  1.00  0.00     0.000 C 
BRANCH  20  21
ATOM     21  C   UNL     1       0.540  14.412  25.388  1.00  0.00     0.000 C 
BRANCH  21  22
ATOM     22  C   UNL     1       1.803  15.287  25.413  1.00  0.00    -0.000 C 
BRANCH  22  23
ATOM     23  C   UNL     1       2.813  14.914  24.312  1.00  0.00    -0.000 C 
BRANCH  23  24
ATOM     24  C   UNL     1       3.117  16.037  23.302  1.00  0.00    -0.000 C 
BRANCH  24  25
ATOM     25  C   UNL     1       4.062  17.142  23.812  1.00  0.00    -0.000 C 
BRANCH  25  26
ATOM     26  C   UNL     1       4.126  18.381  22.892  1.00  0.00    -0.000 C 
BRANCH  26  27
ATOM     27  C   UNL     1       3.105  19.462  23.285  1.00  0.00    -0.000 C 
BRANCH  27  28
ATOM     28  C   UNL     1       2.448  19.190  24.648  1.00  0.00    -0.000 C 
BRANCH  28  29
ATOM     29  C   UNL     1       0.913  19.202  24.580  1.00  0.00    -0.003 C 
ATOM     30  C   UNL     1       0.415  18.619  23.261  1.00  0.00     0.004 C 
ENDBRANCH  28  29
ENDBRANCH  27  28
ENDBRANCH  26  27
ENDBRANCH  25  26
ENDBRANCH  24  25
ENDBRANCH  23  24
ENDBRANCH  22  23
ENDBRANCH  21  22
ENDBRANCH  20  21
ENDBRANCH  19  20
ENDBRANCH  18  19
ENDBRANCH  17  18
ENDBRANCH   1  17
TORSDOF 26
ENDMDL
MODEL 4
REMARK VINA RESULT:    -5.482      3.758      9.746
REMARK INTER + INTRA:         -17.085
REMARK INTER:                 -14.206
REMARK INTRA:                  -2.879
REMARK UNBOUND:                -3.270
REMARK SMILES CCCCCCCCCCCCCCCCCCCCCCCCCCCC(=O)[O-]
REMARK SMILES IDX 15 1 16 2 17 3 18 4 19 5 20 6 21 7 22 8 23 9 24 10 25 11
REMARK SMILES IDX 26 12 27 13 28 14 29 15 30 16 14 17 13 18 12 19 11 20 10 21
REMARK SMILES IDX 9 22 8 23 7 24 6 25 5 26 4 27 3 28 2 29 1 30
REMARK H PARENT
REMARK Flexibility Score: inf
ROOT
ATOM      1  C   UNL     1      -2.114  12.195  24.815  1.00  0.00     0.000 C 
ENDROOT
BRANCH   1   2
ATOM      2  C   UNL     1      -2.142  11.932  26.334  1.00  0.00     0.000 C 
BRANCH   2   3
ATOM      3  C   UNL     1      -0.844  12.351  27.042  1.00  0.00     0.000 C 
BRANCH   3   4
ATOM      4  C   UNL     1      -0.379  13.739  26.579  1.00  0.00     0.000 C 
BRANCH   4   5
ATOM      5  C   UNL     1       0.954  13.697  25.808  1.00  0.00     0.000 C 
BRANCH   5   6
ATOM      6  C   UNL     1       1.556  15.076  25.470  1.00  0.00     0.000 C 
BRANCH   6   7
ATOM      7  C   UNL     1       2.554  15.080  24.294  1.00  0.00     0.000 C 
BRANCH   7   8
ATOM      8  C   UNL     1       2.556  16.370  23.449  1.00  0.00     0.000 C 
BRANCH   8   9
ATOM      9  C   UNL     1       1.839  17.569  24.099  1.00  0.00     0.000 C 
BRANCH   9  10
ATOM     10  C   UNL     1       0.488  17.887  23.434  1.00  0.00     0.000 C 
BRANCH  10  11
ATOM     11  C   UNL     1       0.516  19.231  22.672  1.00  0.00     0.000 C 
BRANCH  11  12
ATOM     12  C   UNL     1       0.857  20.437  23.567  1.00  0.00     0.006 C 
BRANCH  12  13
ATOM     13  C   UNL     1       1.803  21.457  22.914  1.00  0.00     0.053 C 
BRANCH  13  14
ATOM     14  C   UNL     1       2.882  20.795  22.111  1.00  0.00     0.041 C 
ATOM     15  O   UNL     1       3.809  20.168  22.690  1.00  0.00    -0.550 OA
ATOM     16  O   UNL     1       2.891  20.909  20.726  1.00  0.00    -0.550 OA
ENDBRANCH  13  14
ENDBRANCH  12  13
ENDBRANCH  11  12
ENDBRANCH  10  11
ENDBRANCH   9  10
ENDBRANCH   8   9
ENDBRANCH   7   8
ENDBRANCH   6   7
ENDBRANCH   5   6
ENDBRANCH   4   5
ENDBRANCH   3   4
ENDBRANCH   2   3
ENDBRANCH   1   2
BRANCH   1  17
ATOM     17  C   UNL     1      -3.245  11.530  24.009  1.00  0.00     0.000 C 
BRANCH  17  18
ATOM     18  C   UNL     1      -2.991  11.542  22.492  1.00  0.00     0.000 C 
BRANCH  18  19
ATOM     19  C   UNL     1      -3.812  10.477  21.742  1.00  0.00     0.000 C 
BRANCH  19  20
ATOM     20  C   UNL     1      -2.994   9.546  20.828  1.00  0.00     0.000 C 
BRANCH  20  21
ATOM     21  C   UNL     1      -1.973   8.697  21.598  1.00  0.00     0.000 C 
BRANCH  21  22
ATOM     22  C   UNL     1      -2.613   8.073  22.847  1.00  0.00    -0.000 C 
BRANCH  22  23
ATOM     23  C   UNL     1      -1.750   8.243  24.112  1.00  0.00    -0.000 C 
BRANCH  23  24
ATOM     24  C   UNL     1      -0.439   9.026  23.903  1.00  0.00    -0.000 C 
BRANCH  24  25
ATOM     25  C   UNL     1       0.286   9.451  25.195  1.00  0.00    -0.000 C 
BRANCH  25  26
ATOM     26  C   UNL     1       1.565  10.280  24.948  1.00  0.00    -0.000 C 
BRANCH  26  27
ATOM     27  C   UNL     1       2.718   9.880  25.885  1.00  0.00    -0.000 C 
BRANCH  27  28
ATOM     28  C   UNL     1       2.693   8.388  26.254  1.00  0.00    -0.000 C 
BRANCH  28  29
ATOM     29  C   UNL     1       4.035   7.892  26.811  1.00  0.00    -0.003 C 
ATOM     30  C   UNL     1       3.842   6.679  27.717  1.00  0.00     0.004 C 
ENDBRANCH  28  29
ENDBRANCH  27  28
ENDBRANCH  26  27
ENDBRANCH  25  26
ENDBRANCH  24  25
ENDBRANCH  23  24
ENDBRANCH  22  23
ENDBRANCH  21  22
ENDBRANCH  20  21
ENDBRANCH  19  20
ENDBRANCH  18  19
ENDBRANCH  17  18
ENDBRANCH   1  17
TORSDOF 26
ENDMDL
MODEL 5
REMARK VINA RESULT:    -5.473      2.814      9.925
REMARK INTER + INTRA:         -17.062
REMARK INTER:                 -13.815
REMARK INTRA:                  -3.247
REMARK UNBOUND:                -3.270
REMARK SMILES CCCCCCCCCCCCCCCCCCCCCCCCCCCC(=O)[O-]
REMARK SMILES IDX 15 1 16 2 17 3 18 4 19 5 20 6 21 7 22 8 23 9 24 10 25 11
REMARK SMILES IDX 26 12 27 13 28 14 29 15 30 16 14 17 13 18 12 19 11 20 10 21
REMARK SMILES IDX 9 22 8 23 7 24 6 25 5 26 4 27 3 28 2 29 1 30
REMARK H PARENT
REMARK Flexibility Score: inf
ROOT
ATOM      1  C   UNL     1       1.151  11.969  25.936  1.00  0.00     0.000 C 
ENDROOT
BRANCH   1   2
ATOM      2  C   UNL     1       0.361  13.293  25.930  1.00  0.00     0.000 C 
BRANCH   2   3
ATOM      3  C   UNL     1       1.267  14.534  25.933  1.00  0.00     0.000 C 
BRANCH   3   4
ATOM      4  C   UNL     1       1.355  15.163  24.535  1.00  0.00     0.000 C 
BRANCH   4   5
ATOM      5  C   UNL     1       2.764  15.056  23.920  1.00  0.00     0.000 C 
BRANCH   5   6
ATOM      6  C   UNL     1       3.466  16.404  23.660  1.00  0.00     0.000 C 
BRANCH   6   7
ATOM      7  C   UNL     1       3.004  17.565  24.564  1.00  0.00     0.000 C 
BRANCH   7   8
ATOM      8  C   UNL     1       3.940  18.791  24.575  1.00  0.00     0.000 C 
BRANCH   8   9
ATOM      9  C   UNL     1       4.787  18.970  23.301  1.00  0.00     0.000 C 
BRANCH   9  10
ATOM     10  C   UNL     1       4.087  19.832  22.236  1.00  0.00     0.000 C 
BRANCH  10  11
ATOM     11  C   UNL     1       3.589  21.177  22.811  1.00  0.00     0.000 C 
BRANCH  11  12
ATOM     12  C   UNL     1       2.082  21.187  23.130  1.00  0.00     0.006 C 
BRANCH  12  13
ATOM     13  C   UNL     1       1.276  20.108  22.390  1.00  0.00     0.053 C 
BRANCH  13  14
ATOM     14  C   UNL     1       0.032  19.721  23.133  1.00  0.00     0.041 C 
ATOM     15  O   UNL     1      -0.113  20.050  24.341  1.00  0.00    -0.550 OA
ATOM     16  O   UNL     1      -0.947  18.958  22.507  1.00  0.00    -0.550 OA
ENDBRANCH  13  14
ENDBRANCH  12  13
ENDBRANCH  11  12
ENDBRANCH  10  11
ENDBRANCH   9  10
ENDBRANCH   8   9
ENDBRANCH   7   8
ENDBRANCH   6   7
ENDBRANCH   5   6
ENDBRANCH   4   5
ENDBRANCH   3   4
ENDBRANCH   2   3
ENDBRANCH   1   2
BRANCH   1  17
ATOM     17  C   UNL     1       0.296  10.691  25.844  1.00  0.00     0.000 C 
BRANCH  17  18
ATOM     18  C   UNL     1       0.852   9.665  24.842  1.00  0.00     0.000 C 
BRANCH  18  19
ATOM     19  C   UNL     1      -0.192   9.224  23.801  1.00  0.00     0.000 C 
BRANCH  19  20
ATOM     20  C   UNL     1      -1.393   8.444  24.369  1.00  0.00     0.000 C 
BRANCH  20  21
ATOM     21  C   UNL     1      -2.383   7.998  23.284  1.00  0.00     0.000 C 
BRANCH  21  22
ATOM     22  C   UNL     1      -1.900   8.431  21.892  1.00  0.00    -0.000 C 
BRANCH  22  23
ATOM     23  C   UNL     1      -3.058   8.731  20.921  1.00  0.00    -0.000 C 
BRANCH  23  24
ATOM     24  C   UNL     1      -3.923   9.948  21.299  1.00  0.00    -0.000 C 
BRANCH  24  25
ATOM     25  C   UNL     1      -3.144  11.248  21.581  1.00  0.00    -0.000 C 
BRANCH  25  26
ATOM     26  C   UNL     1      -3.669  12.038  22.799  1.00  0.00    -0.000 C 
BRANCH  26  27
ATOM     27  C   UNL     1      -2.838  11.786  24.069  1.00  0.00    -0.000 C 
BRANCH  27  28
ATOM     28  C   UNL     1      -3.643  11.083  25.174  1.00  0.00    -0.000 C 
BRANCH  28  29
ATOM     29  C   UNL     1      -3.115  11.395  26.583  1.00  0.00    -0.003 C 
ATOM     30  C   UNL     1      -3.011  10.128  27.426  1.00  0.00     0.004 C 
ENDBRANCH  28  29
ENDBRANCH  27  28
ENDBRANCH  26  27
ENDBRANCH  25  26
ENDBRANCH  24  25
ENDBRANCH  23  24
ENDBRANCH  22  23
ENDBRANCH  21  22
ENDBRANCH  20  21
ENDBRANCH  19  20
ENDBRANCH  18  19
ENDBRANCH  17  18
ENDBRANCH   1  17
TORSDOF 26
ENDMDL
MODEL 6
REMARK VINA RESULT:    -5.457      1.870      3.702
REMARK INTER + INTRA:         -17.023
REMARK INTER:                 -13.738
REMARK INTRA:                  -3.285
REMARK UNBOUND:                -3.270
REMARK SMILES CCCCCCCCCCCCCCCCCCCCCCCCCCCC(=O)[O-]
REMARK SMILES IDX 15 1 16 2 17 3 18 4 19 5 20 6 21 7 22 8 23 9 24 10 25 11
REMARK SMILES IDX 26 12 27 13 28 14 29 15 30 16 14 17 13 18 12 19 11 20 10 21
REMARK SMILES IDX 9 22 8 23 7 24 6 25 5 26 4 27 3 28 2 29 1 30
REMARK H PARENT
REMARK Flexibility Score: inf
ROOT
ATOM      1  C   UNL     1       0.399  12.510  26.391  1.00  0.00     0.000 C 
ENDROOT
BRANCH   1   2
ATOM      2  C   UNL     1      -0.686  13.403  27.027  1.00  0.00     0.000 C 
BRANCH   2   3
ATOM      3  C   UNL     1      -2.113  12.970  26.661  1.00  0.00     0.000 C 
BRANCH   3   4
ATOM      4  C   UNL     1      -2.121  12.064  25.420  1.00  0.00     0.000 C 
BRANCH   4   5
ATOM      5  C   UNL     1      -3.402  11.215  25.309  1.00  0.00     0.000 C 
BRANCH   5   6
ATOM      6  C   UNL     1      -4.047  11.189  23.909  1.00  0.00     0.000 C 
BRANCH   6   7
ATOM      7  C   UNL     1      -3.183  11.790  22.782  1.00  0.00     0.000 C 
BRANCH   7   8
ATOM      8  C   UNL     1      -3.514  11.278  21.365  1.00  0.00     0.000 C 
BRANCH   8   9
ATOM      9  C   UNL     1      -3.822   9.771  21.279  1.00  0.00     0.000 C 
BRANCH   9  10
ATOM     10  C   UNL     1      -2.585   8.893  21.537  1.00  0.00     0.000 C 
BRANCH  10  11
ATOM     11  C   UNL     1      -2.784   7.945  22.740  1.00  0.00     0.000 C 
BRANCH  11  12
ATOM     12  C   UNL     1      -1.783   8.187  23.885  1.00  0.00     0.006 C 
BRANCH  12  13
ATOM     13  C   UNL     1      -0.720   9.253  23.576  1.00  0.00     0.053 C 
BRANCH  13  14
ATOM     14  C   UNL     1       0.348   9.311  24.626  1.00  0.00     0.041 C 
ATOM     15  O   UNL     1       1.558   9.431  24.293  1.00  0.00    -0.550 OA
ATOM     16  O   UNL     1       0.015   9.186  25.969  1.00  0.00    -0.550 OA
ENDBRANCH  13  14
ENDBRANCH  12  13
ENDBRANCH  11  12
ENDBRANCH  10  11
ENDBRANCH   9  10
ENDBRANCH   8   9
ENDBRANCH   7   8
ENDBRANCH   6   7
ENDBRANCH   5   6
ENDBRANCH   4   5
ENDBRANCH   3   4
ENDBRANCH   2   3
ENDBRANCH   1   2
BRANCH   1  17
ATOM     17  C   UNL     1       1.425  13.245  25.508  1.00  0.00     0.000 C 
BRANCH  17  18
ATOM     18  C   UNL     1       1.359  14.774  25.651  1.00  0.00     0.000 C 
BRANCH  18  19
ATOM     19  C   UNL     1       1.412  15.502  24.296  1.00  0.00     0.000 C 
BRANCH  19  20
ATOM     20  C   UNL     1       2.827  15.816  23.777  1.00  0.00     0.000 C 
BRANCH  20  21
ATOM     21  C   UNL     1       3.313  17.216  24.175  1.00  0.00     0.000 C 
BRANCH  21  22
ATOM     22  C   UNL     1       4.131  17.853  23.040  1.00  0.00    -0.000 C 
BRANCH  22  23
ATOM     23  C   UNL     1       5.121  18.921  23.541  1.00  0.00    -0.000 C 
BRANCH  23  24
ATOM     24  C   UNL     1       5.166  20.210  22.700  1.00  0.00    -0.000 C 
BRANCH  24  25
ATOM     25  C   UNL     1       4.365  21.398  23.269  1.00  0.00    -0.000 C 
BRANCH  25  26
ATOM     26  C   UNL     1       3.437  22.076  22.239  1.00  0.00    -0.000 C 
BRANCH  26  27
ATOM     27  C   UNL     1       1.946  21.859  22.553  1.00  0.00    -0.000 C 
BRANCH  27  28
ATOM     28  C   UNL     1       1.476  20.429  22.238  1.00  0.00    -0.000 C 
BRANCH  28  29
ATOM     29  C   UNL     1       0.726  19.780  23.411  1.00  0.00    -0.003 C 
ATOM     30  C   UNL     1      -0.222  18.689  22.923  1.00  0.00     0.004 C 
ENDBRANCH  28  29
ENDBRANCH  27  28
ENDBRANCH  26  27
ENDBRANCH  25  26
ENDBRANCH  24  25
ENDBRANCH  23  24
ENDBRANCH  22  23
ENDBRANCH  21  22
ENDBRANCH  20  21
ENDBRANCH  19  20
ENDBRANCH  18  19
ENDBRANCH  17  18
ENDBRANCH   1  17
TORSDOF 26
ENDMDL
MODEL 7
REMARK VINA RESULT:    -5.411      2.299      4.901
REMARK INTER + INTRA:         -16.906
REMARK INTER:                 -13.519
REMARK INTRA:                  -3.386
REMARK UNBOUND:                -3.270
REMARK SMILES CCCCCCCCCCCCCCCCCCCCCCCCCCCC(=O)[O-]
REMARK SMILES IDX 15 1 16 2 17 3 18 4 19 5 20 6 21 7 22 8 23 9 24 10 25 11
REMARK SMILES IDX 26 12 27 13 28 14 29 15 30 16 14 17 13 18 12 19 11 20 10 21
REMARK SMILES IDX 9 22 8 23 7 24 6 25 5 26 4 27 3 28 2 29 1 30
REMARK H PARENT
REMARK Flexibility Score: inf
ROOT
ATOM      1  C   UNL     1       3.692  14.931  24.282  1.00  0.00     0.000 C 
ENDROOT
BRANCH   1   2
ATOM      2  C   UNL     1       3.103  13.584  24.746  1.00  0.00     0.000 C 
BRANCH   2   3
ATOM      3  C   UNL     1       1.748  13.731  25.453  1.00  0.00     0.000 C 
BRANCH   3   4
ATOM      4  C   UNL     1       1.199  12.366  25.896  1.00  0.00     0.000 C 
BRANCH   4   5
ATOM      5  C   UNL     1       0.091  12.486  26.960  1.00  0.00     0.000 C 
BRANCH   5   6
ATOM      6  C   UNL     1      -1.294  12.894  26.416  1.00  0.00     0.000 C 
BRANCH   6   7
ATOM      7  C   UNL     1      -2.475  12.059  26.950  1.00  0.00     0.000 C 
BRANCH   7   8
ATOM      8  C   UNL     1      -2.159  11.210  28.198  1.00  0.00     0.000 C 
BRANCH   8   9
ATOM      9  C   UNL     1      -2.416   9.700  28.034  1.00  0.00     0.000 C 
BRANCH   9  10
ATOM     10  C   UNL     1      -2.344   9.239  26.568  1.00  0.00     0.000 C 
BRANCH  10  11
ATOM     11  C   UNL     1      -0.897   8.920  26.128  1.00  0.00     0.000 C 
BRANCH  11  12
ATOM     12  C   UNL     1      -0.612   9.270  24.655  1.00  0.00     0.006 C 
BRANCH  12  13
ATOM     13  C   UNL     1      -1.861   9.657  23.848  1.00  0.00     0.053 C 
BRANCH  13  14
ATOM     14  C   UNL     1      -2.338   8.539  22.970  1.00  0.00     0.041 C 
ATOM     15  O   UNL     1      -3.358   7.872  23.291  1.00  0.00    -0.550 OA
ATOM     16  O   UNL     1      -1.631   8.202  21.822  1.00  0.00    -0.550 OA
ENDBRANCH  13  14
ENDBRANCH  12  13
ENDBRANCH  11  12
ENDBRANCH  10  11
ENDBRANCH   9  10
ENDBRANCH   8   9
ENDBRANCH   7   8
ENDBRANCH   6   7
ENDBRANCH   5   6
ENDBRANCH   4   5
ENDBRANCH   3   4
ENDBRANCH   2   3
ENDBRANCH   1   2
BRANCH   1  17
ATOM     17  C   UNL     1       2.666  15.956  23.763  1.00  0.00     0.000 C 
BRANCH  17  18
ATOM     18  C   UNL     1       3.246  17.374  23.627  1.00  0.00     0.000 C 
BRANCH  18  19
ATOM     19  C   UNL     1       3.332  18.114  24.975  1.00  0.00     0.000 C 
BRANCH  19  20
ATOM     20  C   UNL     1       2.504  17.494  26.115  1.00  0.00     0.000 C 
BRANCH  20  21
ATOM     21  C   UNL     1       1.689  18.534  26.896  1.00  0.00     0.000 C 
BRANCH  21  22
ATOM     22  C   UNL     1       1.611  19.860  26.123  1.00  0.00    -0.000 C 
BRANCH  22  23
ATOM     23  C   UNL     1       0.166  20.357  25.928  1.00  0.00    -0.000 C 
BRANCH  23  24
ATOM     24  C   UNL     1      -0.245  20.600  24.464  1.00  0.00    -0.000 C 
BRANCH  24  25
ATOM     25  C   UNL     1       0.242  19.538  23.458  1.00  0.00    -0.000 C 
BRANCH  25  26
ATOM     26  C   UNL     1       1.064  20.119  22.288  1.00  0.00    -0.000 C 
BRANCH  26  27
ATOM     27  C   UNL     1       2.288  20.920  22.765  1.00  0.00    -0.000 C 
BRANCH  27  28
ATOM     28  C   UNL     1       3.443  20.899  21.751  1.00  0.00    -0.000 C 
BRANCH  28  29
ATOM     29  C   UNL     1       2.956  20.952  20.295  1.00  0.00    -0.003 C 
ATOM     30  C   UNL     1       4.049  20.502  19.331  1.00  0.00     0.004 C 
ENDBRANCH  28  29
ENDBRANCH  27  28
ENDBRANCH  26  27
ENDBRANCH  25  26
ENDBRANCH  24  25
ENDBRANCH  23  24
ENDBRANCH  22  23
ENDBRANCH  21  22
ENDBRANCH  20  21
ENDBRANCH  19  20
ENDBRANCH  18  19
ENDBRANCH  17  18
ENDBRANCH   1  17
TORSDOF 26
ENDMDL
MODEL 8
REMARK VINA RESULT:    -5.392      1.996      3.531
REMARK INTER + INTRA:         -16.859
REMARK INTER:                 -13.917
REMARK INTRA:                  -2.942
REMARK UNBOUND:                -3.270
REMARK SMILES CCCCCCCCCCCCCCCCCCCCCCCCCCCC(=O)[O-]
REMARK SMILES IDX 15 1 16 2 17 3 18 4 19 5 20 6 21 7 22 8 23 9 24 10 25 11
REMARK SMILES IDX 26 12 27 13 28 14 29 15 30 16 14 17 13 18 12 19 11 20 10 21
REMARK SMILES IDX 9 22 8 23 7 24 6 25 5 26 4 27 3 28 2 29 1 30
REMARK H PARENT
REMARK Flexibility Score: inf
ROOT
ATOM      1  C   UNL     1       1.692  11.793  25.646  1.00  0.00     0.000 C 
ENDROOT
BRANCH   1   2
ATOM      2  C   UNL     1       1.423  10.281  25.508  1.00  0.00     0.000 C 
BRANCH   2   3
ATOM      3  C   UNL     1      -0.030   9.961  25.128  1.00  0.00     0.000 C 
BRANCH   3   4
ATOM      4  C   UNL     1      -0.602   8.838  26.007  1.00  0.00     0.000 C 
BRANCH   4   5
ATOM      5  C   UNL     1      -2.036   9.129  26.489  1.00  0.00     0.000 C 
BRANCH   5   6
ATOM      6  C   UNL     1      -2.223  10.486  27.197  1.00  0.00     0.000 C 
BRANCH   6   7
ATOM      7  C   UNL     1      -3.153  11.478  26.470  1.00  0.00     0.000 C 
BRANCH   7   8
ATOM      8  C   UNL     1      -3.581  11.047  25.052  1.00  0.00     0.000 C 
BRANCH   8   9
ATOM      9  C   UNL     1      -2.874  11.798  23.908  1.00  0.00     0.000 C 
BRANCH   9  10
ATOM     10  C   UNL     1      -3.790  12.037  22.696  1.00  0.00     0.000 C 
BRANCH  10  11
ATOM     11  C   UNL     1      -3.259  11.347  21.419  1.00  0.00     0.000 C 
BRANCH  11  12
ATOM     12  C   UNL     1      -3.870   9.955  21.174  1.00  0.00     0.006 C 
BRANCH  12  13
ATOM     13  C   UNL     1      -2.835   8.855  20.891  1.00  0.00     0.053 C 
BRANCH  13  14
ATOM     14  C   UNL     1      -2.070   8.467  22.121  1.00  0.00     0.041 C 
ATOM     15  O   UNL     1      -0.812   8.532  22.130  1.00  0.00    -0.550 OA
ATOM     16  O   UNL     1      -2.742   7.990  23.240  1.00  0.00    -0.550 OA
ENDBRANCH  13  14
ENDBRANCH  12  13
ENDBRANCH  11  12
ENDBRANCH  10  11
ENDBRANCH   9  10
ENDBRANCH   8   9
ENDBRANCH   7   8
ENDBRANCH   6   7
ENDBRANCH   5   6
ENDBRANCH   4   5
ENDBRANCH   3   4
ENDBRANCH   2   3
ENDBRANCH   1   2
BRANCH   1  17
ATOM     17  C   UNL     1       0.620  12.587  26.415  1.00  0.00     0.000 C 
BRANCH  17  18
ATOM     18  C   UNL     1       0.483  14.041  25.932  1.00  0.00     0.000 C 
BRANCH  18  19
ATOM     19  C   UNL     1       1.514  14.407  24.848  1.00  0.00     0.000 C 
BRANCH  19  20
ATOM     20  C   UNL     1       1.422  15.851  24.320  1.00  0.00     0.000 C 
BRANCH  20  21
ATOM     21  C   UNL     1       2.784  16.424  23.906  1.00  0.00     0.000 C 
BRANCH  21  22
ATOM     22  C   UNL     1       2.705  17.948  23.732  1.00  0.00    -0.000 C 
BRANCH  22  23
ATOM     23  C   UNL     1       1.555  18.585  24.536  1.00  0.00    -0.000 C 
BRANCH  23  24
ATOM     24  C   UNL     1       0.646  19.531  23.730  1.00  0.00    -0.000 C 
BRANCH  24  25
ATOM     25  C   UNL     1       1.263  20.092  22.433  1.00  0.00    -0.000 C 
BRANCH  25  26
ATOM     26  C   UNL     1       1.921  21.478  22.605  1.00  0.00    -0.000 C 
BRANCH  26  27
ATOM     27  C   UNL     1       3.458  21.410  22.564  1.00  0.00    -0.000 C 
BRANCH  27  28
ATOM     28  C   UNL     1       4.033  21.814  21.197  1.00  0.00    -0.000 C 
BRANCH  28  29
ATOM     29  C   UNL     1       4.542  20.611  20.389  1.00  0.00    -0.003 C 
ATOM     30  C   UNL     1       3.754  20.443  19.094  1.00  0.00     0.004 C 
ENDBRANCH  28  29
ENDBRANCH  27  28
ENDBRANCH  26  27
ENDBRANCH  25  26
ENDBRANCH  24  25
ENDBRANCH  23  24
ENDBRANCH  22  23
ENDBRANCH  21  22
ENDBRANCH  20  21
ENDBRANCH  19  20
ENDBRANCH  18  19
ENDBRANCH  17  18
ENDBRANCH   1  17
TORSDOF 26
ENDMDL
MODEL 9
REMARK VINA RESULT:    -5.382      2.388      5.428
REMARK INTER + INTRA:         -16.833
REMARK INTER:                 -13.517
REMARK INTRA:                  -3.316
REMARK UNBOUND:                -3.270
REMARK SMILES CCCCCCCCCCCCCCCCCCCCCCCCCCCC(=O)[O-]
REMARK SMILES IDX 15 1 16 2 17 3 18 4 19 5 20 6 21 7 22 8 23 9 24 10 25 11
REMARK SMILES IDX 26 12 27 13 28 14 29 15 30 16 14 17 13 18 12 19 11 20 10 21
REMARK SMILES IDX 9 22 8 23 7 24 6 25 5 26 4 27 3 28 2 29 1 30
REMARK H PARENT
REMARK Flexibility Score: inf
ROOT
ATOM      1  C   UNL     1       2.051  14.875  24.203  1.00  0.00     0.000 C 
ENDROOT
BRANCH   1   2
ATOM      2  C   UNL     1       1.233  14.731  25.501  1.00  0.00     0.000 C 
BRANCH   2   3
ATOM      3  C   UNL     1       0.977  13.268  25.893  1.00  0.00     0.000 C 
BRANCH   3   4
ATOM      4  C   UNL     1      -0.292  13.132  26.747  1.00  0.00     0.000 C 
BRANCH   4   5
ATOM      5  C   UNL     1      -1.555  12.876  25.902  1.00  0.00     0.000 C 
BRANCH   5   6
ATOM      6  C   UNL     1      -2.646  12.037  26.599  1.00  0.00     0.000 C 
BRANCH   6   7
ATOM      7  C   UNL     1      -2.196  11.329  27.893  1.00  0.00     0.000 C 
BRANCH   7   8
ATOM      8  C   UNL     1      -2.258   9.789  27.845  1.00  0.00     0.000 C 
BRANCH   8   9
ATOM      9  C   UNL     1      -2.196   9.183  26.430  1.00  0.00     0.000 C 
BRANCH   9  10
ATOM     10  C   UNL     1      -0.758   9.055  25.899  1.00  0.00     0.000 C 
BRANCH  10  11
ATOM     11  C   UNL     1      -0.686   9.229  24.365  1.00  0.00     0.000 C 
BRANCH  11  12
ATOM     12  C   UNL     1      -2.065   9.408  23.702  1.00  0.00     0.006 C 
BRANCH  12  13
ATOM     13  C   UNL     1      -2.105   9.014  22.218  1.00  0.00     0.053 C 
BRANCH  13  14
ATOM     14  C   UNL     1      -3.447   9.268  21.599  1.00  0.00     0.041 C 
ATOM     15  O   UNL     1      -4.283  10.008  22.183  1.00  0.00    -0.550 OA
ATOM     16  O   UNL     1      -3.793   8.653  20.402  1.00  0.00    -0.550 OA
ENDBRANCH  13  14
ENDBRANCH  12  13
ENDBRANCH  11  12
ENDBRANCH  10  11
ENDBRANCH   9  10
ENDBRANCH   8   9
ENDBRANCH   7   8
ENDBRANCH   6   7
ENDBRANCH   5   6
ENDBRANCH   4   5
ENDBRANCH   3   4
ENDBRANCH   2   3
ENDBRANCH   1   2
BRANCH   1  17
ATOM     17  C   UNL     1       2.362  16.321  23.775  1.00  0.00     0.000 C 
BRANCH  17  18
ATOM     18  C   UNL     1       3.868  16.593  23.619  1.00  0.00     0.000 C 
BRANCH  18  19
ATOM     19  C   UNL     1       4.177  18.068  23.304  1.00  0.00     0.000 C 
BRANCH  19  20
ATOM     20  C   UNL     1       4.092  19.025  24.508  1.00  0.00     0.000 C 
BRANCH  20  21
ATOM     21  C   UNL     1       5.017  20.242  24.371  1.00  0.00     0.000 C 
BRANCH  21  22
ATOM     22  C   UNL     1       5.849  20.153  23.083  1.00  0.00    -0.000 C 
BRANCH  22  23
ATOM     23  C   UNL     1       5.489  21.247  22.060  1.00  0.00    -0.000 C 
BRANCH  23  24
ATOM     24  C   UNL     1       4.657  20.763  20.858  1.00  0.00    -0.000 C 
BRANCH  24  25
ATOM     25  C   UNL     1       3.176  21.192  20.866  1.00  0.00    -0.000 C 
BRANCH  25  26
ATOM     26  C   UNL     1       2.791  22.079  22.070  1.00  0.00    -0.000 C 
BRANCH  26  27
ATOM     27  C   UNL     1       1.707  21.438  22.953  1.00  0.00    -0.000 C 
BRANCH  27  28
ATOM     28  C   UNL     1       1.215  20.089  22.404  1.00  0.00    -0.000 C 
BRANCH  28  29
ATOM     29  C   UNL     1       0.190  19.411  23.326  1.00  0.00    -0.003 C 
ATOM     30  C   UNL     1       0.061  20.159  24.650  1.00  0.00     0.004 C 
ENDBRANCH  28  29
ENDBRANCH  27  28
ENDBRANCH  26  27
ENDBRANCH  25  26
ENDBRANCH  24  25
ENDBRANCH  23  24
ENDBRANCH  22  23
ENDBRANCH  21  22
ENDBRANCH  20  21
ENDBRANCH  19  20
ENDBRANCH  18  19
ENDBRANCH  17  18
ENDBRANCH   1  17
TORSDOF 26
ENDMDL
