MODEL 1
REMARK VINA RESULT:     1.274      0.000      0.000
REMARK INTER + INTRA:           0.890
REMARK INTER:                   1.944
REMARK INTRA:                  -1.054
REMARK UNBOUND:                -1.054
REMARK SMILES OC[C@H]1O[C@H](O[C@]2(CO)O[C@H](CO)[C@@H](O)[C@H]2O)[C@@H](O)[C@@H](O)[C@H]1O
REMARK SMILES IDX 6 1 5 2 3 3 22 4 4 5 20 6 18 7 2 8 1 9 23 11 21 13 19 15
REMARK SMILES IDX 7 17 16 18 10 19 14 20 11 21 8 22 9 23 17 25 15 27 12 29
REMARK SMILES IDX 13 30
REMARK H PARENT 1 10 23 12 21 14 19 16 9 24 17 26 15 28 13 31
REMARK Flexibility Score: inf
ROOT
ATOM      1  O   UNL     1      14.407  -3.470  21.905  1.00  0.00    -0.313 OA
ENDROOT
BRANCH   1   2
ATOM      2  C   UNL     1      14.163  -3.830  20.546  1.00  0.00     0.285 C 
ATOM      3  C   UNL     1      12.016  -2.866  20.649  1.00  0.00     0.178 C 
ATOM      4  C   UNL     1      12.361  -1.733  19.657  1.00  0.00     0.177 C 
ATOM      5  O   UNL     1      12.769  -4.039  20.361  1.00  0.00    -0.341 OA
ATOM      6  C   UNL     1      13.875  -1.456  19.713  1.00  0.00     0.179 C 
ATOM      7  C   UNL     1      14.670  -2.765  19.541  1.00  0.00     0.202 C 
BRANCH   3   8
ATOM      8  C   UNL     1      10.524  -3.210  20.594  1.00  0.00     0.191 C 
BRANCH   8   9
ATOM      9  O   UNL     1      10.159  -3.902  21.757  1.00  0.00    -0.394 OA
ATOM     10  H   UNL     1       9.289  -4.335  21.558  1.00  0.00     0.210 HD
ENDBRANCH   8   9
ENDBRANCH   3   8
BRANCH   4  11
ATOM     11  O   UNL     1      11.974  -2.099  18.356  1.00  0.00    -0.387 OA
ATOM     12  H   UNL     1      11.250  -2.771  18.447  1.00  0.00     0.211 HD
ENDBRANCH   4  11
BRANCH   6  13
ATOM     13  O   UNL     1      14.229  -0.527  18.721  1.00  0.00    -0.387 OA
ATOM     14  H   UNL     1      15.017  -0.028  19.064  1.00  0.00     0.211 HD
ENDBRANCH   6  13
BRANCH   7  15
ATOM     15  O   UNL     1      14.519  -3.242  18.227  1.00  0.00    -0.385 OA
ATOM     16  H   UNL     1      15.421  -3.503  17.908  1.00  0.00     0.211 HD
ENDBRANCH   7  15
ENDBRANCH   1   2
BRANCH   1  17
ATOM     17  C   UNL     1      14.672  -4.495  22.875  1.00  0.00     0.224 C 
ATOM     18  C   UNL     1      15.740  -3.992  23.865  1.00  0.00     0.208 C 
ATOM     19  O   UNL     1      13.482  -4.635  23.626  1.00  0.00    -0.337 OA
ATOM     20  C   UNL     1      14.922  -3.096  24.763  1.00  0.00     0.180 C 
ATOM     21  C   UNL     1      13.556  -3.777  24.748  1.00  0.00     0.179 C 
BRANCH  17  22
ATOM     22  C   UNL     1      14.995  -5.912  22.316  1.00  0.00     0.225 C 
BRANCH  22  23
ATOM     23  O   UNL     1      16.377  -6.125  22.219  1.00  0.00    -0.391 OA
ATOM     24  H   UNL     1      16.732  -5.406  21.632  1.00  0.00     0.210 HD
ENDBRANCH  22  23
ENDBRANCH  17  22
BRANCH  18  25
ATOM     25  O   UNL     1      16.282  -5.060  24.607  1.00  0.00    -0.385 OA
ATOM     26  H   UNL     1      16.609  -5.731  23.952  1.00  0.00     0.211 HD
ENDBRANCH  18  25
BRANCH  20  27
ATOM     27  O   UNL     1      15.440  -3.025  26.066  1.00  0.00    -0.387 OA
ATOM     28  H   UNL     1      14.795  -3.504  26.650  1.00  0.00     0.211 HD
ENDBRANCH  20  27
BRANCH  21  29
ATOM     29  C   UNL     1      12.398  -2.770  24.703  1.00  0.00     0.191 C 
BRANCH  29  30
ATOM     30  O   UNL     1      12.832  -1.494  25.088  1.00  0.00    -0.394 OA
ATOM     31  H   UNL     1      13.249  -1.594  25.985  1.00  0.00     0.210 HD
ENDBRANCH  29  30
ENDBRANCH  21  29
ENDBRANCH   1  17
TORSDOF 13
ENDMDL
MODEL 2
REMARK VINA RESULT:     1.388     15.870     19.046
REMARK INTER + INTRA:           1.065
REMARK INTER:                   1.789
REMARK INTRA:                  -0.724
REMARK UNBOUND:                -1.054
REMARK SMILES OC[C@H]1O[C@H](O[C@]2(CO)O[C@H](CO)[C@@H](O)[C@H]2O)[C@@H](O)[C@@H](O)[C@H]1O
REMARK SMILES IDX 6 1 5 2 3 3 22 4 4 5 20 6 18 7 2 8 1 9 23 11 21 13 19 15
REMARK SMILES IDX 7 17 16 18 10 19 14 20 11 21 8 22 9 23 17 25 15 27 12 29
REMARK SMILES IDX 13 30
REMARK H PARENT 1 10 23 12 21 14 19 16 9 24 17 26 15 28 13 31
REMARK Flexibility Score: inf
ROOT
ATOM      1  O   UNL     1      17.854  12.160  13.054  1.00  0.00    -0.313 OA
ENDROOT
BRANCH   1   2
ATOM      2  C   UNL     1      18.680  12.856  12.121  1.00  0.00     0.285 C 
ATOM      3  C   UNL     1      20.370  13.084  13.746  1.00  0.00     0.178 C 
ATOM      4  C   UNL     1      21.354  12.152  13.006  1.00  0.00     0.177 C 
ATOM      5  O   UNL     1      19.521  13.760  12.825  1.00  0.00    -0.341 OA
ATOM      6  C   UNL     1      20.557  11.157  12.142  1.00  0.00     0.179 C 
ATOM      7  C   UNL     1      19.543  11.904  11.254  1.00  0.00     0.202 C 
BRANCH   3   8
ATOM      8  C   UNL     1      21.120  14.125  14.584  1.00  0.00     0.191 C 
BRANCH   8   9
ATOM      9  O   UNL     1      22.480  14.105  14.248  1.00  0.00    -0.394 OA
ATOM     10  H   UNL     1      22.550  14.537  13.357  1.00  0.00     0.210 HD
ENDBRANCH   8   9
ENDBRANCH   3   8
BRANCH   4  11
ATOM     11  O   UNL     1      22.226  12.912  12.205  1.00  0.00    -0.387 OA
ATOM     12  H   UNL     1      21.662  13.434  11.577  1.00  0.00     0.211 HD
ENDBRANCH   4  11
BRANCH   6  13
ATOM     13  O   UNL     1      21.435  10.393  11.356  1.00  0.00    -0.387 OA
ATOM     14  H   UNL     1      22.352  10.725  11.546  1.00  0.00     0.211 HD
ENDBRANCH   6  13
BRANCH   7  15
ATOM     15  O   UNL     1      20.227  12.644  10.274  1.00  0.00    -0.385 OA
ATOM     16  H   UNL     1      21.045  13.005  10.703  1.00  0.00     0.211 HD
ENDBRANCH   7  15
ENDBRANCH   1   2
BRANCH   1  17
ATOM     17  C   UNL     1      16.639  12.769  13.520  1.00  0.00     0.224 C 
ATOM     18  C   UNL     1      15.516  11.715  13.527  1.00  0.00     0.208 C 
ATOM     19  O   UNL     1      16.868  13.102  14.875  1.00  0.00    -0.337 OA
ATOM     20  C   UNL     1      15.831  10.945  14.787  1.00  0.00     0.180 C 
ATOM     21  C   UNL     1      16.446  12.019  15.681  1.00  0.00     0.179 C 
BRANCH  17  22
ATOM     22  C   UNL     1      16.214  14.092  12.819  1.00  0.00     0.225 C 
BRANCH  22  23
ATOM     23  O   UNL     1      15.520  13.844  11.626  1.00  0.00    -0.391 OA
ATOM     24  H   UNL     1      16.159  14.026  10.886  1.00  0.00     0.210 HD
ENDBRANCH  22  23
ENDBRANCH  17  22
BRANCH  18  25
ATOM     25  O   UNL     1      14.251  12.328  13.635  1.00  0.00    -0.385 OA
ATOM     26  H   UNL     1      14.204  12.736  14.540  1.00  0.00     0.211 HD
ENDBRANCH  18  25
BRANCH  20  27
ATOM     27  O   UNL     1      14.684  10.389  15.377  1.00  0.00    -0.387 OA
ATOM     28  H   UNL     1      14.982   9.566  15.847  1.00  0.00     0.211 HD
ENDBRANCH  20  27
BRANCH  21  29
ATOM     29  C   UNL     1      17.634  11.493  16.498  1.00  0.00     0.191 C 
BRANCH  29  30
ATOM     30  O   UNL     1      17.660  10.091  16.494  1.00  0.00    -0.394 OA
ATOM     31  H   UNL     1      17.019   9.797  15.794  1.00  0.00     0.210 HD
ENDBRANCH  29  30
ENDBRANCH  21  29
ENDBRANCH   1  17
TORSDOF 13
ENDMDL
MODEL 3
REMARK VINA RESULT:     1.823      1.238      5.938
REMARK INTER + INTRA:           1.728
REMARK INTER:                   2.749
REMARK INTRA:                  -1.020
REMARK UNBOUND:                -1.054
REMARK SMILES OC[C@H]1O[C@H](O[C@]2(CO)O[C@H](CO)[C@@H](O)[C@H]2O)[C@@H](O)[C@@H](O)[C@H]1O
REMARK SMILES IDX 6 1 5 2 3 3 22 4 4 5 20 6 18 7 2 8 1 9 23 11 21 13 19 15
REMARK SMILES IDX 7 17 16 18 10 19 14 20 11 21 8 22 9 23 17 25 15 27 12 29
REMARK SMILES IDX 13 30
REMARK H PARENT 1 10 23 12 21 14 19 16 9 24 17 26 15 28 13 31
REMARK Flexibility Score: inf
ROOT
ATOM      1  O   UNL     1      12.948  -3.376  22.158  1.00  0.00    -0.313 OA
ENDROOT
BRANCH   1   2
ATOM      2  C   UNL     1      12.827  -4.081  23.393  1.00  0.00     0.285 C 
ATOM      3  C   UNL     1      15.167  -4.063  23.664  1.00  0.00     0.178 C 
ATOM      4  C   UNL     1      15.124  -3.123  24.888  1.00  0.00     0.177 C 
ATOM      5  O   UNL     1      13.993  -4.866  23.600  1.00  0.00    -0.341 OA
ATOM      6  C   UNL     1      13.854  -2.256  24.817  1.00  0.00     0.179 C 
ATOM      7  C   UNL     1      12.608  -3.139  24.604  1.00  0.00     0.202 C 
BRANCH   3   8
ATOM      8  C   UNL     1      16.392  -4.982  23.716  1.00  0.00     0.191 C 
BRANCH   8   9
ATOM      9  O   UNL     1      16.173  -6.103  22.906  1.00  0.00    -0.394 OA
ATOM     10  H   UNL     1      17.069  -6.480  22.708  1.00  0.00     0.210 HD
ENDBRANCH   8   9
ENDBRANCH   3   8
BRANCH   4  11
ATOM     11  O   UNL     1      15.140  -3.878  26.075  1.00  0.00    -0.387 OA
ATOM     12  H   UNL     1      14.589  -4.687  25.911  1.00  0.00     0.211 HD
ENDBRANCH   4  11
BRANCH   6  13
ATOM     13  O   UNL     1      13.727  -1.494  25.990  1.00  0.00    -0.387 OA
ATOM     14  H   UNL     1      13.426  -2.115  26.703  1.00  0.00     0.211 HD
ENDBRANCH   6  13
BRANCH   7  15
ATOM     15  O   UNL     1      12.365  -3.900  25.761  1.00  0.00    -0.385 OA
ATOM     16  H   UNL     1      12.997  -3.580  26.456  1.00  0.00     0.211 HD
ENDBRANCH   7  15
ENDBRANCH   1   2
BRANCH   1  17
ATOM     17  C   UNL     1      12.020  -3.642  21.094  1.00  0.00     0.224 C 
ATOM     18  C   UNL     1      11.378  -2.317  20.641  1.00  0.00     0.208 C 
ATOM     19  O   UNL     1      12.800  -4.089  20.003  1.00  0.00    -0.337 OA
ATOM     20  C   UNL     1      12.473  -1.727  19.786  1.00  0.00     0.180 C 
ATOM     21  C   UNL     1      13.143  -2.971  19.208  1.00  0.00     0.179 C 
BRANCH  17  22
ATOM     22  C   UNL     1      10.967  -4.758  21.356  1.00  0.00     0.225 C 
BRANCH  22  23
ATOM     23  O   UNL     1       9.794  -4.239  21.921  1.00  0.00    -0.391 OA
ATOM     24  H   UNL     1       9.588  -3.403  21.423  1.00  0.00     0.210 HD
ENDBRANCH  22  23
ENDBRANCH  17  22
BRANCH  18  25
ATOM     25  O   UNL     1      10.228  -2.556  19.861  1.00  0.00    -0.385 OA
ATOM     26  H   UNL     1       9.443  -2.396  20.448  1.00  0.00     0.211 HD
ENDBRANCH  18  25
BRANCH  20  27
ATOM     27  O   UNL     1      11.972  -0.900  18.767  1.00  0.00    -0.387 OA
ATOM     28  H   UNL     1      12.535  -0.082  18.768  1.00  0.00     0.211 HD
ENDBRANCH  20  27
BRANCH  21  29
ATOM     29  C   UNL     1      14.671  -2.837  19.142  1.00  0.00     0.191 C 
BRANCH  29  30
ATOM     30  O   UNL     1      15.078  -1.557  19.543  1.00  0.00    -0.394 OA
ATOM     31  H   UNL     1      15.428  -1.647  20.469  1.00  0.00     0.210 HD
ENDBRANCH  29  30
ENDBRANCH  21  29
ENDBRANCH   1  17
TORSDOF 13
ENDMDL
MODEL 4
REMARK VINA RESULT:     4.090      1.283      5.560
REMARK INTER + INTRA:           5.188
REMARK INTER:                   4.151
REMARK INTRA:                   1.037
REMARK UNBOUND:                -1.054
REMARK SMILES OC[C@H]1O[C@H](O[C@]2(CO)O[C@H](CO)[C@@H](O)[C@H]2O)[C@@H](O)[C@@H](O)[C@H]1O
REMARK SMILES IDX 6 1 5 2 3 3 22 4 4 5 20 6 18 7 2 8 1 9 23 11 21 13 19 15
REMARK SMILES IDX 7 17 16 18 10 19 14 20 11 21 8 22 9 23 17 25 15 27 12 29
REMARK SMILES IDX 13 30
REMARK H PARENT 1 10 23 12 21 14 19 16 9 24 17 26 15 28 13 31
REMARK Flexibility Score: inf
ROOT
ATOM      1  O   UNL     1      13.477  -2.745  21.740  1.00  0.00    -0.313 OA
ENDROOT
BRANCH   1   2
ATOM      2  C   UNL     1      13.042  -3.694  22.713  1.00  0.00     0.285 C 
ATOM      3  C   UNL     1      15.209  -4.609  22.828  1.00  0.00     0.178 C 
ATOM      4  C   UNL     1      15.447  -4.134  24.278  1.00  0.00     0.177 C 
ATOM      5  O   UNL     1      13.829  -4.872  22.601  1.00  0.00    -0.341 OA
ATOM      6  C   UNL     1      14.587  -2.886  24.550  1.00  0.00     0.179 C 
ATOM      7  C   UNL     1      13.118  -3.149  24.162  1.00  0.00     0.202 C 
BRANCH   3   8
ATOM      8  C   UNL     1      16.011  -5.880  22.526  1.00  0.00     0.191 C 
BRANCH   8   9
ATOM      9  O   UNL     1      16.913  -6.124  23.570  1.00  0.00    -0.394 OA
ATOM     10  H   UNL     1      17.442  -6.918  23.297  1.00  0.00     0.210 HD
ENDBRANCH   8   9
ENDBRANCH   3   8
BRANCH   4  11
ATOM     11  O   UNL     1      15.124  -5.162  25.181  1.00  0.00    -0.387 OA
ATOM     12  H   UNL     1      15.958  -5.396  25.665  1.00  0.00     0.211 HD
ENDBRANCH   4  11
BRANCH   6  13
ATOM     13  O   UNL     1      14.684  -2.520  25.902  1.00  0.00    -0.387 OA
ATOM     14  H   UNL     1      15.220  -3.226  26.351  1.00  0.00     0.211 HD
ENDBRANCH   6  13
BRANCH   7  15
ATOM     15  O   UNL     1      12.553  -4.080  25.050  1.00  0.00    -0.385 OA
ATOM     16  H   UNL     1      13.303  -4.604  25.435  1.00  0.00     0.211 HD
ENDBRANCH   7  15
ENDBRANCH   1   2
BRANCH   1  17
ATOM     17  C   UNL     1      13.282  -3.019  20.343  1.00  0.00     0.224 C 
ATOM     18  C   UNL     1      12.911  -4.503  20.165  1.00  0.00     0.208 C 
ATOM     19  O   UNL     1      12.136  -2.283  19.960  1.00  0.00    -0.337 OA
ATOM     20  C   UNL     1      11.453  -4.499  20.557  1.00  0.00     0.180 C 
ATOM     21  C   UNL     1      11.000  -3.109  20.116  1.00  0.00     0.179 C 
BRANCH  17  22
ATOM     22  C   UNL     1      14.422  -2.568  19.383  1.00  0.00     0.225 C 
BRANCH  22  23
ATOM     23  O   UNL     1      14.177  -1.293  18.856  1.00  0.00    -0.391 OA
ATOM     24  H   UNL     1      14.973  -0.739  19.078  1.00  0.00     0.210 HD
ENDBRANCH  22  23
ENDBRANCH  17  22
BRANCH  18  25
ATOM     25  O   UNL     1      13.053  -4.900  18.821  1.00  0.00    -0.385 OA
ATOM     26  H   UNL     1      13.870  -5.462  18.769  1.00  0.00     0.211 HD
ENDBRANCH  18  25
BRANCH  20  27
ATOM     27  O   UNL     1      10.720  -5.504  19.904  1.00  0.00    -0.387 OA
ATOM     28  H   UNL     1      10.035  -5.038  19.356  1.00  0.00     0.211 HD
ENDBRANCH  20  27
BRANCH  21  29
ATOM     29  C   UNL     1      10.029  -2.465  21.116  1.00  0.00     0.191 C 
BRANCH  29  30
ATOM     30  O   UNL     1       9.637  -3.388  22.096  1.00  0.00    -0.394 OA
ATOM     31  H   UNL     1      10.197  -4.198  21.963  1.00  0.00     0.210 HD
ENDBRANCH  29  30
ENDBRANCH  21  29
ENDBRANCH   1  17
TORSDOF 13
ENDMDL
MODEL 5
REMARK VINA RESULT:     4.270      8.308     11.207
REMARK INTER + INTRA:           5.463
REMARK INTER:                   5.849
REMARK INTRA:                  -0.386
REMARK UNBOUND:                -1.054
REMARK SMILES OC[C@H]1O[C@H](O[C@]2(CO)O[C@H](CO)[C@@H](O)[C@H]2O)[C@@H](O)[C@@H](O)[C@H]1O
REMARK SMILES IDX 6 1 5 2 3 3 22 4 4 5 20 6 18 7 2 8 1 9 23 11 21 13 19 15
REMARK SMILES IDX 7 17 16 18 10 19 14 20 11 21 8 22 9 23 17 25 15 27 12 29
REMARK SMILES IDX 13 30
REMARK H PARENT 1 10 23 12 21 14 19 16 9 24 17 26 15 28 13 31
REMARK Flexibility Score: inf
ROOT
ATOM      1  O   UNL     1      20.056   3.492  19.146  1.00  0.00    -0.313 OA
ENDROOT
BRANCH   1   2
ATOM      2  C   UNL     1      19.274   2.678  20.018  1.00  0.00     0.285 C 
ATOM      3  C   UNL     1      20.760   0.876  19.716  1.00  0.00     0.178 C 
ATOM      4  C   UNL     1      21.261   0.907  21.176  1.00  0.00     0.177 C 
ATOM      5  O   UNL     1      19.409   1.316  19.634  1.00  0.00    -0.341 OA
ATOM      6  C   UNL     1      21.101   2.333  21.736  1.00  0.00     0.179 C 
ATOM      7  C   UNL     1      19.664   2.844  21.508  1.00  0.00     0.202 C 
BRANCH   3   8
ATOM      8  C   UNL     1      20.857  -0.537  19.130  1.00  0.00     0.191 C 
BRANCH   8   9
ATOM      9  O   UNL     1      21.979  -1.187  19.657  1.00  0.00    -0.394 OA
ATOM     10  H   UNL     1      22.655  -1.203  18.931  1.00  0.00     0.210 HD
ENDBRANCH   8   9
ENDBRANCH   3   8
BRANCH   4  11
ATOM     11  O   UNL     1      20.536  -0.013  21.953  1.00  0.00    -0.387 OA
ATOM     12  H   UNL     1      20.476   0.365  22.869  1.00  0.00     0.211 HD
ENDBRANCH   4  11
BRANCH   6  13
ATOM     13  O   UNL     1      21.422   2.350  23.103  1.00  0.00    -0.387 OA
ATOM     14  H   UNL     1      21.188   3.254  23.441  1.00  0.00     0.211 HD
ENDBRANCH   6  13
BRANCH   7  15
ATOM     15  O   UNL     1      18.771   2.120  22.318  1.00  0.00    -0.385 OA
ATOM     16  H   UNL     1      18.819   1.173  22.026  1.00  0.00     0.211 HD
ENDBRANCH   7  15
ENDBRANCH   1   2
BRANCH   1  17
ATOM     17  C   UNL     1      19.450   4.614  18.486  1.00  0.00     0.224 C 
ATOM     18  C   UNL     1      19.563   5.855  19.391  1.00  0.00     0.208 C 
ATOM     19  O   UNL     1      20.259   4.883  17.356  1.00  0.00    -0.337 OA
ATOM     20  C   UNL     1      20.999   6.263  19.167  1.00  0.00     0.180 C 
ATOM     21  C   UNL     1      21.240   5.832  17.722  1.00  0.00     0.179 C 
BRANCH  17  22
ATOM     22  C   UNL     1      18.008   4.402  17.940  1.00  0.00     0.225 C 
BRANCH  22  23
ATOM     23  O   UNL     1      17.663   3.044  17.910  1.00  0.00    -0.391 OA
ATOM     24  H   UNL     1      16.779   2.968  18.358  1.00  0.00     0.210 HD
ENDBRANCH  22  23
ENDBRANCH  17  22
BRANCH  18  25
ATOM     25  O   UNL     1      18.694   6.876  18.957  1.00  0.00    -0.385 OA
ATOM     26  H   UNL     1      17.929   6.432  18.505  1.00  0.00     0.211 HD
ENDBRANCH  18  25
BRANCH  20  27
ATOM     27  O   UNL     1      21.194   7.646  19.324  1.00  0.00    -0.387 OA
ATOM     28  H   UNL     1      20.686   7.910  20.135  1.00  0.00     0.211 HD
ENDBRANCH  20  27
BRANCH  21  29
ATOM     29  C   UNL     1      22.638   5.233  17.515  1.00  0.00     0.191 C 
BRANCH  29  30
ATOM     30  O   UNL     1      22.939   5.128  16.149  1.00  0.00    -0.394 OA
ATOM     31  H   UNL     1      22.747   6.017  15.747  1.00  0.00     0.210 HD
ENDBRANCH  29  30
ENDBRANCH  21  29
ENDBRANCH   1  17
TORSDOF 13
ENDMDL
