MODEL 1
REMARK VINA RESULT:    -8.074      0.000      0.000
REMARK INTER + INTRA:          -9.797
REMARK INTER:                  -9.490
REMARK INTRA:                  -0.308
REMARK UNBOUND:                -0.308
REMARK SMILES O=c1cc(-c2ccc(O)c(O)c2)oc2cc(O)cc(O)c12
REMARK SMILES IDX 4 1 3 2 2 3 1 4 21 5 19 6 18 7 16 8 15 9 14 10 13 11 5 12
REMARK SMILES IDX 6 13 7 14 8 15 12 16 10 17 9 18 11 20 20 22 17 24
REMARK H PARENT 9 19 11 21 20 23 17 25
REMARK Flexibility Score: inf
ROOT
ATOM      1  C   UNL     1      17.920  -3.520  68.851  1.00  0.00     0.138 A 
ATOM      2  C   UNL     1      18.926  -4.075  68.048  1.00  0.00     0.100 A 
ATOM      3  C   UNL     1      18.587  -4.995  67.055  1.00  0.00     0.197 A 
ATOM      4  O   UNL     1      19.518  -5.522  66.392  1.00  0.00    -0.289 OA
ATOM      5  C   UNL     1      17.230  -5.336  66.845  1.00  0.00     0.107 A 
ATOM      6  C   UNL     1      16.764  -6.230  65.835  1.00  0.00     0.134 A 
ATOM      7  C   UNL     1      15.409  -6.583  65.797  1.00  0.00     0.093 A 
ATOM      8  C   UNL     1      14.495  -6.026  66.692  1.00  0.00     0.123 A 
ATOM      9  C   UNL     1      14.931  -5.109  67.649  1.00  0.00     0.094 A 
ATOM     10  C   UNL     1      16.282  -4.764  67.734  1.00  0.00     0.146 A 
ATOM     11  O   UNL     1      16.659  -3.899  68.669  1.00  0.00    -0.456 OA
ENDROOT
BRANCH   1  12
ATOM     12  C   UNL     1      18.224  -2.536  69.921  1.00  0.00     0.021 A 
ATOM     13  C   UNL     1      19.477  -2.502  70.558  1.00  0.00     0.016 A 
ATOM     14  C   UNL     1      19.738  -1.560  71.555  1.00  0.00     0.051 A 
ATOM     15  C   UNL     1      18.765  -0.629  71.933  1.00  0.00     0.157 A 
ATOM     16  C   UNL     1      17.250  -1.593  70.292  1.00  0.00     0.062 A 
ATOM     17  C   UNL     1      17.505  -0.645  71.291  1.00  0.00     0.158 A 
BRANCH  15  18
ATOM     18  O   UNL     1      19.089   0.283  72.938  1.00  0.00    -0.504 OA
ATOM     19  H   UNL     1      19.184   1.278  72.789  1.00  0.00     0.293 HD
ENDBRANCH  15  18
BRANCH  17  20
ATOM     20  O   UNL     1      16.484   0.254  71.610  1.00  0.00    -0.504 OA
ATOM     21  H   UNL     1      15.987   0.808  70.927  1.00  0.00     0.293 HD
ENDBRANCH  17  20
ENDBRANCH   1  12
BRANCH   6  22
ATOM     22  O   UNL     1      17.579  -6.777  64.839  1.00  0.00    -0.507 OA
ATOM     23  H   UNL     1      18.024  -7.680  64.889  1.00  0.00     0.293 HD
ENDBRANCH   6  22
BRANCH   8  24
ATOM     24  O   UNL     1      13.152  -6.389  66.614  1.00  0.00    -0.508 OA
ATOM     25  H   UNL     1      12.421  -5.694  66.520  1.00  0.00     0.293 HD
ENDBRANCH   8  24
TORSDOF 5
ENDMDL
MODEL 2
REMARK VINA RESULT:    -7.779      1.309      2.784
REMARK INTER + INTRA:          -9.451
REMARK INTER:                  -9.171
REMARK INTRA:                  -0.280
REMARK UNBOUND:                -0.308
REMARK SMILES O=c1cc(-c2ccc(O)c(O)c2)oc2cc(O)cc(O)c12
REMARK SMILES IDX 4 1 3 2 2 3 1 4 21 5 19 6 18 7 16 8 15 9 14 10 13 11 5 12
REMARK SMILES IDX 6 13 7 14 8 15 12 16 10 17 9 18 11 20 20 22 17 24
REMARK H PARENT 9 19 11 21 20 23 17 25
REMARK Flexibility Score: inf
ROOT
ATOM      1  C   UNL     1      17.805  -3.265  69.362  1.00  0.00     0.138 A 
ATOM      2  C   UNL     1      16.478  -3.702  69.251  1.00  0.00     0.100 A 
ATOM      3  C   UNL     1      16.127  -4.593  68.237  1.00  0.00     0.197 A 
ATOM      4  O   UNL     1      14.917  -4.918  68.124  1.00  0.00    -0.289 OA
ATOM      5  C   UNL     1      17.119  -5.073  67.348  1.00  0.00     0.107 A 
ATOM      6  C   UNL     1      16.885  -6.016  66.303  1.00  0.00     0.134 A 
ATOM      7  C   UNL     1      17.919  -6.329  65.412  1.00  0.00     0.093 A 
ATOM      8  C   UNL     1      19.193  -5.782  65.566  1.00  0.00     0.123 A 
ATOM      9  C   UNL     1      19.447  -4.901  66.618  1.00  0.00     0.094 A 
ATOM     10  C   UNL     1      18.427  -4.543  67.502  1.00  0.00     0.146 A 
ATOM     11  O   UNL     1      18.706  -3.689  68.482  1.00  0.00    -0.456 OA
ENDROOT
BRANCH   1  12
ATOM     12  C   UNL     1      18.233  -2.318  70.423  1.00  0.00     0.021 A 
ATOM     13  C   UNL     1      19.480  -2.440  71.061  1.00  0.00     0.016 A 
ATOM     14  C   UNL     1      19.862  -1.529  72.049  1.00  0.00     0.051 A 
ATOM     15  C   UNL     1      19.017  -0.477  72.415  1.00  0.00     0.157 A 
ATOM     16  C   UNL     1      17.391  -1.252  70.783  1.00  0.00     0.062 A 
ATOM     17  C   UNL     1      17.766  -0.335  71.773  1.00  0.00     0.158 A 
BRANCH  15  18
ATOM     18  O   UNL     1      19.458   0.397  73.412  1.00  0.00    -0.504 OA
ATOM     19  H   UNL     1      20.430   0.548  73.641  1.00  0.00     0.293 HD
ENDBRANCH  15  18
BRANCH  17  20
ATOM     20  O   UNL     1      16.871   0.692  72.081  1.00  0.00    -0.504 OA
ATOM     21  H   UNL     1      17.052   1.670  71.902  1.00  0.00     0.293 HD
ENDBRANCH  17  20
ENDBRANCH   1  12
BRANCH   6  22
ATOM     22  O   UNL     1      15.672  -6.685  66.111  1.00  0.00    -0.507 OA
ATOM     23  H   UNL     1      15.275  -6.913  65.213  1.00  0.00     0.293 HD
ENDBRANCH   6  22
BRANCH   8  24
ATOM     24  O   UNL     1      20.202  -6.129  64.670  1.00  0.00    -0.508 OA
ATOM     25  H   UNL     1      19.989  -6.499  63.751  1.00  0.00     0.293 HD
ENDBRANCH   8  24
TORSDOF 5
ENDMDL
MODEL 3
REMARK VINA RESULT:    -7.612      1.703      3.516
REMARK INTER + INTRA:          -9.255
REMARK INTER:                  -8.962
REMARK INTRA:                  -0.293
REMARK UNBOUND:                -0.308
REMARK SMILES O=c1cc(-c2ccc(O)c(O)c2)oc2cc(O)cc(O)c12
REMARK SMILES IDX 4 1 3 2 2 3 1 4 21 5 19 6 18 7 16 8 15 9 14 10 13 11 5 12
REMARK SMILES IDX 6 13 7 14 8 15 12 16 10 17 9 18 11 20 20 22 17 24
REMARK H PARENT 9 19 11 21 20 23 17 25
REMARK Flexibility Score: inf
ROOT
ATOM      1  C   UNL     1      16.506  -4.868  67.777  1.00  0.00     0.138 A 
ATOM      2  C   UNL     1      15.220  -4.952  68.328  1.00  0.00     0.100 A 
ATOM      3  C   UNL     1      14.273  -5.795  67.747  1.00  0.00     0.197 A 
ATOM      4  O   UNL     1      13.109  -5.802  68.226  1.00  0.00    -0.289 OA
ATOM      5  C   UNL     1      14.627  -6.583  66.625  1.00  0.00     0.107 A 
ATOM      6  C   UNL     1      13.757  -7.509  65.976  1.00  0.00     0.134 A 
ATOM      7  C   UNL     1      14.180  -8.148  64.803  1.00  0.00     0.093 A 
ATOM      8  C   UNL     1      15.461  -7.941  64.293  1.00  0.00     0.123 A 
ATOM      9  C   UNL     1      16.339  -7.079  64.950  1.00  0.00     0.094 A 
ATOM     10  C   UNL     1      15.934  -6.401  66.103  1.00  0.00     0.146 A 
ATOM     11  O   UNL     1      16.796  -5.578  66.691  1.00  0.00    -0.456 OA
ENDROOT
BRANCH   1  12
ATOM     12  C   UNL     1      17.552  -3.988  68.356  1.00  0.00     0.021 A 
ATOM     13  C   UNL     1      18.893  -4.064  67.940  1.00  0.00     0.016 A 
ATOM     14  C   UNL     1      19.855  -3.217  68.494  1.00  0.00     0.051 A 
ATOM     15  C   UNL     1      19.503  -2.273  69.465  1.00  0.00     0.157 A 
ATOM     16  C   UNL     1      17.197  -3.031  69.321  1.00  0.00     0.062 A 
ATOM     17  C   UNL     1      18.156  -2.177  69.883  1.00  0.00     0.158 A 
BRANCH  15  18
ATOM     18  O   UNL     1      20.513  -1.459  69.980  1.00  0.00    -0.504 OA
ATOM     19  H   UNL     1      20.546  -0.457  69.863  1.00  0.00     0.293 HD
ENDBRANCH  15  18
BRANCH  17  20
ATOM     20  O   UNL     1      17.727  -1.258  70.843  1.00  0.00    -0.504 OA
ATOM     21  H   UNL     1      17.469  -1.508  71.786  1.00  0.00     0.293 HD
ENDBRANCH  17  20
ENDBRANCH   1  12
BRANCH   6  22
ATOM     22  O   UNL     1      12.487  -7.852  66.450  1.00  0.00    -0.507 OA
ATOM     23  H   UNL     1      11.968  -7.330  67.139  1.00  0.00     0.293 HD
ENDBRANCH   6  22
BRANCH   8  24
ATOM     24  O   UNL     1      15.853  -8.606  63.132  1.00  0.00    -0.508 OA
ATOM     25  H   UNL     1      16.541  -9.348  63.155  1.00  0.00     0.293 HD
ENDBRANCH   8  24
TORSDOF 5
ENDMDL
MODEL 4
REMARK VINA RESULT:    -7.574      1.505      6.745
REMARK INTER + INTRA:          -9.210
REMARK INTER:                  -8.893
REMARK INTRA:                  -0.317
REMARK UNBOUND:                -0.308
REMARK SMILES O=c1cc(-c2ccc(O)c(O)c2)oc2cc(O)cc(O)c12
REMARK SMILES IDX 4 1 3 2 2 3 1 4 21 5 19 6 18 7 16 8 15 9 14 10 13 11 5 12
REMARK SMILES IDX 6 13 7 14 8 15 12 16 10 17 9 18 11 20 20 22 17 24
REMARK H PARENT 9 19 11 21 20 23 17 25
REMARK Flexibility Score: inf
ROOT
ATOM      1  C   UNL     1      17.658  -3.610  68.601  1.00  0.00     0.138 A 
ATOM      2  C   UNL     1      19.053  -3.628  68.469  1.00  0.00     0.100 A 
ATOM      3  C   UNL     1      19.828  -2.728  69.201  1.00  0.00     0.197 A 
ATOM      4  O   UNL     1      21.072  -2.728  69.014  1.00  0.00    -0.289 OA
ATOM      5  C   UNL     1      19.202  -1.826  70.094  1.00  0.00     0.107 A 
ATOM      6  C   UNL     1      19.895  -0.892  70.923  1.00  0.00     0.134 A 
ATOM      7  C   UNL     1      19.164   0.031  71.682  1.00  0.00     0.093 A 
ATOM      8  C   UNL     1      17.769   0.014  71.689  1.00  0.00     0.123 A 
ATOM      9  C   UNL     1      17.083  -0.930  70.925  1.00  0.00     0.094 A 
ATOM     10  C   UNL     1      17.783  -1.842  70.131  1.00  0.00     0.146 A 
ATOM     11  O   UNL     1      17.092  -2.715  69.407  1.00  0.00    -0.456 OA
ENDROOT
BRANCH   1  12
ATOM     12  C   UNL     1      16.785  -4.545  67.847  1.00  0.00     0.021 A 
ATOM     13  C   UNL     1      17.298  -5.387  66.844  1.00  0.00     0.016 A 
ATOM     14  C   UNL     1      16.456  -6.264  66.158  1.00  0.00     0.051 A 
ATOM     15  C   UNL     1      15.092  -6.328  66.458  1.00  0.00     0.157 A 
ATOM     16  C   UNL     1      15.416  -4.619  68.158  1.00  0.00     0.062 A 
ATOM     17  C   UNL     1      14.565  -5.496  67.473  1.00  0.00     0.158 A 
BRANCH  15  18
ATOM     18  O   UNL     1      14.305  -7.224  65.733  1.00  0.00    -0.504 OA
ATOM     19  H   UNL     1      14.449  -7.440  64.757  1.00  0.00     0.293 HD
ENDBRANCH  15  18
BRANCH  17  20
ATOM     20  O   UNL     1      13.216  -5.506  67.833  1.00  0.00    -0.504 OA
ATOM     21  H   UNL     1      12.460  -5.677  67.184  1.00  0.00     0.293 HD
ENDBRANCH  17  20
ENDBRANCH   1  12
BRANCH   6  22
ATOM     22  O   UNL     1      21.286  -0.846  71.054  1.00  0.00    -0.507 OA
ATOM     23  H   UNL     1      21.909  -0.370  70.420  1.00  0.00     0.293 HD
ENDBRANCH   6  22
BRANCH   8  24
ATOM     24  O   UNL     1      17.076   0.938  72.468  1.00  0.00    -0.508 OA
ATOM     25  H   UNL     1      16.995   1.909  72.191  1.00  0.00     0.293 HD
ENDBRANCH   8  24
TORSDOF 5
ENDMDL
MODEL 5
REMARK VINA RESULT:    -7.400      2.294      3.025
REMARK INTER + INTRA:          -9.006
REMARK INTER:                  -8.735
REMARK INTRA:                  -0.271
REMARK UNBOUND:                -0.308
REMARK SMILES O=c1cc(-c2ccc(O)c(O)c2)oc2cc(O)cc(O)c12
REMARK SMILES IDX 4 1 3 2 2 3 1 4 21 5 19 6 18 7 16 8 15 9 14 10 13 11 5 12
REMARK SMILES IDX 6 13 7 14 8 15 12 16 10 17 9 18 11 20 20 22 17 24
REMARK H PARENT 9 19 11 21 20 23 17 25
REMARK Flexibility Score: inf
ROOT
ATOM      1  C   UNL     1      18.865  -4.300  67.839  1.00  0.00     0.138 A 
ATOM      2  C   UNL     1      19.199  -5.087  66.729  1.00  0.00     0.100 A 
ATOM      3  C   UNL     1      18.202  -5.796  66.060  1.00  0.00     0.197 A 
ATOM      4  O   UNL     1      18.543  -6.543  65.105  1.00  0.00    -0.289 OA
ATOM      5  C   UNL     1      16.857  -5.692  66.487  1.00  0.00     0.107 A 
ATOM      6  C   UNL     1      15.751  -6.336  65.856  1.00  0.00     0.134 A 
ATOM      7  C   UNL     1      14.480  -6.253  66.438  1.00  0.00     0.093 A 
ATOM      8  C   UNL     1      14.264  -5.499  67.591  1.00  0.00     0.123 A 
ATOM      9  C   UNL     1      15.327  -4.820  68.186  1.00  0.00     0.094 A 
ATOM     10  C   UNL     1      16.613  -4.912  67.649  1.00  0.00     0.146 A 
ATOM     11  O   UNL     1      17.602  -4.262  68.253  1.00  0.00    -0.456 OA
ENDROOT
BRANCH   1  12
ATOM     12  C   UNL     1      19.886  -3.524  68.588  1.00  0.00     0.021 A 
ATOM     13  C   UNL     1      19.707  -2.160  68.883  1.00  0.00     0.016 A 
ATOM     14  C   UNL     1      20.679  -1.457  69.597  1.00  0.00     0.051 A 
ATOM     15  C   UNL     1      21.843  -2.095  70.038  1.00  0.00     0.157 A 
ATOM     16  C   UNL     1      21.050  -4.167  69.043  1.00  0.00     0.062 A 
ATOM     17  C   UNL     1      22.030  -3.468  69.759  1.00  0.00     0.158 A 
BRANCH  15  18
ATOM     18  O   UNL     1      22.776  -1.333  70.745  1.00  0.00    -0.504 OA
ATOM     19  H   UNL     1      23.256  -1.654  71.573  1.00  0.00     0.293 HD
ENDBRANCH  15  18
BRANCH  17  20
ATOM     20  O   UNL     1      23.163  -4.174  70.171  1.00  0.00    -0.504 OA
ATOM     21  H   UNL     1      23.813  -4.615  69.536  1.00  0.00     0.293 HD
ENDBRANCH  17  20
ENDBRANCH   1  12
BRANCH   6  22
ATOM     22  O   UNL     1      15.843  -7.046  64.655  1.00  0.00    -0.507 OA
ATOM     23  H   UNL     1      16.395  -6.764  63.859  1.00  0.00     0.293 HD
ENDBRANCH   6  22
BRANCH   8  24
ATOM     24  O   UNL     1      12.981  -5.427  68.133  1.00  0.00    -0.508 OA
ATOM     25  H   UNL     1      12.824  -5.092  69.076  1.00  0.00     0.293 HD
ENDBRANCH   8  24
TORSDOF 5
ENDMDL
MODEL 6
REMARK VINA RESULT:    -7.294      2.947      5.374
REMARK INTER + INTRA:          -8.881
REMARK INTER:                  -8.568
REMARK INTRA:                  -0.313
REMARK UNBOUND:                -0.308
REMARK SMILES O=c1cc(-c2ccc(O)c(O)c2)oc2cc(O)cc(O)c12
REMARK SMILES IDX 4 1 3 2 2 3 1 4 21 5 19 6 18 7 16 8 15 9 14 10 13 11 5 12
REMARK SMILES IDX 6 13 7 14 8 15 12 16 10 17 9 18 11 20 20 22 17 24
REMARK H PARENT 9 19 11 21 20 23 17 25
REMARK Flexibility Score: inf
ROOT
ATOM      1  C   UNL     1      15.658  -7.191  67.129  1.00  0.00     0.138 A 
ATOM      2  C   UNL     1      14.737  -8.032  67.768  1.00  0.00     0.100 A 
ATOM      3  C   UNL     1      14.276  -9.175  67.114  1.00  0.00     0.197 A 
ATOM      4  O   UNL     1      13.403  -9.877  67.688  1.00  0.00    -0.289 OA
ATOM      5  C   UNL     1      14.765  -9.493  65.825  1.00  0.00     0.107 A 
ATOM      6  C   UNL     1      14.398 -10.654  65.080  1.00  0.00     0.134 A 
ATOM      7  C   UNL     1      14.857 -10.804  63.765  1.00  0.00     0.093 A 
ATOM      8  C   UNL     1      15.718  -9.868  63.192  1.00  0.00     0.123 A 
ATOM      9  C   UNL     1      16.127  -8.757  63.930  1.00  0.00     0.094 A 
ATOM     10  C   UNL     1      15.659  -8.562  65.232  1.00  0.00     0.146 A 
ATOM     11  O   UNL     1      16.060  -7.484  65.896  1.00  0.00    -0.456 OA
ENDROOT
BRANCH   1  12
ATOM     12  C   UNL     1      16.182  -5.963  67.779  1.00  0.00     0.021 A 
ATOM     13  C   UNL     1      15.535  -5.379  68.883  1.00  0.00     0.016 A 
ATOM     14  C   UNL     1      16.055  -4.229  69.481  1.00  0.00     0.051 A 
ATOM     15  C   UNL     1      17.231  -3.642  69.000  1.00  0.00     0.157 A 
ATOM     16  C   UNL     1      17.369  -5.380  67.305  1.00  0.00     0.062 A 
ATOM     17  C   UNL     1      17.898  -4.227  67.899  1.00  0.00     0.158 A 
BRANCH  15  18
ATOM     18  O   UNL     1      17.695  -2.492  69.641  1.00  0.00    -0.504 OA
ATOM     19  H   UNL     1      17.183  -1.999  70.358  1.00  0.00     0.293 HD
ENDBRANCH  15  18
BRANCH  17  20
ATOM     20  O   UNL     1      19.077  -3.702  67.366  1.00  0.00    -0.504 OA
ATOM     21  H   UNL     1      19.845  -3.358  67.925  1.00  0.00     0.293 HD
ENDBRANCH  17  20
ENDBRANCH   1  12
BRANCH   6  22
ATOM     22  O   UNL     1      13.611 -11.691  65.588  1.00  0.00    -0.507 OA
ATOM     23  H   UNL     1      12.637 -11.837  65.370  1.00  0.00     0.293 HD
ENDBRANCH   6  22
BRANCH   8  24
ATOM     24  O   UNL     1      16.168 -10.059  61.886  1.00  0.00    -0.508 OA
ATOM     25  H   UNL     1      16.058 -10.948  61.413  1.00  0.00     0.293 HD
ENDBRANCH   8  24
TORSDOF 5
ENDMDL
MODEL 7
REMARK VINA RESULT:    -7.274      3.193      4.875
REMARK INTER + INTRA:          -8.858
REMARK INTER:                  -8.549
REMARK INTRA:                  -0.309
REMARK UNBOUND:                -0.308
REMARK SMILES O=c1cc(-c2ccc(O)c(O)c2)oc2cc(O)cc(O)c12
REMARK SMILES IDX 4 1 3 2 2 3 1 4 21 5 19 6 18 7 16 8 15 9 14 10 13 11 5 12
REMARK SMILES IDX 6 13 7 14 8 15 12 16 10 17 9 18 11 20 20 22 17 24
REMARK H PARENT 9 19 11 21 20 23 17 25
REMARK Flexibility Score: inf
ROOT
ATOM      1  C   UNL     1      20.648  -2.926  69.385  1.00  0.00     0.138 A 
ATOM      2  C   UNL     1      19.476  -2.311  69.845  1.00  0.00     0.100 A 
ATOM      3  C   UNL     1      18.240  -2.723  69.348  1.00  0.00     0.197 A 
ATOM      4  O   UNL     1      17.210  -2.111  69.734  1.00  0.00    -0.289 OA
ATOM      5  C   UNL     1      18.176  -3.779  68.408  1.00  0.00     0.107 A 
ATOM      6  C   UNL     1      16.968  -4.310  67.863  1.00  0.00     0.134 A 
ATOM      7  C   UNL     1      17.034  -5.276  66.851  1.00  0.00     0.093 A 
ATOM      8  C   UNL     1      18.259  -5.774  66.410  1.00  0.00     0.123 A 
ATOM      9  C   UNL     1      19.445  -5.301  66.973  1.00  0.00     0.094 A 
ATOM     10  C   UNL     1      19.413  -4.312  67.960  1.00  0.00     0.146 A 
ATOM     11  O   UNL     1      20.565  -3.878  68.461  1.00  0.00    -0.456 OA
ENDROOT
BRANCH   1  12
ATOM     12  C   UNL     1      21.991  -2.528  69.881  1.00  0.00     0.021 A 
ATOM     13  C   UNL     1      22.231  -1.248  70.411  1.00  0.00     0.016 A 
ATOM     14  C   UNL     1      23.501  -0.903  70.879  1.00  0.00     0.051 A 
ATOM     15  C   UNL     1      24.553  -1.824  70.837  1.00  0.00     0.157 A 
ATOM     16  C   UNL     1      23.044  -3.457  69.851  1.00  0.00     0.062 A 
ATOM     17  C   UNL     1      24.321  -3.119  70.319  1.00  0.00     0.158 A 
BRANCH  15  18
ATOM     18  O   UNL     1      25.798  -1.415  71.318  1.00  0.00    -0.504 OA
ATOM     19  H   UNL     1      25.925  -0.714  72.034  1.00  0.00     0.293 HD
ENDBRANCH  15  18
BRANCH  17  20
ATOM     20  O   UNL     1      25.319  -4.094  70.248  1.00  0.00    -0.504 OA
ATOM     21  H   UNL     1      26.161  -4.079  70.805  1.00  0.00     0.293 HD
ENDBRANCH  17  20
ENDBRANCH   1  12
BRANCH   6  22
ATOM     22  O   UNL     1      15.690  -3.943  68.294  1.00  0.00    -0.507 OA
ATOM     23  H   UNL     1      15.301  -4.158  69.199  1.00  0.00     0.293 HD
ENDBRANCH   6  22
BRANCH   8  24
ATOM     24  O   UNL     1      18.285  -6.747  65.412  1.00  0.00    -0.508 OA
ATOM     25  H   UNL     1      18.163  -7.729  65.627  1.00  0.00     0.293 HD
ENDBRANCH   8  24
TORSDOF 5
ENDMDL
MODEL 8
REMARK VINA RESULT:    -7.252      4.125      7.628
REMARK INTER + INTRA:          -8.832
REMARK INTER:                  -8.559
REMARK INTRA:                  -0.273
REMARK UNBOUND:                -0.308
REMARK SMILES O=c1cc(-c2ccc(O)c(O)c2)oc2cc(O)cc(O)c12
REMARK SMILES IDX 4 1 3 2 2 3 1 4 21 5 19 6 18 7 16 8 15 9 14 10 13 11 5 12
REMARK SMILES IDX 6 13 7 14 8 15 12 16 10 17 9 18 11 20 20 22 17 24
REMARK H PARENT 9 19 11 21 20 23 17 25
REMARK Flexibility Score: inf
ROOT
ATOM      1  C   UNL     1      21.008  -3.453  69.061  1.00  0.00     0.138 A 
ATOM      2  C   UNL     1      21.856  -4.534  69.338  1.00  0.00     0.100 A 
ATOM      3  C   UNL     1      23.210  -4.305  69.586  1.00  0.00     0.197 A 
ATOM      4  O   UNL     1      23.957  -5.301  69.771  1.00  0.00    -0.289 OA
ATOM      5  C   UNL     1      23.710  -2.981  69.586  1.00  0.00     0.107 A 
ATOM      6  C   UNL     1      25.063  -2.624  69.867  1.00  0.00     0.134 A 
ATOM      7  C   UNL     1      25.469  -1.292  69.723  1.00  0.00     0.093 A 
ATOM      8  C   UNL     1      24.559  -0.296  69.370  1.00  0.00     0.123 A 
ATOM      9  C   UNL     1      23.222  -0.625  69.147  1.00  0.00     0.094 A 
ATOM     10  C   UNL     1      22.794  -1.951  69.249  1.00  0.00     0.146 A 
ATOM     11  O   UNL     1      21.515  -2.225  69.014  1.00  0.00    -0.456 OA
ENDROOT
BRANCH   1  12
ATOM     12  C   UNL     1      19.560  -3.640  68.792  1.00  0.00     0.021 A 
ATOM     13  C   UNL     1      18.584  -2.851  69.425  1.00  0.00     0.016 A 
ATOM     14  C   UNL     1      17.229  -3.041  69.145  1.00  0.00     0.051 A 
ATOM     15  C   UNL     1      16.819  -4.012  68.226  1.00  0.00     0.157 A 
ATOM     16  C   UNL     1      19.147  -4.607  67.859  1.00  0.00     0.062 A 
ATOM     17  C   UNL     1      17.791  -4.804  67.573  1.00  0.00     0.158 A 
BRANCH  15  18
ATOM     18  O   UNL     1      15.449  -4.153  67.994  1.00  0.00    -0.504 OA
ATOM     19  H   UNL     1      15.017  -5.003  67.660  1.00  0.00     0.293 HD
ENDBRANCH  15  18
BRANCH  17  20
ATOM     20  O   UNL     1      17.459  -5.790  66.640  1.00  0.00    -0.504 OA
ATOM     21  H   UNL     1      16.562  -5.850  66.179  1.00  0.00     0.293 HD
ENDBRANCH  17  20
ENDBRANCH   1  12
BRANCH   6  22
ATOM     22  O   UNL     1      26.034  -3.528  70.308  1.00  0.00    -0.507 OA
ATOM     23  H   UNL     1      25.853  -4.482  70.580  1.00  0.00     0.293 HD
ENDBRANCH   6  22
BRANCH   8  24
ATOM     24  O   UNL     1      24.996   1.023  69.252  1.00  0.00    -0.508 OA
ATOM     25  H   UNL     1      25.805   1.264  68.692  1.00  0.00     0.293 HD
ENDBRANCH   8  24
TORSDOF 5
ENDMDL
MODEL 9
REMARK VINA RESULT:    -7.185      4.226      8.090
REMARK INTER + INTRA:          -8.753
REMARK INTER:                  -8.436
REMARK INTRA:                  -0.318
REMARK UNBOUND:                -0.308
REMARK SMILES O=c1cc(-c2ccc(O)c(O)c2)oc2cc(O)cc(O)c12
REMARK SMILES IDX 4 1 3 2 2 3 1 4 21 5 19 6 18 7 16 8 15 9 14 10 13 11 5 12
REMARK SMILES IDX 6 13 7 14 8 15 12 16 10 17 9 18 11 20 20 22 17 24
REMARK H PARENT 9 19 11 21 20 23 17 25
REMARK Flexibility Score: inf
ROOT
ATOM      1  C   UNL     1      21.405  -2.723  69.814  1.00  0.00     0.138 A 
ATOM      2  C   UNL     1      21.652  -1.877  70.904  1.00  0.00     0.100 A 
ATOM      3  C   UNL     1      22.967  -1.594  71.274  1.00  0.00     0.197 A 
ATOM      4  O   UNL     1      23.156  -0.881  72.294  1.00  0.00    -0.289 OA
ATOM      5  C   UNL     1      24.040  -2.137  70.529  1.00  0.00     0.107 A 
ATOM      6  C   UNL     1      25.420  -1.884  70.789  1.00  0.00     0.134 A 
ATOM      7  C   UNL     1      26.398  -2.570  70.058  1.00  0.00     0.093 A 
ATOM      8  C   UNL     1      26.046  -3.452  69.036  1.00  0.00     0.123 A 
ATOM      9  C   UNL     1      24.700  -3.666  68.737  1.00  0.00     0.094 A 
ATOM     10  C   UNL     1      23.701  -3.022  69.472  1.00  0.00     0.146 A 
ATOM     11  O   UNL     1      22.431  -3.264  69.165  1.00  0.00    -0.456 OA
ENDROOT
BRANCH   1  12
ATOM     12  C   UNL     1      20.026  -3.057  69.376  1.00  0.00     0.021 A 
ATOM     13  C   UNL     1      18.903  -2.400  69.908  1.00  0.00     0.016 A 
ATOM     14  C   UNL     1      17.618  -2.727  69.471  1.00  0.00     0.051 A 
ATOM     15  C   UNL     1      17.424  -3.707  68.492  1.00  0.00     0.157 A 
ATOM     16  C   UNL     1      19.831  -4.032  68.383  1.00  0.00     0.062 A 
ATOM     17  C   UNL     1      18.546  -4.367  67.939  1.00  0.00     0.158 A 
BRANCH  15  18
ATOM     18  O   UNL     1      16.114  -3.988  68.101  1.00  0.00    -0.504 OA
ATOM     19  H   UNL     1      15.736  -4.922  68.021  1.00  0.00     0.293 HD
ENDBRANCH  15  18
BRANCH  17  20
ATOM     20  O   UNL     1      18.433  -5.352  66.955  1.00  0.00    -0.504 OA
ATOM     21  H   UNL     1      19.082  -6.117  66.847  1.00  0.00     0.293 HD
ENDBRANCH  17  20
ENDBRANCH   1  12
BRANCH   6  22
ATOM     22  O   UNL     1      25.880  -0.959  71.731  1.00  0.00    -0.507 OA
ATOM     23  H   UNL     1      26.205  -1.191  72.657  1.00  0.00     0.293 HD
ENDBRANCH   6  22
BRANCH   8  24
ATOM     24  O   UNL     1      27.046  -4.105  68.318  1.00  0.00    -0.508 OA
ATOM     25  H   UNL     1      27.733  -3.591  67.780  1.00  0.00     0.293 HD
ENDBRANCH   8  24
TORSDOF 5
ENDMDL
