MODEL 1
REMARK VINA RESULT:    -6.906      0.000      0.000
REMARK INTER + INTRA:          -9.214
REMARK INTER:                  -8.723
REMARK INTRA:                  -0.492
REMARK UNBOUND:                -0.492
REMARK SMILES CC(C)[C@H](C)C=C[C@H](C)[C@H]1CC[C@H]2C3=CC=C4C[C@@H](O)CC[C@]4(C)[C@H]3CC[C@@]12C
REMARK SMILES IDX 8 1 9 2 7 3 6 4 4 5 5 6 2 7 1 8 3 9 10 10 11 11 28 12 12 13
REMARK SMILES IDX 13 14 27 15 29 16 14 17 26 18 25 19 15 20 23 21 16 22 17 23
REMARK SMILES IDX 22 24 24 25 18 26 21 27 19 28 20 29
REMARK H PARENT 20 30
REMARK Flexibility Score: inf
ROOT
ATOM      1  C   UNL     1      12.894 -14.036  28.614  1.00  0.00     0.012 C 
ATOM      2  C   UNL     1      11.751 -14.251  27.604  1.00  0.00     0.012 C 
ENDROOT
BRANCH   1   3
ATOM      3  C   UNL     1      12.629 -14.847  29.867  1.00  0.00    -0.028 C 
ATOM      4  C   UNL     1      11.416 -14.915  30.441  1.00  0.00    -0.028 C 
BRANCH   4   5
ATOM      5  C   UNL     1      11.170 -15.774  31.665  1.00  0.00     0.011 C 
ATOM      6  C   UNL     1       9.724 -15.603  32.156  1.00  0.00     0.012 C 
BRANCH   5   7
ATOM      7  C   UNL     1      11.537 -17.273  31.445  1.00  0.00    -0.011 C 
ATOM      8  C   UNL     1      10.697 -18.194  32.344  1.00  0.00     0.008 C 
ATOM      9  C   UNL     1      13.036 -17.580  31.614  1.00  0.00     0.008 C 
ENDBRANCH   5   7
ENDBRANCH   4   5
ENDBRANCH   1   3
BRANCH   1  10
ATOM     10  C   UNL     1      14.356 -14.280  28.081  1.00  0.00     0.002 C 
ATOM     11  C   UNL     1      14.509 -15.265  26.919  1.00  0.00     0.005 C 
ATOM     12  C   UNL     1      15.172 -13.016  27.680  1.00  0.00    -0.023 C 
ATOM     13  C   UNL     1      15.801 -14.882  26.204  1.00  0.00     0.009 C 
ATOM     14  C   UNL     1      16.376 -13.632  26.905  1.00  0.00     0.021 C 
ATOM     15  C   UNL     1      14.375 -12.076  26.718  1.00  0.00     0.008 C 
ATOM     16  C   UNL     1      15.610 -12.252  28.968  1.00  0.00     0.012 C 
ATOM     17  C   UNL     1      17.037 -12.652  25.937  1.00  0.00    -0.063 C 
ATOM     18  C   UNL     1      15.225 -10.977  26.019  1.00  0.00     0.009 C 
ATOM     19  C   UNL     1      16.760 -11.179  26.125  1.00  0.00     0.025 C 
ATOM     20  C   UNL     1      17.718 -13.093  24.872  1.00  0.00    -0.000 C 
ATOM     21  C   UNL     1      17.666 -10.211  25.243  1.00  0.00    -0.005 C 
ATOM     22  C   UNL     1      18.179 -12.190  23.817  1.00  0.00    -0.000 C 
ATOM     23  C   UNL     1      18.115 -10.856  23.935  1.00  0.00    -0.061 C 
ATOM     24  C   UNL     1      18.985  -9.888  26.016  1.00  0.00     0.014 C 
ATOM     25  C   UNL     1      16.914  -8.877  24.965  1.00  0.00     0.017 C 
ATOM     26  C   UNL     1      19.013 -10.036  23.040  1.00  0.00     0.063 C 
ATOM     27  C   UNL     1      20.021  -9.092  25.185  1.00  0.00     0.033 C 
ATOM     28  C   UNL     1      20.310  -9.734  23.808  1.00  0.00     0.118 C 
BRANCH  28  29
ATOM     29  O   UNL     1      21.108  -8.875  23.038  1.00  0.00    -0.393 OA
ATOM     30  H   UNL     1      21.710  -9.451  22.498  1.00  0.00     0.210 HD
ENDBRANCH  28  29
ENDBRANCH   1  10
TORSDOF 5
ENDMDL
MODEL 2
REMARK VINA RESULT:    -6.880      2.351      3.021
REMARK INTER + INTRA:          -9.182
REMARK INTER:                  -9.392
REMARK INTRA:                   0.210
REMARK UNBOUND:                -0.492
REMARK SMILES CC(C)[C@H](C)C=C[C@H](C)[C@H]1CC[C@H]2C3=CC=C4C[C@@H](O)CC[C@]4(C)[C@H]3CC[C@@]12C
REMARK SMILES IDX 8 1 9 2 7 3 6 4 4 5 5 6 2 7 1 8 3 9 10 10 11 11 28 12 12 13
REMARK SMILES IDX 13 14 27 15 29 16 14 17 26 18 25 19 15 20 23 21 16 22 17 23
REMARK SMILES IDX 22 24 24 25 18 26 21 27 19 28 20 29
REMARK H PARENT 20 30
REMARK Flexibility Score: inf
ROOT
ATOM      1  C   UNL     1      12.352 -13.956  29.198  1.00  0.00     0.012 C 
ATOM      2  C   UNL     1      11.653 -13.743  27.842  1.00  0.00     0.012 C 
ENDROOT
BRANCH   1   3
ATOM      3  C   UNL     1      11.500 -14.848  30.078  1.00  0.00    -0.028 C 
ATOM      4  C   UNL     1      11.824 -15.130  31.351  1.00  0.00    -0.028 C 
BRANCH   4   5
ATOM      5  C   UNL     1      10.926 -15.986  32.223  1.00  0.00     0.011 C 
ATOM      6  C   UNL     1       9.491 -15.435  32.214  1.00  0.00     0.012 C 
BRANCH   5   7
ATOM      7  C   UNL     1      10.971 -17.498  31.848  1.00  0.00    -0.011 C 
ATOM      8  C   UNL     1      10.203 -18.352  32.869  1.00  0.00     0.008 C 
ATOM      9  C   UNL     1      12.395 -18.050  31.651  1.00  0.00     0.008 C 
ENDBRANCH   5   7
ENDBRANCH   4   5
ENDBRANCH   1   3
BRANCH   1  10
ATOM     10  C   UNL     1      13.841 -14.468  29.147  1.00  0.00     0.002 C 
ATOM     11  C   UNL     1      14.049 -15.985  29.193  1.00  0.00     0.005 C 
ATOM     12  C   UNL     1      14.716 -13.954  27.966  1.00  0.00    -0.023 C 
ATOM     13  C   UNL     1      15.397 -16.250  28.530  1.00  0.00     0.009 C 
ATOM     14  C   UNL     1      15.954 -14.897  28.036  1.00  0.00     0.021 C 
ATOM     15  C   UNL     1      14.012 -14.139  26.582  1.00  0.00     0.008 C 
ATOM     16  C   UNL     1      15.083 -12.456  28.207  1.00  0.00     0.012 C 
ATOM     17  C   UNL     1      16.706 -15.006  26.710  1.00  0.00    -0.063 C 
ATOM     18  C   UNL     1      14.936 -13.957  25.344  1.00  0.00     0.009 C 
ATOM     19  C   UNL     1      16.455 -13.944  25.666  1.00  0.00     0.025 C 
ATOM     20  C   UNL     1      17.448 -16.085  26.428  1.00  0.00    -0.000 C 
ATOM     21  C   UNL     1      17.444 -13.986  24.419  1.00  0.00    -0.005 C 
ATOM     22  C   UNL     1      18.003 -16.318  25.096  1.00  0.00    -0.000 C 
ATOM     23  C   UNL     1      17.966 -15.389  24.129  1.00  0.00    -0.061 C 
ATOM     24  C   UNL     1      18.714 -13.132  24.737  1.00  0.00     0.014 C 
ATOM     25  C   UNL     1      16.749 -13.390  23.160  1.00  0.00     0.017 C 
ATOM     26  C   UNL     1      18.945 -15.534  22.989  1.00  0.00     0.063 C 
ATOM     27  C   UNL     1      19.826 -13.237  23.664  1.00  0.00     0.033 C 
ATOM     28  C   UNL     1      20.193 -14.699  23.318  1.00  0.00     0.118 C 
BRANCH  28  29
ATOM     29  O   UNL     1      21.065 -14.726  22.219  1.00  0.00    -0.393 OA
ATOM     30  H   UNL     1      21.958 -14.983  22.569  1.00  0.00     0.210 HD
ENDBRANCH  28  29
ENDBRANCH   1  10
TORSDOF 5
ENDMDL
MODEL 3
REMARK VINA RESULT:    -6.831      1.623      3.428
REMARK INTER + INTRA:          -9.119
REMARK INTER:                  -8.912
REMARK INTRA:                  -0.207
REMARK UNBOUND:                -0.492
REMARK SMILES CC(C)[C@H](C)C=C[C@H](C)[C@H]1CC[C@H]2C3=CC=C4C[C@@H](O)CC[C@]4(C)[C@H]3CC[C@@]12C
REMARK SMILES IDX 8 1 9 2 7 3 6 4 4 5 5 6 2 7 1 8 3 9 10 10 11 11 28 12 12 13
REMARK SMILES IDX 13 14 27 15 29 16 14 17 26 18 25 19 15 20 23 21 16 22 17 23
REMARK SMILES IDX 22 24 24 25 18 26 21 27 19 28 20 29
REMARK H PARENT 20 30
REMARK Flexibility Score: inf
ROOT
ATOM      1  C   UNL     1      12.794 -16.369  30.074  1.00  0.00     0.012 C 
ATOM      2  C   UNL     1      14.007 -16.201  31.008  1.00  0.00     0.012 C 
ENDROOT
BRANCH   1   3
ATOM      3  C   UNL     1      11.534 -16.539  30.899  1.00  0.00    -0.028 C 
ATOM      4  C   UNL     1      11.457 -17.395  31.933  1.00  0.00    -0.028 C 
BRANCH   4   5
ATOM      5  C   UNL     1      10.199 -17.508  32.770  1.00  0.00     0.011 C 
ATOM      6  C   UNL     1       9.220 -16.376  32.420  1.00  0.00     0.012 C 
BRANCH   5   7
ATOM      7  C   UNL     1       9.525 -18.911  32.676  1.00  0.00    -0.011 C 
ATOM      8  C   UNL     1       9.851 -19.774  33.905  1.00  0.00     0.008 C 
ATOM      9  C   UNL     1       9.855 -19.676  31.381  1.00  0.00     0.008 C 
ENDBRANCH   5   7
ENDBRANCH   4   5
ENDBRANCH   1   3
BRANCH   1  10
ATOM     10  C   UNL     1      12.601 -15.263  28.969  1.00  0.00     0.002 C 
ATOM     11  C   UNL     1      12.331 -13.839  29.461  1.00  0.00     0.005 C 
ATOM     12  C   UNL     1      13.728 -15.140  27.902  1.00  0.00    -0.023 C 
ATOM     13  C   UNL     1      12.790 -12.908  28.342  1.00  0.00     0.009 C 
ATOM     14  C   UNL     1      13.389 -13.781  27.218  1.00  0.00     0.021 C 
ATOM     15  C   UNL     1      15.149 -15.044  28.547  1.00  0.00     0.008 C 
ATOM     16  C   UNL     1      13.644 -16.349  26.918  1.00  0.00     0.012 C 
ATOM     17  C   UNL     1      14.590 -13.134  26.531  1.00  0.00    -0.063 C 
ATOM     18  C   UNL     1      16.282 -14.595  27.581  1.00  0.00     0.009 C 
ATOM     19  C   UNL     1      15.787 -14.005  26.233  1.00  0.00     0.025 C 
ATOM     20  C   UNL     1      14.638 -11.810  26.335  1.00  0.00    -0.000 C 
ATOM     21  C   UNL     1      16.892 -13.328  25.307  1.00  0.00    -0.005 C 
ATOM     22  C   UNL     1      15.853 -11.136  25.878  1.00  0.00    -0.000 C 
ATOM     23  C   UNL     1      16.931 -11.810  25.452  1.00  0.00    -0.061 C 
ATOM     24  C   UNL     1      16.542 -13.590  23.807  1.00  0.00     0.014 C 
ATOM     25  C   UNL     1      18.292 -13.942  25.603  1.00  0.00     0.017 C 
ATOM     26  C   UNL     1      17.919 -11.065  24.587  1.00  0.00     0.063 C 
ATOM     27  C   UNL     1      17.452 -12.834  22.808  1.00  0.00     0.033 C 
ATOM     28  C   UNL     1      17.557 -11.321  23.114  1.00  0.00     0.118 C 
BRANCH  28  29
ATOM     29  O   UNL     1      18.532 -10.734  22.295  1.00  0.00    -0.393 OA
ATOM     30  H   UNL     1      19.251 -10.405  22.895  1.00  0.00     0.210 HD
ENDBRANCH  28  29
ENDBRANCH   1  10
TORSDOF 5
ENDMDL
MODEL 4
REMARK VINA RESULT:    -6.786      3.088      4.316
REMARK INTER + INTRA:          -9.063
REMARK INTER:                  -8.711
REMARK INTRA:                  -0.352
REMARK UNBOUND:                -0.492
REMARK SMILES CC(C)[C@H](C)C=C[C@H](C)[C@H]1CC[C@H]2C3=CC=C4C[C@@H](O)CC[C@]4(C)[C@H]3CC[C@@]12C
REMARK SMILES IDX 8 1 9 2 7 3 6 4 4 5 5 6 2 7 1 8 3 9 10 10 11 11 28 12 12 13
REMARK SMILES IDX 13 14 27 15 29 16 14 17 26 18 25 19 15 20 23 21 16 22 17 23
REMARK SMILES IDX 22 24 24 25 18 26 21 27 19 28 20 29
REMARK H PARENT 20 30
REMARK Flexibility Score: inf
ROOT
ATOM      1  C   UNL     1      13.265 -13.581  28.622  1.00  0.00     0.012 C 
ATOM      2  C   UNL     1      12.120 -12.621  28.999  1.00  0.00     0.012 C 
ENDROOT
BRANCH   1   3
ATOM      3  C   UNL     1      13.108 -14.885  29.378  1.00  0.00    -0.028 C 
ATOM      4  C   UNL     1      12.054 -15.139  30.171  1.00  0.00    -0.028 C 
BRANCH   4   5
ATOM      5  C   UNL     1      11.901 -16.471  30.877  1.00  0.00     0.011 C 
ATOM      6  C   UNL     1      13.279 -17.045  31.241  1.00  0.00     0.012 C 
BRANCH   5   7
ATOM      7  C   UNL     1      10.952 -16.405  32.112  1.00  0.00    -0.011 C 
ATOM      8  C   UNL     1      10.291 -17.765  32.386  1.00  0.00     0.008 C 
ATOM      9  C   UNL     1       9.885 -15.299  32.021  1.00  0.00     0.008 C 
ENDBRANCH   5   7
ENDBRANCH   4   5
ENDBRANCH   1   3
BRANCH   1  10
ATOM     10  C   UNL     1      13.484 -13.841  27.083  1.00  0.00     0.002 C 
ATOM     11  C   UNL     1      13.500 -12.610  26.173  1.00  0.00     0.005 C 
ATOM     12  C   UNL     1      14.734 -14.681  26.689  1.00  0.00    -0.023 C 
ATOM     13  C   UNL     1      14.306 -13.005  24.939  1.00  0.00     0.009 C 
ATOM     14  C   UNL     1      14.818 -14.446  25.151  1.00  0.00     0.021 C 
ATOM     15  C   UNL     1      16.043 -14.146  27.358  1.00  0.00     0.008 C 
ATOM     16  C   UNL     1      14.491 -16.177  27.060  1.00  0.00     0.012 C 
ATOM     17  C   UNL     1      16.217 -14.676  24.580  1.00  0.00    -0.063 C 
ATOM     18  C   UNL     1      17.364 -14.716  26.767  1.00  0.00     0.009 C 
ATOM     19  C   UNL     1      17.201 -15.461  25.415  1.00  0.00     0.025 C 
ATOM     20  C   UNL     1      16.604 -14.075  23.447  1.00  0.00    -0.000 C 
ATOM     21  C   UNL     1      18.544 -15.866  24.662  1.00  0.00    -0.005 C 
ATOM     22  C   UNL     1      17.992 -14.102  22.989  1.00  0.00    -0.000 C 
ATOM     23  C   UNL     1      18.924 -14.875  23.566  1.00  0.00    -0.061 C 
ATOM     24  C   UNL     1      18.336 -17.230  23.929  1.00  0.00     0.014 C 
ATOM     25  C   UNL     1      19.707 -16.024  25.684  1.00  0.00     0.017 C 
ATOM     26  C   UNL     1      20.163 -15.186  22.761  1.00  0.00     0.063 C 
ATOM     27  C   UNL     1      19.520 -17.642  23.020  1.00  0.00     0.033 C 
ATOM     28  C   UNL     1      19.942 -16.525  22.037  1.00  0.00     0.118 C 
BRANCH  28  29
ATOM     29  O   UNL     1      21.125 -16.889  21.378  1.00  0.00    -0.393 OA
ATOM     30  H   UNL     1      20.860 -17.232  20.485  1.00  0.00     0.210 HD
ENDBRANCH  28  29
ENDBRANCH   1  10
TORSDOF 5
ENDMDL
MODEL 5
REMARK VINA RESULT:    -6.775      5.110      7.019
REMARK INTER + INTRA:          -9.049
REMARK INTER:                  -8.411
REMARK INTRA:                  -0.638
REMARK UNBOUND:                -0.492
REMARK SMILES CC(C)[C@H](C)C=C[C@H](C)[C@H]1CC[C@H]2C3=CC=C4C[C@@H](O)CC[C@]4(C)[C@H]3CC[C@@]12C
REMARK SMILES IDX 8 1 9 2 7 3 6 4 4 5 5 6 2 7 1 8 3 9 10 10 11 11 28 12 12 13
REMARK SMILES IDX 13 14 27 15 29 16 14 17 26 18 25 19 15 20 23 21 16 22 17 23
REMARK SMILES IDX 22 24 24 25 18 26 21 27 19 28 20 29
REMARK H PARENT 20 30
REMARK Flexibility Score: inf
ROOT
ATOM      1  C   UNL     1      15.118 -14.781  27.188  1.00  0.00     0.012 C 
ATOM      2  C   UNL     1      14.968 -13.791  26.017  1.00  0.00     0.012 C 
ENDROOT
BRANCH   1   3
ATOM      3  C   UNL     1      14.112 -14.447  28.271  1.00  0.00    -0.028 C 
ATOM      4  C   UNL     1      13.847 -15.280  29.292  1.00  0.00    -0.028 C 
BRANCH   4   5
ATOM      5  C   UNL     1      12.871 -14.898  30.388  1.00  0.00     0.011 C 
ATOM      6  C   UNL     1      11.470 -14.668  29.799  1.00  0.00     0.012 C 
BRANCH   5   7
ATOM      7  C   UNL     1      12.847 -15.916  31.568  1.00  0.00    -0.011 C 
ATOM      8  C   UNL     1      13.663 -17.176  31.239  1.00  0.00     0.008 C 
ATOM      9  C   UNL     1      11.430 -16.301  32.032  1.00  0.00     0.008 C 
ENDBRANCH   5   7
ENDBRANCH   4   5
ENDBRANCH   1   3
BRANCH   1  10
ATOM     10  C   UNL     1      15.070 -16.313  26.823  1.00  0.00     0.002 C 
ATOM     11  C   UNL     1      13.934 -16.764  25.902  1.00  0.00     0.005 C 
ATOM     12  C   UNL     1      16.371 -16.930  26.231  1.00  0.00    -0.023 C 
ATOM     13  C   UNL     1      14.422 -18.038  25.218  1.00  0.00     0.009 C 
ATOM     14  C   UNL     1      15.869 -18.301  25.688  1.00  0.00     0.021 C 
ATOM     15  C   UNL     1      16.939 -16.088  25.042  1.00  0.00     0.008 C 
ATOM     16  C   UNL     1      17.434 -17.081  27.364  1.00  0.00     0.012 C 
ATOM     17  C   UNL     1      16.761 -18.879  24.590  1.00  0.00    -0.063 C 
ATOM     18  C   UNL     1      18.033 -16.800  24.196  1.00  0.00     0.009 C 
ATOM     19  C   UNL     1      18.159 -18.326  24.451  1.00  0.00     0.025 C 
ATOM     20  C   UNL     1      16.270 -19.740  23.689  1.00  0.00    -0.000 C 
ATOM     21  C   UNL     1      19.103 -19.136  23.457  1.00  0.00    -0.005 C 
ATOM     22  C   UNL     1      17.031 -20.146  22.508  1.00  0.00    -0.000 C 
ATOM     23  C   UNL     1      18.325 -19.833  22.345  1.00  0.00    -0.061 C 
ATOM     24  C   UNL     1      19.818 -20.284  24.241  1.00  0.00     0.014 C 
ATOM     25  C   UNL     1      20.188 -18.194  22.858  1.00  0.00     0.017 C 
ATOM     26  C   UNL     1      19.122 -20.663  21.368  1.00  0.00     0.063 C 
ATOM     27  C   UNL     1      20.631 -21.247  23.341  1.00  0.00     0.033 C 
ATOM     28  C   UNL     1      19.811 -21.794  22.149  1.00  0.00     0.118 C 
BRANCH  28  29
ATOM     29  O   UNL     1      20.650 -22.506  21.279  1.00  0.00    -0.393 OA
ATOM     30  H   UNL     1      21.568 -22.156  21.417  1.00  0.00     0.210 HD
ENDBRANCH  28  29
ENDBRANCH   1  10
TORSDOF 5
ENDMDL
MODEL 6
REMARK VINA RESULT:    -6.563      3.527      5.135
REMARK INTER + INTRA:          -8.781
REMARK INTER:                  -8.378
REMARK INTRA:                  -0.403
REMARK UNBOUND:                -0.492
REMARK SMILES CC(C)[C@H](C)C=C[C@H](C)[C@H]1CC[C@H]2C3=CC=C4C[C@@H](O)CC[C@]4(C)[C@H]3CC[C@@]12C
REMARK SMILES IDX 8 1 9 2 7 3 6 4 4 5 5 6 2 7 1 8 3 9 10 10 11 11 28 12 12 13
REMARK SMILES IDX 13 14 27 15 29 16 14 17 26 18 25 19 15 20 23 21 16 22 17 23
REMARK SMILES IDX 22 24 24 25 18 26 21 27 19 28 20 29
REMARK H PARENT 20 30
REMARK Flexibility Score: inf
ROOT
ATOM      1  C   UNL     1      12.276 -13.176  27.488  1.00  0.00     0.012 C 
ATOM      2  C   UNL     1      11.497 -14.198  26.639  1.00  0.00     0.012 C 
ENDROOT
BRANCH   1   3
ATOM      3  C   UNL     1      12.082 -13.481  28.960  1.00  0.00    -0.028 C 
ATOM      4  C   UNL     1      11.894 -14.729  29.421  1.00  0.00    -0.028 C 
BRANCH   4   5
ATOM      5  C   UNL     1      11.752 -15.008  30.904  1.00  0.00     0.011 C 
ATOM      6  C   UNL     1      10.291 -15.338  31.248  1.00  0.00     0.012 C 
BRANCH   5   7
ATOM      7  C   UNL     1      12.734 -16.105  31.417  1.00  0.00    -0.011 C 
ATOM      8  C   UNL     1      13.963 -16.230  30.503  1.00  0.00     0.008 C 
ATOM      9  C   UNL     1      12.077 -17.482  31.624  1.00  0.00     0.008 C 
ENDBRANCH   5   7
ENDBRANCH   4   5
ENDBRANCH   1   3
BRANCH   1  10
ATOM     10  C   UNL     1      13.803 -12.996  27.143  1.00  0.00     0.002 C 
ATOM     11  C   UNL     1      14.749 -12.749  28.321  1.00  0.00     0.005 C 
ATOM     12  C   UNL     1      14.463 -14.121  26.293  1.00  0.00    -0.023 C 
ATOM     13  C   UNL     1      16.127 -13.218  27.864  1.00  0.00     0.009 C 
ATOM     14  C   UNL     1      15.980 -13.800  26.441  1.00  0.00     0.021 C 
ATOM     15  C   UNL     1      14.184 -15.545  26.874  1.00  0.00     0.008 C 
ATOM     16  C   UNL     1      13.964 -14.015  24.817  1.00  0.00     0.012 C 
ATOM     17  C   UNL     1      16.881 -15.009  26.191  1.00  0.00    -0.063 C 
ATOM     18  C   UNL     1      15.067 -16.681  26.283  1.00  0.00     0.009 C 
ATOM     19  C   UNL     1      16.289 -16.191  25.461  1.00  0.00     0.025 C 
ATOM     20  C   UNL     1      18.106 -15.076  26.729  1.00  0.00    -0.000 C 
ATOM     21  C   UNL     1      17.343 -17.303  25.026  1.00  0.00    -0.005 C 
ATOM     22  C   UNL     1      18.905 -16.299  26.688  1.00  0.00    -0.000 C 
ATOM     23  C   UNL     1      18.550 -17.366  25.956  1.00  0.00    -0.061 C 
ATOM     24  C   UNL     1      17.924 -16.943  23.620  1.00  0.00     0.014 C 
ATOM     25  C   UNL     1      16.650 -18.694  24.934  1.00  0.00     0.017 C 
ATOM     26  C   UNL     1      19.631 -18.361  25.610  1.00  0.00     0.063 C 
ATOM     27  C   UNL     1      19.086 -17.862  23.167  1.00  0.00     0.033 C 
ATOM     28  C   UNL     1      20.202 -17.991  24.231  1.00  0.00     0.118 C 
BRANCH  28  29
ATOM     29  O   UNL     1      21.125 -18.971  23.839  1.00  0.00    -0.393 OA
ATOM     30  H   UNL     1      21.463 -18.704  22.945  1.00  0.00     0.210 HD
ENDBRANCH  28  29
ENDBRANCH   1  10
TORSDOF 5
ENDMDL
MODEL 7
REMARK VINA RESULT:    -6.550      8.913     10.752
REMARK INTER + INTRA:          -8.765
REMARK INTER:                  -7.603
REMARK INTRA:                  -1.161
REMARK UNBOUND:                -0.492
REMARK SMILES CC(C)[C@H](C)C=C[C@H](C)[C@H]1CC[C@H]2C3=CC=C4C[C@@H](O)CC[C@]4(C)[C@H]3CC[C@@]12C
REMARK SMILES IDX 8 1 9 2 7 3 6 4 4 5 5 6 2 7 1 8 3 9 10 10 11 11 28 12 12 13
REMARK SMILES IDX 13 14 27 15 29 16 14 17 26 18 25 19 15 20 23 21 16 22 17 23
REMARK SMILES IDX 22 24 24 25 18 26 21 27 19 28 20 29
REMARK H PARENT 20 30
REMARK Flexibility Score: inf
ROOT
ATOM      1  C   UNL     1      16.372 -26.225  23.859  1.00  0.00     0.012 C 
ATOM      2  C   UNL     1      17.164 -27.539  23.722  1.00  0.00     0.012 C 
ENDROOT
BRANCH   1   3
ATOM      3  C   UNL     1      14.941 -26.531  24.255  1.00  0.00    -0.028 C 
ATOM      4  C   UNL     1      14.402 -26.098  25.408  1.00  0.00    -0.028 C 
BRANCH   4   5
ATOM      5  C   UNL     1      12.953 -26.377  25.754  1.00  0.00     0.011 C 
ATOM      6  C   UNL     1      12.833 -26.843  27.214  1.00  0.00     0.012 C 
BRANCH   5   7
ATOM      7  C   UNL     1      12.007 -25.177  25.446  1.00  0.00    -0.011 C 
ATOM      8  C   UNL     1      11.682 -25.090  23.946  1.00  0.00     0.008 C 
ATOM      9  C   UNL     1      12.529 -23.823  25.960  1.00  0.00     0.008 C 
ENDBRANCH   5   7
ENDBRANCH   4   5
ENDBRANCH   1   3
BRANCH   1  10
ATOM     10  C   UNL     1      16.996 -25.124  24.797  1.00  0.00     0.002 C 
ATOM     11  C   UNL     1      18.361 -25.440  25.413  1.00  0.00     0.005 C 
ATOM     12  C   UNL     1      17.116 -23.690  24.205  1.00  0.00    -0.023 C 
ATOM     13  C   UNL     1      19.009 -24.094  25.723  1.00  0.00     0.009 C 
ATOM     14  C   UNL     1      18.053 -22.985  25.231  1.00  0.00     0.021 C 
ATOM     15  C   UNL     1      17.802 -23.683  22.800  1.00  0.00     0.008 C 
ATOM     16  C   UNL     1      15.699 -23.038  24.135  1.00  0.00     0.012 C 
ATOM     17  C   UNL     1      18.785 -21.776  24.650  1.00  0.00    -0.063 C 
ATOM     18  C   UNL     1      18.251 -22.283  22.293  1.00  0.00     0.009 C 
ATOM     19  C   UNL     1      18.247 -21.170  23.376  1.00  0.00     0.025 C 
ATOM     20  C   UNL     1      19.947 -21.361  25.172  1.00  0.00    -0.000 C 
ATOM     21  C   UNL     1      18.907 -19.780  22.966  1.00  0.00    -0.005 C 
ATOM     22  C   UNL     1      20.774 -20.349  24.516  1.00  0.00    -0.000 C 
ATOM     23  C   UNL     1      20.344 -19.643  23.460  1.00  0.00    -0.061 C 
ATOM     24  C   UNL     1      18.123 -18.613  23.650  1.00  0.00     0.014 C 
ATOM     25  C   UNL     1      18.838 -19.586  21.423  1.00  0.00     0.017 C 
ATOM     26  C   UNL     1      21.050 -18.343  23.159  1.00  0.00     0.063 C 
ATOM     27  C   UNL     1      18.778 -17.222  23.463  1.00  0.00     0.033 C 
ATOM     28  C   UNL     1      20.277 -17.205  23.846  1.00  0.00     0.118 C 
BRANCH  28  29
ATOM     29  O   UNL     1      20.849 -15.978  23.482  1.00  0.00    -0.393 OA
ATOM     30  H   UNL     1      20.154 -15.475  22.983  1.00  0.00     0.210 HD
ENDBRANCH  28  29
ENDBRANCH   1  10
TORSDOF 5
ENDMDL
MODEL 8
REMARK VINA RESULT:    -6.398      1.572      2.956
REMARK INTER + INTRA:          -8.573
REMARK INTER:                  -8.387
REMARK INTRA:                  -0.186
REMARK UNBOUND:                -0.492
REMARK SMILES CC(C)[C@H](C)C=C[C@H](C)[C@H]1CC[C@H]2C3=CC=C4C[C@@H](O)CC[C@]4(C)[C@H]3CC[C@@]12C
REMARK SMILES IDX 8 1 9 2 7 3 6 4 4 5 5 6 2 7 1 8 3 9 10 10 11 11 28 12 12 13
REMARK SMILES IDX 13 14 27 15 29 16 14 17 26 18 25 19 15 20 23 21 16 22 17 23
REMARK SMILES IDX 22 24 24 25 18 26 21 27 19 28 20 29
REMARK H PARENT 20 30
REMARK Flexibility Score: inf
ROOT
ATOM      1  C   UNL     1      11.647 -14.755  26.498  1.00  0.00     0.012 C 
ATOM      2  C   UNL     1      12.015 -16.219  26.191  1.00  0.00     0.012 C 
ENDROOT
BRANCH   1   3
ATOM      3  C   UNL     1      11.870 -14.469  27.969  1.00  0.00    -0.028 C 
ATOM      4  C   UNL     1      11.971 -15.444  28.888  1.00  0.00    -0.028 C 
BRANCH   4   5
ATOM      5  C   UNL     1      12.244 -15.130  30.346  1.00  0.00     0.011 C 
ATOM      6  C   UNL     1      11.034 -15.517  31.211  1.00  0.00     0.012 C 
BRANCH   5   7
ATOM      7  C   UNL     1      13.565 -15.767  30.873  1.00  0.00    -0.011 C 
ATOM      8  C   UNL     1      14.583 -15.966  29.738  1.00  0.00     0.008 C 
ATOM      9  C   UNL     1      13.359 -17.083  31.644  1.00  0.00     0.008 C 
ENDBRANCH   5   7
ENDBRANCH   4   5
ENDBRANCH   1   3
BRANCH   1  10
ATOM     10  C   UNL     1      12.329 -13.656  25.598  1.00  0.00     0.002 C 
ATOM     11  C   UNL     1      11.739 -12.245  25.670  1.00  0.00     0.005 C 
ATOM     12  C   UNL     1      13.868 -13.485  25.753  1.00  0.00    -0.023 C 
ATOM     13  C   UNL     1      12.861 -11.295  25.260  1.00  0.00     0.009 C 
ATOM     14  C   UNL     1      14.128 -12.141  25.009  1.00  0.00     0.021 C 
ATOM     15  C   UNL     1      14.301 -13.331  27.248  1.00  0.00     0.008 C 
ATOM     16  C   UNL     1      14.594 -14.695  25.085  1.00  0.00     0.012 C 
ATOM     17  C   UNL     1      15.413 -11.443  25.452  1.00  0.00    -0.063 C 
ATOM     18  C   UNL     1      15.759 -12.834  27.463  1.00  0.00     0.009 C 
ATOM     19  C   UNL     1      16.443 -12.263  26.192  1.00  0.00     0.025 C 
ATOM     20  C   UNL     1      15.556 -10.118  25.320  1.00  0.00    -0.000 C 
ATOM     21  C   UNL     1      17.845 -11.540  26.406  1.00  0.00    -0.005 C 
ATOM     22  C   UNL     1      16.674  -9.394  25.923  1.00  0.00    -0.000 C 
ATOM     23  C   UNL     1      17.718 -10.022  26.484  1.00  0.00    -0.061 C 
ATOM     24  C   UNL     1      18.763 -11.814  25.171  1.00  0.00     0.014 C 
ATOM     25  C   UNL     1      18.549 -12.095  27.679  1.00  0.00     0.017 C 
ATOM     26  C   UNL     1      18.996  -9.235  26.646  1.00  0.00     0.063 C 
ATOM     27  C   UNL     1      20.092 -11.019  25.187  1.00  0.00     0.033 C 
ATOM     28  C   UNL     1      19.885  -9.504  25.420  1.00  0.00     0.118 C 
BRANCH  28  29
ATOM     29  O   UNL     1      21.125  -8.875  25.607  1.00  0.00    -0.393 OA
ATOM     30  H   UNL     1      21.146  -8.096  24.993  1.00  0.00     0.210 HD
ENDBRANCH  28  29
ENDBRANCH   1  10
TORSDOF 5
ENDMDL
MODEL 9
REMARK VINA RESULT:    -6.308      3.924      5.988
REMARK INTER + INTRA:          -8.459
REMARK INTER:                  -7.737
REMARK INTRA:                  -0.722
REMARK UNBOUND:                -0.492
REMARK SMILES CC(C)[C@H](C)C=C[C@H](C)[C@H]1CC[C@H]2C3=CC=C4C[C@@H](O)CC[C@]4(C)[C@H]3CC[C@@]12C
REMARK SMILES IDX 8 1 9 2 7 3 6 4 4 5 5 6 2 7 1 8 3 9 10 10 11 11 28 12 12 13
REMARK SMILES IDX 13 14 27 15 29 16 14 17 26 18 25 19 15 20 23 21 16 22 17 23
REMARK SMILES IDX 22 24 24 25 18 26 21 27 19 28 20 29
REMARK H PARENT 20 30
REMARK Flexibility Score: inf
ROOT
ATOM      1  C   UNL     1      15.507 -12.185  27.013  1.00  0.00     0.012 C 
ATOM      2  C   UNL     1      15.718 -10.673  27.220  1.00  0.00     0.012 C 
ENDROOT
BRANCH   1   3
ATOM      3  C   UNL     1      14.129 -12.581  27.505  1.00  0.00    -0.028 C 
ATOM      4  C   UNL     1      13.944 -13.384  28.566  1.00  0.00    -0.028 C 
BRANCH   4   5
ATOM      5  C   UNL     1      12.553 -13.723  29.065  1.00  0.00     0.011 C 
ATOM      6  C   UNL     1      11.549 -13.701  27.902  1.00  0.00     0.012 C 
BRANCH   5   7
ATOM      7  C   UNL     1      12.497 -15.064  29.858  1.00  0.00    -0.011 C 
ATOM      8  C   UNL     1      11.171 -15.210  30.621  1.00  0.00     0.008 C 
ATOM      9  C   UNL     1      13.689 -15.277  30.809  1.00  0.00     0.008 C 
ENDBRANCH   5   7
ENDBRANCH   4   5
ENDBRANCH   1   3
BRANCH   1  10
ATOM     10  C   UNL     1      15.770 -12.738  25.562  1.00  0.00     0.002 C 
ATOM     11  C   UNL     1      16.656 -11.884  24.651  1.00  0.00     0.005 C 
ATOM     12  C   UNL     1      16.323 -14.189  25.457  1.00  0.00    -0.023 C 
ATOM     13  C   UNL     1      17.255 -12.839  23.623  1.00  0.00     0.009 C 
ATOM     14  C   UNL     1      16.773 -14.265  23.968  1.00  0.00     0.021 C 
ATOM     15  C   UNL     1      17.567 -14.418  26.377  1.00  0.00     0.008 C 
ATOM     16  C   UNL     1      15.186 -15.203  25.798  1.00  0.00     0.012 C 
ATOM     17  C   UNL     1      17.832 -15.336  23.710  1.00  0.00    -0.063 C 
ATOM     18  C   UNL     1      18.367 -15.720  26.090  1.00  0.00     0.009 C 
ATOM     19  C   UNL     1      18.011 -16.417  24.749  1.00  0.00     0.025 C 
ATOM     20  C   UNL     1      18.673 -15.235  22.672  1.00  0.00    -0.000 C 
ATOM     21  C   UNL     1      18.952 -17.622  24.305  1.00  0.00    -0.005 C 
ATOM     22  C   UNL     1      19.826 -16.120  22.518  1.00  0.00    -0.000 C 
ATOM     23  C   UNL     1      20.014 -17.197  23.294  1.00  0.00    -0.061 C 
ATOM     24  C   UNL     1      18.096 -18.705  23.572  1.00  0.00     0.014 C 
ATOM     25  C   UNL     1      19.615 -18.275  25.552  1.00  0.00     0.017 C 
ATOM     26  C   UNL     1      20.935 -18.275  22.776  1.00  0.00     0.063 C 
ATOM     27  C   UNL     1      18.932 -19.847  22.942  1.00  0.00     0.033 C 
ATOM     28  C   UNL     1      20.083 -19.328  22.048  1.00  0.00     0.118 C 
BRANCH  28  29
ATOM     29  O   UNL     1      20.906 -20.395  21.661  1.00  0.00    -0.393 OA
ATOM     30  H   UNL     1      21.366 -20.714  22.482  1.00  0.00     0.210 HD
ENDBRANCH  28  29
ENDBRANCH   1  10
TORSDOF 5
ENDMDL
