MODEL 1
REMARK VINA RESULT:    21.462      0.000      0.000
REMARK INTER + INTRA:          48.155
REMARK INTER:                  49.065
REMARK INTRA:                  -0.910
REMARK UNBOUND:                -0.910
REMARK SMILES CCCCCCCCCCCCCCCCCCCCCCCC(=O)[O-]
REMARK SMILES IDX 13 1 14 2 15 3 16 4 17 5 18 6 19 7 20 8 21 9 22 10 23 11
REMARK SMILES IDX 24 12 25 13 26 14 12 15 11 16 10 17 9 18 8 19 7 20 6 21 5 22
REMARK SMILES IDX 4 23 3 24 2 25 1 26
REMARK H PARENT
REMARK Flexibility Score: inf
ROOT
ATOM      1  C   UNL     1       3.423  45.267  16.316  1.00  0.00     0.000 C 
ENDROOT
BRANCH   1   2
ATOM      2  C   UNL     1       3.289  46.786  16.113  1.00  0.00     0.000 C 
BRANCH   2   3
ATOM      3  C   UNL     1       2.734  47.153  14.729  1.00  0.00     0.000 C 
BRANCH   3   4
ATOM      4  C   UNL     1       3.840  47.652  13.781  1.00  0.00     0.000 C 
BRANCH   4   5
ATOM      5  C   UNL     1       3.492  47.460  12.290  1.00  0.00     0.000 C 
BRANCH   5   6
ATOM      6  C   UNL     1       4.324  48.355  11.353  1.00  0.00     0.000 C 
BRANCH   6   7
ATOM      7  C   UNL     1       3.789  48.333   9.907  1.00  0.00     0.000 C 
BRANCH   7   8
ATOM      8  C   UNL     1       4.786  48.924   8.899  1.00  0.00     0.000 C 
BRANCH   8   9
ATOM      9  C   UNL     1       5.677  50.011   9.516  1.00  0.00     0.000 C 
BRANCH   9  10
ATOM     10  C   UNL     1       7.123  49.517   9.645  1.00  0.00     0.006 C 
BRANCH  10  11
ATOM     11  C   UNL     1       7.502  49.274  11.108  1.00  0.00     0.053 C 
BRANCH  11  12
ATOM     12  C   UNL     1       7.940  47.856  11.306  1.00  0.00     0.041 C 
ATOM     13  O   UNL     1       8.992  47.603  11.953  1.00  0.00    -0.550 OA
ATOM     14  O   UNL     1       7.227  46.819  10.722  1.00  0.00    -0.550 OA
ENDBRANCH  11  12
ENDBRANCH  10  11
ENDBRANCH   9  10
ENDBRANCH   8   9
ENDBRANCH   7   8
ENDBRANCH   6   7
ENDBRANCH   5   6
ENDBRANCH   4   5
ENDBRANCH   3   4
ENDBRANCH   2   3
ENDBRANCH   1   2
BRANCH   1  15
ATOM     15  C   UNL     1       2.663  44.708  17.535  1.00  0.00     0.000 C 
BRANCH  15  16
ATOM     16  C   UNL     1       2.855  45.492  18.850  1.00  0.00     0.000 C 
BRANCH  16  17
ATOM     17  C   UNL     1       2.084  44.936  20.064  1.00  0.00     0.000 C 
BRANCH  17  18
ATOM     18  C   UNL     1       2.969  44.111  21.014  1.00  0.00    -0.000 C 
BRANCH  18  19
ATOM     19  C   UNL     1       2.203  42.991  21.746  1.00  0.00    -0.000 C 
BRANCH  19  20
ATOM     20  C   UNL     1       3.075  41.808  22.210  1.00  0.00    -0.000 C 
BRANCH  20  21
ATOM     21  C   UNL     1       4.113  42.191  23.282  1.00  0.00    -0.000 C 
BRANCH  21  22
ATOM     22  C   UNL     1       5.541  41.718  22.923  1.00  0.00    -0.000 C 
BRANCH  22  23
ATOM     23  C   UNL     1       6.611  42.815  23.057  1.00  0.00    -0.000 C 
BRANCH  23  24
ATOM     24  C   UNL     1       8.034  42.254  23.168  1.00  0.00    -0.000 C 
BRANCH  24  25
ATOM     25  C   UNL     1       8.648  42.027  21.782  1.00  0.00    -0.003 C 
ATOM     26  C   UNL     1       9.088  43.346  21.153  1.00  0.00     0.004 C 
ENDBRANCH  24  25
ENDBRANCH  23  24
ENDBRANCH  22  23
ENDBRANCH  21  22
ENDBRANCH  20  21
ENDBRANCH  19  20
ENDBRANCH  18  19
ENDBRANCH  17  18
ENDBRANCH  16  17
ENDBRANCH  15  16
ENDBRANCH   1  15
TORSDOF 22
ENDMDL
MODEL 2
REMARK VINA RESULT:    21.712      0.902      1.862
REMARK INTER + INTRA:          48.726
REMARK INTER:                  49.757
REMARK INTRA:                  -1.031
REMARK UNBOUND:                -0.910
REMARK SMILES CCCCCCCCCCCCCCCCCCCCCCCC(=O)[O-]
REMARK SMILES IDX 13 1 14 2 15 3 16 4 17 5 18 6 19 7 20 8 21 9 22 10 23 11
REMARK SMILES IDX 24 12 25 13 26 14 12 15 11 16 10 17 9 18 8 19 7 20 6 21 5 22
REMARK SMILES IDX 4 23 3 24 2 25 1 26
REMARK H PARENT
REMARK Flexibility Score: inf
ROOT
ATOM      1  C   UNL     1       2.697  46.348  18.192  1.00  0.00     0.000 C 
ENDROOT
BRANCH   1   2
ATOM      2  C   UNL     1       3.102  45.198  17.253  1.00  0.00     0.000 C 
BRANCH   2   3
ATOM      3  C   UNL     1       3.666  45.696  15.914  1.00  0.00     0.000 C 
BRANCH   3   4
ATOM      4  C   UNL     1       2.764  46.768  15.274  1.00  0.00     0.000 C 
BRANCH   4   5
ATOM      5  C   UNL     1       3.534  48.043  14.867  1.00  0.00     0.000 C 
BRANCH   5   6
ATOM      6  C   UNL     1       4.544  47.804  13.730  1.00  0.00     0.000 C 
BRANCH   6   7
ATOM      7  C   UNL     1       3.866  47.800  12.346  1.00  0.00     0.000 C 
BRANCH   7   8
ATOM      8  C   UNL     1       4.613  48.663  11.319  1.00  0.00     0.000 C 
BRANCH   8   9
ATOM      9  C   UNL     1       4.768  47.965   9.960  1.00  0.00     0.000 C 
BRANCH   9  10
ATOM     10  C   UNL     1       5.841  48.662   9.114  1.00  0.00     0.006 C 
BRANCH  10  11
ATOM     11  C   UNL     1       6.993  49.172   9.984  1.00  0.00     0.053 C 
BRANCH  11  12
ATOM     12  C   UNL     1       7.998  48.086  10.210  1.00  0.00     0.041 C 
ATOM     13  O   UNL     1       8.443  47.422   9.235  1.00  0.00    -0.550 OA
ATOM     14  O   UNL     1       8.393  47.760  11.500  1.00  0.00    -0.550 OA
ENDBRANCH  11  12
ENDBRANCH  10  11
ENDBRANCH   9  10
ENDBRANCH   8   9
ENDBRANCH   7   8
ENDBRANCH   6   7
ENDBRANCH   5   6
ENDBRANCH   4   5
ENDBRANCH   3   4
ENDBRANCH   2   3
ENDBRANCH   1   2
BRANCH   1  15
ATOM     15  C   UNL     1       2.064  45.902  19.525  1.00  0.00     0.000 C 
BRANCH  15  16
ATOM     16  C   UNL     1       2.155  44.392  19.827  1.00  0.00     0.000 C 
BRANCH  16  17
ATOM     17  C   UNL     1       1.745  43.983  21.256  1.00  0.00     0.000 C 
BRANCH  17  18
ATOM     18  C   UNL     1       2.927  43.478  22.101  1.00  0.00    -0.000 C 
BRANCH  18  19
ATOM     19  C   UNL     1       2.888  41.959  22.361  1.00  0.00    -0.000 C 
BRANCH  19  20
ATOM     20  C   UNL     1       3.895  41.458  23.413  1.00  0.00    -0.000 C 
BRANCH  20  21
ATOM     21  C   UNL     1       5.358  41.488  22.931  1.00  0.00    -0.000 C 
BRANCH  21  22
ATOM     22  C   UNL     1       6.104  42.768  23.374  1.00  0.00    -0.000 C 
BRANCH  22  23
ATOM     23  C   UNL     1       7.637  42.642  23.325  1.00  0.00    -0.000 C 
BRANCH  23  24
ATOM     24  C   UNL     1       8.167  42.308  21.925  1.00  0.00    -0.000 C 
BRANCH  24  25
ATOM     25  C   UNL     1       9.548  42.932  21.695  1.00  0.00    -0.003 C 
ATOM     26  C   UNL     1       9.769  43.248  20.217  1.00  0.00     0.004 C 
ENDBRANCH  24  25
ENDBRANCH  23  24
ENDBRANCH  22  23
ENDBRANCH  21  22
ENDBRANCH  20  21
ENDBRANCH  19  20
ENDBRANCH  18  19
ENDBRANCH  17  18
ENDBRANCH  16  17
ENDBRANCH  15  16
ENDBRANCH   1  15
TORSDOF 22
ENDMDL
MODEL 3
REMARK VINA RESULT:    21.865      2.041      2.792
REMARK INTER + INTRA:          49.075
REMARK INTER:                  49.541
REMARK INTRA:                  -0.466
REMARK UNBOUND:                -0.910
REMARK SMILES CCCCCCCCCCCCCCCCCCCCCCCC(=O)[O-]
REMARK SMILES IDX 13 1 14 2 15 3 16 4 17 5 18 6 19 7 20 8 21 9 22 10 23 11
REMARK SMILES IDX 24 12 25 13 26 14 12 15 11 16 10 17 9 18 8 19 7 20 6 21 5 22
REMARK SMILES IDX 4 23 3 24 2 25 1 26
REMARK H PARENT
REMARK Flexibility Score: inf
ROOT
ATOM      1  C   UNL     1       3.069  45.149  16.390  1.00  0.00     0.000 C 
ENDROOT
BRANCH   1   2
ATOM      2  C   UNL     1       3.741  46.318  15.648  1.00  0.00     0.000 C 
BRANCH   2   3
ATOM      3  C   UNL     1       2.732  47.207  14.904  1.00  0.00     0.000 C 
BRANCH   3   4
ATOM      4  C   UNL     1       3.039  47.287  13.397  1.00  0.00     0.000 C 
BRANCH   4   5
ATOM      5  C   UNL     1       4.370  48.003  13.088  1.00  0.00     0.000 C 
BRANCH   5   6
ATOM      6  C   UNL     1       4.776  47.914  11.605  1.00  0.00     0.000 C 
BRANCH   6   7
ATOM      7  C   UNL     1       3.725  48.557  10.678  1.00  0.00     0.000 C 
BRANCH   7   8
ATOM      8  C   UNL     1       4.358  49.277   9.478  1.00  0.00     0.000 C 
BRANCH   8   9
ATOM      9  C   UNL     1       5.564  48.522   8.903  1.00  0.00     0.000 C 
BRANCH   9  10
ATOM     10  C   UNL     1       6.838  49.369   9.020  1.00  0.00     0.006 C 
BRANCH  10  11
ATOM     11  C   UNL     1       8.075  48.492   9.229  1.00  0.00     0.053 C 
BRANCH  11  12
ATOM     12  C   UNL     1       7.883  47.590  10.409  1.00  0.00     0.041 C 
ATOM     13  O   UNL     1       7.143  46.574  10.315  1.00  0.00    -0.550 OA
ATOM     14  O   UNL     1       8.465  47.906  11.628  1.00  0.00    -0.550 OA
ENDBRANCH  11  12
ENDBRANCH  10  11
ENDBRANCH   9  10
ENDBRANCH   8   9
ENDBRANCH   7   8
ENDBRANCH   6   7
ENDBRANCH   5   6
ENDBRANCH   4   5
ENDBRANCH   3   4
ENDBRANCH   2   3
ENDBRANCH   1   2
BRANCH   1  15
ATOM     15  C   UNL     1       3.519  44.968  17.853  1.00  0.00     0.000 C 
BRANCH  15  16
ATOM     16  C   UNL     1       2.381  44.922  18.894  1.00  0.00     0.000 C 
BRANCH  16  17
ATOM     17  C   UNL     1       2.321  46.129  19.851  1.00  0.00     0.000 C 
BRANCH  17  18
ATOM     18  C   UNL     1       3.602  46.981  19.829  1.00  0.00    -0.000 C 
BRANCH  18  19
ATOM     19  C   UNL     1       4.624  46.579  20.912  1.00  0.00    -0.000 C 
BRANCH  19  20
ATOM     20  C   UNL     1       6.089  46.907  20.570  1.00  0.00    -0.000 C 
BRANCH  20  21
ATOM     21  C   UNL     1       7.014  45.675  20.576  1.00  0.00    -0.000 C 
BRANCH  21  22
ATOM     22  C   UNL     1       8.266  45.866  19.688  1.00  0.00    -0.000 C 
BRANCH  22  23
ATOM     23  C   UNL     1       9.593  45.600  20.419  1.00  0.00    -0.000 C 
BRANCH  23  24
ATOM     24  C   UNL     1      10.159  44.201  20.144  1.00  0.00    -0.000 C 
BRANCH  24  25
ATOM     25  C   UNL     1       9.189  43.112  20.616  1.00  0.00    -0.003 C 
ATOM     26  C   UNL     1       9.312  42.880  22.120  1.00  0.00     0.004 C 
ENDBRANCH  24  25
ENDBRANCH  23  24
ENDBRANCH  22  23
ENDBRANCH  21  22
ENDBRANCH  20  21
ENDBRANCH  19  20
ENDBRANCH  18  19
ENDBRANCH  17  18
ENDBRANCH  16  17
ENDBRANCH  15  16
ENDBRANCH   1  15
TORSDOF 22
ENDMDL
MODEL 4
REMARK VINA RESULT:    22.889      2.942     11.637
REMARK INTER + INTRA:          51.417
REMARK INTER:                  52.577
REMARK INTRA:                  -1.160
REMARK UNBOUND:                -0.910
REMARK SMILES CCCCCCCCCCCCCCCCCCCCCCCC(=O)[O-]
REMARK SMILES IDX 13 1 14 2 15 3 16 4 17 5 18 6 19 7 20 8 21 9 22 10 23 11
REMARK SMILES IDX 24 12 25 13 26 14 12 15 11 16 10 17 9 18 8 19 7 20 6 21 5 22
REMARK SMILES IDX 4 23 3 24 2 25 1 26
REMARK H PARENT
REMARK Flexibility Score: inf
ROOT
ATOM      1  C   UNL     1       2.891  45.474  18.504  1.00  0.00     0.000 C 
ENDROOT
BRANCH   1   2
ATOM      2  C   UNL     1       1.804  45.134  19.538  1.00  0.00     0.000 C 
BRANCH   2   3
ATOM      3  C   UNL     1       2.360  45.003  20.964  1.00  0.00     0.000 C 
BRANCH   3   4
ATOM      4  C   UNL     1       1.957  43.668  21.617  1.00  0.00     0.000 C 
BRANCH   4   5
ATOM      5  C   UNL     1       3.122  42.658  21.700  1.00  0.00     0.000 C 
BRANCH   5   6
ATOM      6  C   UNL     1       2.941  41.616  22.818  1.00  0.00     0.000 C 
BRANCH   6   7
ATOM      7  C   UNL     1       4.144  41.588  23.782  1.00  0.00     0.000 C 
BRANCH   7   8
ATOM      8  C   UNL     1       5.328  42.426  23.275  1.00  0.00     0.000 C 
BRANCH   8   9
ATOM      9  C   UNL     1       6.420  41.570  22.619  1.00  0.00     0.000 C 
BRANCH   9  10
ATOM     10  C   UNL     1       7.803  42.194  22.845  1.00  0.00     0.006 C 
BRANCH  10  11
ATOM     11  C   UNL     1       8.719  41.973  21.638  1.00  0.00     0.053 C 
BRANCH  11  12
ATOM     12  C   UNL     1       9.592  43.170  21.418  1.00  0.00     0.041 C 
ATOM     13  O   UNL     1      10.129  43.750  22.401  1.00  0.00    -0.550 OA
ATOM     14  O   UNL     1       9.759  43.685  20.141  1.00  0.00    -0.550 OA
ENDBRANCH  11  12
ENDBRANCH  10  11
ENDBRANCH   9  10
ENDBRANCH   8   9
ENDBRANCH   7   8
ENDBRANCH   6   7
ENDBRANCH   5   6
ENDBRANCH   4   5
ENDBRANCH   3   4
ENDBRANCH   2   3
ENDBRANCH   1   2
BRANCH   1  15
ATOM     15  C   UNL     1       2.465  46.491  17.427  1.00  0.00     0.000 C 
BRANCH  15  16
ATOM     16  C   UNL     1       3.171  46.344  16.063  1.00  0.00     0.000 C 
BRANCH  16  17
ATOM     17  C   UNL     1       3.061  47.570  15.134  1.00  0.00     0.000 C 
BRANCH  17  18
ATOM     18  C   UNL     1       3.113  47.200  13.641  1.00  0.00    -0.000 C 
BRANCH  18  19
ATOM     19  C   UNL     1       4.226  47.935  12.867  1.00  0.00    -0.000 C 
BRANCH  19  20
ATOM     20  C   UNL     1       4.151  47.791  11.335  1.00  0.00    -0.000 C 
BRANCH  20  21
ATOM     21  C   UNL     1       4.258  49.132  10.584  1.00  0.00    -0.000 C 
BRANCH  21  22
ATOM     22  C   UNL     1       4.808  48.967   9.148  1.00  0.00    -0.000 C 
BRANCH  22  23
ATOM     23  C   UNL     1       6.138  48.197   9.077  1.00  0.00    -0.000 C 
BRANCH  23  24
ATOM     24  C   UNL     1       7.360  49.119   8.977  1.00  0.00    -0.000 C 
BRANCH  24  25
ATOM     25  C   UNL     1       8.152  49.128  10.289  1.00  0.00    -0.003 C 
ATOM     26  C   UNL     1       7.839  47.892  11.129  1.00  0.00     0.004 C 
ENDBRANCH  24  25
ENDBRANCH  23  24
ENDBRANCH  22  23
ENDBRANCH  21  22
ENDBRANCH  20  21
ENDBRANCH  19  20
ENDBRANCH  18  19
ENDBRANCH  17  18
ENDBRANCH  16  17
ENDBRANCH  15  16
ENDBRANCH   1  15
TORSDOF 22
ENDMDL
MODEL 5
REMARK VINA RESULT:    22.941      1.301      2.448
REMARK INTER + INTRA:          51.536
REMARK INTER:                  51.491
REMARK INTRA:                   0.045
REMARK UNBOUND:                -0.910
REMARK SMILES CCCCCCCCCCCCCCCCCCCCCCCC(=O)[O-]
REMARK SMILES IDX 13 1 14 2 15 3 16 4 17 5 18 6 19 7 20 8 21 9 22 10 23 11
REMARK SMILES IDX 24 12 25 13 26 14 12 15 11 16 10 17 9 18 8 19 7 20 6 21 5 22
REMARK SMILES IDX 4 23 3 24 2 25 1 26
REMARK H PARENT
REMARK Flexibility Score: inf
ROOT
ATOM      1  C   UNL     1       3.041  44.909  16.816  1.00  0.00     0.000 C 
ENDROOT
BRANCH   1   2
ATOM      2  C   UNL     1       3.871  45.907  15.990  1.00  0.00     0.000 C 
BRANCH   2   3
ATOM      3  C   UNL     1       3.007  46.988  15.323  1.00  0.00     0.000 C 
BRANCH   3   4
ATOM      4  C   UNL     1       3.827  47.861  14.355  1.00  0.00     0.000 C 
BRANCH   4   5
ATOM      5  C   UNL     1       3.590  47.508  12.871  1.00  0.00     0.000 C 
BRANCH   5   6
ATOM      6  C   UNL     1       4.527  48.264  11.911  1.00  0.00     0.000 C 
BRANCH   6   7
ATOM      7  C   UNL     1       3.830  48.615  10.581  1.00  0.00     0.000 C 
BRANCH   7   8
ATOM      8  C   UNL     1       4.755  48.444   9.367  1.00  0.00     0.000 C 
BRANCH   8   9
ATOM      9  C   UNL     1       5.439  49.754   8.954  1.00  0.00     0.000 C 
BRANCH   9  10
ATOM     10  C   UNL     1       6.962  49.576   8.906  1.00  0.00     0.006 C 
BRANCH  10  11
ATOM     11  C   UNL     1       7.553  49.435  10.311  1.00  0.00     0.053 C 
BRANCH  11  12
ATOM     12  C   UNL     1       7.906  48.007  10.589  1.00  0.00     0.041 C 
ATOM     13  O   UNL     1       8.516  47.701  11.649  1.00  0.00    -0.550 OA
ATOM     14  O   UNL     1       7.625  47.025   9.650  1.00  0.00    -0.550 OA
ENDBRANCH  11  12
ENDBRANCH  10  11
ENDBRANCH   9  10
ENDBRANCH   8   9
ENDBRANCH   7   8
ENDBRANCH   6   7
ENDBRANCH   5   6
ENDBRANCH   4   5
ENDBRANCH   3   4
ENDBRANCH   2   3
ENDBRANCH   1   2
BRANCH   1  15
ATOM     15  C   UNL     1       3.191  45.052  18.344  1.00  0.00     0.000 C 
BRANCH  15  16
ATOM     16  C   UNL     1       1.892  45.387  19.107  1.00  0.00     0.000 C 
BRANCH  16  17
ATOM     17  C   UNL     1       1.850  46.790  19.743  1.00  0.00     0.000 C 
BRANCH  17  18
ATOM     18  C   UNL     1       3.177  47.189  20.411  1.00  0.00    -0.000 C 
BRANCH  18  19
ATOM     19  C   UNL     1       4.207  46.042  20.462  1.00  0.00    -0.000 C 
BRANCH  19  20
ATOM     20  C   UNL     1       5.387  46.275  21.425  1.00  0.00    -0.000 C 
BRANCH  20  21
ATOM     21  C   UNL     1       6.178  44.995  21.751  1.00  0.00    -0.000 C 
BRANCH  21  22
ATOM     22  C   UNL     1       5.769  44.370  23.105  1.00  0.00    -0.000 C 
BRANCH  22  23
ATOM     23  C   UNL     1       6.460  43.029  23.405  1.00  0.00    -0.000 C 
BRANCH  23  24
ATOM     24  C   UNL     1       5.627  41.815  22.971  1.00  0.00    -0.000 C 
BRANCH  24  25
ATOM     25  C   UNL     1       4.192  41.912  23.501  1.00  0.00    -0.003 C 
ATOM     26  C   UNL     1       3.200  41.300  22.516  1.00  0.00     0.004 C 
ENDBRANCH  24  25
ENDBRANCH  23  24
ENDBRANCH  22  23
ENDBRANCH  21  22
ENDBRANCH  20  21
ENDBRANCH  19  20
ENDBRANCH  18  19
ENDBRANCH  17  18
ENDBRANCH  16  17
ENDBRANCH  15  16
ENDBRANCH   1  15
TORSDOF 22
ENDMDL
MODEL 6
REMARK VINA RESULT:    23.134      3.238     10.421
REMARK INTER + INTRA:          51.978
REMARK INTER:                  53.149
REMARK INTRA:                  -1.171
REMARK UNBOUND:                -0.910
REMARK SMILES CCCCCCCCCCCCCCCCCCCCCCCC(=O)[O-]
REMARK SMILES IDX 13 1 14 2 15 3 16 4 17 5 18 6 19 7 20 8 21 9 22 10 23 11
REMARK SMILES IDX 24 12 25 13 26 14 12 15 11 16 10 17 9 18 8 19 7 20 6 21 5 22
REMARK SMILES IDX 4 23 3 24 2 25 1 26
REMARK H PARENT
REMARK Flexibility Score: inf
ROOT
ATOM      1  C   UNL     1       3.145  45.845  19.856  1.00  0.00     0.000 C 
ENDROOT
BRANCH   1   2
ATOM      2  C   UNL     1       4.107  47.045  19.893  1.00  0.00     0.000 C 
BRANCH   2   3
ATOM      3  C   UNL     1       5.191  46.904  20.972  1.00  0.00     0.000 C 
BRANCH   3   4
ATOM      4  C   UNL     1       6.181  45.769  20.646  1.00  0.00     0.000 C 
BRANCH   4   5
ATOM      5  C   UNL     1       7.323  46.213  19.708  1.00  0.00     0.000 C 
BRANCH   5   6
ATOM      6  C   UNL     1       8.722  46.004  20.316  1.00  0.00     0.000 C 
BRANCH   6   7
ATOM      7  C   UNL     1       9.385  44.708  19.808  1.00  0.00     0.000 C 
BRANCH   7   8
ATOM      8  C   UNL     1       9.316  43.567  20.834  1.00  0.00     0.000 C 
BRANCH   8   9
ATOM      9  C   UNL     1       9.116  42.194  20.178  1.00  0.00     0.000 C 
BRANCH   9  10
ATOM     10  C   UNL     1       9.996  42.059  18.928  1.00  0.00     0.006 C 
BRANCH  10  11
ATOM     11  C   UNL     1       9.690  40.766  18.167  1.00  0.00     0.053 C 
BRANCH  11  12
ATOM     12  C   UNL     1      10.616  40.616  17.000  1.00  0.00     0.041 C 
ATOM     13  O   UNL     1      10.893  41.612  16.279  1.00  0.00    -0.550 OA
ATOM     14  O   UNL     1      11.120  39.366  16.668  1.00  0.00    -0.550 OA
ENDBRANCH  11  12
ENDBRANCH  10  11
ENDBRANCH   9  10
ENDBRANCH   8   9
ENDBRANCH   7   8
ENDBRANCH   6   7
ENDBRANCH   5   6
ENDBRANCH   4   5
ENDBRANCH   3   4
ENDBRANCH   2   3
ENDBRANCH   1   2
BRANCH   1  15
ATOM     15  C   UNL     1       2.383  45.668  18.528  1.00  0.00     0.000 C 
BRANCH  15  16
ATOM     16  C   UNL     1       3.222  45.878  17.251  1.00  0.00     0.000 C 
BRANCH  16  17
ATOM     17  C   UNL     1       2.936  47.187  16.487  1.00  0.00     0.000 C 
BRANCH  17  18
ATOM     18  C   UNL     1       2.737  46.972  14.976  1.00  0.00    -0.000 C 
BRANCH  18  19
ATOM     19  C   UNL     1       3.853  47.599  14.117  1.00  0.00    -0.000 C 
BRANCH  19  20
ATOM     20  C   UNL     1       3.640  47.483  12.596  1.00  0.00    -0.000 C 
BRANCH  20  21
ATOM     21  C   UNL     1       4.668  48.275  11.766  1.00  0.00    -0.000 C 
BRANCH  21  22
ATOM     22  C   UNL     1       4.121  48.690  10.380  1.00  0.00    -0.000 C 
BRANCH  22  23
ATOM     23  C   UNL     1       5.218  49.025   9.354  1.00  0.00    -0.000 C 
BRANCH  23  24
ATOM     24  C   UNL     1       6.603  49.195   9.992  1.00  0.00    -0.000 C 
BRANCH  24  25
ATOM     25  C   UNL     1       7.684  48.499   9.157  1.00  0.00    -0.003 C 
ATOM     26  C   UNL     1       7.582  46.981   9.284  1.00  0.00     0.004 C 
ENDBRANCH  24  25
ENDBRANCH  23  24
ENDBRANCH  22  23
ENDBRANCH  21  22
ENDBRANCH  20  21
ENDBRANCH  19  20
ENDBRANCH  18  19
ENDBRANCH  17  18
ENDBRANCH  16  17
ENDBRANCH  15  16
ENDBRANCH   1  15
TORSDOF 22
ENDMDL
MODEL 7
REMARK VINA RESULT:    23.206      2.277      3.039
REMARK INTER + INTRA:          52.141
REMARK INTER:                  52.976
REMARK INTRA:                  -0.835
REMARK UNBOUND:                -0.910
REMARK SMILES CCCCCCCCCCCCCCCCCCCCCCCC(=O)[O-]
REMARK SMILES IDX 13 1 14 2 15 3 16 4 17 5 18 6 19 7 20 8 21 9 22 10 23 11
REMARK SMILES IDX 24 12 25 13 26 14 12 15 11 16 10 17 9 18 8 19 7 20 6 21 5 22
REMARK SMILES IDX 4 23 3 24 2 25 1 26
REMARK H PARENT
REMARK Flexibility Score: inf
ROOT
ATOM      1  C   UNL     1       3.215  45.466  16.087  1.00  0.00     0.000 C 
ENDROOT
BRANCH   1   2
ATOM      2  C   UNL     1       3.113  46.999  16.001  1.00  0.00     0.000 C 
BRANCH   2   3
ATOM      3  C   UNL     1       3.008  47.507  14.554  1.00  0.00     0.000 C 
BRANCH   3   4
ATOM      4  C   UNL     1       4.372  47.486  13.839  1.00  0.00     0.000 C 
BRANCH   4   5
ATOM      5  C   UNL     1       4.462  48.498  12.677  1.00  0.00     0.000 C 
BRANCH   5   6
ATOM      6  C   UNL     1       4.157  47.873  11.304  1.00  0.00     0.000 C 
BRANCH   6   7
ATOM      7  C   UNL     1       4.341  48.884  10.155  1.00  0.00     0.000 C 
BRANCH   7   8
ATOM      8  C   UNL     1       5.591  48.595   9.309  1.00  0.00     0.000 C 
BRANCH   8   9
ATOM      9  C   UNL     1       5.858  47.093   9.141  1.00  0.00     0.000 C 
BRANCH   9  10
ATOM     10  C   UNL     1       7.366  46.814   9.099  1.00  0.00     0.006 C 
BRANCH  10  11
ATOM     11  C   UNL     1       8.175  48.114   9.118  1.00  0.00     0.053 C 
BRANCH  11  12
ATOM     12  C   UNL     1       8.285  48.641  10.515  1.00  0.00     0.041 C 
ATOM     13  O   UNL     1       8.353  47.843  11.489  1.00  0.00    -0.550 OA
ATOM     14  O   UNL     1       8.244  50.008  10.748  1.00  0.00    -0.550 OA
ENDBRANCH  11  12
ENDBRANCH  10  11
ENDBRANCH   9  10
ENDBRANCH   8   9
ENDBRANCH   7   8
ENDBRANCH   6   7
ENDBRANCH   5   6
ENDBRANCH   4   5
ENDBRANCH   3   4
ENDBRANCH   2   3
ENDBRANCH   1   2
BRANCH   1  15
ATOM     15  C   UNL     1       3.198  44.896  17.519  1.00  0.00     0.000 C 
BRANCH  15  16
ATOM     16  C   UNL     1       2.859  45.911  18.630  1.00  0.00     0.000 C 
BRANCH  16  17
ATOM     17  C   UNL     1       3.525  45.637  19.993  1.00  0.00     0.000 C 
BRANCH  17  18
ATOM     18  C   UNL     1       4.403  46.803  20.481  1.00  0.00    -0.000 C 
BRANCH  18  19
ATOM     19  C   UNL     1       5.810  46.363  20.933  1.00  0.00    -0.000 C 
BRANCH  19  20
ATOM     20  C   UNL     1       6.641  45.648  19.851  1.00  0.00    -0.000 C 
BRANCH  20  21
ATOM     21  C   UNL     1       7.957  46.371  19.506  1.00  0.00    -0.000 C 
BRANCH  21  22
ATOM     22  C   UNL     1       9.199  45.655  20.085  1.00  0.00    -0.000 C 
BRANCH  22  23
ATOM     23  C   UNL     1       8.964  44.170  20.414  1.00  0.00    -0.000 C 
BRANCH  23  24
ATOM     24  C   UNL     1      10.259  43.347  20.426  1.00  0.00    -0.000 C 
BRANCH  24  25
ATOM     25  C   UNL     1      10.373  42.480  19.168  1.00  0.00    -0.003 C 
ATOM     26  C   UNL     1       9.166  41.555  19.026  1.00  0.00     0.004 C 
ENDBRANCH  24  25
ENDBRANCH  23  24
ENDBRANCH  22  23
ENDBRANCH  21  22
ENDBRANCH  20  21
ENDBRANCH  19  20
ENDBRANCH  18  19
ENDBRANCH  17  18
ENDBRANCH  16  17
ENDBRANCH  15  16
ENDBRANCH   1  15
TORSDOF 22
ENDMDL
MODEL 8
REMARK VINA RESULT:    23.374      3.753     10.762
REMARK INTER + INTRA:          52.525
REMARK INTER:                  52.891
REMARK INTRA:                  -0.366
REMARK UNBOUND:                -0.910
REMARK SMILES CCCCCCCCCCCCCCCCCCCCCCCC(=O)[O-]
REMARK SMILES IDX 13 1 14 2 15 3 16 4 17 5 18 6 19 7 20 8 21 9 22 10 23 11
REMARK SMILES IDX 24 12 25 13 26 14 12 15 11 16 10 17 9 18 8 19 7 20 6 21 5 22
REMARK SMILES IDX 4 23 3 24 2 25 1 26
REMARK H PARENT
REMARK Flexibility Score: inf
ROOT
ATOM      1  C   UNL     1       4.506  45.089  15.685  1.00  0.00     0.000 C 
ENDROOT
BRANCH   1   2
ATOM      2  C   UNL     1       5.300  44.792  16.969  1.00  0.00     0.000 C 
BRANCH   2   3
ATOM      3  C   UNL     1       6.813  44.697  16.722  1.00  0.00     0.000 C 
BRANCH   3   4
ATOM      4  C   UNL     1       7.614  45.531  17.739  1.00  0.00     0.000 C 
BRANCH   4   5
ATOM      5  C   UNL     1       8.094  44.708  18.954  1.00  0.00     0.000 C 
BRANCH   5   6
ATOM      6  C   UNL     1       9.173  45.426  19.784  1.00  0.00     0.000 C 
BRANCH   6   7
ATOM      7  C   UNL     1      10.075  44.432  20.542  1.00  0.00     0.000 C 
BRANCH   7   8
ATOM      8  C   UNL     1       9.594  42.979  20.413  1.00  0.00     0.000 C 
BRANCH   8   9
ATOM      9  C   UNL     1       9.599  42.482  18.961  1.00  0.00     0.000 C 
BRANCH   9  10
ATOM     10  C   UNL     1       9.563  40.949  18.915  1.00  0.00     0.006 C 
BRANCH  10  11
ATOM     11  C   UNL     1       9.379  40.437  17.484  1.00  0.00     0.053 C 
BRANCH  11  12
ATOM     12  C   UNL     1      10.692  40.410  16.765  1.00  0.00     0.041 C 
ATOM     13  O   UNL     1      11.487  39.446  16.936  1.00  0.00    -0.550 OA
ATOM     14  O   UNL     1      11.068  41.477  15.962  1.00  0.00    -0.550 OA
ENDBRANCH  11  12
ENDBRANCH  10  11
ENDBRANCH   9  10
ENDBRANCH   8   9
ENDBRANCH   7   8
ENDBRANCH   6   7
ENDBRANCH   5   6
ENDBRANCH   4   5
ENDBRANCH   3   4
ENDBRANCH   2   3
ENDBRANCH   1   2
BRANCH   1  15
ATOM     15  C   UNL     1       3.439  46.192  15.825  1.00  0.00     0.000 C 
BRANCH  15  16
ATOM     16  C   UNL     1       3.036  46.892  14.510  1.00  0.00     0.000 C 
BRANCH  16  17
ATOM     17  C   UNL     1       3.919  48.091  14.110  1.00  0.00     0.000 C 
BRANCH  17  18
ATOM     18  C   UNL     1       4.694  47.858  12.801  1.00  0.00    -0.000 C 
BRANCH  18  19
ATOM     19  C   UNL     1       3.780  47.637  11.579  1.00  0.00    -0.000 C 
BRANCH  19  20
ATOM     20  C   UNL     1       3.697  48.831  10.610  1.00  0.00    -0.000 C 
BRANCH  20  21
ATOM     21  C   UNL     1       4.993  49.070   9.812  1.00  0.00    -0.000 C 
BRANCH  21  22
ATOM     22  C   UNL     1       5.474  47.804   9.065  1.00  0.00    -0.000 C 
BRANCH  22  23
ATOM     23  C   UNL     1       7.001  47.720   8.903  1.00  0.00    -0.000 C 
BRANCH  23  24
ATOM     24  C   UNL     1       7.702  49.067   9.119  1.00  0.00    -0.000 C 
BRANCH  24  25
ATOM     25  C   UNL     1       8.276  49.169  10.537  1.00  0.00    -0.003 C 
ATOM     26  C   UNL     1       8.023  47.887  11.326  1.00  0.00     0.004 C 
ENDBRANCH  24  25
ENDBRANCH  23  24
ENDBRANCH  22  23
ENDBRANCH  21  22
ENDBRANCH  20  21
ENDBRANCH  19  20
ENDBRANCH  18  19
ENDBRANCH  17  18
ENDBRANCH  16  17
ENDBRANCH  15  16
ENDBRANCH   1  15
TORSDOF 22
ENDMDL
