MODEL 1
REMARK VINA RESULT:    -2.123      0.000      0.000
REMARK INTER + INTRA:          -3.336
REMARK INTER:                  -3.240
REMARK INTRA:                  -0.096
REMARK UNBOUND:                -0.096
REMARK SMILES OC[C@@H]1O[C@@](CO)(O[C@H]2O[C@@H](CO)[C@@H](O)[C@@H](O)[C@@H]2O)[C@H](O)[C@@H]1O
REMARK SMILES IDX 8 1 9 2 11 3 14 4 10 5 16 6 18 7 12 8 13 9 15 11 17 13 19 15
REMARK SMILES IDX 5 17 20 18 4 19 22 20 3 21 6 22 7 23 21 25 23 27 2 29 1 30
REMARK H PARENT 13 10 15 12 17 14 19 16 7 24 21 26 23 28 1 31
REMARK Flexibility Score: inf
ROOT
ATOM      1  O   UNL     1       4.041  29.687 -11.456  1.00  0.00    -0.313 OA
ENDROOT
BRANCH   1   2
ATOM      2  C   UNL     1       3.975  28.339 -11.905  1.00  0.00     0.285 C 
ATOM      3  C   UNL     1       6.134  28.314 -12.948  1.00  0.00     0.178 C 
ATOM      4  C   UNL     1       6.713  27.423 -11.813  1.00  0.00     0.177 C 
ATOM      5  O   UNL     1       4.726  28.168 -13.103  1.00  0.00    -0.341 OA
ATOM      6  C   UNL     1       5.927  27.546 -10.496  1.00  0.00     0.179 C 
ATOM      7  C   UNL     1       4.429  27.384 -10.784  1.00  0.00     0.202 C 
BRANCH   3   8
ATOM      8  C   UNL     1       6.558  29.799 -12.920  1.00  0.00     0.191 C 
BRANCH   8   9
ATOM      9  O   UNL     1       6.289  30.401 -14.161  1.00  0.00    -0.394 OA
ATOM     10  H   UNL     1       6.032  31.344 -13.985  1.00  0.00     0.210 HD
ENDBRANCH   8   9
ENDBRANCH   3   8
BRANCH   4  11
ATOM     11  O   UNL     1       8.094  27.612 -11.632  1.00  0.00    -0.387 OA
ATOM     12  H   UNL     1       8.577  26.955 -12.195  1.00  0.00     0.211 HD
ENDBRANCH   4  11
BRANCH   6  13
ATOM     13  O   UNL     1       6.153  28.789  -9.880  1.00  0.00    -0.387 OA
ATOM     14  H   UNL     1       5.845  29.495 -10.507  1.00  0.00     0.211 HD
ENDBRANCH   6  13
BRANCH   7  15
ATOM     15  O   UNL     1       4.153  26.059 -11.168  1.00  0.00    -0.385 OA
ATOM     16  H   UNL     1       3.937  25.558 -10.338  1.00  0.00     0.211 HD
ENDBRANCH   7  15
ENDBRANCH   1   2
BRANCH   1  17
ATOM     17  C   UNL     1       2.905  30.119 -10.707  1.00  0.00     0.224 C 
ATOM     18  C   UNL     1       2.135  31.118 -11.590  1.00  0.00     0.208 C 
ATOM     19  O   UNL     1       2.023  29.038 -10.459  1.00  0.00    -0.337 OA
ATOM     20  C   UNL     1       1.228  30.213 -12.408  1.00  0.00     0.180 C 
ATOM     21  C   UNL     1       1.168  28.916 -11.579  1.00  0.00     0.179 C 
BRANCH  17  22
ATOM     22  C   UNL     1       3.369  30.762  -9.373  1.00  0.00     0.225 C 
BRANCH  22  23
ATOM     23  O   UNL     1       4.657  31.302  -9.500  1.00  0.00    -0.391 OA
ATOM     24  H   UNL     1       4.862  31.293 -10.470  1.00  0.00     0.210 HD
ENDBRANCH  22  23
ENDBRANCH  17  22
BRANCH  18  25
ATOM     25  O   UNL     1       1.409  32.073 -10.849  1.00  0.00    -0.385 OA
ATOM     26  H   UNL     1       1.822  32.964 -10.992  1.00  0.00     0.211 HD
ENDBRANCH  18  25
BRANCH  20  27
ATOM     27  O   UNL     1      -0.036  30.784 -12.637  1.00  0.00    -0.387 OA
ATOM     28  H   UNL     1       0.123  31.723 -12.922  1.00  0.00     0.211 HD
ENDBRANCH  20  27
BRANCH  21  29
ATOM     29  C   UNL     1      -0.240  28.509 -11.111  1.00  0.00     0.191 C 
BRANCH  29  30
ATOM     30  O   UNL     1      -0.986  27.954 -12.161  1.00  0.00    -0.394 OA
ATOM     31  H   UNL     1      -0.409  27.274 -12.595  1.00  0.00     0.210 HD
ENDBRANCH  29  30
ENDBRANCH  21  29
ENDBRANCH   1  17
TORSDOF 13
ENDMDL
MODEL 2
REMARK VINA RESULT:    -2.025      1.613      5.618
REMARK INTER + INTRA:          -3.187
REMARK INTER:                  -2.331
REMARK INTRA:                  -0.856
REMARK UNBOUND:                -0.096
REMARK SMILES OC[C@@H]1O[C@@](CO)(O[C@H]2O[C@@H](CO)[C@@H](O)[C@@H](O)[C@@H]2O)[C@H](O)[C@@H]1O
REMARK SMILES IDX 8 1 9 2 11 3 14 4 10 5 16 6 18 7 12 8 13 9 15 11 17 13 19 15
REMARK SMILES IDX 5 17 20 18 4 19 22 20 3 21 6 22 7 23 21 25 23 27 2 29 1 30
REMARK H PARENT 13 10 15 12 17 14 19 16 7 24 21 26 23 28 1 31
REMARK Flexibility Score: inf
ROOT
ATOM      1  O   UNL     1       4.400  28.750 -11.017  1.00  0.00    -0.313 OA
ENDROOT
BRANCH   1   2
ATOM      2  C   UNL     1       3.081  28.238 -10.869  1.00  0.00     0.285 C 
ATOM      3  C   UNL     1       2.129  30.244  -9.964  1.00  0.00     0.178 C 
ATOM      4  C   UNL     1       1.375  30.529 -11.293  1.00  0.00     0.177 C 
ATOM      5  O   UNL     1       2.415  28.861  -9.777  1.00  0.00    -0.341 OA
ATOM      6  C   UNL     1       2.034  29.860 -12.512  1.00  0.00     0.179 C 
ATOM      7  C   UNL     1       2.305  28.384 -12.193  1.00  0.00     0.202 C 
BRANCH   3   8
ATOM      8  C   UNL     1       3.364  31.128  -9.688  1.00  0.00     0.191 C 
BRANCH   8   9
ATOM      9  O   UNL     1       2.974  32.318  -9.051  1.00  0.00    -0.394 OA
ATOM     10  H   UNL     1       3.737  32.951  -9.108  1.00  0.00     0.210 HD
ENDBRANCH   8   9
ENDBRANCH   3   8
BRANCH   4  11
ATOM     11  O   UNL     1       1.143  31.901 -11.496  1.00  0.00    -0.387 OA
ATOM     12  H   UNL     1       1.298  32.374 -10.640  1.00  0.00     0.211 HD
ENDBRANCH   4  11
BRANCH   6  13
ATOM     13  O   UNL     1       3.242  30.494 -12.852  1.00  0.00    -0.387 OA
ATOM     14  H   UNL     1       3.981  29.869 -12.630  1.00  0.00     0.211 HD
ENDBRANCH   6  13
BRANCH   7  15
ATOM     15  O   UNL     1       1.090  27.682 -12.094  1.00  0.00    -0.385 OA
ATOM     16  H   UNL     1       1.238  26.791 -12.507  1.00  0.00     0.211 HD
ENDBRANCH   7  15
ENDBRANCH   1   2
BRANCH   1  17
ATOM     17  C   UNL     1       5.334  27.831 -11.584  1.00  0.00     0.224 C 
ATOM     18  C   UNL     1       6.599  27.875 -10.708  1.00  0.00     0.208 C 
ATOM     19  O   UNL     1       4.842  26.504 -11.515  1.00  0.00    -0.337 OA
ATOM     20  C   UNL     1       6.291  26.860  -9.621  1.00  0.00     0.180 C 
ATOM     21  C   UNL     1       5.187  25.985 -10.245  1.00  0.00     0.179 C 
BRANCH  17  22
ATOM     22  C   UNL     1       5.631  28.226 -13.055  1.00  0.00     0.225 C 
BRANCH  22  23
ATOM     23  O   UNL     1       5.839  29.608 -13.169  1.00  0.00    -0.391 OA
ATOM     24  H   UNL     1       6.643  29.717 -13.739  1.00  0.00     0.210 HD
ENDBRANCH  22  23
ENDBRANCH  17  22
BRANCH  18  25
ATOM     25  O   UNL     1       7.778  27.559 -11.416  1.00  0.00    -0.385 OA
ATOM     26  H   UNL     1       7.561  27.508 -12.383  1.00  0.00     0.211 HD
ENDBRANCH  18  25
BRANCH  20  27
ATOM     27  O   UNL     1       7.426  26.128  -9.230  1.00  0.00    -0.387 OA
ATOM     28  H   UNL     1       7.208  25.169  -9.372  1.00  0.00     0.211 HD
ENDBRANCH  20  27
BRANCH  21  29
ATOM     29  C   UNL     1       5.540  24.493 -10.376  1.00  0.00     0.191 C 
BRANCH  29  30
ATOM     30  O   UNL     1       5.744  23.903  -9.120  1.00  0.00    -0.394 OA
ATOM     31  H   UNL     1       5.247  24.454  -8.460  1.00  0.00     0.210 HD
ENDBRANCH  29  30
ENDBRANCH  21  29
ENDBRANCH   1  17
TORSDOF 13
ENDMDL
MODEL 3
REMARK VINA RESULT:    -1.916      1.719      5.434
REMARK INTER + INTRA:          -3.020
REMARK INTER:                  -1.995
REMARK INTRA:                  -1.025
REMARK UNBOUND:                -0.096
REMARK SMILES OC[C@@H]1O[C@@](CO)(O[C@H]2O[C@@H](CO)[C@@H](O)[C@@H](O)[C@@H]2O)[C@H](O)[C@@H]1O
REMARK SMILES IDX 8 1 9 2 11 3 14 4 10 5 16 6 18 7 12 8 13 9 15 11 17 13 19 15
REMARK SMILES IDX 5 17 20 18 4 19 22 20 3 21 6 22 7 23 21 25 23 27 2 29 1 30
REMARK H PARENT 13 10 15 12 17 14 19 16 7 24 21 26 23 28 1 31
REMARK Flexibility Score: inf
ROOT
ATOM      1  O   UNL     1       4.515  28.334 -10.686  1.00  0.00    -0.313 OA
ENDROOT
BRANCH   1   2
ATOM      2  C   UNL     1       4.805  29.682 -11.037  1.00  0.00     0.285 C 
ATOM      3  C   UNL     1       2.775  30.070 -12.252  1.00  0.00     0.178 C 
ATOM      4  C   UNL     1       2.221  30.970 -11.112  1.00  0.00     0.177 C 
ATOM      5  O   UNL     1       4.199  30.024 -12.278  1.00  0.00    -0.341 OA
ATOM      6  C   UNL     1       2.858  30.665  -9.745  1.00  0.00     0.179 C 
ATOM      7  C   UNL     1       4.384  30.628  -9.896  1.00  0.00     0.202 C 
BRANCH   3   8
ATOM      8  C   UNL     1       2.153  28.661 -12.361  1.00  0.00     0.191 C 
BRANCH   8   9
ATOM      9  O   UNL     1       2.798  27.924 -13.368  1.00  0.00    -0.394 OA
ATOM     10  H   UNL     1       3.775  27.986 -13.202  1.00  0.00     0.210 HD
ENDBRANCH   8   9
ENDBRANCH   3   8
BRANCH   4  11
ATOM     11  O   UNL     1       0.816  30.968 -11.060  1.00  0.00    -0.387 OA
ATOM     12  H   UNL     1       0.470  30.792 -11.972  1.00  0.00     0.211 HD
ENDBRANCH   4  11
BRANCH   6  13
ATOM     13  O   UNL     1       2.409  29.433  -9.236  1.00  0.00    -0.387 OA
ATOM     14  H   UNL     1       1.661  29.125  -9.812  1.00  0.00     0.211 HD
ENDBRANCH   6  13
BRANCH   7  15
ATOM     15  O   UNL     1       4.872  31.920 -10.165  1.00  0.00    -0.385 OA
ATOM     16  H   UNL     1       5.131  32.317  -9.292  1.00  0.00     0.211 HD
ENDBRANCH   7  15
ENDBRANCH   1   2
BRANCH   1  17
ATOM     17  C   UNL     1       5.337  27.362 -11.335  1.00  0.00     0.224 C 
ATOM     18  C   UNL     1       6.162  26.665 -10.237  1.00  0.00     0.208 C 
ATOM     19  O   UNL     1       4.546  26.357 -11.944  1.00  0.00    -0.337 OA
ATOM     20  C   UNL     1       5.237  25.549  -9.780  1.00  0.00     0.180 C 
ATOM     21  C   UNL     1       4.262  25.380 -10.961  1.00  0.00     0.179 C 
BRANCH  17  22
ATOM     22  C   UNL     1       6.241  28.058 -12.386  1.00  0.00     0.225 C 
BRANCH  22  23
ATOM     23  O   UNL     1       5.589  28.147 -13.625  1.00  0.00    -0.391 OA
ATOM     24  H   UNL     1       4.684  28.503 -13.432  1.00  0.00     0.210 HD
ENDBRANCH  22  23
ENDBRANCH  17  22
BRANCH  18  25
ATOM     25  O   UNL     1       7.402  26.176 -10.699  1.00  0.00    -0.385 OA
ATOM     26  H   UNL     1       7.461  25.210 -10.481  1.00  0.00     0.211 HD
ENDBRANCH  18  25
BRANCH  20  27
ATOM     27  O   UNL     1       5.934  24.370  -9.462  1.00  0.00    -0.387 OA
ATOM     28  H   UNL     1       6.604  24.613  -8.771  1.00  0.00     0.211 HD
ENDBRANCH  20  27
BRANCH  21  29
ATOM     29  C   UNL     1       4.262  23.984 -11.607  1.00  0.00     0.191 C 
BRANCH  29  30
ATOM     30  O   UNL     1       3.739  23.017 -10.736  1.00  0.00    -0.394 OA
ATOM     31  H   UNL     1       2.796  23.270 -10.559  1.00  0.00     0.210 HD
ENDBRANCH  29  30
ENDBRANCH  21  29
ENDBRANCH   1  17
TORSDOF 13
ENDMDL
MODEL 4
REMARK VINA RESULT:    -1.103      1.313      5.264
REMARK INTER + INTRA:          -1.779
REMARK INTER:                  -1.935
REMARK INTRA:                   0.156
REMARK UNBOUND:                -0.096
REMARK SMILES OC[C@@H]1O[C@@](CO)(O[C@H]2O[C@@H](CO)[C@@H](O)[C@@H](O)[C@@H]2O)[C@H](O)[C@@H]1O
REMARK SMILES IDX 8 1 9 2 11 3 14 4 10 5 16 6 18 7 12 8 13 9 15 11 17 13 19 15
REMARK SMILES IDX 5 17 20 18 4 19 22 20 3 21 6 22 7 23 21 25 23 27 2 29 1 30
REMARK H PARENT 13 10 15 12 17 14 19 16 7 24 21 26 23 28 1 31
REMARK Flexibility Score: inf
ROOT
ATOM      1  O   UNL     1       3.434  29.605 -10.821  1.00  0.00    -0.313 OA
ENDROOT
BRANCH   1   2
ATOM      2  C   UNL     1       2.702  30.072 -11.948  1.00  0.00     0.285 C 
ATOM      3  C   UNL     1       1.973  27.911 -12.689  1.00  0.00     0.178 C 
ATOM      4  C   UNL     1       0.522  28.196 -12.208  1.00  0.00     0.177 C 
ATOM      5  O   UNL     1       2.699  29.100 -12.988  1.00  0.00    -0.341 OA
ATOM      6  C   UNL     1       0.456  29.259 -11.098  1.00  0.00     0.179 C 
ATOM      7  C   UNL     1       1.279  30.483 -11.522  1.00  0.00     0.202 C 
BRANCH   3   8
ATOM      8  C   UNL     1       2.794  26.941 -11.813  1.00  0.00     0.191 C 
BRANCH   8   9
ATOM      9  O   UNL     1       2.833  25.668 -12.408  1.00  0.00    -0.394 OA
ATOM     10  H   UNL     1       3.350  25.750 -13.252  1.00  0.00     0.210 HD
ENDBRANCH   8   9
ENDBRANCH   3   8
BRANCH   4  11
ATOM     11  O   UNL     1      -0.170  27.021 -11.865  1.00  0.00    -0.387 OA
ATOM     12  H   UNL     1       0.383  26.243 -12.132  1.00  0.00     0.211 HD
ENDBRANCH   4  11
BRANCH   6  13
ATOM     13  O   UNL     1       0.954  28.760  -9.882  1.00  0.00    -0.387 OA
ATOM     14  H   UNL     1       0.445  27.935  -9.665  1.00  0.00     0.211 HD
ENDBRANCH   6  13
BRANCH   7  15
ATOM     15  O   UNL     1       0.648  31.139 -12.595  1.00  0.00    -0.385 OA
ATOM     16  H   UNL     1      -0.205  31.509 -12.244  1.00  0.00     0.211 HD
ENDBRANCH   7  15
ENDBRANCH   1   2
BRANCH   1  17
ATOM     17  C   UNL     1       4.813  29.975 -10.815  1.00  0.00     0.224 C 
ATOM     18  C   UNL     1       5.610  28.736 -10.367  1.00  0.00     0.208 C 
ATOM     19  O   UNL     1       5.258  30.288 -12.123  1.00  0.00    -0.337 OA
ATOM     20  C   UNL     1       5.835  27.991 -11.673  1.00  0.00     0.180 C 
ATOM     21  C   UNL     1       5.642  29.079 -12.747  1.00  0.00     0.179 C 
BRANCH  17  22
ATOM     22  C   UNL     1       5.029  31.180  -9.862  1.00  0.00     0.225 C 
BRANCH  22  23
ATOM     23  O   UNL     1       3.843  31.503  -9.187  1.00  0.00    -0.391 OA
ATOM     24  H   UNL     1       4.010  31.303  -8.231  1.00  0.00     0.210 HD
ENDBRANCH  22  23
ENDBRANCH  17  22
BRANCH  18  25
ATOM     25  O   UNL     1       6.821  29.057  -9.719  1.00  0.00    -0.385 OA
ATOM     26  H   UNL     1       6.648  29.788  -9.071  1.00  0.00     0.211 HD
ENDBRANCH  18  25
BRANCH  20  27
ATOM     27  O   UNL     1       7.097  27.374 -11.729  1.00  0.00    -0.387 OA
ATOM     28  H   UNL     1       7.719  27.950 -11.211  1.00  0.00     0.211 HD
ENDBRANCH  20  27
BRANCH  21  29
ATOM     29  C   UNL     1       6.866  29.328 -13.646  1.00  0.00     0.191 C 
BRANCH  29  30
ATOM     30  O   UNL     1       6.645  30.396 -14.526  1.00  0.00    -0.394 OA
ATOM     31  H   UNL     1       6.191  31.109 -14.005  1.00  0.00     0.210 HD
ENDBRANCH  29  30
ENDBRANCH  21  29
ENDBRANCH   1  17
TORSDOF 13
ENDMDL
MODEL 5
REMARK VINA RESULT:    -0.672     13.135     15.716
REMARK INTER + INTRA:          -1.122
REMARK INTER:                  -2.003
REMARK INTRA:                   0.881
REMARK UNBOUND:                -0.096
REMARK SMILES OC[C@@H]1O[C@@](CO)(O[C@H]2O[C@@H](CO)[C@@H](O)[C@@H](O)[C@@H]2O)[C@H](O)[C@@H]1O
REMARK SMILES IDX 8 1 9 2 11 3 14 4 10 5 16 6 18 7 12 8 13 9 15 11 17 13 19 15
REMARK SMILES IDX 5 17 20 18 4 19 22 20 3 21 6 22 7 23 21 25 23 27 2 29 1 30
REMARK H PARENT 13 10 15 12 17 14 19 16 7 24 21 26 23 28 1 31
REMARK Flexibility Score: inf
ROOT
ATOM      1  O   UNL     1      -5.622  24.206 -21.897  1.00  0.00    -0.313 OA
ENDROOT
BRANCH   1   2
ATOM      2  C   UNL     1      -4.829  24.463 -23.050  1.00  0.00     0.285 C 
ATOM      3  C   UNL     1      -4.733  26.842 -22.767  1.00  0.00     0.178 C 
ATOM      4  C   UNL     1      -3.245  26.766 -22.326  1.00  0.00     0.177 C 
ATOM      5  O   UNL     1      -5.121  25.746 -23.591  1.00  0.00    -0.341 OA
ATOM      6  C   UNL     1      -2.858  25.391 -21.753  1.00  0.00     0.179 C 
ATOM      7  C   UNL     1      -3.335  24.293 -22.712  1.00  0.00     0.202 C 
BRANCH   3   8
ATOM      8  C   UNL     1      -5.757  27.106 -21.642  1.00  0.00     0.191 C 
BRANCH   8   9
ATOM      9  O   UNL     1      -5.504  28.351 -21.042  1.00  0.00    -0.394 OA
ATOM     10  H   UNL     1      -6.365  28.686 -20.677  1.00  0.00     0.210 HD
ENDBRANCH   8   9
ENDBRANCH   3   8
BRANCH   4  11
ATOM     11  O   UNL     1      -2.884  27.822 -21.471  1.00  0.00    -0.387 OA
ATOM     12  H   UNL     1      -1.904  27.785 -21.324  1.00  0.00     0.211 HD
ENDBRANCH   4  11
BRANCH   6  13
ATOM     13  O   UNL     1      -3.432  25.186 -20.486  1.00  0.00    -0.387 OA
ATOM     14  H   UNL     1      -3.247  25.993 -19.938  1.00  0.00     0.211 HD
ENDBRANCH   6  13
BRANCH   7  15
ATOM     15  O   UNL     1      -2.586  24.336 -23.903  1.00  0.00    -0.385 OA
ATOM     16  H   UNL     1      -1.836  24.970 -23.748  1.00  0.00     0.211 HD
ENDBRANCH   7  15
ENDBRANCH   1   2
BRANCH   1  17
ATOM     17  C   UNL     1      -6.735  23.340 -22.124  1.00  0.00     0.224 C 
ATOM     18  C   UNL     1      -7.894  24.218 -22.630  1.00  0.00     0.208 C 
ATOM     19  O   UNL     1      -6.452  22.413 -23.157  1.00  0.00    -0.337 OA
ATOM     20  C   UNL     1      -7.650  24.266 -24.129  1.00  0.00     0.180 C 
ATOM     21  C   UNL     1      -6.757  23.037 -24.389  1.00  0.00     0.179 C 
BRANCH  17  22
ATOM     22  C   UNL     1      -7.098  22.599 -20.810  1.00  0.00     0.225 C 
BRANCH  22  23
ATOM     23  O   UNL     1      -6.050  21.763 -20.401  1.00  0.00    -0.391 OA
ATOM     24  H   UNL     1      -5.500  21.599 -21.209  1.00  0.00     0.210 HD
ENDBRANCH  22  23
ENDBRANCH  17  22
BRANCH  18  25
ATOM     25  O   UNL     1      -9.166  23.699 -22.311  1.00  0.00    -0.385 OA
ATOM     26  H   UNL     1      -9.112  22.708 -22.310  1.00  0.00     0.211 HD
ENDBRANCH  18  25
BRANCH  20  27
ATOM     27  O   UNL     1      -8.846  24.249 -24.869  1.00  0.00    -0.387 OA
ATOM     28  H   UNL     1      -9.023  23.300 -25.102  1.00  0.00     0.211 HD
ENDBRANCH  20  27
BRANCH  21  29
ATOM     29  C   UNL     1      -7.348  22.000 -25.360  1.00  0.00     0.191 C 
BRANCH  29  30
ATOM     30  O   UNL     1      -6.412  21.004 -25.676  1.00  0.00    -0.394 OA
ATOM     31  H   UNL     1      -6.359  20.400 -24.891  1.00  0.00     0.210 HD
ENDBRANCH  29  30
ENDBRANCH  21  29
ENDBRANCH   1  17
TORSDOF 13
ENDMDL
MODEL 6
REMARK VINA RESULT:    -0.564     12.965     15.763
REMARK INTER + INTRA:          -0.956
REMARK INTER:                  -1.038
REMARK INTRA:                   0.081
REMARK UNBOUND:                -0.096
REMARK SMILES OC[C@@H]1O[C@@](CO)(O[C@H]2O[C@@H](CO)[C@@H](O)[C@@H](O)[C@@H]2O)[C@H](O)[C@@H]1O
REMARK SMILES IDX 8 1 9 2 11 3 14 4 10 5 16 6 18 7 12 8 13 9 15 11 17 13 19 15
REMARK SMILES IDX 5 17 20 18 4 19 22 20 3 21 6 22 7 23 21 25 23 27 2 29 1 30
REMARK H PARENT 13 10 15 12 17 14 19 16 7 24 21 26 23 28 1 31
REMARK Flexibility Score: inf
ROOT
ATOM      1  O   UNL     1      -6.318  25.565 -23.277  1.00  0.00    -0.313 OA
ENDROOT
BRANCH   1   2
ATOM      2  C   UNL     1      -6.232  26.069 -21.950  1.00  0.00     0.285 C 
ATOM      3  C   UNL     1      -3.885  25.660 -21.676  1.00  0.00     0.178 C 
ATOM      4  C   UNL     1      -3.571  27.179 -21.780  1.00  0.00     0.177 C 
ATOM      5  O   UNL     1      -5.209  25.399 -21.220  1.00  0.00    -0.341 OA
ATOM      6  C   UNL     1      -4.655  27.964 -22.540  1.00  0.00     0.179 C 
ATOM      7  C   UNL     1      -6.034  27.597 -21.974  1.00  0.00     0.202 C 
BRANCH   3   8
ATOM      8  C   UNL     1      -3.527  24.812 -22.915  1.00  0.00     0.191 C 
BRANCH   8   9
ATOM      9  O   UNL     1      -2.221  24.306 -22.793  1.00  0.00    -0.394 OA
ATOM     10  H   UNL     1      -1.837  24.673 -21.954  1.00  0.00     0.210 HD
ENDBRANCH   8   9
ENDBRANCH   3   8
BRANCH   4  11
ATOM     11  O   UNL     1      -2.281  27.428 -22.281  1.00  0.00    -0.387 OA
ATOM     12  H   UNL     1      -1.620  27.096 -21.622  1.00  0.00     0.211 HD
ENDBRANCH   4  11
BRANCH   6  13
ATOM     13  O   UNL     1      -4.623  27.679 -23.916  1.00  0.00    -0.387 OA
ATOM     14  H   UNL     1      -5.538  27.401 -24.186  1.00  0.00     0.211 HD
ENDBRANCH   6  13
BRANCH   7  15
ATOM     15  O   UNL     1      -6.167  28.100 -20.668  1.00  0.00    -0.385 OA
ATOM     16  H   UNL     1      -6.283  29.083 -20.748  1.00  0.00     0.211 HD
ENDBRANCH   7  15
ENDBRANCH   1   2
BRANCH   1  17
ATOM     17  C   UNL     1      -7.274  24.519 -23.454  1.00  0.00     0.224 C 
ATOM     18  C   UNL     1      -6.581  23.407 -24.262  1.00  0.00     0.208 C 
ATOM     19  O   UNL     1      -7.634  23.948 -22.209  1.00  0.00    -0.337 OA
ATOM     20  C   UNL     1      -5.905  22.579 -23.182  1.00  0.00     0.180 C 
ATOM     21  C   UNL     1      -6.681  22.949 -21.903  1.00  0.00     0.179 C 
BRANCH  17  22
ATOM     22  C   UNL     1      -8.527  25.072 -24.184  1.00  0.00     0.225 C 
BRANCH  22  23
ATOM     23  O   UNL     1      -8.404  26.450 -24.414  1.00  0.00    -0.391 OA
ATOM     24  H   UNL     1      -9.031  26.889 -23.784  1.00  0.00     0.210 HD
ENDBRANCH  22  23
ENDBRANCH  17  22
BRANCH  18  25
ATOM     25  O   UNL     1      -7.477  22.642 -25.039  1.00  0.00    -0.385 OA
ATOM     26  H   UNL     1      -8.388  23.021 -24.935  1.00  0.00     0.211 HD
ENDBRANCH  18  25
BRANCH  20  27
ATOM     27  O   UNL     1      -5.928  21.202 -23.466  1.00  0.00    -0.387 OA
ATOM     28  H   UNL     1      -6.529  20.783 -22.795  1.00  0.00     0.211 HD
ENDBRANCH  20  27
BRANCH  21  29
ATOM     29  C   UNL     1      -7.376  21.769 -21.203  1.00  0.00     0.191 C 
BRANCH  29  30
ATOM     30  O   UNL     1      -7.762  22.105 -19.897  1.00  0.00    -0.394 OA
ATOM     31  H   UNL     1      -7.341  22.979 -19.689  1.00  0.00     0.210 HD
ENDBRANCH  29  30
ENDBRANCH  21  29
ENDBRANCH   1  17
TORSDOF 13
ENDMDL
MODEL 7
REMARK VINA RESULT:    -0.186      1.515      5.622
REMARK INTER + INTRA:          -0.381
REMARK INTER:                   0.298
REMARK INTRA:                  -0.679
REMARK UNBOUND:                -0.096
REMARK SMILES OC[C@@H]1O[C@@](CO)(O[C@H]2O[C@@H](CO)[C@@H](O)[C@@H](O)[C@@H]2O)[C@H](O)[C@@H]1O
REMARK SMILES IDX 8 1 9 2 11 3 14 4 10 5 16 6 18 7 12 8 13 9 15 11 17 13 19 15
REMARK SMILES IDX 5 17 20 18 4 19 22 20 3 21 6 22 7 23 21 25 23 27 2 29 1 30
REMARK H PARENT 13 10 15 12 17 14 19 16 7 24 21 26 23 28 1 31
REMARK Flexibility Score: inf
ROOT
ATOM      1  O   UNL     1       3.768  28.605 -10.933  1.00  0.00    -0.313 OA
ENDROOT
BRANCH   1   2
ATOM      2  C   UNL     1       4.351  29.895 -11.081  1.00  0.00     0.285 C 
ATOM      3  C   UNL     1       2.358  30.988 -11.843  1.00  0.00     0.178 C 
ATOM      4  C   UNL     1       2.197  31.723 -10.482  1.00  0.00     0.177 C 
ATOM      5  O   UNL     1       3.707  30.626 -12.119  1.00  0.00    -0.341 OA
ATOM      6  C   UNL     1       2.893  30.993  -9.321  1.00  0.00     0.179 C 
ATOM      7  C   UNL     1       4.329  30.643  -9.734  1.00  0.00     0.202 C 
BRANCH   3   8
ATOM      8  C   UNL     1       1.385  29.816 -12.094  1.00  0.00     0.191 C 
BRANCH   8   9
ATOM      9  O   UNL     1       0.121  30.308 -12.462  1.00  0.00    -0.394 OA
ATOM     10  H   UNL     1      -0.160  30.957 -11.765  1.00  0.00     0.210 HD
ENDBRANCH   8   9
ENDBRANCH   3   8
BRANCH   4  11
ATOM     11  O   UNL     1       0.856  32.031 -10.193  1.00  0.00    -0.387 OA
ATOM     12  H   UNL     1       0.293  31.260 -10.463  1.00  0.00     0.211 HD
ENDBRANCH   4  11
BRANCH   6  13
ATOM     13  O   UNL     1       2.208  29.816  -8.972  1.00  0.00    -0.387 OA
ATOM     14  H   UNL     1       1.249  30.049  -8.862  1.00  0.00     0.211 HD
ENDBRANCH   6  13
BRANCH   7  15
ATOM     15  O   UNL     1       5.097  31.816  -9.846  1.00  0.00    -0.385 OA
ATOM     16  H   UNL     1       6.009  31.538 -10.124  1.00  0.00     0.211 HD
ENDBRANCH   7  15
ENDBRANCH   1   2
BRANCH   1  17
ATOM     17  C   UNL     1       4.405  27.576 -11.691  1.00  0.00     0.224 C 
ATOM     18  C   UNL     1       5.875  27.995 -11.873  1.00  0.00     0.208 C 
ATOM     19  O   UNL     1       4.421  26.355 -10.972  1.00  0.00    -0.337 OA
ATOM     20  C   UNL     1       6.537  27.454 -10.618  1.00  0.00     0.180 C 
ATOM     21  C   UNL     1       5.559  26.366 -10.133  1.00  0.00     0.179 C 
BRANCH  17  22
ATOM     22  C   UNL     1       3.678  27.400 -13.051  1.00  0.00     0.225 C 
BRANCH  22  23
ATOM     23  O   UNL     1       2.493  26.667 -12.893  1.00  0.00    -0.391 OA
ATOM     24  H   UNL     1       2.384  26.531 -11.917  1.00  0.00     0.210 HD
ENDBRANCH  22  23
ENDBRANCH  17  22
BRANCH  18  25
ATOM     25  O   UNL     1       6.459  27.481 -13.050  1.00  0.00    -0.385 OA
ATOM     26  H   UNL     1       5.893  27.739 -13.823  1.00  0.00     0.211 HD
ENDBRANCH  18  25
BRANCH  20  27
ATOM     27  O   UNL     1       7.834  26.966 -10.860  1.00  0.00    -0.387 OA
ATOM     28  H   UNL     1       7.747  26.262 -11.556  1.00  0.00     0.211 HD
ENDBRANCH  20  27
BRANCH  21  29
ATOM     29  C   UNL     1       6.153  24.949 -10.052  1.00  0.00     0.191 C 
BRANCH  29  30
ATOM     30  O   UNL     1       5.158  23.990  -9.817  1.00  0.00    -0.394 OA
ATOM     31  H   UNL     1       4.378  24.242 -10.377  1.00  0.00     0.210 HD
ENDBRANCH  29  30
ENDBRANCH  21  29
ENDBRANCH   1  17
TORSDOF 13
ENDMDL
MODEL 8
REMARK VINA RESULT:     0.249      0.974      2.557
REMARK INTER + INTRA:           0.283
REMARK INTER:                   0.335
REMARK INTRA:                  -0.052
REMARK UNBOUND:                -0.096
REMARK SMILES OC[C@@H]1O[C@@](CO)(O[C@H]2O[C@@H](CO)[C@@H](O)[C@@H](O)[C@@H]2O)[C@H](O)[C@@H]1O
REMARK SMILES IDX 8 1 9 2 11 3 14 4 10 5 16 6 18 7 12 8 13 9 15 11 17 13 19 15
REMARK SMILES IDX 5 17 20 18 4 19 22 20 3 21 6 22 7 23 21 25 23 27 2 29 1 30
REMARK H PARENT 13 10 15 12 17 14 19 16 7 24 21 26 23 28 1 31
REMARK Flexibility Score: inf
ROOT
ATOM      1  O   UNL     1       3.777  29.454 -11.799  1.00  0.00    -0.313 OA
ENDROOT
BRANCH   1   2
ATOM      2  C   UNL     1       4.973  30.173 -11.523  1.00  0.00     0.285 C 
ATOM      3  C   UNL     1       6.215  28.291 -10.705  1.00  0.00     0.178 C 
ATOM      4  C   UNL     1       7.081  28.255 -11.996  1.00  0.00     0.177 C 
ATOM      5  O   UNL     1       5.679  29.583 -10.435  1.00  0.00    -0.341 OA
ATOM      6  C   UNL     1       6.381  28.901 -13.205  1.00  0.00     0.179 C 
ATOM      7  C   UNL     1       5.835  30.276 -12.796  1.00  0.00     0.202 C 
BRANCH   3   8
ATOM      8  C   UNL     1       5.144  27.187 -10.581  1.00  0.00     0.191 C 
BRANCH   8   9
ATOM      9  O   UNL     1       5.740  25.978 -10.184  1.00  0.00    -0.394 OA
ATOM     10  H   UNL     1       5.198  25.610  -9.437  1.00  0.00     0.210 HD
ENDBRANCH   8   9
ENDBRANCH   3   8
BRANCH   4  11
ATOM     11  O   UNL     1       7.563  26.966 -12.284  1.00  0.00    -0.387 OA
ATOM     12  H   UNL     1       7.331  26.369 -11.527  1.00  0.00     0.211 HD
ENDBRANCH   4  11
BRANCH   6  13
ATOM     13  O   UNL     1       5.325  28.100 -13.673  1.00  0.00    -0.387 OA
ATOM     14  H   UNL     1       5.647  27.622 -14.482  1.00  0.00     0.211 HD
ENDBRANCH   6  13
BRANCH   7  15
ATOM     15  O   UNL     1       6.899  31.166 -12.562  1.00  0.00    -0.385 OA
ATOM     16  H   UNL     1       6.703  31.630 -11.706  1.00  0.00     0.211 HD
ENDBRANCH   7  15
ENDBRANCH   1   2
BRANCH   1  17
ATOM     17  C   UNL     1       2.675  29.790 -10.954  1.00  0.00     0.224 C 
ATOM     18  C   UNL     1       1.908  30.932 -11.646  1.00  0.00     0.208 C 
ATOM     19  O   UNL     1       1.771  28.704 -10.847  1.00  0.00    -0.337 OA
ATOM     20  C   UNL     1       0.953  30.187 -12.563  1.00  0.00     0.180 C 
ATOM     21  C   UNL     1       0.881  28.777 -11.944  1.00  0.00     0.179 C 
BRANCH  17  22
ATOM     22  C   UNL     1       3.197  30.206  -9.553  1.00  0.00     0.225 C 
BRANCH  22  23
ATOM     23  O   UNL     1       3.633  31.538  -9.557  1.00  0.00    -0.391 OA
ATOM     24  H   UNL     1       2.980  32.038 -10.110  1.00  0.00     0.210 HD
ENDBRANCH  22  23
ENDBRANCH  17  22
BRANCH  18  25
ATOM     25  O   UNL     1       1.231  31.776 -10.741  1.00  0.00    -0.385 OA
ATOM     26  H   UNL     1       0.576  32.322 -11.248  1.00  0.00     0.211 HD
ENDBRANCH  18  25
BRANCH  20  27
ATOM     27  O   UNL     1      -0.302  30.815 -12.658  1.00  0.00    -0.387 OA
ATOM     28  H   UNL     1      -0.311  31.536 -11.974  1.00  0.00     0.211 HD
ENDBRANCH  20  27
BRANCH  21  29
ATOM     29  C   UNL     1      -0.523  28.335 -11.498  1.00  0.00     0.191 C 
BRANCH  29  30
ATOM     30  O   UNL     1      -0.858  27.082 -12.030  1.00  0.00    -0.394 OA
ATOM     31  H   UNL     1      -0.989  27.210 -13.006  1.00  0.00     0.210 HD
ENDBRANCH  29  30
ENDBRANCH  21  29
ENDBRANCH   1  17
TORSDOF 13
ENDMDL
