MODEL 1
REMARK VINA RESULT:    -2.113      0.000      0.000
REMARK INTER + INTRA:          -2.113
REMARK INTER:                  -2.113
REMARK INTRA:                   0.000
REMARK UNBOUND:                 0.000
REMARK SMILES CC(=O)[O-]
REMARK SMILES IDX 1 1 2 2 3 3 4 4
REMARK H PARENT
REMARK Flexibility Score: inf
ROOT
ATOM      1  C   UNL     1      -6.965   4.891  50.858  1.00  0.00     0.063 C 
ATOM      2  C   UNL     1      -8.107   5.540  51.563  1.00  0.00     0.038 C 
ATOM      3  O   UNL     1      -8.069   5.704  52.810  1.00  0.00    -0.550 OA
ATOM      4  O   UNL     1      -9.240   5.915  50.852  1.00  0.00    -0.550 OA
ENDROOT
TORSDOF 0
ENDMDL
MODEL 2
REMARK VINA RESULT:    -2.095      0.134      1.619
REMARK INTER + INTRA:          -2.095
REMARK INTER:                  -2.095
REMARK INTRA:                   0.000
REMARK UNBOUND:                 0.000
REMARK SMILES CC(=O)[O-]
REMARK SMILES IDX 1 1 2 2 3 3 4 4
REMARK H PARENT
REMARK Flexibility Score: inf
ROOT
ATOM      1  C   UNL     1      -7.028   4.880  50.877  1.00  0.00     0.063 C 
ATOM      2  C   UNL     1      -8.220   5.531  51.493  1.00  0.00     0.038 C 
ATOM      3  O   UNL     1      -9.188   5.889  50.773  1.00  0.00    -0.550 OA
ATOM      4  O   UNL     1      -8.242   5.792  52.857  1.00  0.00    -0.550 OA
ENDROOT
TORSDOF 0
ENDMDL
MODEL 3
REMARK VINA RESULT:    -2.024     13.094     13.378
REMARK INTER + INTRA:          -2.024
REMARK INTER:                  -2.024
REMARK INTRA:                   0.000
REMARK UNBOUND:                 0.000
REMARK SMILES CC(=O)[O-]
REMARK SMILES IDX 1 1 2 2 3 3 4 4
REMARK H PARENT
REMARK Flexibility Score: inf
ROOT
ATOM      1  C   UNL     1       1.845   2.303  60.330  1.00  0.00     0.063 C 
ATOM      2  C   UNL     1       0.541   1.929  60.949  1.00  0.00     0.038 C 
ATOM      3  O   UNL     1      -0.249   2.823  61.350  1.00  0.00    -0.550 OA
ATOM      4  O   UNL     1       0.218   0.591  61.133  1.00  0.00    -0.550 OA
ENDROOT
TORSDOF 0
ENDMDL
MODEL 4
REMARK VINA RESULT:    -2.020     12.965     13.276
REMARK INTER + INTRA:          -2.020
REMARK INTER:                  -2.020
REMARK INTRA:                   0.000
REMARK UNBOUND:                 0.000
REMARK SMILES CC(=O)[O-]
REMARK SMILES IDX 1 1 2 2 3 3 4 4
REMARK H PARENT
REMARK Flexibility Score: inf
ROOT
ATOM      1  C   UNL     1       1.820   2.320  60.319  1.00  0.00     0.063 C 
ATOM      2  C   UNL     1       0.510   1.963  60.934  1.00  0.00     0.038 C 
ATOM      3  O   UNL     1       0.216   0.756  61.139  1.00  0.00    -0.550 OA
ATOM      4  O   UNL     1      -0.412   2.957  61.233  1.00  0.00    -0.550 OA
ENDROOT
TORSDOF 0
ENDMDL
MODEL 5
REMARK VINA RESULT:    -1.980      1.461      2.020
REMARK INTER + INTRA:          -1.980
REMARK INTER:                  -1.980
REMARK INTRA:                   0.000
REMARK UNBOUND:                 0.000
REMARK SMILES CC(=O)[O-]
REMARK SMILES IDX 1 1 2 2 3 3 4 4
REMARK H PARENT
REMARK Flexibility Score: inf
ROOT
ATOM      1  C   UNL     1      -7.907   5.207  52.904  1.00  0.00     0.063 C 
ATOM      2  C   UNL     1      -7.963   5.372  51.423  1.00  0.00     0.038 C 
ATOM      3  O   UNL     1      -9.001   5.829  50.878  1.00  0.00    -0.550 OA
ATOM      4  O   UNL     1      -6.890   4.972  50.638  1.00  0.00    -0.550 OA
ENDROOT
TORSDOF 0
ENDMDL
MODEL 6
REMARK VINA RESULT:    -1.974      1.696      1.732
REMARK INTER + INTRA:          -1.974
REMARK INTER:                  -1.974
REMARK INTRA:                   0.000
REMARK UNBOUND:                 0.000
REMARK SMILES CC(=O)[O-]
REMARK SMILES IDX 1 1 2 2 3 3 4 4
REMARK H PARENT
REMARK Flexibility Score: inf
ROOT
ATOM      1  C   UNL     1      -7.991   3.304  51.224  1.00  0.00     0.063 C 
ATOM      2  C   UNL     1      -7.727   4.750  50.978  1.00  0.00     0.038 C 
ATOM      3  O   UNL     1      -6.556   5.149  50.746  1.00  0.00    -0.550 OA
ATOM      4  O   UNL     1      -8.765   5.669  51.058  1.00  0.00    -0.550 OA
ENDROOT
TORSDOF 0
ENDMDL
MODEL 7
REMARK VINA RESULT:    -1.808     11.756     12.284
REMARK INTER + INTRA:          -1.808
REMARK INTER:                  -1.808
REMARK INTRA:                   0.000
REMARK UNBOUND:                 0.000
REMARK SMILES CC(=O)[O-]
REMARK SMILES IDX 1 1 2 2 3 3 4 4
REMARK H PARENT
REMARK Flexibility Score: inf
ROOT
ATOM      1  C   UNL     1       2.691  -0.561  53.291  1.00  0.00     0.063 C 
ATOM      2  C   UNL     1       2.664   0.616  54.205  1.00  0.00     0.038 C 
ATOM      3  O   UNL     1       2.303   1.742  53.775  1.00  0.00    -0.550 OA
ATOM      4  O   UNL     1       3.088   0.484  55.521  1.00  0.00    -0.550 OA
ENDROOT
TORSDOF 0
ENDMDL
MODEL 8
REMARK VINA RESULT:    -1.807     17.041     17.601
REMARK INTER + INTRA:          -1.807
REMARK INTER:                  -1.807
REMARK INTRA:                   0.000
REMARK UNBOUND:                 0.000
REMARK SMILES CC(=O)[O-]
REMARK SMILES IDX 1 1 2 2 3 3 4 4
REMARK H PARENT
REMARK Flexibility Score: inf
ROOT
ATOM      1  C   UNL     1       0.945  -3.696  64.835  1.00  0.00     0.063 C 
ATOM      2  C   UNL     1      -0.094  -4.073  63.834  1.00  0.00     0.038 C 
ATOM      3  O   UNL     1      -0.382  -5.284  63.648  1.00  0.00    -0.550 OA
ATOM      4  O   UNL     1      -0.707  -3.092  63.065  1.00  0.00    -0.550 OA
ENDROOT
TORSDOF 0
ENDMDL
MODEL 9
REMARK VINA RESULT:    -1.769     16.826     17.449
REMARK INTER + INTRA:          -1.769
REMARK INTER:                  -1.769
REMARK INTRA:                   0.000
REMARK UNBOUND:                 0.000
REMARK SMILES CC(=O)[O-]
REMARK SMILES IDX 1 1 2 2 3 3 4 4
REMARK H PARENT
REMARK Flexibility Score: inf
ROOT
ATOM      1  C   UNL     1       0.942  -3.732  64.833  1.00  0.00     0.063 C 
ATOM      2  C   UNL     1       0.973  -2.923  63.581  1.00  0.00     0.038 C 
ATOM      3  O   UNL     1      -0.093  -2.687  62.955  1.00  0.00    -0.550 OA
ATOM      4  O   UNL     1       2.185  -2.475  63.072  1.00  0.00    -0.550 OA
ENDROOT
TORSDOF 0
ENDMDL
