MODEL 1
REMARK VINA RESULT:    -3.202      0.000      0.000
REMARK INTER + INTRA:          -4.020
REMARK INTER:                  -3.950
REMARK INTRA:                  -0.069
REMARK UNBOUND:                -0.069
REMARK SMILES CCCCCC(=O)[O-]
REMARK SMILES IDX 4 1 5 2 6 3 7 4 8 5 3 6 2 7 1 8
REMARK H PARENT
REMARK Flexibility Score: inf
ROOT
ATOM      1  C   UNL     1      16.958  15.598  30.352  1.00  0.00     0.006 C 
ENDROOT
BRANCH   1   2
ATOM      2  C   UNL     1      15.845  15.626  29.297  1.00  0.00     0.053 C 
BRANCH   2   3
ATOM      3  C   UNL     1      16.423  15.492  27.924  1.00  0.00     0.041 C 
ATOM      4  O   UNL     1      15.876  16.068  26.947  1.00  0.00    -0.550 OA
ATOM      5  O   UNL     1      17.595  14.770  27.730  1.00  0.00    -0.550 OA
ENDBRANCH   2   3
ENDBRANCH   1   2
BRANCH   1   6
ATOM      6  C   UNL     1      16.951  14.310  31.196  1.00  0.00     0.000 C 
BRANCH   6   7
ATOM      7  C   UNL     1      18.174  14.133  32.114  1.00  0.00    -0.003 C 
ATOM      8  C   UNL     1      18.140  12.829  32.910  1.00  0.00     0.004 C 
ENDBRANCH   6   7
ENDBRANCH   1   6
TORSDOF 4
ENDMDL
MODEL 2
REMARK VINA RESULT:    -3.099      2.772      4.687
REMARK INTER + INTRA:          -3.893
REMARK INTER:                  -3.764
REMARK INTRA:                  -0.129
REMARK UNBOUND:                -0.069
REMARK SMILES CCCCCC(=O)[O-]
REMARK SMILES IDX 4 1 5 2 6 3 7 4 8 5 3 6 2 7 1 8
REMARK H PARENT
REMARK Flexibility Score: inf
ROOT
ATOM      1  C   UNL     1      17.763  13.252  32.149  1.00  0.00     0.006 C 
ENDROOT
BRANCH   1   2
ATOM      2  C   UNL     1      18.897  14.206  32.542  1.00  0.00     0.053 C 
BRANCH   2   3
ATOM      3  C   UNL     1      20.181  13.783  31.901  1.00  0.00     0.041 C 
ATOM      4  O   UNL     1      20.924  12.939  32.468  1.00  0.00    -0.550 OA
ATOM      5  O   UNL     1      20.534  14.283  30.654  1.00  0.00    -0.550 OA
ENDBRANCH   2   3
ENDBRANCH   1   2
BRANCH   1   6
ATOM      6  C   UNL     1      16.726  13.904  31.216  1.00  0.00     0.000 C 
BRANCH   6   7
ATOM      7  C   UNL     1      17.124  15.290  30.677  1.00  0.00    -0.003 C 
ATOM      8  C   UNL     1      16.146  15.829  29.633  1.00  0.00     0.004 C 
ENDBRANCH   6   7
ENDBRANCH   1   6
TORSDOF 4
ENDMDL
MODEL 3
REMARK VINA RESULT:    -3.065      1.636      1.863
REMARK INTER + INTRA:          -3.852
REMARK INTER:                  -3.732
REMARK INTRA:                  -0.120
REMARK UNBOUND:                -0.069
REMARK SMILES CCCCCC(=O)[O-]
REMARK SMILES IDX 4 1 5 2 6 3 7 4 8 5 3 6 2 7 1 8
REMARK H PARENT
REMARK Flexibility Score: inf
ROOT
ATOM      1  C   UNL     1      16.170  15.955  29.687  1.00  0.00     0.006 C 
ENDROOT
BRANCH   1   2
ATOM      2  C   UNL     1      15.893  15.639  28.212  1.00  0.00     0.053 C 
BRANCH   2   3
ATOM      3  C   UNL     1      14.967  14.469  28.094  1.00  0.00     0.041 C 
ATOM      4  O   UNL     1      13.857  14.477  28.687  1.00  0.00    -0.550 OA
ATOM      5  O   UNL     1      15.310  13.389  27.290  1.00  0.00    -0.550 OA
ENDBRANCH   2   3
ENDBRANCH   1   2
BRANCH   1   6
ATOM      6  C   UNL     1      17.374  15.177  30.250  1.00  0.00     0.000 C 
BRANCH   6   7
ATOM      7  C   UNL     1      17.022  14.121  31.312  1.00  0.00    -0.003 C 
ATOM      8  C   UNL     1      18.158  13.868  32.304  1.00  0.00     0.004 C 
ENDBRANCH   6   7
ENDBRANCH   1   6
TORSDOF 4
ENDMDL
MODEL 4
REMARK VINA RESULT:    -3.031      1.633      2.722
REMARK INTER + INTRA:          -3.809
REMARK INTER:                  -3.755
REMARK INTRA:                  -0.053
REMARK UNBOUND:                -0.069
REMARK SMILES CCCCCC(=O)[O-]
REMARK SMILES IDX 4 1 5 2 6 3 7 4 8 5 3 6 2 7 1 8
REMARK H PARENT
REMARK Flexibility Score: inf
ROOT
ATOM      1  C   UNL     1      16.657  15.321  27.910  1.00  0.00     0.006 C 
ENDROOT
BRANCH   1   2
ATOM      2  C   UNL     1      15.843  15.924  26.759  1.00  0.00     0.053 C 
BRANCH   2   3
ATOM      3  C   UNL     1      16.694  16.068  25.537  1.00  0.00     0.041 C 
ATOM      4  O   UNL     1      17.948  16.110  25.640  1.00  0.00    -0.550 OA
ATOM      5  O   UNL     1      16.104  16.106  24.279  1.00  0.00    -0.550 OA
ENDBRANCH   2   3
ENDBRANCH   1   2
BRANCH   1   6
ATOM      6  C   UNL     1      16.032  15.589  29.291  1.00  0.00     0.000 C 
BRANCH   6   7
ATOM      7  C   UNL     1      17.037  15.652  30.455  1.00  0.00    -0.003 C 
ATOM      8  C   UNL     1      17.114  14.348  31.249  1.00  0.00     0.004 C 
ENDBRANCH   6   7
ENDBRANCH   1   6
TORSDOF 4
ENDMDL
MODEL 5
REMARK VINA RESULT:    -2.837      2.116      3.826
REMARK INTER + INTRA:          -3.570
REMARK INTER:                  -3.345
REMARK INTRA:                  -0.225
REMARK UNBOUND:                -0.069
REMARK SMILES CCCCCC(=O)[O-]
REMARK SMILES IDX 4 1 5 2 6 3 7 4 8 5 3 6 2 7 1 8
REMARK H PARENT
REMARK Flexibility Score: inf
ROOT
ATOM      1  C   UNL     1      17.107  14.485  31.284  1.00  0.00     0.006 C 
ENDROOT
BRANCH   1   2
ATOM      2  C   UNL     1      18.556  13.985  31.305  1.00  0.00     0.053 C 
BRANCH   2   3
ATOM      3  C   UNL     1      18.996  13.605  29.927  1.00  0.00     0.041 C 
ATOM      4  O   UNL     1      18.397  12.692  29.299  1.00  0.00    -0.550 OA
ATOM      5  O   UNL     1      20.038  14.291  29.315  1.00  0.00    -0.550 OA
ENDBRANCH   2   3
ENDBRANCH   1   2
BRANCH   1   6
ATOM      6  C   UNL     1      16.902  15.691  30.348  1.00  0.00     0.000 C 
BRANCH   6   7
ATOM      7  C   UNL     1      15.715  15.561  29.378  1.00  0.00    -0.003 C 
ATOM      8  C   UNL     1      16.139  15.569  27.909  1.00  0.00     0.004 C 
ENDBRANCH   6   7
ENDBRANCH   1   6
TORSDOF 4
ENDMDL
MODEL 6
REMARK VINA RESULT:    -2.835     10.161     12.365
REMARK INTER + INTRA:          -3.567
REMARK INTER:                  -3.454
REMARK INTRA:                  -0.113
REMARK UNBOUND:                -0.069
REMARK SMILES CCCCCC(=O)[O-]
REMARK SMILES IDX 4 1 5 2 6 3 7 4 8 5 3 6 2 7 1 8
REMARK H PARENT
REMARK Flexibility Score: inf
ROOT
ATOM      1  C   UNL     1       6.957  18.539  24.442  1.00  0.00     0.006 C 
ENDROOT
BRANCH   1   2
ATOM      2  C   UNL     1       8.359  18.122  24.905  1.00  0.00     0.053 C 
BRANCH   2   3
ATOM      3  C   UNL     1       8.447  18.160  26.398  1.00  0.00     0.041 C 
ATOM      4  O   UNL     1       8.185  19.222  27.021  1.00  0.00    -0.550 OA
ATOM      5  O   UNL     1       8.773  17.009  27.105  1.00  0.00    -0.550 OA
ENDBRANCH   2   3
ENDBRANCH   1   2
BRANCH   1   6
ATOM      6  C   UNL     1       6.983  19.667  23.394  1.00  0.00     0.000 C 
BRANCH   6   7
ATOM      7  C   UNL     1       5.902  19.562  22.305  1.00  0.00    -0.003 C 
ATOM      8  C   UNL     1       5.975  18.256  21.514  1.00  0.00     0.004 C 
ENDBRANCH   6   7
ENDBRANCH   1   6
TORSDOF 4
ENDMDL
MODEL 7
REMARK VINA RESULT:    -2.834      2.530      4.501
REMARK INTER + INTRA:          -3.567
REMARK INTER:                  -3.470
REMARK INTRA:                  -0.097
REMARK UNBOUND:                -0.069
REMARK SMILES CCCCCC(=O)[O-]
REMARK SMILES IDX 4 1 5 2 6 3 7 4 8 5 3 6 2 7 1 8
REMARK H PARENT
REMARK Flexibility Score: inf
ROOT
ATOM      1  C   UNL     1      15.665  15.230  29.297  1.00  0.00     0.006 C 
ENDROOT
BRANCH   1   2
ATOM      2  C   UNL     1      16.840  15.525  30.237  1.00  0.00     0.053 C 
BRANCH   2   3
ATOM      3  C   UNL     1      17.002  14.420  31.233  1.00  0.00     0.041 C 
ATOM      4  O   UNL     1      16.169  13.477  31.274  1.00  0.00    -0.550 OA
ATOM      5  O   UNL     1      18.101  14.406  32.082  1.00  0.00    -0.550 OA
ENDBRANCH   2   3
ENDBRANCH   1   2
BRANCH   1   6
ATOM      6  C   UNL     1      15.912  15.718  27.858  1.00  0.00     0.000 C 
BRANCH   6   7
ATOM      7  C   UNL     1      17.173  15.143  27.188  1.00  0.00    -0.003 C 
ATOM      8  C   UNL     1      17.426  15.719  25.795  1.00  0.00     0.004 C 
ENDBRANCH   6   7
ENDBRANCH   1   6
TORSDOF 4
ENDMDL
MODEL 8
REMARK VINA RESULT:    -2.786      3.061      3.462
REMARK INTER + INTRA:          -3.507
REMARK INTER:                  -3.417
REMARK INTRA:                  -0.090
REMARK UNBOUND:                -0.069
REMARK SMILES CCCCCC(=O)[O-]
REMARK SMILES IDX 4 1 5 2 6 3 7 4 8 5 3 6 2 7 1 8
REMARK H PARENT
REMARK Flexibility Score: inf
ROOT
ATOM      1  C   UNL     1      15.439  13.950  30.521  1.00  0.00     0.006 C 
ENDROOT
BRANCH   1   2
ATOM      2  C   UNL     1      14.394  14.421  29.502  1.00  0.00     0.053 C 
BRANCH   2   3
ATOM      3  C   UNL     1      13.014  14.259  30.057  1.00  0.00     0.041 C 
ATOM      4  O   UNL     1      12.849  13.842  31.234  1.00  0.00    -0.550 OA
ATOM      5  O   UNL     1      11.910  14.615  29.292  1.00  0.00    -0.550 OA
ENDBRANCH   2   3
ENDBRANCH   1   2
BRANCH   1   6
ATOM      6  C   UNL     1      16.653  14.893  30.612  1.00  0.00     0.000 C 
BRANCH   6   7
ATOM      7  C   UNL     1      17.731  14.462  31.623  1.00  0.00    -0.003 C 
ATOM      8  C   UNL     1      17.455  13.093  32.244  1.00  0.00     0.004 C 
ENDBRANCH   6   7
ENDBRANCH   1   6
TORSDOF 4
ENDMDL
MODEL 9
REMARK VINA RESULT:    -2.737      3.180      3.765
REMARK INTER + INTRA:          -3.446
REMARK INTER:                  -3.367
REMARK INTRA:                  -0.079
REMARK UNBOUND:                -0.069
REMARK SMILES CCCCCC(=O)[O-]
REMARK SMILES IDX 4 1 5 2 6 3 7 4 8 5 3 6 2 7 1 8
REMARK H PARENT
REMARK Flexibility Score: inf
ROOT
ATOM      1  C   UNL     1      14.841  14.488  29.816  1.00  0.00     0.006 C 
ENDROOT
BRANCH   1   2
ATOM      2  C   UNL     1      13.792  14.276  28.717  1.00  0.00     0.053 C 
BRANCH   2   3
ATOM      3  C   UNL     1      12.432  14.119  29.318  1.00  0.00     0.041 C 
ATOM      4  O   UNL     1      11.480  14.846  28.930  1.00  0.00    -0.550 OA
ATOM      5  O   UNL     1      12.202  13.135  30.272  1.00  0.00    -0.550 OA
ENDBRANCH   2   3
ENDBRANCH   1   2
BRANCH   1   6
ATOM      6  C   UNL     1      15.847  15.603  29.476  1.00  0.00     0.000 C 
BRANCH   6   7
ATOM      7  C   UNL     1      17.107  15.629  30.360  1.00  0.00    -0.003 C 
ATOM      8  C   UNL     1      17.213  14.416  31.285  1.00  0.00     0.004 C 
ENDBRANCH   6   7
ENDBRANCH   1   6
TORSDOF 4
ENDMDL
