MODEL 1
REMARK VINA RESULT:    -4.638      0.000      0.000
REMARK INTER + INTRA:          -7.583
REMARK INTER:                  -7.078
REMARK INTRA:                  -0.504
REMARK UNBOUND:                -0.504
REMARK SMILES CCCCCCCCCCC(=O)[O-]
REMARK SMILES IDX 7 1 8 2 9 3 10 4 11 5 12 6 13 7 6 8 5 9 4 10 3 11 2 12 1 13
REMARK H PARENT
REMARK Flexibility Score: inf
ROOT
ATOM      1  C   UNL     1      -0.121   6.338  18.915  1.00  0.00     0.000 C 
ENDROOT
BRANCH   1   2
ATOM      2  C   UNL     1       0.149   5.605  17.590  1.00  0.00     0.000 C 
BRANCH   2   3
ATOM      3  C   UNL     1      -1.129   5.389  16.760  1.00  0.00     0.006 C 
BRANCH   3   4
ATOM      4  C   UNL     1      -1.102   4.060  15.991  1.00  0.00     0.053 C 
BRANCH   4   5
ATOM      5  C   UNL     1      -1.881   2.994  16.698  1.00  0.00     0.041 C 
ATOM      6  O   UNL     1      -3.139   2.990  16.643  1.00  0.00    -0.550 OA
ATOM      7  O   UNL     1      -1.221   2.028  17.445  1.00  0.00    -0.550 OA
ENDBRANCH   4   5
ENDBRANCH   3   4
ENDBRANCH   2   3
ENDBRANCH   1   2
BRANCH   1   8
ATOM      8  C   UNL     1       0.617   7.684  19.004  1.00  0.00     0.000 C 
BRANCH   8   9
ATOM      9  C   UNL     1       0.892   8.122  20.455  1.00  0.00    -0.000 C 
BRANCH   9  10
ATOM     10  C   UNL     1       1.577   7.064  21.338  1.00  0.00    -0.000 C 
BRANCH  10  11
ATOM     11  C   UNL     1       0.869   6.855  22.684  1.00  0.00    -0.000 C 
BRANCH  11  12
ATOM     12  C   UNL     1      -0.655   6.884  22.514  1.00  0.00    -0.003 C 
ATOM     13  C   UNL     1      -1.363   6.585  23.832  1.00  0.00     0.004 C 
ENDBRANCH  11  12
ENDBRANCH  10  11
ENDBRANCH   9  10
ENDBRANCH   8   9
ENDBRANCH   1   8
TORSDOF 9
ENDMDL
MODEL 2
REMARK VINA RESULT:    -4.455      1.484      2.114
REMARK INTER + INTRA:          -7.304
REMARK INTER:                  -6.981
REMARK INTRA:                  -0.323
REMARK UNBOUND:                -0.504
REMARK SMILES CCCCCCCCCCC(=O)[O-]
REMARK SMILES IDX 7 1 8 2 9 3 10 4 11 5 12 6 13 7 6 8 5 9 4 10 3 11 2 12 1 13
REMARK H PARENT
REMARK Flexibility Score: inf
ROOT
ATOM      1  C   UNL     1       0.016   5.626  17.083  1.00  0.00     0.000 C 
ENDROOT
BRANCH   1   2
ATOM      2  C   UNL     1      -0.724   4.437  16.447  1.00  0.00     0.000 C 
BRANCH   2   3
ATOM      3  C   UNL     1      -2.251   4.625  16.434  1.00  0.00     0.006 C 
BRANCH   3   4
ATOM      4  C   UNL     1      -2.993   3.314  16.142  1.00  0.00     0.053 C 
BRANCH   4   5
ATOM      5  C   UNL     1      -4.477   3.475  16.274  1.00  0.00     0.041 C 
ATOM      6  O   UNL     1      -5.085   4.328  15.575  1.00  0.00    -0.550 OA
ATOM      7  O   UNL     1      -5.181   2.709  17.193  1.00  0.00    -0.550 OA
ENDBRANCH   4   5
ENDBRANCH   3   4
ENDBRANCH   2   3
ENDBRANCH   1   2
BRANCH   1   8
ATOM      8  C   UNL     1      -0.384   5.851  18.551  1.00  0.00     0.000 C 
BRANCH   8   9
ATOM      9  C   UNL     1       0.356   7.035  19.199  1.00  0.00    -0.000 C 
BRANCH   9  10
ATOM     10  C   UNL     1      -0.035   7.331  20.659  1.00  0.00    -0.000 C 
BRANCH  10  11
ATOM     11  C   UNL     1       1.117   7.100  21.648  1.00  0.00    -0.000 C 
BRANCH  11  12
ATOM     12  C   UNL     1       0.602   6.499  22.960  1.00  0.00    -0.003 C 
ATOM     13  C   UNL     1      -0.879   6.806  23.164  1.00  0.00     0.004 C 
ENDBRANCH  11  12
ENDBRANCH  10  11
ENDBRANCH   9  10
ENDBRANCH   8   9
ENDBRANCH   1   8
TORSDOF 9
ENDMDL
MODEL 3
REMARK VINA RESULT:    -4.417      4.628      6.903
REMARK INTER + INTRA:          -7.246
REMARK INTER:                  -6.974
REMARK INTRA:                  -0.271
REMARK UNBOUND:                -0.504
REMARK SMILES CCCCCCCCCCC(=O)[O-]
REMARK SMILES IDX 7 1 8 2 9 3 10 4 11 5 12 6 13 7 6 8 5 9 4 10 3 11 2 12 1 13
REMARK H PARENT
REMARK Flexibility Score: inf
ROOT
ATOM      1  C   UNL     1       1.582   8.924  18.197  1.00  0.00     0.000 C 
ENDROOT
BRANCH   1   2
ATOM      2  C   UNL     1       0.751   7.810  18.856  1.00  0.00     0.000 C 
BRANCH   2   3
ATOM      3  C   UNL     1       0.762   7.891  20.393  1.00  0.00     0.006 C 
BRANCH   3   4
ATOM      4  C   UNL     1      -0.252   6.932  21.031  1.00  0.00     0.053 C 
BRANCH   4   5
ATOM      5  C   UNL     1      -0.038   6.800  22.507  1.00  0.00     0.041 C 
ATOM      6  O   UNL     1      -1.006   6.934  23.301  1.00  0.00    -0.550 OA
ATOM      7  O   UNL     1       1.235   6.563  23.008  1.00  0.00    -0.550 OA
ENDBRANCH   4   5
ENDBRANCH   3   4
ENDBRANCH   2   3
ENDBRANCH   1   2
BRANCH   1   8
ATOM      8  C   UNL     1       1.402   8.968  16.670  1.00  0.00     0.000 C 
BRANCH   8   9
ATOM      9  C   UNL     1       1.777  10.332  16.062  1.00  0.00    -0.000 C 
BRANCH   9  10
ATOM     10  C   UNL     1       0.648  11.036  15.287  1.00  0.00    -0.000 C 
BRANCH  10  11
ATOM     11  C   UNL     1      -0.051  10.115  14.276  1.00  0.00    -0.000 C 
BRANCH  11  12
ATOM     12  C   UNL     1      -1.204  10.844  13.575  1.00  0.00    -0.003 C 
ATOM     13  C   UNL     1      -2.410  10.987  14.498  1.00  0.00     0.004 C 
ENDBRANCH  11  12
ENDBRANCH  10  11
ENDBRANCH   9  10
ENDBRANCH   8   9
ENDBRANCH   1   8
TORSDOF 9
ENDMDL
MODEL 4
REMARK VINA RESULT:    -4.247      4.242      5.023
REMARK INTER + INTRA:          -6.986
REMARK INTER:                  -6.687
REMARK INTRA:                  -0.299
REMARK UNBOUND:                -0.504
REMARK SMILES CCCCCCCCCCC(=O)[O-]
REMARK SMILES IDX 7 1 8 2 9 3 10 4 11 5 12 6 13 7 6 8 5 9 4 10 3 11 2 12 1 13
REMARK H PARENT
REMARK Flexibility Score: inf
ROOT
ATOM      1  C   UNL     1       1.898   9.977  16.648  1.00  0.00     0.000 C 
ENDROOT
BRANCH   1   2
ATOM      2  C   UNL     1       0.650  10.514  15.927  1.00  0.00     0.000 C 
BRANCH   2   3
ATOM      3  C   UNL     1       0.309   9.716  14.657  1.00  0.00     0.006 C 
BRANCH   3   4
ATOM      4  C   UNL     1      -0.851  10.344  13.872  1.00  0.00     0.053 C 
BRANCH   4   5
ATOM      5  C   UNL     1      -1.573   9.329  13.041  1.00  0.00     0.041 C 
ATOM      6  O   UNL     1      -2.050   8.295  13.578  1.00  0.00    -0.550 OA
ATOM      7  O   UNL     1      -1.687   9.506  11.668  1.00  0.00    -0.550 OA
ENDBRANCH   4   5
ENDBRANCH   3   4
ENDBRANCH   2   3
ENDBRANCH   1   2
BRANCH   1   8
ATOM      8  C   UNL     1       1.624   8.664  17.400  1.00  0.00     0.000 C 
BRANCH   8   9
ATOM      9  C   UNL     1       1.681   8.826  18.931  1.00  0.00    -0.000 C 
BRANCH   9  10
ATOM     10  C   UNL     1       0.393   8.435  19.679  1.00  0.00    -0.000 C 
BRANCH  10  11
ATOM     11  C   UNL     1       0.450   7.020  20.273  1.00  0.00    -0.000 C 
BRANCH  11  12
ATOM     12  C   UNL     1      -0.165   6.989  21.676  1.00  0.00    -0.003 C 
ATOM     13  C   UNL     1       0.901   6.745  22.741  1.00  0.00     0.004 C 
ENDBRANCH  11  12
ENDBRANCH  10  11
ENDBRANCH   9  10
ENDBRANCH   8   9
ENDBRANCH   1   8
TORSDOF 9
ENDMDL
MODEL 5
REMARK VINA RESULT:    -4.210      4.707      7.576
REMARK INTER + INTRA:          -6.929
REMARK INTER:                  -5.837
REMARK INTRA:                  -1.092
REMARK UNBOUND:                -0.504
REMARK SMILES CCCCCCCCCCC(=O)[O-]
REMARK SMILES IDX 7 1 8 2 9 3 10 4 11 5 12 6 13 7 6 8 5 9 4 10 3 11 2 12 1 13
REMARK H PARENT
REMARK Flexibility Score: inf
ROOT
ATOM      1  C   UNL     1      -5.618   4.432  17.006  1.00  0.00     0.000 C 
ENDROOT
BRANCH   1   2
ATOM      2  C   UNL     1      -4.566   3.774  16.099  1.00  0.00     0.000 C 
BRANCH   2   3
ATOM      3  C   UNL     1      -3.406   4.722  15.749  1.00  0.00     0.006 C 
BRANCH   3   4
ATOM      4  C   UNL     1      -2.117   3.961  15.408  1.00  0.00     0.053 C 
BRANCH   4   5
ATOM      5  C   UNL     1      -1.252   3.766  16.614  1.00  0.00     0.041 C 
ATOM      6  O   UNL     1      -1.236   2.657  17.209  1.00  0.00    -0.550 OA
ATOM      7  O   UNL     1      -0.489   4.820  17.102  1.00  0.00    -0.550 OA
ENDBRANCH   4   5
ENDBRANCH   3   4
ENDBRANCH   2   3
ENDBRANCH   1   2
BRANCH   1   8
ATOM      8  C   UNL     1      -5.542   5.968  16.976  1.00  0.00     0.000 C 
BRANCH   8   9
ATOM      9  C   UNL     1      -6.842   6.623  16.472  1.00  0.00    -0.000 C 
BRANCH   9  10
ATOM     10  C   UNL     1      -7.024   6.623  14.944  1.00  0.00    -0.000 C 
BRANCH  10  11
ATOM     11  C   UNL     1      -8.012   5.553  14.457  1.00  0.00    -0.000 C 
BRANCH  11  12
ATOM     12  C   UNL     1      -7.328   4.566  13.505  1.00  0.00    -0.003 C 
ATOM     13  C   UNL     1      -6.024   5.139  12.957  1.00  0.00     0.004 C 
ENDBRANCH  11  12
ENDBRANCH  10  11
ENDBRANCH   9  10
ENDBRANCH   8   9
ENDBRANCH   1   8
TORSDOF 9
ENDMDL
MODEL 6
REMARK VINA RESULT:    -4.176      3.693      6.759
REMARK INTER + INTRA:          -6.878
REMARK INTER:                  -6.541
REMARK INTRA:                  -0.337
REMARK UNBOUND:                -0.504
REMARK SMILES CCCCCCCCCCC(=O)[O-]
REMARK SMILES IDX 7 1 8 2 9 3 10 4 11 5 12 6 13 7 6 8 5 9 4 10 3 11 2 12 1 13
REMARK H PARENT
REMARK Flexibility Score: inf
ROOT
ATOM      1  C   UNL     1      -0.730   4.767  17.336  1.00  0.00     0.000 C 
ENDROOT
BRANCH   1   2
ATOM      2  C   UNL     1       0.201   5.922  17.741  1.00  0.00     0.000 C 
BRANCH   2   3
ATOM      3  C   UNL     1       0.018   6.345  19.210  1.00  0.00     0.006 C 
BRANCH   3   4
ATOM      4  C   UNL     1       0.379   7.819  19.437  1.00  0.00     0.053 C 
BRANCH   4   5
ATOM      5  C   UNL     1       1.446   7.975  20.476  1.00  0.00     0.041 C 
ATOM      6  O   UNL     1       2.253   8.940  20.415  1.00  0.00    -0.550 OA
ATOM      7  O   UNL     1       1.573   7.036  21.491  1.00  0.00    -0.550 OA
ENDBRANCH   4   5
ENDBRANCH   3   4
ENDBRANCH   2   3
ENDBRANCH   1   2
BRANCH   1   8
ATOM      8  C   UNL     1      -1.546   5.084  16.072  1.00  0.00     0.000 C 
BRANCH   8   9
ATOM      9  C   UNL     1      -2.278   3.853  15.507  1.00  0.00    -0.000 C 
BRANCH   9  10
ATOM     10  C   UNL     1      -3.384   3.277  16.410  1.00  0.00    -0.000 C 
BRANCH  10  11
ATOM     11  C   UNL     1      -4.799   3.588  15.902  1.00  0.00    -0.000 C 
BRANCH  11  12
ATOM     12  C   UNL     1      -5.511   4.577  16.831  1.00  0.00    -0.003 C 
ATOM     13  C   UNL     1      -6.473   5.471  16.053  1.00  0.00     0.004 C 
ENDBRANCH  11  12
ENDBRANCH  10  11
ENDBRANCH   9  10
ENDBRANCH   8   9
ENDBRANCH   1   8
TORSDOF 9
ENDMDL
MODEL 7
REMARK VINA RESULT:    -4.062      5.831      8.564
REMARK INTER + INTRA:          -6.703
REMARK INTER:                  -5.523
REMARK INTRA:                  -1.180
REMARK UNBOUND:                -0.504
REMARK SMILES CCCCCCCCCCC(=O)[O-]
REMARK SMILES IDX 7 1 8 2 9 3 10 4 11 5 12 6 13 7 6 8 5 9 4 10 3 11 2 12 1 13
REMARK H PARENT
REMARK Flexibility Score: inf
ROOT
ATOM      1  C   UNL     1      -6.874   6.882  16.525  1.00  0.00     0.000 C 
ENDROOT
BRANCH   1   2
ATOM      2  C   UNL     1      -5.426   6.906  16.009  1.00  0.00     0.000 C 
BRANCH   2   3
ATOM      3  C   UNL     1      -4.632   5.648  16.405  1.00  0.00     0.006 C 
BRANCH   3   4
ATOM      4  C   UNL     1      -5.501   4.383  16.378  1.00  0.00     0.053 C 
BRANCH   4   5
ATOM      5  C   UNL     1      -4.710   3.159  16.722  1.00  0.00     0.041 C 
ATOM      6  O   UNL     1      -5.269   2.183  17.288  1.00  0.00    -0.550 OA
ATOM      7  O   UNL     1      -3.349   3.110  16.452  1.00  0.00    -0.550 OA
ENDBRANCH   4   5
ENDBRANCH   3   4
ENDBRANCH   2   3
ENDBRANCH   1   2
BRANCH   1   8
ATOM      8  C   UNL     1      -7.888   7.324  15.456  1.00  0.00     0.000 C 
BRANCH   8   9
ATOM      9  C   UNL     1      -8.698   6.150  14.877  1.00  0.00    -0.000 C 
BRANCH   9  10
ATOM     10  C   UNL     1      -7.984   5.341  13.779  1.00  0.00    -0.000 C 
BRANCH  10  11
ATOM     11  C   UNL     1      -7.448   6.219  12.639  1.00  0.00    -0.000 C 
BRANCH  11  12
ATOM     12  C   UNL     1      -6.038   5.782  12.225  1.00  0.00    -0.003 C 
ATOM     13  C   UNL     1      -5.676   4.432  12.838  1.00  0.00     0.004 C 
ENDBRANCH  11  12
ENDBRANCH  10  11
ENDBRANCH   9  10
ENDBRANCH   8   9
ENDBRANCH   1   8
TORSDOF 9
ENDMDL
MODEL 8
REMARK VINA RESULT:    -4.047      6.360      8.255
REMARK INTER + INTRA:          -6.680
REMARK INTER:                  -5.480
REMARK INTRA:                  -1.201
REMARK UNBOUND:                -0.504
REMARK SMILES CCCCCCCCCCC(=O)[O-]
REMARK SMILES IDX 7 1 8 2 9 3 10 4 11 5 12 6 13 7 6 8 5 9 4 10 3 11 2 12 1 13
REMARK H PARENT
REMARK Flexibility Score: inf
ROOT
ATOM      1  C   UNL     1      -7.632   5.151  14.126  1.00  0.00     0.000 C 
ENDROOT
BRANCH   1   2
ATOM      2  C   UNL     1      -8.145   6.573  13.846  1.00  0.00     0.000 C 
BRANCH   2   3
ATOM      3  C   UNL     1      -7.864   7.545  15.005  1.00  0.00     0.006 C 
BRANCH   3   4
ATOM      4  C   UNL     1      -7.777   6.825  16.357  1.00  0.00     0.053 C 
BRANCH   4   5
ATOM      5  C   UNL     1      -6.699   7.399  17.224  1.00  0.00     0.041 C 
ATOM      6  O   UNL     1      -5.925   8.281  16.769  1.00  0.00    -0.550 OA
ATOM      7  O   UNL     1      -6.528   6.936  18.522  1.00  0.00    -0.550 OA
ENDBRANCH   4   5
ENDBRANCH   3   4
ENDBRANCH   2   3
ENDBRANCH   1   2
BRANCH   1   8
ATOM      8  C   UNL     1      -6.507   4.731  13.165  1.00  0.00     0.000 C 
BRANCH   8   9
ATOM      9  C   UNL     1      -5.234   4.270  13.898  1.00  0.00    -0.000 C 
BRANCH   9  10
ATOM     10  C   UNL     1      -4.607   5.314  14.840  1.00  0.00    -0.000 C 
BRANCH  10  11
ATOM     11  C   UNL     1      -4.294   4.753  16.235  1.00  0.00    -0.000 C 
BRANCH  11  12
ATOM     12  C   UNL     1      -5.444   3.879  16.747  1.00  0.00    -0.003 C 
ATOM     13  C   UNL     1      -4.941   2.510  17.194  1.00  0.00     0.004 C 
ENDBRANCH  11  12
ENDBRANCH  10  11
ENDBRANCH   9  10
ENDBRANCH   8   9
ENDBRANCH   1   8
TORSDOF 9
ENDMDL
MODEL 9
REMARK VINA RESULT:    -4.011      5.137      7.608
REMARK INTER + INTRA:          -6.626
REMARK INTER:                  -5.970
REMARK INTRA:                  -0.656
REMARK UNBOUND:                -0.504
REMARK SMILES CCCCCCCCCCC(=O)[O-]
REMARK SMILES IDX 7 1 8 2 9 3 10 4 11 5 12 6 13 7 6 8 5 9 4 10 3 11 2 12 1 13
REMARK H PARENT
REMARK Flexibility Score: inf
ROOT
ATOM      1  C   UNL     1      -5.530   4.619  13.231  1.00  0.00     0.000 C 
ENDROOT
BRANCH   1   2
ATOM      2  C   UNL     1      -5.261   4.218  14.691  1.00  0.00     0.000 C 
BRANCH   2   3
ATOM      3  C   UNL     1      -3.822   4.532  15.138  1.00  0.00     0.006 C 
BRANCH   3   4
ATOM      4  C   UNL     1      -3.335   3.576  16.235  1.00  0.00     0.053 C 
BRANCH   4   5
ATOM      5  C   UNL     1      -1.843   3.443  16.233  1.00  0.00     0.041 C 
ATOM      6  O   UNL     1      -1.286   2.561  16.938  1.00  0.00    -0.550 OA
ATOM      7  O   UNL     1      -1.067   4.315  15.481  1.00  0.00    -0.550 OA
ENDBRANCH   4   5
ENDBRANCH   3   4
ENDBRANCH   2   3
ENDBRANCH   1   2
BRANCH   1   8
ATOM      8  C   UNL     1      -7.018   4.899  12.962  1.00  0.00     0.000 C 
BRANCH   8   9
ATOM      9  C   UNL     1      -7.828   5.127  14.251  1.00  0.00    -0.000 C 
BRANCH   9  10
ATOM     10  C   UNL     1      -8.062   6.603  14.624  1.00  0.00    -0.000 C 
BRANCH  10  11
ATOM     11  C   UNL     1      -8.108   6.839  16.141  1.00  0.00    -0.000 C 
BRANCH  11  12
ATOM     12  C   UNL     1      -6.716   7.172  16.688  1.00  0.00    -0.003 C 
ATOM     13  C   UNL     1      -6.722   7.233  18.213  1.00  0.00     0.004 C 
ENDBRANCH  11  12
ENDBRANCH  10  11
ENDBRANCH   9  10
ENDBRANCH   8   9
ENDBRANCH   1   8
TORSDOF 9
ENDMDL
