MODEL 1
REMARK VINA RESULT:    -6.605      0.000      0.000
REMARK INTER + INTRA:          -7.756
REMARK INTER:                  -7.571
REMARK INTRA:                  -0.186
REMARK UNBOUND:                -0.186
REMARK SMILES O=C1C[C@H](c2ccc(O)cc2)Oc2cc(O)cc(O)c21
REMARK SMILES IDX 3 1 4 2 12 3 13 4 14 5 15 6 17 7 18 8 20 9 2 10 1 11 5 12
REMARK SMILES IDX 6 13 11 14 7 15 10 16 8 17 9 18 19 20 16 22
REMARK H PARENT 9 19 19 21 16 23
REMARK Flexibility Score: inf
ROOT
ATOM      1  C   UNL     1      12.665   5.191  10.664  1.00  0.00     0.131 C 
ATOM      2  C   UNL     1      11.226   5.739  10.618  1.00  0.00     0.211 C 
ATOM      3  O   UNL     1      10.402   4.985   9.719  1.00  0.00    -0.484 OA
ATOM      4  C   UNL     1      10.555   3.610   9.490  1.00  0.00     0.138 A 
ATOM      5  C   UNL     1       9.589   2.932   8.743  1.00  0.00     0.093 A 
ATOM      6  C   UNL     1       9.699   1.555   8.531  1.00  0.00     0.123 A 
ATOM      7  C   UNL     1      10.785   0.853   9.067  1.00  0.00     0.093 A 
ATOM      8  C   UNL     1      11.771   1.525   9.807  1.00  0.00     0.133 A 
ATOM      9  C   UNL     1      11.660   2.915  10.017  1.00  0.00     0.102 A 
ATOM     10  C   UNL     1      12.674   3.694  10.762  1.00  0.00     0.174 C 
ATOM     11  O   UNL     1      13.574   3.122  11.433  1.00  0.00    -0.294 OA
ENDROOT
BRANCH   2  12
ATOM     12  C   UNL     1      10.614   5.810  12.006  1.00  0.00    -0.007 A 
ATOM     13  C   UNL     1       9.870   4.743  12.546  1.00  0.00     0.011 A 
ATOM     14  C   UNL     1      10.847   6.944  12.804  1.00  0.00     0.011 A 
ATOM     15  C   UNL     1       9.351   4.825  13.842  1.00  0.00     0.046 A 
ATOM     16  C   UNL     1      10.327   7.023  14.100  1.00  0.00     0.046 A 
ATOM     17  C   UNL     1       9.577   5.966  14.621  1.00  0.00     0.115 A 
BRANCH  17  18
ATOM     18  O   UNL     1       9.064   6.057  15.913  1.00  0.00    -0.508 OA
ATOM     19  H   UNL     1       9.664   5.988  16.727  1.00  0.00     0.293 HD
ENDBRANCH  17  18
ENDBRANCH   2  12
BRANCH   8  20
ATOM     20  O   UNL     1      12.853   0.811  10.320  1.00  0.00    -0.507 OA
ATOM     21  H   UNL     1      13.769   1.233  10.423  1.00  0.00     0.293 HD
ENDBRANCH   8  20
BRANCH   6  22
ATOM     22  O   UNL     1       8.722   0.894   7.789  1.00  0.00    -0.508 OA
ATOM     23  H   UNL     1       8.457  -0.062   7.996  1.00  0.00     0.293 HD
ENDBRANCH   6  22
TORSDOF 4
ENDMDL
MODEL 2
REMARK VINA RESULT:    -6.073      2.501      3.851
REMARK INTER + INTRA:          -7.146
REMARK INTER:                  -7.003
REMARK INTRA:                  -0.143
REMARK UNBOUND:                -0.186
REMARK SMILES O=C1C[C@H](c2ccc(O)cc2)Oc2cc(O)cc(O)c21
REMARK SMILES IDX 3 1 4 2 12 3 13 4 14 5 15 6 17 7 18 8 20 9 2 10 1 11 5 12
REMARK SMILES IDX 6 13 11 14 7 15 10 16 8 17 9 18 19 20 16 22
REMARK H PARENT 9 19 19 21 16 23
REMARK Flexibility Score: inf
ROOT
ATOM      1  C   UNL     1       9.363   3.699  11.644  1.00  0.00     0.131 C 
ATOM      2  C   UNL     1       9.054   3.558  13.146  1.00  0.00     0.211 C 
ATOM      3  O   UNL     1       9.714   2.420  13.717  1.00  0.00    -0.484 OA
ATOM      4  C   UNL     1      10.963   1.948  13.288  1.00  0.00     0.138 A 
ATOM      5  C   UNL     1      11.606   0.953  14.028  1.00  0.00     0.093 A 
ATOM      6  C   UNL     1      12.868   0.492  13.643  1.00  0.00     0.123 A 
ATOM      7  C   UNL     1      13.488   1.028  12.508  1.00  0.00     0.093 A 
ATOM      8  C   UNL     1      12.847   2.018  11.748  1.00  0.00     0.133 A 
ATOM      9  C   UNL     1      11.572   2.480  12.135  1.00  0.00     0.102 A 
ATOM     10  C   UNL     1      10.824   3.500  11.368  1.00  0.00     0.174 C 
ATOM     11  O   UNL     1      11.379   4.166  10.453  1.00  0.00    -0.294 OA
ENDROOT
BRANCH   2  12
ATOM     12  C   UNL     1       9.387   4.831  13.904  1.00  0.00    -0.007 A 
ATOM     13  C   UNL     1      10.115   5.882  13.310  1.00  0.00     0.011 A 
ATOM     14  C   UNL     1       8.903   4.999  15.214  1.00  0.00     0.011 A 
ATOM     15  C   UNL     1      10.372   7.057  14.023  1.00  0.00     0.046 A 
ATOM     16  C   UNL     1       9.162   6.176  15.924  1.00  0.00     0.046 A 
ATOM     17  C   UNL     1       9.898   7.206  15.331  1.00  0.00     0.115 A 
BRANCH  17  18
ATOM     18  O   UNL     1      10.150   8.373  16.050  1.00  0.00    -0.508 OA
ATOM     19  H   UNL     1       9.456   9.107  16.127  1.00  0.00     0.293 HD
ENDBRANCH  17  18
ENDBRANCH   2  12
BRANCH   8  20
ATOM     20  O   UNL     1      13.475   2.529  10.612  1.00  0.00    -0.507 OA
ATOM     21  H   UNL     1      13.017   3.203  10.008  1.00  0.00     0.293 HD
ENDBRANCH   8  20
BRANCH   6  22
ATOM     22  O   UNL     1      13.497  -0.497  14.396  1.00  0.00    -0.508 OA
ATOM     23  H   UNL     1      14.059  -0.268  15.208  1.00  0.00     0.293 HD
ENDBRANCH   6  22
TORSDOF 4
ENDMDL
MODEL 3
REMARK VINA RESULT:    -6.059      3.025      4.692
REMARK INTER + INTRA:          -7.131
REMARK INTER:                  -6.831
REMARK INTRA:                  -0.299
REMARK UNBOUND:                -0.186
REMARK SMILES O=C1C[C@H](c2ccc(O)cc2)Oc2cc(O)cc(O)c21
REMARK SMILES IDX 3 1 4 2 12 3 13 4 14 5 15 6 17 7 18 8 20 9 2 10 1 11 5 12
REMARK SMILES IDX 6 13 11 14 7 15 10 16 8 17 9 18 19 20 16 22
REMARK H PARENT 9 19 19 21 16 23
REMARK Flexibility Score: inf
ROOT
ATOM      1  C   UNL     1      12.512   0.664  11.376  1.00  0.00     0.131 C 
ATOM      2  C   UNL     1      13.317   1.520  12.372  1.00  0.00     0.211 C 
ATOM      3  O   UNL     1      13.483   2.864  11.899  1.00  0.00    -0.484 OA
ATOM      4  C   UNL     1      12.532   3.538  11.121  1.00  0.00     0.138 A 
ATOM      5  C   UNL     1      12.700   4.902  10.869  1.00  0.00     0.093 A 
ATOM      6  C   UNL     1      11.747   5.605  10.127  1.00  0.00     0.123 A 
ATOM      7  C   UNL     1      10.621   4.939   9.630  1.00  0.00     0.093 A 
ATOM      8  C   UNL     1      10.447   3.566   9.863  1.00  0.00     0.133 A 
ATOM      9  C   UNL     1      11.411   2.856  10.610  1.00  0.00     0.102 A 
ATOM     10  C   UNL     1      11.309   1.404  10.871  1.00  0.00     0.174 C 
ATOM     11  O   UNL     1      10.248   0.769  10.628  1.00  0.00    -0.294 OA
ENDROOT
BRANCH   2  12
ATOM     12  C   UNL     1      12.698   1.490  13.758  1.00  0.00    -0.007 A 
ATOM     13  C   UNL     1      11.952   2.574  14.262  1.00  0.00     0.011 A 
ATOM     14  C   UNL     1      12.813   0.326  14.538  1.00  0.00     0.011 A 
ATOM     15  C   UNL     1      11.362   2.500  15.528  1.00  0.00     0.046 A 
ATOM     16  C   UNL     1      12.222   0.256  15.804  1.00  0.00     0.046 A 
ATOM     17  C   UNL     1      11.497   1.342  16.302  1.00  0.00     0.115 A 
BRANCH  17  18
ATOM     18  O   UNL     1      10.914   1.259  17.565  1.00  0.00    -0.508 OA
ATOM     19  H   UNL     1      11.470   1.319  18.410  1.00  0.00     0.293 HD
ENDBRANCH  17  18
ENDBRANCH   2  12
BRANCH   8  20
ATOM     20  O   UNL     1       9.326   2.916   9.347  1.00  0.00    -0.507 OA
ATOM     21  H   UNL     1       9.326   1.918   9.163  1.00  0.00     0.293 HD
ENDBRANCH   8  20
BRANCH   6  22
ATOM     22  O   UNL     1      11.928   6.967   9.892  1.00  0.00    -0.508 OA
ATOM     23  H   UNL     1      11.500   7.668  10.484  1.00  0.00     0.293 HD
ENDBRANCH   6  22
TORSDOF 4
ENDMDL
MODEL 4
REMARK VINA RESULT:    -6.003      1.533      6.000
REMARK INTER + INTRA:          -7.066
REMARK INTER:                  -6.972
REMARK INTRA:                  -0.094
REMARK UNBOUND:                -0.186
REMARK SMILES O=C1C[C@H](c2ccc(O)cc2)Oc2cc(O)cc(O)c21
REMARK SMILES IDX 3 1 4 2 12 3 13 4 14 5 15 6 17 7 18 8 20 9 2 10 1 11 5 12
REMARK SMILES IDX 6 13 11 14 7 15 10 16 8 17 9 18 19 20 16 22
REMARK H PARENT 9 19 19 21 16 23
REMARK Flexibility Score: inf
ROOT
ATOM      1  C   UNL     1      12.579   5.179  10.654  1.00  0.00     0.131 C 
ATOM      2  C   UNL     1      12.005   3.769  10.890  1.00  0.00     0.211 C 
ATOM      3  O   UNL     1      11.583   3.591  12.249  1.00  0.00    -0.484 OA
ATOM      4  C   UNL     1      11.059   4.621  13.042  1.00  0.00     0.138 A 
ATOM      5  C   UNL     1      10.504   4.309  14.286  1.00  0.00     0.093 A 
ATOM      6  C   UNL     1       9.941   5.312  15.079  1.00  0.00     0.123 A 
ATOM      7  C   UNL     1       9.937   6.636  14.627  1.00  0.00     0.093 A 
ATOM      8  C   UNL     1      10.503   6.967  13.387  1.00  0.00     0.133 A 
ATOM      9  C   UNL     1      11.074   5.954  12.588  1.00  0.00     0.102 A 
ATOM     10  C   UNL     1      11.714   6.231  11.283  1.00  0.00     0.174 C 
ATOM     11  O   UNL     1      11.589   7.350  10.718  1.00  0.00    -0.294 OA
ENDROOT
BRANCH   2  12
ATOM     12  C   UNL     1      10.885   3.454   9.914  1.00  0.00    -0.007 A 
ATOM     13  C   UNL     1      10.214   4.467   9.200  1.00  0.00     0.011 A 
ATOM     14  C   UNL     1      10.545   2.113   9.664  1.00  0.00     0.011 A 
ATOM     15  C   UNL     1       9.212   4.142   8.281  1.00  0.00     0.046 A 
ATOM     16  C   UNL     1       9.542   1.790   8.745  1.00  0.00     0.046 A 
ATOM     17  C   UNL     1       8.873   2.803   8.052  1.00  0.00     0.115 A 
BRANCH  17  18
ATOM     18  O   UNL     1       7.875   2.468   7.139  1.00  0.00    -0.508 OA
ATOM     19  H   UNL     1       7.509   3.148   6.483  1.00  0.00     0.293 HD
ENDBRANCH  17  18
ENDBRANCH   2  12
BRANCH   8  20
ATOM     20  O   UNL     1      10.503   8.294  12.960  1.00  0.00    -0.507 OA
ATOM     21  H   UNL     1      10.525   8.538  11.976  1.00  0.00     0.293 HD
ENDBRANCH   8  20
BRANCH   6  22
ATOM     22  O   UNL     1       9.387   4.980  16.314  1.00  0.00    -0.508 OA
ATOM     23  H   UNL     1       9.111   4.030  16.533  1.00  0.00     0.293 HD
ENDBRANCH   6  22
TORSDOF 4
ENDMDL
MODEL 5
REMARK VINA RESULT:    -5.971      2.884      4.106
REMARK INTER + INTRA:          -7.029
REMARK INTER:                  -6.723
REMARK INTRA:                  -0.306
REMARK UNBOUND:                -0.186
REMARK SMILES O=C1C[C@H](c2ccc(O)cc2)Oc2cc(O)cc(O)c21
REMARK SMILES IDX 3 1 4 2 12 3 13 4 14 5 15 6 17 7 18 8 20 9 2 10 1 11 5 12
REMARK SMILES IDX 6 13 11 14 7 15 10 16 8 17 9 18 19 20 16 22
REMARK H PARENT 9 19 19 21 16 23
REMARK Flexibility Score: inf
ROOT
ATOM      1  C   UNL     1       9.549   2.830  10.908  1.00  0.00     0.131 C 
ATOM      2  C   UNL     1       9.297   3.578  12.231  1.00  0.00     0.211 C 
ATOM      3  O   UNL     1       9.675   2.787  13.365  1.00  0.00    -0.484 OA
ATOM      4  C   UNL     1      10.738   1.872  13.357  1.00  0.00     0.138 A 
ATOM      5  C   UNL     1      11.146   1.290  14.560  1.00  0.00     0.093 A 
ATOM      6  C   UNL     1      12.225   0.403  14.584  1.00  0.00     0.123 A 
ATOM      7  C   UNL     1      12.899   0.094  13.396  1.00  0.00     0.093 A 
ATOM      8  C   UNL     1      12.491   0.660  12.179  1.00  0.00     0.133 A 
ATOM      9  C   UNL     1      11.399   1.553  12.155  1.00  0.00     0.102 A 
ATOM     10  C   UNL     1      10.894   2.166  10.907  1.00  0.00     0.174 C 
ATOM     11  O   UNL     1      11.550   2.094   9.832  1.00  0.00    -0.294 OA
ENDROOT
BRANCH   2  12
ATOM     12  C   UNL     1       9.983   4.932  12.243  1.00  0.00    -0.007 A 
ATOM     13  C   UNL     1      10.609   5.460  11.096  1.00  0.00     0.011 A 
ATOM     14  C   UNL     1       9.942   5.714  13.411  1.00  0.00     0.011 A 
ATOM     15  C   UNL     1      11.200   6.727  11.130  1.00  0.00     0.046 A 
ATOM     16  C   UNL     1      10.534   6.981  13.442  1.00  0.00     0.046 A 
ATOM     17  C   UNL     1      11.165   7.489  12.304  1.00  0.00     0.115 A 
BRANCH  17  18
ATOM     18  O   UNL     1      11.752   8.752  12.348  1.00  0.00    -0.508 OA
ATOM     19  H   UNL     1      11.197   9.597  12.272  1.00  0.00     0.293 HD
ENDBRANCH  17  18
ENDBRANCH   2  12
BRANCH   8  20
ATOM     20  O   UNL     1      13.165   0.329  11.004  1.00  0.00    -0.507 OA
ATOM     21  H   UNL     1      14.147   0.543  10.874  1.00  0.00     0.293 HD
ENDBRANCH   8  20
BRANCH   6  22
ATOM     22  O   UNL     1      12.622  -0.163  15.794  1.00  0.00    -0.508 OA
ATOM     23  H   UNL     1      13.028   0.398  16.533  1.00  0.00     0.293 HD
ENDBRANCH   6  22
TORSDOF 4
ENDMDL
MODEL 6
REMARK VINA RESULT:    -5.969      2.601      5.603
REMARK INTER + INTRA:          -7.028
REMARK INTER:                  -6.571
REMARK INTRA:                  -0.457
REMARK UNBOUND:                -0.186
REMARK SMILES O=C1C[C@H](c2ccc(O)cc2)Oc2cc(O)cc(O)c21
REMARK SMILES IDX 3 1 4 2 12 3 13 4 14 5 15 6 17 7 18 8 20 9 2 10 1 11 5 12
REMARK SMILES IDX 6 13 11 14 7 15 10 16 8 17 9 18 19 20 16 22
REMARK H PARENT 9 19 19 21 16 23
REMARK Flexibility Score: inf
ROOT
ATOM      1  C   UNL     1       8.900   3.446  13.116  1.00  0.00     0.131 C 
ATOM      2  C   UNL     1       9.676   2.706  12.011  1.00  0.00     0.211 C 
ATOM      3  O   UNL     1      10.187   3.615  11.025  1.00  0.00    -0.484 OA
ATOM      4  C   UNL     1      10.602   4.923  11.314  1.00  0.00     0.138 A 
ATOM      5  C   UNL     1      11.258   5.663  10.326  1.00  0.00     0.093 A 
ATOM      6  C   UNL     1      11.714   6.954  10.600  1.00  0.00     0.123 A 
ATOM      7  C   UNL     1      11.511   7.511  11.868  1.00  0.00     0.093 A 
ATOM      8  C   UNL     1      10.842   6.784  12.864  1.00  0.00     0.133 A 
ATOM      9  C   UNL     1      10.378   5.481  12.586  1.00  0.00     0.102 A 
ATOM     10  C   UNL     1       9.640   4.667  13.577  1.00  0.00     0.174 C 
ATOM     11  O   UNL     1       9.579   5.009  14.789  1.00  0.00    -0.294 OA
ENDROOT
BRANCH   2  12
ATOM     12  C   UNL     1      10.779   1.838  12.591  1.00  0.00    -0.007 A 
ATOM     13  C   UNL     1      12.073   1.810  12.036  1.00  0.00     0.011 A 
ATOM     14  C   UNL     1      10.525   1.089  13.754  1.00  0.00     0.011 A 
ATOM     15  C   UNL     1      13.077   1.029  12.617  1.00  0.00     0.046 A 
ATOM     16  C   UNL     1      11.531   0.309  14.333  1.00  0.00     0.046 A 
ATOM     17  C   UNL     1      12.807   0.275  13.766  1.00  0.00     0.115 A 
BRANCH  17  18
ATOM     18  O   UNL     1      13.800  -0.507  14.352  1.00  0.00    -0.508 OA
ATOM     19  H   UNL     1      14.586  -0.854  13.815  1.00  0.00     0.293 HD
ENDBRANCH  17  18
ENDBRANCH   2  12
BRANCH   8  20
ATOM     20  O   UNL     1      10.635   7.361  14.117  1.00  0.00    -0.507 OA
ATOM     21  H   UNL     1       9.703   7.526  14.481  1.00  0.00     0.293 HD
ENDBRANCH   8  20
BRANCH   6  22
ATOM     22  O   UNL     1      12.371   7.676   9.604  1.00  0.00    -0.508 OA
ATOM     23  H   UNL     1      12.663   7.238   8.738  1.00  0.00     0.293 HD
ENDBRANCH   6  22
TORSDOF 4
ENDMDL
MODEL 7
REMARK VINA RESULT:    -5.862      2.947      4.863
REMARK INTER + INTRA:          -6.905
REMARK INTER:                  -6.450
REMARK INTRA:                  -0.455
REMARK UNBOUND:                -0.186
REMARK SMILES O=C1C[C@H](c2ccc(O)cc2)Oc2cc(O)cc(O)c21
REMARK SMILES IDX 3 1 4 2 12 3 13 4 14 5 15 6 17 7 18 8 20 9 2 10 1 11 5 12
REMARK SMILES IDX 6 13 11 14 7 15 10 16 8 17 9 18 19 20 16 22
REMARK H PARENT 9 19 19 21 16 23
REMARK Flexibility Score: inf
ROOT
ATOM      1  C   UNL     1      11.297   2.980  11.525  1.00  0.00     0.131 C 
ATOM      2  C   UNL     1      10.129   3.864  12.001  1.00  0.00     0.211 C 
ATOM      3  O   UNL     1       9.633   3.440  13.278  1.00  0.00    -0.484 OA
ATOM      4  C   UNL     1      10.438   2.874  14.277  1.00  0.00     0.138 A 
ATOM      5  C   UNL     1       9.900   2.667  15.550  1.00  0.00     0.093 A 
ATOM      6  C   UNL     1      10.691   2.139  16.573  1.00  0.00     0.123 A 
ATOM      7  C   UNL     1      12.029   1.811  16.320  1.00  0.00     0.093 A 
ATOM      8  C   UNL     1      12.578   1.999  15.042  1.00  0.00     0.133 A 
ATOM      9  C   UNL     1      11.777   2.530  14.009  1.00  0.00     0.102 A 
ATOM     10  C   UNL     1      12.278   2.730  12.632  1.00  0.00     0.174 C 
ATOM     11  O   UNL     1      13.507   2.642  12.364  1.00  0.00    -0.294 OA
ENDROOT
BRANCH   2  12
ATOM     12  C   UNL     1      10.514   5.333  12.014  1.00  0.00    -0.007 A 
ATOM     13  C   UNL     1      10.206   6.173  13.103  1.00  0.00     0.011 A 
ATOM     14  C   UNL     1      11.255   5.860  10.941  1.00  0.00     0.011 A 
ATOM     15  C   UNL     1      10.608   7.512  13.100  1.00  0.00     0.046 A 
ATOM     16  C   UNL     1      11.655   7.200  10.942  1.00  0.00     0.046 A 
ATOM     17  C   UNL     1      11.331   8.029  12.019  1.00  0.00     0.115 A 
BRANCH  17  18
ATOM     18  O   UNL     1      11.735   9.363  12.007  1.00  0.00    -0.508 OA
ATOM     19  H   UNL     1      12.691   9.624  11.796  1.00  0.00     0.293 HD
ENDBRANCH  17  18
ENDBRANCH   2  12
BRANCH   8  20
ATOM     20  O   UNL     1      13.907   1.652  14.805  1.00  0.00    -0.507 OA
ATOM     21  H   UNL     1      14.333   1.764  13.892  1.00  0.00     0.293 HD
ENDBRANCH   8  20
BRANCH   6  22
ATOM     22  O   UNL     1      10.140   1.946  17.838  1.00  0.00    -0.508 OA
ATOM     23  H   UNL     1      10.620   1.406  18.548  1.00  0.00     0.293 HD
ENDBRANCH   6  22
TORSDOF 4
ENDMDL
MODEL 8
REMARK VINA RESULT:    -5.856      2.139      2.958
REMARK INTER + INTRA:          -6.897
REMARK INTER:                  -6.439
REMARK INTRA:                  -0.458
REMARK UNBOUND:                -0.186
REMARK SMILES O=C1C[C@H](c2ccc(O)cc2)Oc2cc(O)cc(O)c21
REMARK SMILES IDX 3 1 4 2 12 3 13 4 14 5 15 6 17 7 18 8 20 9 2 10 1 11 5 12
REMARK SMILES IDX 6 13 11 14 7 15 10 16 8 17 9 18 19 20 16 22
REMARK H PARENT 9 19 19 21 16 23
REMARK Flexibility Score: inf
ROOT
ATOM      1  C   UNL     1      13.126   2.342  10.999  1.00  0.00     0.131 C 
ATOM      2  C   UNL     1      12.595   3.596  11.719  1.00  0.00     0.211 C 
ATOM      3  O   UNL     1      11.655   4.313  10.907  1.00  0.00    -0.484 OA
ATOM      4  C   UNL     1      10.783   3.697   9.998  1.00  0.00     0.138 A 
ATOM      5  C   UNL     1       9.779   4.458   9.393  1.00  0.00     0.093 A 
ATOM      6  C   UNL     1       8.874   3.860   8.512  1.00  0.00     0.123 A 
ATOM      7  C   UNL     1       8.977   2.493   8.231  1.00  0.00     0.093 A 
ATOM      8  C   UNL     1       9.990   1.719   8.819  1.00  0.00     0.133 A 
ATOM      9  C   UNL     1      10.904   2.325   9.706  1.00  0.00     0.102 A 
ATOM     10  C   UNL     1      12.013   1.580  10.341  1.00  0.00     0.174 C 
ATOM     11  O   UNL     1      12.067   0.322  10.295  1.00  0.00    -0.294 OA
ENDROOT
BRANCH   2  12
ATOM     12  C   UNL     1      12.008   3.251  13.076  1.00  0.00    -0.007 A 
ATOM     13  C   UNL     1      12.613   2.308  13.930  1.00  0.00     0.011 A 
ATOM     14  C   UNL     1      10.865   3.936  13.526  1.00  0.00     0.011 A 
ATOM     15  C   UNL     1      12.068   2.040  15.189  1.00  0.00     0.046 A 
ATOM     16  C   UNL     1      10.322   3.666  14.786  1.00  0.00     0.046 A 
ATOM     17  C   UNL     1      10.921   2.717  15.620  1.00  0.00     0.115 A 
BRANCH  17  18
ATOM     18  O   UNL     1      10.370   2.457  16.873  1.00  0.00    -0.508 OA
ATOM     19  H   UNL     1      10.700   2.932  17.705  1.00  0.00     0.293 HD
ENDBRANCH  17  18
ENDBRANCH   2  12
BRANCH   8  20
ATOM     20  O   UNL     1      10.085   0.362   8.515  1.00  0.00    -0.507 OA
ATOM     21  H   UNL     1      10.086   0.030   7.556  1.00  0.00     0.293 HD
ENDBRANCH   8  20
BRANCH   6  22
ATOM     22  O   UNL     1       7.875   4.633   7.924  1.00  0.00    -0.508 OA
ATOM     23  H   UNL     1       8.096   5.369   7.263  1.00  0.00     0.293 HD
ENDBRANCH   6  22
TORSDOF 4
ENDMDL
MODEL 9
REMARK VINA RESULT:    -3.622      2.430      5.453
REMARK INTER + INTRA:          -4.337
REMARK INTER:                  -3.876
REMARK INTRA:                  -0.461
REMARK UNBOUND:                -0.186
REMARK SMILES O=C1C[C@H](c2ccc(O)cc2)Oc2cc(O)cc(O)c21
REMARK SMILES IDX 3 1 4 2 12 3 13 4 14 5 15 6 17 7 18 8 20 9 2 10 1 11 5 12
REMARK SMILES IDX 6 13 11 14 7 15 10 16 8 17 9 18 19 20 16 22
REMARK H PARENT 9 19 19 21 16 23
REMARK Flexibility Score: inf
ROOT
ATOM      1  C   UNL     1      11.912   5.114  11.380  1.00  0.00     0.131 C 
ATOM      2  C   UNL     1      12.360   3.985  10.433  1.00  0.00     0.211 C 
ATOM      3  O   UNL     1      13.021   2.930  11.145  1.00  0.00    -0.484 OA
ATOM      4  C   UNL     1      12.698   2.556  12.458  1.00  0.00     0.138 A 
ATOM      5  C   UNL     1      13.267   1.398  12.995  1.00  0.00     0.093 A 
ATOM      6  C   UNL     1      12.934   0.983  14.287  1.00  0.00     0.123 A 
ATOM      7  C   UNL     1      12.029   1.733  15.048  1.00  0.00     0.093 A 
ATOM      8  C   UNL     1      11.461   2.906  14.525  1.00  0.00     0.133 A 
ATOM      9  C   UNL     1      11.800   3.325  13.222  1.00  0.00     0.102 A 
ATOM     10  C   UNL     1      11.265   4.564  12.616  1.00  0.00     0.174 C 
ATOM     11  O   UNL     1      10.310   5.192  13.148  1.00  0.00    -0.294 OA
ENDROOT
BRANCH   2  12
ATOM     12  C   UNL     1      11.199   3.458   9.609  1.00  0.00    -0.007 A 
ATOM     13  C   UNL     1      11.015   2.080   9.379  1.00  0.00     0.011 A 
ATOM     14  C   UNL     1      10.240   4.360   9.114  1.00  0.00     0.011 A 
ATOM     15  C   UNL     1       9.914   1.624   8.648  1.00  0.00     0.046 A 
ATOM     16  C   UNL     1       9.140   3.901   8.382  1.00  0.00     0.046 A 
ATOM     17  C   UNL     1       8.975   2.533   8.146  1.00  0.00     0.115 A 
BRANCH  17  18
ATOM     18  O   UNL     1       7.875   2.089   7.416  1.00  0.00    -0.508 OA
ATOM     19  H   UNL     1       7.245   1.385   7.783  1.00  0.00     0.293 HD
ENDBRANCH  17  18
ENDBRANCH   2  12
BRANCH   8  20
ATOM     20  O   UNL     1      10.573   3.648  15.303  1.00  0.00    -0.507 OA
ATOM     21  H   UNL     1       9.847   3.203  15.854  1.00  0.00     0.293 HD
ENDBRANCH   8  20
BRANCH   6  22
ATOM     22  O   UNL     1      13.506  -0.177  14.805  1.00  0.00    -0.508 OA
ATOM     23  H   UNL     1      14.363  -0.149  15.344  1.00  0.00     0.293 HD
ENDBRANCH   6  22
TORSDOF 4
ENDMDL
