MODEL 1
REMARK VINA RESULT:    -4.014      0.000      0.000
REMARK INTER + INTRA:         -15.289
REMARK INTER:                 -10.115
REMARK INTRA:                  -5.173
REMARK UNBOUND:                -5.173
REMARK SMILES CCCCCCCCCCCCCCCCCCCCCCCCCCCC(=O)[O-]
REMARK SMILES IDX 15 1 16 2 17 3 18 4 19 5 20 6 21 7 22 8 23 9 24 10 25 11
REMARK SMILES IDX 26 12 27 13 28 14 29 15 30 16 14 17 13 18 12 19 11 20 10 21
REMARK SMILES IDX 9 22 8 23 7 24 6 25 5 26 4 27 3 28 2 29 1 30
REMARK H PARENT
REMARK Flexibility Score: inf
ROOT
ATOM      1  C   UNL     1      20.062  -0.214  16.860  1.00  0.00     0.000 C 
ENDROOT
BRANCH   1   2
ATOM      2  C   UNL     1      20.100  -1.412  17.830  1.00  0.00     0.000 C 
BRANCH   2   3
ATOM      3  C   UNL     1      20.193  -2.786  17.132  1.00  0.00     0.000 C 
BRANCH   3   4
ATOM      4  C   UNL     1      21.276  -3.685  17.748  1.00  0.00     0.000 C 
BRANCH   4   5
ATOM      5  C   UNL     1      22.170  -2.896  18.713  1.00  0.00     0.000 C 
BRANCH   5   6
ATOM      6  C   UNL     1      23.613  -2.838  18.197  1.00  0.00     0.000 C 
BRANCH   6   7
ATOM      7  C   UNL     1      23.815  -3.793  17.011  1.00  0.00     0.000 C 
BRANCH   7   8
ATOM      8  C   UNL     1      24.038  -3.053  15.680  1.00  0.00     0.000 C 
BRANCH   8   9
ATOM      9  C   UNL     1      23.692  -1.550  15.703  1.00  0.00     0.000 C 
BRANCH   9  10
ATOM     10  C   UNL     1      22.795  -1.065  14.546  1.00  0.00     0.000 C 
BRANCH  10  11
ATOM     11  C   UNL     1      22.395  -2.155  13.535  1.00  0.00     0.000 C 
BRANCH  11  12
ATOM     12  C   UNL     1      20.914  -2.551  13.640  1.00  0.00     0.006 C 
BRANCH  12  13
ATOM     13  C   UNL     1      19.976  -1.375  13.335  1.00  0.00     0.053 C 
BRANCH  13  14
ATOM     14  C   UNL     1      18.952  -1.731  12.301  1.00  0.00     0.041 C 
ATOM     15  O   UNL     1      19.177  -1.502  11.083  1.00  0.00    -0.550 OA
ATOM     16  O   UNL     1      17.739  -2.289  12.684  1.00  0.00    -0.550 OA
ENDBRANCH  13  14
ENDBRANCH  12  13
ENDBRANCH  11  12
ENDBRANCH  10  11
ENDBRANCH   9  10
ENDBRANCH   8   9
ENDBRANCH   7   8
ENDBRANCH   6   7
ENDBRANCH   5   6
ENDBRANCH   4   5
ENDBRANCH   3   4
ENDBRANCH   2   3
ENDBRANCH   1   2
BRANCH   1  17
ATOM     17  C   UNL     1      21.109   0.880  17.133  1.00  0.00     0.000 C 
BRANCH  17  18
ATOM     18  C   UNL     1      21.741   0.769  18.529  1.00  0.00     0.000 C 
BRANCH  18  19
ATOM     19  C   UNL     1      23.270   0.910  18.456  1.00  0.00     0.000 C 
BRANCH  19  20
ATOM     20  C   UNL     1      23.795   2.195  19.130  1.00  0.00     0.000 C 
BRANCH  20  21
ATOM     21  C   UNL     1      24.864   2.951  18.318  1.00  0.00     0.000 C 
BRANCH  21  22
ATOM     22  C   UNL     1      25.528   2.157  17.176  1.00  0.00    -0.000 C 
BRANCH  22  23
ATOM     23  C   UNL     1      25.083   2.545  15.752  1.00  0.00    -0.000 C 
BRANCH  23  24
ATOM     24  C   UNL     1      24.193   3.799  15.719  1.00  0.00    -0.000 C 
BRANCH  24  25
ATOM     25  C   UNL     1      22.746   3.483  15.306  1.00  0.00    -0.000 C 
BRANCH  25  26
ATOM     26  C   UNL     1      22.664   2.471  14.150  1.00  0.00    -0.000 C 
BRANCH  26  27
ATOM     27  C   UNL     1      22.452   3.152  12.788  1.00  0.00    -0.000 C 
BRANCH  27  28
ATOM     28  C   UNL     1      22.020   4.622  12.925  1.00  0.00    -0.000 C 
BRANCH  28  29
ATOM     29  C   UNL     1      22.977   5.587  12.208  1.00  0.00    -0.003 C 
ATOM     30  C   UNL     1      24.447   5.278  12.491  1.00  0.00     0.004 C 
ENDBRANCH  28  29
ENDBRANCH  27  28
ENDBRANCH  26  27
ENDBRANCH  25  26
ENDBRANCH  24  25
ENDBRANCH  23  24
ENDBRANCH  22  23
ENDBRANCH  21  22
ENDBRANCH  20  21
ENDBRANCH  19  20
ENDBRANCH  18  19
ENDBRANCH  17  18
ENDBRANCH   1  17
TORSDOF 26
ENDMDL
MODEL 2
REMARK VINA RESULT:    -3.947      2.499      4.436
REMARK INTER + INTRA:         -15.120
REMARK INTER:                  -9.662
REMARK INTRA:                  -5.458
REMARK UNBOUND:                -5.173
REMARK SMILES CCCCCCCCCCCCCCCCCCCCCCCCCCCC(=O)[O-]
REMARK SMILES IDX 15 1 16 2 17 3 18 4 19 5 20 6 21 7 22 8 23 9 24 10 25 11
REMARK SMILES IDX 26 12 27 13 28 14 29 15 30 16 14 17 13 18 12 19 11 20 10 21
REMARK SMILES IDX 9 22 8 23 7 24 6 25 5 26 4 27 3 28 2 29 1 30
REMARK H PARENT
REMARK Flexibility Score: inf
ROOT
ATOM      1  C   UNL     1      25.411   2.939  16.637  1.00  0.00     0.000 C 
ENDROOT
BRANCH   1   2
ATOM      2  C   UNL     1      24.760   1.954  15.646  1.00  0.00     0.000 C 
BRANCH   2   3
ATOM      3  C   UNL     1      23.357   1.468  16.070  1.00  0.00     0.000 C 
BRANCH   3   4
ATOM      4  C   UNL     1      23.409   0.473  17.240  1.00  0.00     0.000 C 
BRANCH   4   5
ATOM      5  C   UNL     1      21.999   0.099  17.713  1.00  0.00     0.000 C 
BRANCH   5   6
ATOM      6  C   UNL     1      20.941   0.580  16.712  1.00  0.00     0.000 C 
BRANCH   6   7
ATOM      7  C   UNL     1      19.888  -0.508  16.456  1.00  0.00     0.000 C 
BRANCH   7   8
ATOM      8  C   UNL     1      20.311  -1.504  15.362  1.00  0.00     0.000 C 
BRANCH   8   9
ATOM      9  C   UNL     1      21.000  -0.871  14.135  1.00  0.00     0.000 C 
BRANCH   9  10
ATOM     10  C   UNL     1      22.430  -1.375  13.853  1.00  0.00     0.000 C 
BRANCH  10  11
ATOM     11  C   UNL     1      22.769  -2.743  14.472  1.00  0.00     0.000 C 
BRANCH  11  12
ATOM     12  C   UNL     1      23.822  -2.648  15.588  1.00  0.00     0.006 C 
BRANCH  12  13
ATOM     13  C   UNL     1      23.820  -3.886  16.495  1.00  0.00     0.053 C 
BRANCH  13  14
ATOM     14  C   UNL     1      23.230  -3.590  17.841  1.00  0.00     0.041 C 
ATOM     15  O   UNL     1      23.961  -3.592  18.867  1.00  0.00    -0.550 OA
ATOM     16  O   UNL     1      21.869  -3.342  17.966  1.00  0.00    -0.550 OA
ENDBRANCH  13  14
ENDBRANCH  12  13
ENDBRANCH  11  12
ENDBRANCH  10  11
ENDBRANCH   9  10
ENDBRANCH   8   9
ENDBRANCH   7   8
ENDBRANCH   6   7
ENDBRANCH   5   6
ENDBRANCH   4   5
ENDBRANCH   3   4
ENDBRANCH   2   3
ENDBRANCH   1   2
BRANCH   1  17
ATOM     17  C   UNL     1      26.576   2.363  17.461  1.00  0.00     0.000 C 
BRANCH  17  18
ATOM     18  C   UNL     1      26.345   2.464  18.976  1.00  0.00     0.000 C 
BRANCH  18  19
ATOM     19  C   UNL     1      25.155   3.384  19.293  1.00  0.00     0.000 C 
BRANCH  19  20
ATOM     20  C   UNL     1      24.018   2.667  20.051  1.00  0.00     0.000 C 
BRANCH  20  21
ATOM     21  C   UNL     1      22.627   3.306  19.867  1.00  0.00     0.000 C 
BRANCH  21  22
ATOM     22  C   UNL     1      22.399   4.052  18.538  1.00  0.00    -0.000 C 
BRANCH  22  23
ATOM     23  C   UNL     1      21.021   3.834  17.883  1.00  0.00    -0.000 C 
BRANCH  23  24
ATOM     24  C   UNL     1      20.728   4.831  16.750  1.00  0.00    -0.000 C 
BRANCH  24  25
ATOM     25  C   UNL     1      22.009   5.342  16.070  1.00  0.00    -0.000 C 
BRANCH  25  26
ATOM     26  C   UNL     1      21.894   5.380  14.536  1.00  0.00    -0.000 C 
BRANCH  26  27
ATOM     27  C   UNL     1      22.051   3.989  13.901  1.00  0.00    -0.000 C 
BRANCH  27  28
ATOM     28  C   UNL     1      22.908   4.018  12.624  1.00  0.00    -0.000 C 
BRANCH  28  29
ATOM     29  C   UNL     1      23.825   5.249  12.558  1.00  0.00    -0.003 C 
ATOM     30  C   UNL     1      25.184   5.009  13.214  1.00  0.00     0.004 C 
ENDBRANCH  28  29
ENDBRANCH  27  28
ENDBRANCH  26  27
ENDBRANCH  25  26
ENDBRANCH  24  25
ENDBRANCH  23  24
ENDBRANCH  22  23
ENDBRANCH  21  22
ENDBRANCH  20  21
ENDBRANCH  19  20
ENDBRANCH  18  19
ENDBRANCH  17  18
ENDBRANCH   1  17
TORSDOF 26
ENDMDL
MODEL 3
REMARK VINA RESULT:    -3.939      3.219      7.390
REMARK INTER + INTRA:         -15.098
REMARK INTER:                  -9.990
REMARK INTRA:                  -5.108
REMARK UNBOUND:                -5.173
REMARK SMILES CCCCCCCCCCCCCCCCCCCCCCCCCCCC(=O)[O-]
REMARK SMILES IDX 15 1 16 2 17 3 18 4 19 5 20 6 21 7 22 8 23 9 24 10 25 11
REMARK SMILES IDX 26 12 27 13 28 14 29 15 30 16 14 17 13 18 12 19 11 20 10 21
REMARK SMILES IDX 9 22 8 23 7 24 6 25 5 26 4 27 3 28 2 29 1 30
REMARK H PARENT
REMARK Flexibility Score: inf
ROOT
ATOM      1  C   UNL     1      23.346   1.702  19.322  1.00  0.00     0.000 C 
ENDROOT
BRANCH   1   2
ATOM      2  C   UNL     1      24.516   1.315  18.395  1.00  0.00     0.000 C 
BRANCH   2   3
ATOM      3  C   UNL     1      25.153   2.510  17.651  1.00  0.00     0.000 C 
BRANCH   3   4
ATOM      4  C   UNL     1      25.398   2.211  16.164  1.00  0.00     0.000 C 
BRANCH   4   5
ATOM      5  C   UNL     1      24.782   3.296  15.272  1.00  0.00     0.000 C 
BRANCH   5   6
ATOM      6  C   UNL     1      23.641   4.018  15.998  1.00  0.00     0.000 C 
BRANCH   6   7
ATOM      7  C   UNL     1      22.299   3.787  15.287  1.00  0.00     0.000 C 
BRANCH   7   8
ATOM      8  C   UNL     1      22.403   2.780  14.129  1.00  0.00     0.000 C 
BRANCH   8   9
ATOM      9  C   UNL     1      22.088   3.356  12.733  1.00  0.00     0.000 C 
BRANCH   9  10
ATOM     10  C   UNL     1      23.056   4.453  12.243  1.00  0.00     0.000 C 
BRANCH  10  11
ATOM     11  C   UNL     1      22.494   5.885  12.297  1.00  0.00     0.000 C 
BRANCH  11  12
ATOM     12  C   UNL     1      23.404   6.854  13.070  1.00  0.00     0.006 C 
BRANCH  12  13
ATOM     13  C   UNL     1      24.828   6.305  13.236  1.00  0.00     0.053 C 
BRANCH  13  14
ATOM     14  C   UNL     1      25.593   7.051  14.287  1.00  0.00     0.041 C 
ATOM     15  O   UNL     1      25.138   7.141  15.458  1.00  0.00    -0.550 OA
ATOM     16  O   UNL     1      26.795   7.669  13.966  1.00  0.00    -0.550 OA
ENDBRANCH  13  14
ENDBRANCH  12  13
ENDBRANCH  11  12
ENDBRANCH  10  11
ENDBRANCH   9  10
ENDBRANCH   8   9
ENDBRANCH   7   8
ENDBRANCH   6   7
ENDBRANCH   5   6
ENDBRANCH   4   5
ENDBRANCH   3   4
ENDBRANCH   2   3
ENDBRANCH   1   2
BRANCH   1  17
ATOM     17  C   UNL     1      21.943   1.448  18.743  1.00  0.00     0.000 C 
BRANCH  17  18
ATOM     18  C   UNL     1      21.979   0.786  17.357  1.00  0.00     0.000 C 
BRANCH  18  19
ATOM     19  C   UNL     1      20.557   0.566  16.814  1.00  0.00     0.000 C 
BRANCH  19  20
ATOM     20  C   UNL     1      20.164  -0.923  16.727  1.00  0.00     0.000 C 
BRANCH  20  21
ATOM     21  C   UNL     1      19.853  -1.581  18.085  1.00  0.00     0.000 C 
BRANCH  21  22
ATOM     22  C   UNL     1      20.588  -2.904  18.377  1.00  0.00    -0.000 C 
BRANCH  22  23
ATOM     23  C   UNL     1      21.044  -3.697  17.137  1.00  0.00    -0.000 C 
BRANCH  23  24
ATOM     24  C   UNL     1      22.535  -4.073  17.176  1.00  0.00    -0.000 C 
BRANCH  24  25
ATOM     25  C   UNL     1      23.446  -2.847  17.349  1.00  0.00    -0.000 C 
BRANCH  25  26
ATOM     26  C   UNL     1      23.668  -2.080  16.034  1.00  0.00    -0.000 C 
BRANCH  26  27
ATOM     27  C   UNL     1      23.570  -2.991  14.800  1.00  0.00    -0.000 C 
BRANCH  27  28
ATOM     28  C   UNL     1      22.559  -2.472  13.763  1.00  0.00    -0.000 C 
BRANCH  28  29
ATOM     29  C   UNL     1      22.355  -0.952  13.849  1.00  0.00    -0.003 C 
ATOM     30  C   UNL     1      21.059  -0.492  13.182  1.00  0.00     0.004 C 
ENDBRANCH  28  29
ENDBRANCH  27  28
ENDBRANCH  26  27
ENDBRANCH  25  26
ENDBRANCH  24  25
ENDBRANCH  23  24
ENDBRANCH  22  23
ENDBRANCH  21  22
ENDBRANCH  20  21
ENDBRANCH  19  20
ENDBRANCH  18  19
ENDBRANCH  17  18
ENDBRANCH   1  17
TORSDOF 26
ENDMDL
MODEL 4
REMARK VINA RESULT:    -3.930      1.644      3.134
REMARK INTER + INTRA:         -15.078
REMARK INTER:                  -9.997
REMARK INTRA:                  -5.080
REMARK UNBOUND:                -5.173
REMARK SMILES CCCCCCCCCCCCCCCCCCCCCCCCCCCC(=O)[O-]
REMARK SMILES IDX 15 1 16 2 17 3 18 4 19 5 20 6 21 7 22 8 23 9 24 10 25 11
REMARK SMILES IDX 26 12 27 13 28 14 29 15 30 16 14 17 13 18 12 19 11 20 10 21
REMARK SMILES IDX 9 22 8 23 7 24 6 25 5 26 4 27 3 28 2 29 1 30
REMARK H PARENT
REMARK Flexibility Score: inf
ROOT
ATOM      1  C   UNL     1      23.825  -3.546  16.681  1.00  0.00     0.000 C 
ENDROOT
BRANCH   1   2
ATOM      2  C   UNL     1      23.900  -4.751  17.640  1.00  0.00     0.000 C 
BRANCH   2   3
ATOM      3  C   UNL     1      22.542  -5.437  17.899  1.00  0.00     0.000 C 
BRANCH   3   4
ATOM      4  C   UNL     1      22.208  -5.533  19.396  1.00  0.00     0.000 C 
BRANCH   4   5
ATOM      5  C   UNL     1      21.042  -4.607  19.765  1.00  0.00     0.000 C 
BRANCH   5   6
ATOM      6  C   UNL     1      20.264  -4.183  18.513  1.00  0.00     0.000 C 
BRANCH   6   7
ATOM      7  C   UNL     1      19.491  -2.879  18.758  1.00  0.00     0.000 C 
BRANCH   7   8
ATOM      8  C   UNL     1      20.411  -1.697  19.112  1.00  0.00     0.000 C 
BRANCH   8   9
ATOM      9  C   UNL     1      20.117  -0.390  18.347  1.00  0.00     0.000 C 
BRANCH   9  10
ATOM     10  C   UNL     1      20.880  -0.222  17.017  1.00  0.00     0.000 C 
BRANCH  10  11
ATOM     11  C   UNL     1      20.128  -0.720  15.770  1.00  0.00     0.000 C 
BRANCH  11  12
ATOM     12  C   UNL     1      20.579  -2.119  15.320  1.00  0.00     0.006 C 
BRANCH  12  13
ATOM     13  C   UNL     1      20.503  -2.292  13.797  1.00  0.00     0.053 C 
BRANCH  13  14
ATOM     14  C   UNL     1      21.710  -1.729  13.111  1.00  0.00     0.041 C 
ATOM     15  O   UNL     1      21.581  -1.053  12.057  1.00  0.00    -0.550 OA
ATOM     16  O   UNL     1      22.979  -1.976  13.619  1.00  0.00    -0.550 OA
ENDBRANCH  13  14
ENDBRANCH  12  13
ENDBRANCH  11  12
ENDBRANCH  10  11
ENDBRANCH   9  10
ENDBRANCH   8   9
ENDBRANCH   7   8
ENDBRANCH   6   7
ENDBRANCH   5   6
ENDBRANCH   4   5
ENDBRANCH   3   4
ENDBRANCH   2   3
ENDBRANCH   1   2
BRANCH   1  17
ATOM     17  C   UNL     1      23.836  -2.167  17.364  1.00  0.00     0.000 C 
BRANCH  17  18
ATOM     18  C   UNL     1      23.988  -2.256  18.890  1.00  0.00     0.000 C 
BRANCH  18  19
ATOM     19  C   UNL     1      24.612  -0.971  19.458  1.00  0.00     0.000 C 
BRANCH  19  20
ATOM     20  C   UNL     1      23.563   0.091  19.851  1.00  0.00     0.000 C 
BRANCH  20  21
ATOM     21  C   UNL     1      23.560   1.346  18.958  1.00  0.00     0.000 C 
BRANCH  21  22
ATOM     22  C   UNL     1      24.702   1.441  17.927  1.00  0.00    -0.000 C 
BRANCH  22  23
ATOM     23  C   UNL     1      24.726   2.729  17.080  1.00  0.00    -0.000 C 
BRANCH  23  24
ATOM     24  C   UNL     1      24.704   2.456  15.567  1.00  0.00    -0.000 C 
BRANCH  24  25
ATOM     25  C   UNL     1      23.812   1.259  15.198  1.00  0.00    -0.000 C 
BRANCH  25  26
ATOM     26  C   UNL     1      22.666   1.641  14.246  1.00  0.00    -0.000 C 
BRANCH  26  27
ATOM     27  C   UNL     1      22.524   3.163  14.079  1.00  0.00    -0.000 C 
BRANCH  27  28
ATOM     28  C   UNL     1      22.776   3.623  12.633  1.00  0.00    -0.000 C 
BRANCH  28  29
ATOM     29  C   UNL     1      23.340   5.050  12.559  1.00  0.00    -0.003 C 
ATOM     30  C   UNL     1      24.811   5.125  12.967  1.00  0.00     0.004 C 
ENDBRANCH  28  29
ENDBRANCH  27  28
ENDBRANCH  26  27
ENDBRANCH  25  26
ENDBRANCH  24  25
ENDBRANCH  23  24
ENDBRANCH  22  23
ENDBRANCH  21  22
ENDBRANCH  20  21
ENDBRANCH  19  20
ENDBRANCH  18  19
ENDBRANCH  17  18
ENDBRANCH   1  17
TORSDOF 26
ENDMDL
MODEL 5
REMARK VINA RESULT:    -3.922      2.687      4.900
REMARK INTER + INTRA:         -15.056
REMARK INTER:                 -10.371
REMARK INTRA:                  -4.685
REMARK UNBOUND:                -5.173
REMARK SMILES CCCCCCCCCCCCCCCCCCCCCCCCCCCC(=O)[O-]
REMARK SMILES IDX 15 1 16 2 17 3 18 4 19 5 20 6 21 7 22 8 23 9 24 10 25 11
REMARK SMILES IDX 26 12 27 13 28 14 29 15 30 16 14 17 13 18 12 19 11 20 10 21
REMARK SMILES IDX 9 22 8 23 7 24 6 25 5 26 4 27 3 28 2 29 1 30
REMARK H PARENT
REMARK Flexibility Score: inf
ROOT
ATOM      1  C   UNL     1      22.779   1.844  14.210  1.00  0.00     0.000 C 
ENDROOT
BRANCH   1   2
ATOM      2  C   UNL     1      23.522   0.964  15.235  1.00  0.00     0.000 C 
BRANCH   2   3
ATOM      3  C   UNL     1      23.342   1.415  16.701  1.00  0.00     0.000 C 
BRANCH   3   4
ATOM      4  C   UNL     1      23.321   0.231  17.680  1.00  0.00     0.000 C 
BRANCH   4   5
ATOM      5  C   UNL     1      21.926   0.038  18.287  1.00  0.00     0.000 C 
BRANCH   5   6
ATOM      6  C   UNL     1      21.135  -1.024  17.514  1.00  0.00     0.000 C 
BRANCH   6   7
ATOM      7  C   UNL     1      20.105  -0.373  16.578  1.00  0.00     0.000 C 
BRANCH   7   8
ATOM      8  C   UNL     1      20.209  -0.882  15.130  1.00  0.00     0.000 C 
BRANCH   8   9
ATOM      9  C   UNL     1      20.553  -2.379  14.988  1.00  0.00     0.000 C 
BRANCH   9  10
ATOM     10  C   UNL     1      21.537  -2.721  13.850  1.00  0.00     0.000 C 
BRANCH  10  11
ATOM     11  C   UNL     1      22.994  -2.294  14.103  1.00  0.00     0.000 C 
BRANCH  11  12
ATOM     12  C   UNL     1      23.828  -3.392  14.783  1.00  0.00     0.006 C 
BRANCH  12  13
ATOM     13  C   UNL     1      24.000  -3.141  16.288  1.00  0.00     0.053 C 
BRANCH  13  14
ATOM     14  C   UNL     1      23.514  -4.299  17.105  1.00  0.00     0.041 C 
ATOM     15  O   UNL     1      24.337  -5.038  17.708  1.00  0.00    -0.550 OA
ATOM     16  O   UNL     1      22.155  -4.579  17.179  1.00  0.00    -0.550 OA
ENDBRANCH  13  14
ENDBRANCH  12  13
ENDBRANCH  11  12
ENDBRANCH  10  11
ENDBRANCH   9  10
ENDBRANCH   8   9
ENDBRANCH   7   8
ENDBRANCH   6   7
ENDBRANCH   5   6
ENDBRANCH   4   5
ENDBRANCH   3   4
ENDBRANCH   2   3
ENDBRANCH   1   2
BRANCH   1  17
ATOM     17  C   UNL     1      23.496   3.152  13.832  1.00  0.00     0.000 C 
BRANCH  17  18
ATOM     18  C   UNL     1      22.876   3.842  12.607  1.00  0.00     0.000 C 
BRANCH  18  19
ATOM     19  C   UNL     1      23.643   5.125  12.249  1.00  0.00     0.000 C 
BRANCH  19  20
ATOM     20  C   UNL     1      25.016   5.226  12.945  1.00  0.00     0.000 C 
BRANCH  20  21
ATOM     21  C   UNL     1      25.301   6.593  13.599  1.00  0.00     0.000 C 
BRANCH  21  22
ATOM     22  C   UNL     1      24.618   6.844  14.957  1.00  0.00    -0.000 C 
BRANCH  22  23
ATOM     23  C   UNL     1      24.678   5.673  15.958  1.00  0.00    -0.000 C 
BRANCH  23  24
ATOM     24  C   UNL     1      23.309   5.329  16.567  1.00  0.00    -0.000 C 
BRANCH  24  25
ATOM     25  C   UNL     1      22.179   6.209  16.007  1.00  0.00    -0.000 C 
BRANCH  25  26
ATOM     26  C   UNL     1      21.104   5.397  15.265  1.00  0.00    -0.000 C 
BRANCH  26  27
ATOM     27  C   UNL     1      20.290   6.258  14.285  1.00  0.00    -0.000 C 
BRANCH  27  28
ATOM     28  C   UNL     1      21.124   7.391  13.664  1.00  0.00    -0.000 C 
BRANCH  28  29
ATOM     29  C   UNL     1      20.900   7.525  12.149  1.00  0.00    -0.003 C 
ATOM     30  C   UNL     1      19.495   7.104  11.721  1.00  0.00     0.004 C 
ENDBRANCH  28  29
ENDBRANCH  27  28
ENDBRANCH  26  27
ENDBRANCH  25  26
ENDBRANCH  24  25
ENDBRANCH  23  24
ENDBRANCH  22  23
ENDBRANCH  21  22
ENDBRANCH  20  21
ENDBRANCH  19  20
ENDBRANCH  18  19
ENDBRANCH  17  18
ENDBRANCH   1  17
TORSDOF 26
ENDMDL
MODEL 6
REMARK VINA RESULT:    -3.913      2.914      7.330
REMARK INTER + INTRA:         -15.034
REMARK INTER:                 -10.583
REMARK INTRA:                  -4.451
REMARK UNBOUND:                -5.173
REMARK SMILES CCCCCCCCCCCCCCCCCCCCCCCCCCCC(=O)[O-]
REMARK SMILES IDX 15 1 16 2 17 3 18 4 19 5 20 6 21 7 22 8 23 9 24 10 25 11
REMARK SMILES IDX 26 12 27 13 28 14 29 15 30 16 14 17 13 18 12 19 11 20 10 21
REMARK SMILES IDX 9 22 8 23 7 24 6 25 5 26 4 27 3 28 2 29 1 30
REMARK H PARENT
REMARK Flexibility Score: inf
ROOT
ATOM      1  C   UNL     1      21.713   1.284  16.846  1.00  0.00     0.000 C 
ENDROOT
BRANCH   1   2
ATOM      2  C   UNL     1      21.373   0.558  15.530  1.00  0.00     0.000 C 
BRANCH   2   3
ATOM      3  C   UNL     1      22.177   1.055  14.309  1.00  0.00     0.000 C 
BRANCH   3   4
ATOM      4  C   UNL     1      22.398   2.575  14.332  1.00  0.00     0.000 C 
BRANCH   4   5
ATOM      5  C   UNL     1      22.170   3.190  12.945  1.00  0.00     0.000 C 
BRANCH   5   6
ATOM      6  C   UNL     1      21.701   4.645  13.063  1.00  0.00     0.000 C 
BRANCH   6   7
ATOM      7  C   UNL     1      22.661   5.596  12.333  1.00  0.00     0.000 C 
BRANCH   7   8
ATOM      8  C   UNL     1      24.105   5.067  12.288  1.00  0.00     0.000 C 
BRANCH   8   9
ATOM      9  C   UNL     1      25.048   5.650  13.360  1.00  0.00     0.000 C 
BRANCH   9  10
ATOM     10  C   UNL     1      25.222   4.782  14.623  1.00  0.00     0.000 C 
BRANCH  10  11
ATOM     11  C   UNL     1      24.389   5.228  15.838  1.00  0.00     0.000 C 
BRANCH  11  12
ATOM     12  C   UNL     1      24.426   4.212  16.992  1.00  0.00     0.006 C 
BRANCH  12  13
ATOM     13  C   UNL     1      25.192   2.936  16.618  1.00  0.00     0.053 C 
BRANCH  13  14
ATOM     14  C   UNL     1      25.835   2.301  17.813  1.00  0.00     0.041 C 
ATOM     15  O   UNL     1      27.082   2.370  17.973  1.00  0.00    -0.550 OA
ATOM     16  O   UNL     1      25.060   1.607  18.734  1.00  0.00    -0.550 OA
ENDBRANCH  13  14
ENDBRANCH  12  13
ENDBRANCH  11  12
ENDBRANCH  10  11
ENDBRANCH   9  10
ENDBRANCH   8   9
ENDBRANCH   7   8
ENDBRANCH   6   7
ENDBRANCH   5   6
ENDBRANCH   4   5
ENDBRANCH   3   4
ENDBRANCH   2   3
ENDBRANCH   1   2
BRANCH   1  17
ATOM     17  C   UNL     1      21.578   0.429  18.118  1.00  0.00     0.000 C 
BRANCH  17  18
ATOM     18  C   UNL     1      20.393  -0.547  18.060  1.00  0.00     0.000 C 
BRANCH  18  19
ATOM     19  C   UNL     1      20.839  -1.978  18.405  1.00  0.00     0.000 C 
BRANCH  19  20
ATOM     20  C   UNL     1      20.062  -3.060  17.626  1.00  0.00     0.000 C 
BRANCH  20  21
ATOM     21  C   UNL     1      20.923  -4.246  17.151  1.00  0.00     0.000 C 
BRANCH  21  22
ATOM     22  C   UNL     1      22.263  -4.442  17.887  1.00  0.00    -0.000 C 
BRANCH  22  23
ATOM     23  C   UNL     1      23.527  -4.280  17.020  1.00  0.00    -0.000 C 
BRANCH  23  24
ATOM     24  C   UNL     1      24.076  -2.844  17.017  1.00  0.00    -0.000 C 
BRANCH  24  25
ATOM     25  C   UNL     1      23.749  -2.092  15.717  1.00  0.00    -0.000 C 
BRANCH  25  26
ATOM     26  C   UNL     1      23.199  -3.016  14.617  1.00  0.00    -0.000 C 
BRANCH  26  27
ATOM     27  C   UNL     1      22.222  -2.292  13.676  1.00  0.00    -0.000 C 
BRANCH  27  28
ATOM     28  C   UNL     1      20.781  -2.815  13.808  1.00  0.00    -0.000 C 
BRANCH  28  29
ATOM     29  C   UNL     1      19.745  -1.835  13.236  1.00  0.00    -0.003 C 
ATOM     30  C   UNL     1      20.257  -1.086  12.006  1.00  0.00     0.004 C 
ENDBRANCH  28  29
ENDBRANCH  27  28
ENDBRANCH  26  27
ENDBRANCH  25  26
ENDBRANCH  24  25
ENDBRANCH  23  24
ENDBRANCH  22  23
ENDBRANCH  21  22
ENDBRANCH  20  21
ENDBRANCH  19  20
ENDBRANCH  18  19
ENDBRANCH  17  18
ENDBRANCH   1  17
TORSDOF 26
ENDMDL
MODEL 7
REMARK VINA RESULT:    -3.901      3.157      6.621
REMARK INTER + INTRA:         -15.005
REMARK INTER:                 -10.380
REMARK INTRA:                  -4.625
REMARK UNBOUND:                -5.173
REMARK SMILES CCCCCCCCCCCCCCCCCCCCCCCCCCCC(=O)[O-]
REMARK SMILES IDX 15 1 16 2 17 3 18 4 19 5 20 6 21 7 22 8 23 9 24 10 25 11
REMARK SMILES IDX 26 12 27 13 28 14 29 15 30 16 14 17 13 18 12 19 11 20 10 21
REMARK SMILES IDX 9 22 8 23 7 24 6 25 5 26 4 27 3 28 2 29 1 30
REMARK H PARENT
REMARK Flexibility Score: inf
ROOT
ATOM      1  C   UNL     1      19.889   0.042  16.943  1.00  0.00     0.000 C 
ENDROOT
BRANCH   1   2
ATOM      2  C   UNL     1      21.017   1.023  17.323  1.00  0.00     0.000 C 
BRANCH   2   3
ATOM      3  C   UNL     1      21.728   0.683  18.650  1.00  0.00     0.000 C 
BRANCH   3   4
ATOM      4  C   UNL     1      23.258   0.781  18.538  1.00  0.00     0.000 C 
BRANCH   4   5
ATOM      5  C   UNL     1      23.680   2.070  17.823  1.00  0.00     0.000 C 
BRANCH   5   6
ATOM      6  C   UNL     1      24.972   1.854  17.025  1.00  0.00     0.000 C 
BRANCH   6   7
ATOM      7  C   UNL     1      24.871   2.487  15.629  1.00  0.00     0.000 C 
BRANCH   7   8
ATOM      8  C   UNL     1      23.456   2.998  15.305  1.00  0.00     0.000 C 
BRANCH   8   9
ATOM      9  C   UNL     1      22.925   2.609  13.911  1.00  0.00     0.000 C 
BRANCH   9  10
ATOM     10  C   UNL     1      21.992   3.646  13.252  1.00  0.00     0.000 C 
BRANCH  10  11
ATOM     11  C   UNL     1      22.606   4.409  12.064  1.00  0.00     0.000 C 
BRANCH  11  12
ATOM     12  C   UNL     1      23.854   5.216  12.455  1.00  0.00     0.006 C 
BRANCH  12  13
ATOM     13  C   UNL     1      23.550   6.276  13.523  1.00  0.00     0.053 C 
BRANCH  13  14
ATOM     14  C   UNL     1      24.585   7.358  13.547  1.00  0.00     0.041 C 
ATOM     15  O   UNL     1      24.242   8.565  13.441  1.00  0.00    -0.550 OA
ATOM     16  O   UNL     1      25.931   7.032  13.657  1.00  0.00    -0.550 OA
ENDBRANCH  13  14
ENDBRANCH  12  13
ENDBRANCH  11  12
ENDBRANCH  10  11
ENDBRANCH   9  10
ENDBRANCH   8   9
ENDBRANCH   7   8
ENDBRANCH   6   7
ENDBRANCH   5   6
ENDBRANCH   4   5
ENDBRANCH   3   4
ENDBRANCH   2   3
ENDBRANCH   1   2
BRANCH   1  17
ATOM     17  C   UNL     1      19.642  -1.091  17.954  1.00  0.00     0.000 C 
BRANCH  17  18
ATOM     18  C   UNL     1      20.165  -2.451  17.468  1.00  0.00     0.000 C 
BRANCH  18  19
ATOM     19  C   UNL     1      21.085  -3.097  18.517  1.00  0.00     0.000 C 
BRANCH  19  20
ATOM     20  C   UNL     1      22.551  -3.212  18.049  1.00  0.00     0.000 C 
BRANCH  20  21
ATOM     21  C   UNL     1      22.740  -3.972  16.723  1.00  0.00     0.000 C 
BRANCH  21  22
ATOM     22  C   UNL     1      23.451  -3.196  15.597  1.00  0.00    -0.000 C 
BRANCH  22  23
ATOM     23  C   UNL     1      23.696  -1.700  15.874  1.00  0.00    -0.000 C 
BRANCH  23  24
ATOM     24  C   UNL     1      23.028  -0.779  14.840  1.00  0.00    -0.000 C 
BRANCH  24  25
ATOM     25  C   UNL     1      22.262  -1.562  13.762  1.00  0.00    -0.000 C 
BRANCH  25  26
ATOM     26  C   UNL     1      20.874  -0.969  13.467  1.00  0.00    -0.000 C 
BRANCH  26  27
ATOM     27  C   UNL     1      19.732  -1.906  13.894  1.00  0.00    -0.000 C 
BRANCH  27  28
ATOM     28  C   UNL     1      18.789  -2.254  12.730  1.00  0.00    -0.000 C 
BRANCH  28  29
ATOM     29  C   UNL     1      18.979  -1.326  11.520  1.00  0.00    -0.003 C 
ATOM     30  C   UNL     1      17.749  -1.278  10.614  1.00  0.00     0.004 C 
ENDBRANCH  28  29
ENDBRANCH  27  28
ENDBRANCH  26  27
ENDBRANCH  25  26
ENDBRANCH  24  25
ENDBRANCH  23  24
ENDBRANCH  22  23
ENDBRANCH  21  22
ENDBRANCH  20  21
ENDBRANCH  19  20
ENDBRANCH  18  19
ENDBRANCH  17  18
ENDBRANCH   1  17
TORSDOF 26
ENDMDL
MODEL 8
REMARK VINA RESULT:    -3.891      2.650      4.985
REMARK INTER + INTRA:         -14.978
REMARK INTER:                 -10.184
REMARK INTRA:                  -4.794
REMARK UNBOUND:                -5.173
REMARK SMILES CCCCCCCCCCCCCCCCCCCCCCCCCCCC(=O)[O-]
REMARK SMILES IDX 15 1 16 2 17 3 18 4 19 5 20 6 21 7 22 8 23 9 24 10 25 11
REMARK SMILES IDX 26 12 27 13 28 14 29 15 30 16 14 17 13 18 12 19 11 20 10 21
REMARK SMILES IDX 9 22 8 23 7 24 6 25 5 26 4 27 3 28 2 29 1 30
REMARK H PARENT
REMARK Flexibility Score: inf
ROOT
ATOM      1  C   UNL     1      20.836   0.566  17.456  1.00  0.00     0.000 C 
ENDROOT
BRANCH   1   2
ATOM      2  C   UNL     1      22.150  -0.006  18.024  1.00  0.00     0.000 C 
BRANCH   2   3
ATOM      3  C   UNL     1      22.075  -0.397  19.515  1.00  0.00     0.000 C 
BRANCH   3   4
ATOM      4  C   UNL     1      21.316   0.640  20.357  1.00  0.00     0.000 C 
BRANCH   4   5
ATOM      5  C   UNL     1      20.064   0.027  20.996  1.00  0.00     0.000 C 
BRANCH   5   6
ATOM      6  C   UNL     1      19.884  -1.431  20.557  1.00  0.00     0.000 C 
BRANCH   6   7
ATOM      7  C   UNL     1      18.522  -1.640  19.878  1.00  0.00     0.000 C 
BRANCH   7   8
ATOM      8  C   UNL     1      18.367  -3.045  19.271  1.00  0.00     0.000 C 
BRANCH   8   9
ATOM      9  C   UNL     1      19.665  -3.878  19.214  1.00  0.00     0.000 C 
BRANCH   9  10
ATOM     10  C   UNL     1      19.684  -4.989  18.144  1.00  0.00     0.000 C 
BRANCH  10  11
ATOM     11  C   UNL     1      21.088  -5.434  17.697  1.00  0.00     0.000 C 
BRANCH  11  12
ATOM     12  C   UNL     1      22.209  -4.578  18.310  1.00  0.00     0.006 C 
BRANCH  12  13
ATOM     13  C   UNL     1      23.480  -4.585  17.451  1.00  0.00     0.053 C 
BRANCH  13  14
ATOM     14  C   UNL     1      24.076  -3.216  17.325  1.00  0.00     0.041 C 
ATOM     15  O   UNL     1      24.114  -2.642  16.204  1.00  0.00    -0.550 OA
ATOM     16  O   UNL     1      24.615  -2.586  18.439  1.00  0.00    -0.550 OA
ENDBRANCH  13  14
ENDBRANCH  12  13
ENDBRANCH  11  12
ENDBRANCH  10  11
ENDBRANCH   9  10
ENDBRANCH   8   9
ENDBRANCH   7   8
ENDBRANCH   6   7
ENDBRANCH   5   6
ENDBRANCH   4   5
ENDBRANCH   3   4
ENDBRANCH   2   3
ENDBRANCH   1   2
BRANCH   1  17
ATOM     17  C   UNL     1      20.029  -0.404  16.575  1.00  0.00     0.000 C 
BRANCH  17  18
ATOM     18  C   UNL     1      20.679  -1.792  16.463  1.00  0.00     0.000 C 
BRANCH  18  19
ATOM     19  C   UNL     1      20.526  -2.360  15.042  1.00  0.00     0.000 C 
BRANCH  19  20
ATOM     20  C   UNL     1      20.088  -1.301  14.009  1.00  0.00     0.000 C 
BRANCH  20  21
ATOM     21  C   UNL     1      21.219  -0.805  13.086  1.00  0.00     0.000 C 
BRANCH  21  22
ATOM     22  C   UNL     1      21.742   0.617  13.367  1.00  0.00    -0.000 C 
BRANCH  22  23
ATOM     23  C   UNL     1      22.871   0.715  14.412  1.00  0.00    -0.000 C 
BRANCH  23  24
ATOM     24  C   UNL     1      23.469   2.127  14.521  1.00  0.00    -0.000 C 
BRANCH  24  25
ATOM     25  C   UNL     1      22.447   3.163  15.017  1.00  0.00    -0.000 C 
BRANCH  25  26
ATOM     26  C   UNL     1      22.065   4.188  13.936  1.00  0.00    -0.000 C 
BRANCH  26  27
ATOM     27  C   UNL     1      22.906   4.034  12.658  1.00  0.00    -0.000 C 
BRANCH  27  28
ATOM     28  C   UNL     1      23.804   5.254  12.393  1.00  0.00    -0.000 C 
BRANCH  28  29
ATOM     29  C   UNL     1      25.132   5.187  13.163  1.00  0.00    -0.003 C 
ATOM     30  C   UNL     1      25.264   6.294  14.209  1.00  0.00     0.004 C 
ENDBRANCH  28  29
ENDBRANCH  27  28
ENDBRANCH  26  27
ENDBRANCH  25  26
ENDBRANCH  24  25
ENDBRANCH  23  24
ENDBRANCH  22  23
ENDBRANCH  21  22
ENDBRANCH  20  21
ENDBRANCH  19  20
ENDBRANCH  18  19
ENDBRANCH  17  18
ENDBRANCH   1  17
TORSDOF 26
ENDMDL
MODEL 9
REMARK VINA RESULT:    -3.886      2.944      5.362
REMARK INTER + INTRA:         -14.967
REMARK INTER:                  -9.796
REMARK INTRA:                  -5.171
REMARK UNBOUND:                -5.173
REMARK SMILES CCCCCCCCCCCCCCCCCCCCCCCCCCCC(=O)[O-]
REMARK SMILES IDX 15 1 16 2 17 3 18 4 19 5 20 6 21 7 22 8 23 9 24 10 25 11
REMARK SMILES IDX 26 12 27 13 28 14 29 15 30 16 14 17 13 18 12 19 11 20 10 21
REMARK SMILES IDX 9 22 8 23 7 24 6 25 5 26 4 27 3 28 2 29 1 30
REMARK H PARENT
REMARK Flexibility Score: inf
ROOT
ATOM      1  C   UNL     1      24.630   2.100  15.473  1.00  0.00     0.000 C 
ENDROOT
BRANCH   1   2
ATOM      2  C   UNL     1      24.186   2.990  16.651  1.00  0.00     0.000 C 
BRANCH   2   3
ATOM      3  C   UNL     1      24.182   2.272  18.018  1.00  0.00     0.000 C 
BRANCH   3   4
ATOM      4  C   UNL     1      23.451   0.921  17.969  1.00  0.00     0.000 C 
BRANCH   4   5
ATOM      5  C   UNL     1      21.930   1.111  18.028  1.00  0.00     0.000 C 
BRANCH   5   6
ATOM      6  C   UNL     1      21.203  -0.203  17.721  1.00  0.00     0.000 C 
BRANCH   6   7
ATOM      7  C   UNL     1      20.328  -0.070  16.465  1.00  0.00     0.000 C 
BRANCH   7   8
ATOM      8  C   UNL     1      20.466  -1.268  15.511  1.00  0.00     0.000 C 
BRANCH   8   9
ATOM      9  C   UNL     1      21.166  -0.958  14.172  1.00  0.00     0.000 C 
BRANCH   9  10
ATOM     10  C   UNL     1      22.538  -1.637  13.976  1.00  0.00     0.000 C 
BRANCH  10  11
ATOM     11  C   UNL     1      23.442  -1.644  15.222  1.00  0.00     0.000 C 
BRANCH  11  12
ATOM     12  C   UNL     1      23.953  -3.049  15.580  1.00  0.00     0.006 C 
BRANCH  12  13
ATOM     13  C   UNL     1      23.030  -3.767  16.573  1.00  0.00     0.053 C 
BRANCH  13  14
ATOM     14  C   UNL     1      23.799  -4.396  17.695  1.00  0.00     0.041 C 
ATOM     15  O   UNL     1      23.514  -5.559  18.085  1.00  0.00    -0.550 OA
ATOM     16  O   UNL     1      24.812  -3.687  18.328  1.00  0.00    -0.550 OA
ENDBRANCH  13  14
ENDBRANCH  12  13
ENDBRANCH  11  12
ENDBRANCH  10  11
ENDBRANCH   9  10
ENDBRANCH   8   9
ENDBRANCH   7   8
ENDBRANCH   6   7
ENDBRANCH   5   6
ENDBRANCH   4   5
ENDBRANCH   3   4
ENDBRANCH   2   3
ENDBRANCH   1   2
BRANCH   1  17
ATOM     17  C   UNL     1      23.569   1.888  14.379  1.00  0.00     0.000 C 
BRANCH  17  18
ATOM     18  C   UNL     1      22.267   2.656  14.652  1.00  0.00     0.000 C 
BRANCH  18  19
ATOM     19  C   UNL     1      21.640   3.164  13.343  1.00  0.00     0.000 C 
BRANCH  19  20
ATOM     20  C   UNL     1      22.681   3.715  12.346  1.00  0.00     0.000 C 
BRANCH  20  21
ATOM     21  C   UNL     1      23.221   5.115  12.697  1.00  0.00     0.000 C 
BRANCH  21  22
ATOM     22  C   UNL     1      24.755   5.263  12.706  1.00  0.00    -0.000 C 
BRANCH  22  23
ATOM     23  C   UNL     1      25.377   5.646  14.064  1.00  0.00    -0.000 C 
BRANCH  23  24
ATOM     24  C   UNL     1      25.795   7.124  14.139  1.00  0.00    -0.000 C 
BRANCH  24  25
ATOM     25  C   UNL     1      25.051   7.891  15.244  1.00  0.00    -0.000 C 
BRANCH  25  26
ATOM     26  C   UNL     1      23.560   8.099  14.924  1.00  0.00    -0.000 C 
BRANCH  26  27
ATOM     27  C   UNL     1      22.654   7.795  16.129  1.00  0.00    -0.000 C 
BRANCH  27  28
ATOM     28  C   UNL     1      22.548   6.288  16.421  1.00  0.00    -0.000 C 
BRANCH  28  29
ATOM     29  C   UNL     1      21.155   5.723  16.106  1.00  0.00    -0.003 C 
ATOM     30  C   UNL     1      20.642   4.778  17.192  1.00  0.00     0.004 C 
ENDBRANCH  28  29
ENDBRANCH  27  28
ENDBRANCH  26  27
ENDBRANCH  25  26
ENDBRANCH  24  25
ENDBRANCH  23  24
ENDBRANCH  22  23
ENDBRANCH  21  22
ENDBRANCH  20  21
ENDBRANCH  19  20
ENDBRANCH  18  19
ENDBRANCH  17  18
ENDBRANCH   1  17
TORSDOF 26
ENDMDL
