MODEL 1
REMARK VINA RESULT:    -4.891      0.000      0.000
REMARK INTER + INTRA:          -5.392
REMARK INTER:                  -5.177
REMARK INTRA:                  -0.215
REMARK UNBOUND:                -0.215
REMARK SMILES C=C(C)[C@@H]1CC=C(C)C(=O)C1
REMARK SMILES IDX 8 1 7 2 6 3 5 4 4 5 11 6 9 7 10 8 2 9 1 10 3 11
REMARK H PARENT
REMARK Flexibility Score: inf
ROOT
ATOM      1  C   UNL     1      -9.212 -25.083 -18.217  1.00  0.00     0.048 C 
ATOM      2  C   UNL     1      -9.217 -26.587 -18.187  1.00  0.00    -0.012 C 
ATOM      3  C   UNL     1     -10.383 -27.247 -18.114  1.00  0.00    -0.019 C 
ATOM      4  C   UNL     1     -10.459 -28.748 -18.048  1.00  0.00     0.036 C 
ATOM      5  C   UNL     1      -9.287 -29.457 -18.758  1.00  0.00     0.025 C 
ATOM      6  C   UNL     1      -7.927 -28.834 -18.381  1.00  0.00     0.089 C 
ATOM      7  C   UNL     1      -7.952 -27.331 -18.391  1.00  0.00     0.158 C 
ATOM      8  O   UNL     1      -6.869 -26.704 -18.542  1.00  0.00    -0.295 OA
ENDROOT
BRANCH   5   9
ATOM      9  C   UNL     1      -9.494 -29.578 -20.269  1.00  0.00    -0.077 C 
ATOM     10  C   UNL     1     -10.717 -29.609 -20.826  1.00  0.00     0.008 C 
ATOM     11  C   UNL     1      -8.298 -29.666 -21.184  1.00  0.00     0.039 C 
ENDBRANCH   5   9
TORSDOF 1
ENDMDL
MODEL 2
REMARK VINA RESULT:    -4.662      3.881      6.856
REMARK INTER + INTRA:          -5.149
REMARK INTER:                  -4.950
REMARK INTRA:                  -0.198
REMARK UNBOUND:                -0.215
REMARK SMILES C=C(C)[C@@H]1CC=C(C)C(=O)C1
REMARK SMILES IDX 8 1 7 2 6 3 5 4 4 5 11 6 9 7 10 8 2 9 1 10 3 11
REMARK H PARENT
REMARK Flexibility Score: inf
ROOT
ATOM      1  C   UNL     1      -8.070 -25.989 -18.002  1.00  0.00     0.048 C 
ATOM      2  C   UNL     1      -7.631 -24.796 -17.197  1.00  0.00    -0.012 C 
ATOM      3  C   UNL     1      -6.343 -24.671 -16.841  1.00  0.00    -0.019 C 
ATOM      4  C   UNL     1      -5.842 -23.522 -16.010  1.00  0.00     0.036 C 
ATOM      5  C   UNL     1      -6.653 -22.223 -16.200  1.00  0.00     0.025 C 
ATOM      6  C   UNL     1      -8.173 -22.484 -16.144  1.00  0.00     0.089 C 
ATOM      7  C   UNL     1      -8.586 -23.695 -16.933  1.00  0.00     0.158 C 
ATOM      8  O   UNL     1      -9.776 -23.780 -17.341  1.00  0.00    -0.295 OA
ENDROOT
BRANCH   5   9
ATOM      9  C   UNL     1      -6.225 -21.431 -17.436  1.00  0.00    -0.077 C 
ATOM     10  C   UNL     1      -4.938 -21.319 -17.807  1.00  0.00     0.008 C 
ATOM     11  C   UNL     1      -7.267 -20.745 -18.285  1.00  0.00     0.039 C 
ENDBRANCH   5   9
TORSDOF 1
ENDMDL
MODEL 3
REMARK VINA RESULT:    -4.375      4.164      6.274
REMARK INTER + INTRA:          -4.846
REMARK INTER:                  -4.674
REMARK INTRA:                  -0.171
REMARK UNBOUND:                -0.215
REMARK SMILES C=C(C)[C@@H]1CC=C(C)C(=O)C1
REMARK SMILES IDX 8 1 7 2 6 3 5 4 4 5 11 6 9 7 10 8 2 9 1 10 3 11
REMARK H PARENT
REMARK Flexibility Score: inf
ROOT
ATOM      1  C   UNL     1      -5.329 -20.357 -18.414  1.00  0.00     0.048 C 
ATOM      2  C   UNL     1      -6.015 -21.362 -17.528  1.00  0.00    -0.012 C 
ATOM      3  C   UNL     1      -7.343 -21.532 -17.620  1.00  0.00    -0.019 C 
ATOM      4  C   UNL     1      -8.097 -22.494 -16.743  1.00  0.00     0.036 C 
ATOM      5  C   UNL     1      -7.257 -23.708 -16.293  1.00  0.00     0.025 C 
ATOM      6  C   UNL     1      -5.863 -23.283 -15.786  1.00  0.00     0.089 C 
ATOM      7  C   UNL     1      -5.207 -22.260 -16.671  1.00  0.00     0.158 C 
ATOM      8  O   UNL     1      -3.951 -22.151 -16.650  1.00  0.00    -0.295 OA
ENDROOT
BRANCH   5   9
ATOM      9  C   UNL     1      -7.200 -24.814 -17.348  1.00  0.00    -0.077 C 
ATOM     10  C   UNL     1      -6.056 -25.444 -17.667  1.00  0.00     0.008 C 
ATOM     11  C   UNL     1      -8.460 -25.231 -18.065  1.00  0.00     0.039 C 
ENDBRANCH   5   9
TORSDOF 1
ENDMDL
MODEL 4
REMARK VINA RESULT:    -4.358      4.739      6.684
REMARK INTER + INTRA:          -4.827
REMARK INTER:                  -4.627
REMARK INTRA:                  -0.200
REMARK UNBOUND:                -0.215
REMARK SMILES C=C(C)[C@@H]1CC=C(C)C(=O)C1
REMARK SMILES IDX 8 1 7 2 6 3 5 4 4 5 11 6 9 7 10 8 2 9 1 10 3 11
REMARK H PARENT
REMARK Flexibility Score: inf
ROOT
ATOM      1  C   UNL     1      -4.902 -25.724 -17.135  1.00  0.00     0.048 C 
ATOM      2  C   UNL     1      -5.849 -24.620 -16.752  1.00  0.00    -0.012 C 
ATOM      3  C   UNL     1      -5.372 -23.502 -16.186  1.00  0.00    -0.019 C 
ATOM      4  C   UNL     1      -6.265 -22.372 -15.748  1.00  0.00     0.036 C 
ATOM      5  C   UNL     1      -7.557 -22.249 -16.583  1.00  0.00     0.025 C 
ATOM      6  C   UNL     1      -8.245 -23.615 -16.782  1.00  0.00     0.089 C 
ATOM      7  C   UNL     1      -7.276 -24.709 -17.138  1.00  0.00     0.158 C 
ATOM      8  O   UNL     1      -7.705 -25.728 -17.744  1.00  0.00    -0.295 OA
ENDROOT
BRANCH   5   9
ATOM      9  C   UNL     1      -7.345 -21.487 -17.893  1.00  0.00    -0.077 C 
ATOM     10  C   UNL     1      -8.200 -21.584 -18.926  1.00  0.00     0.008 C 
ATOM     11  C   UNL     1      -6.144 -20.589 -18.053  1.00  0.00     0.039 C 
ENDBRANCH   5   9
TORSDOF 1
ENDMDL
MODEL 5
REMARK VINA RESULT:    -4.167      5.485      6.615
REMARK INTER + INTRA:          -4.625
REMARK INTER:                  -4.410
REMARK INTRA:                  -0.215
REMARK UNBOUND:                -0.215
REMARK SMILES C=C(C)[C@@H]1CC=C(C)C(=O)C1
REMARK SMILES IDX 8 1 7 2 6 3 5 4 4 5 11 6 9 7 10 8 2 9 1 10 3 11
REMARK H PARENT
REMARK Flexibility Score: inf
ROOT
ATOM      1  C   UNL     1      -4.275 -24.558 -18.077  1.00  0.00     0.048 C 
ATOM      2  C   UNL     1      -5.265 -23.528 -17.607  1.00  0.00    -0.012 C 
ATOM      3  C   UNL     1      -5.882 -22.741 -18.503  1.00  0.00    -0.019 C 
ATOM      4  C   UNL     1      -6.858 -21.669 -18.102  1.00  0.00     0.036 C 
ATOM      5  C   UNL     1      -7.615 -21.983 -16.795  1.00  0.00     0.025 C 
ATOM      6  C   UNL     1      -6.664 -22.479 -15.686  1.00  0.00     0.089 C 
ATOM      7  C   UNL     1      -5.667 -23.488 -16.182  1.00  0.00     0.158 C 
ATOM      8  O   UNL     1      -5.144 -24.286 -15.357  1.00  0.00    -0.295 OA
ENDROOT
BRANCH   5   9
ATOM      9  C   UNL     1      -8.817 -22.904 -17.012  1.00  0.00    -0.077 C 
ATOM     10  C   UNL     1      -9.473 -22.965 -18.184  1.00  0.00     0.008 C 
ATOM     11  C   UNL     1      -9.299 -23.785 -15.886  1.00  0.00     0.039 C 
ENDBRANCH   5   9
TORSDOF 1
ENDMDL
MODEL 6
REMARK VINA RESULT:    -4.156     14.672     16.017
REMARK INTER + INTRA:          -4.614
REMARK INTER:                  -4.503
REMARK INTRA:                  -0.111
REMARK UNBOUND:                -0.215
REMARK SMILES C=C(C)[C@@H]1CC=C(C)C(=O)C1
REMARK SMILES IDX 8 1 7 2 6 3 5 4 4 5 11 6 9 7 10 8 2 9 1 10 3 11
REMARK H PARENT
REMARK Flexibility Score: inf
ROOT
ATOM      1  C   UNL     1      -9.991 -35.422  -7.447  1.00  0.00     0.048 C 
ATOM      2  C   UNL     1     -10.158 -34.946  -6.030  1.00  0.00    -0.012 C 
ATOM      3  C   UNL     1      -9.489 -33.861  -5.610  1.00  0.00    -0.019 C 
ATOM      4  C   UNL     1      -9.583 -33.349  -4.198  1.00  0.00     0.036 C 
ATOM      5  C   UNL     1     -10.936 -33.654  -3.521  1.00  0.00     0.025 C 
ATOM      6  C   UNL     1     -11.369 -35.119  -3.738  1.00  0.00     0.089 C 
ATOM      7  C   UNL     1     -11.169 -35.582  -5.154  1.00  0.00     0.158 C 
ATOM      8  O   UNL     1     -11.855 -36.550  -5.581  1.00  0.00    -0.295 OA
ENDROOT
BRANCH   5   9
ATOM      9  C   UNL     1     -12.025 -32.645  -3.890  1.00  0.00    -0.077 C 
ATOM     10  C   UNL     1     -11.770 -31.550  -4.626  1.00  0.00     0.008 C 
ATOM     11  C   UNL     1     -13.443 -32.869  -3.425  1.00  0.00     0.039 C 
ENDBRANCH   5   9
TORSDOF 1
ENDMDL
MODEL 7
REMARK VINA RESULT:    -4.145      2.788      5.884
REMARK INTER + INTRA:          -4.602
REMARK INTER:                  -4.458
REMARK INTRA:                  -0.144
REMARK UNBOUND:                -0.215
REMARK SMILES C=C(C)[C@@H]1CC=C(C)C(=O)C1
REMARK SMILES IDX 8 1 7 2 6 3 5 4 4 5 11 6 9 7 10 8 2 9 1 10 3 11
REMARK H PARENT
REMARK Flexibility Score: inf
ROOT
ATOM      1  C   UNL     1      -9.814 -26.470 -18.065  1.00  0.00     0.048 C 
ATOM      2  C   UNL     1      -8.995 -25.218 -18.224  1.00  0.00    -0.012 C 
ATOM      3  C   UNL     1      -9.590 -24.018 -18.138  1.00  0.00    -0.019 C 
ATOM      4  C   UNL     1      -8.839 -22.728 -18.321  1.00  0.00     0.036 C 
ATOM      5  C   UNL     1      -7.355 -22.814 -17.905  1.00  0.00     0.025 C 
ATOM      6  C   UNL     1      -6.674 -24.077 -18.470  1.00  0.00     0.089 C 
ATOM      7  C   UNL     1      -7.520 -25.311 -18.324  1.00  0.00     0.158 C 
ATOM      8  O   UNL     1      -6.957 -26.439 -18.322  1.00  0.00    -0.295 OA
ENDROOT
BRANCH   5   9
ATOM      9  C   UNL     1      -7.151 -22.644 -16.398  1.00  0.00    -0.077 C 
ATOM     10  C   UNL     1      -5.970 -22.887 -15.802  1.00  0.00     0.008 C 
ATOM     11  C   UNL     1      -8.299 -22.189 -15.532  1.00  0.00     0.039 C 
ENDBRANCH   5   9
TORSDOF 1
ENDMDL
MODEL 8
REMARK VINA RESULT:    -4.079      2.715      4.434
REMARK INTER + INTRA:          -4.532
REMARK INTER:                  -4.322
REMARK INTRA:                  -0.210
REMARK UNBOUND:                -0.215
REMARK SMILES C=C(C)[C@@H]1CC=C(C)C(=O)C1
REMARK SMILES IDX 8 1 7 2 6 3 5 4 4 5 11 6 9 7 10 8 2 9 1 10 3 11
REMARK H PARENT
REMARK Flexibility Score: inf
ROOT
ATOM      1  C   UNL     1      -9.223 -30.103 -20.288  1.00  0.00     0.048 C 
ATOM      2  C   UNL     1      -8.104 -29.146 -19.980  1.00  0.00    -0.012 C 
ATOM      3  C   UNL     1      -8.040 -28.565 -18.773  1.00  0.00    -0.019 C 
ATOM      4  C   UNL     1      -6.968 -27.574 -18.408  1.00  0.00     0.036 C 
ATOM      5  C   UNL     1      -5.638 -27.801 -19.157  1.00  0.00     0.025 C 
ATOM      6  C   UNL     1      -5.861 -28.029 -20.666  1.00  0.00     0.089 C 
ATOM      7  C   UNL     1      -7.000 -28.968 -20.952  1.00  0.00     0.158 C 
ATOM      8  O   UNL     1      -7.024 -29.580 -22.053  1.00  0.00    -0.295 OA
ENDROOT
BRANCH   5   9
ATOM      9  C   UNL     1      -4.769 -28.881 -18.509  1.00  0.00    -0.077 C 
ATOM     10  C   UNL     1      -4.878 -29.206 -17.209  1.00  0.00     0.008 C 
ATOM     11  C   UNL     1      -3.750 -29.621 -19.339  1.00  0.00     0.039 C 
ENDBRANCH   5   9
TORSDOF 1
ENDMDL
MODEL 9
REMARK VINA RESULT:    -4.061     14.589     15.642
REMARK INTER + INTRA:          -4.513
REMARK INTER:                  -4.327
REMARK INTRA:                  -0.187
REMARK UNBOUND:                -0.215
REMARK SMILES C=C(C)[C@@H]1CC=C(C)C(=O)C1
REMARK SMILES IDX 8 1 7 2 6 3 5 4 4 5 11 6 9 7 10 8 2 9 1 10 3 11
REMARK H PARENT
REMARK Flexibility Score: inf
ROOT
ATOM      1  C   UNL     1      -7.721 -33.060  -2.955  1.00  0.00     0.048 C 
ATOM      2  C   UNL     1      -8.570 -33.365  -4.158  1.00  0.00    -0.012 C 
ATOM      3  C   UNL     1      -8.070 -34.113  -5.153  1.00  0.00    -0.019 C 
ATOM      4  C   UNL     1      -8.853 -34.428  -6.399  1.00  0.00     0.036 C 
ATOM      5  C   UNL     1     -10.378 -34.477  -6.174  1.00  0.00     0.025 C 
ATOM      6  C   UNL     1     -10.875 -33.269  -5.353  1.00  0.00     0.089 C 
ATOM      7  C   UNL     1      -9.997 -32.967  -4.171  1.00  0.00     0.158 C 
ATOM      8  O   UNL     1     -10.485 -32.334  -3.195  1.00  0.00    -0.295 OA
ENDROOT
BRANCH   5   9
ATOM      9  C   UNL     1     -10.853 -35.819  -5.614  1.00  0.00    -0.077 C 
ATOM     10  C   UNL     1     -10.372 -36.993  -6.059  1.00  0.00     0.008 C 
ATOM     11  C   UNL     1     -11.896 -35.850  -4.524  1.00  0.00     0.039 C 
ENDBRANCH   5   9
TORSDOF 1
ENDMDL
