MODEL 1
REMARK VINA RESULT:    -2.786      0.000      0.000
REMARK INTER + INTRA:          -3.662
REMARK INTER:                  -3.438
REMARK INTRA:                  -0.224
REMARK UNBOUND:                -0.224
REMARK SMILES C=CC[C@H](C)C(=O)CC
REMARK SMILES IDX 4 1 5 2 6 3 7 4 8 5 9 6 3 7 2 8 1 9
REMARK H PARENT
REMARK Flexibility Score: inf
ROOT
ATOM      1  C   UNL     1      79.063   2.623  65.825  1.00  0.00     0.057 C 
ATOM      2  C   UNL     1      77.759   3.417  65.689  1.00  0.00     0.016 C 
ENDROOT
BRANCH   1   3
ATOM      3  C   UNL     1      79.531   2.644  67.267  1.00  0.00     0.135 C 
ATOM      4  O   UNL     1      78.716   2.519  68.171  1.00  0.00    -0.299 OA
BRANCH   3   5
ATOM      5  C   UNL     1      80.990   2.801  67.611  1.00  0.00     0.072 C 
ATOM      6  C   UNL     1      81.164   3.285  69.047  1.00  0.00     0.012 C 
ENDBRANCH   3   5
ENDBRANCH   1   3
BRANCH   1   7
ATOM      7  C   UNL     1      80.142   3.187  64.878  1.00  0.00     0.038 C 
BRANCH   7   8
ATOM      8  C   UNL     1      79.619   4.316  64.029  1.00  0.00    -0.034 C 
ATOM      9  C   UNL     1      80.106   4.566  62.811  1.00  0.00     0.004 C 
ENDBRANCH   7   8
ENDBRANCH   1   7
TORSDOF 4
ENDMDL
MODEL 2
REMARK VINA RESULT:    -2.732      1.981      3.169
REMARK INTER + INTRA:          -3.594
REMARK INTER:                  -3.191
REMARK INTRA:                  -0.404
REMARK UNBOUND:                -0.224
REMARK SMILES C=CC[C@H](C)C(=O)CC
REMARK SMILES IDX 4 1 5 2 6 3 7 4 8 5 9 6 3 7 2 8 1 9
REMARK H PARENT
REMARK Flexibility Score: inf
ROOT
ATOM      1  C   UNL     1      79.820   2.411  68.788  1.00  0.00     0.057 C 
ATOM      2  C   UNL     1      81.073   3.256  69.044  1.00  0.00     0.016 C 
ENDROOT
BRANCH   1   3
ATOM      3  C   UNL     1      80.147   0.940  68.958  1.00  0.00     0.135 C 
ATOM      4  O   UNL     1      79.240   0.120  69.004  1.00  0.00    -0.299 OA
BRANCH   3   5
ATOM      5  C   UNL     1      81.573   0.464  69.056  1.00  0.00     0.072 C 
ATOM      6  C   UNL     1      81.983  -0.295  67.798  1.00  0.00     0.012 C 
ENDBRANCH   3   5
ENDBRANCH   1   3
BRANCH   1   7
ATOM      7  C   UNL     1      79.251   2.699  67.383  1.00  0.00     0.038 C 
BRANCH   7   8
ATOM      8  C   UNL     1      80.327   2.736  66.331  1.00  0.00    -0.034 C 
ATOM      9  C   UNL     1      80.065   3.075  65.066  1.00  0.00     0.004 C 
ENDBRANCH   7   8
ENDBRANCH   1   7
TORSDOF 4
ENDMDL
MODEL 3
REMARK VINA RESULT:    -2.561     20.369     21.501
REMARK INTER + INTRA:          -3.384
REMARK INTER:                  -3.121
REMARK INTRA:                  -0.263
REMARK UNBOUND:                -0.224
REMARK SMILES C=CC[C@H](C)C(=O)CC
REMARK SMILES IDX 4 1 5 2 6 3 7 4 8 5 9 6 3 7 2 8 1 9
REMARK H PARENT
REMARK Flexibility Score: inf
ROOT
ATOM      1  C   UNL     1      72.125  -9.072  52.046  1.00  0.00     0.057 C 
ATOM      2  C   UNL     1      70.843  -8.460  51.472  1.00  0.00     0.016 C 
ENDROOT
BRANCH   1   3
ATOM      3  C   UNL     1      72.748 -10.010  51.030  1.00  0.00     0.135 C 
ATOM      4  O   UNL     1      73.923  -9.873  50.719  1.00  0.00    -0.299 OA
BRANCH   3   5
ATOM      5  C   UNL     1      71.949 -11.125  50.405  1.00  0.00     0.072 C 
ATOM      6  C   UNL     1      71.936 -11.002  48.885  1.00  0.00     0.012 C 
ENDBRANCH   3   5
ENDBRANCH   1   3
BRANCH   1   7
ATOM      7  C   UNL     1      71.830  -9.801  53.373  1.00  0.00     0.038 C 
BRANCH   7   8
ATOM      8  C   UNL     1      70.366 -10.119  53.533  1.00  0.00    -0.034 C 
ATOM      9  C   UNL     1      69.877 -10.634  54.664  1.00  0.00     0.004 C 
ENDBRANCH   7   8
ENDBRANCH   1   7
TORSDOF 4
ENDMDL
MODEL 4
REMARK VINA RESULT:    -2.548     18.770     20.447
REMARK INTER + INTRA:          -3.368
REMARK INTER:                  -2.907
REMARK INTRA:                  -0.461
REMARK UNBOUND:                -0.224
REMARK SMILES C=CC[C@H](C)C(=O)CC
REMARK SMILES IDX 4 1 5 2 6 3 7 4 8 5 9 6 3 7 2 8 1 9
REMARK H PARENT
REMARK Flexibility Score: inf
ROOT
ATOM      1  C   UNL     1      65.193   4.837  51.927  1.00  0.00     0.057 C 
ATOM      2  C   UNL     1      64.591   3.827  52.910  1.00  0.00     0.016 C 
ENDROOT
BRANCH   1   3
ATOM      3  C   UNL     1      65.488   6.141  52.643  1.00  0.00     0.135 C 
ATOM      4  O   UNL     1      64.628   6.654  53.346  1.00  0.00    -0.299 OA
BRANCH   3   5
ATOM      5  C   UNL     1      66.831   6.812  52.519  1.00  0.00     0.072 C 
ATOM      6  C   UNL     1      67.916   5.802  52.161  1.00  0.00     0.012 C 
ENDBRANCH   3   5
ENDBRANCH   1   3
BRANCH   1   7
ATOM      7  C   UNL     1      64.245   5.058  50.730  1.00  0.00     0.038 C 
BRANCH   7   8
ATOM      8  C   UNL     1      64.828   4.544  49.441  1.00  0.00    -0.034 C 
ATOM      9  C   UNL     1      66.122   4.237  49.325  1.00  0.00     0.004 C 
ENDBRANCH   7   8
ENDBRANCH   1   7
TORSDOF 4
ENDMDL
MODEL 5
REMARK VINA RESULT:    -2.535     19.689     20.648
REMARK INTER + INTRA:          -3.351
REMARK INTER:                  -2.897
REMARK INTRA:                  -0.454
REMARK UNBOUND:                -0.224
REMARK SMILES C=CC[C@H](C)C(=O)CC
REMARK SMILES IDX 4 1 5 2 6 3 7 4 8 5 9 6 3 7 2 8 1 9
REMARK H PARENT
REMARK Flexibility Score: inf
ROOT
ATOM      1  C   UNL     1      71.188  -9.489  53.199  1.00  0.00     0.057 C 
ATOM      2  C   UNL     1      72.250  -9.408  54.301  1.00  0.00     0.016 C 
ENDROOT
BRANCH   1   3
ATOM      3  C   UNL     1      69.856  -9.897  53.797  1.00  0.00     0.135 C 
ATOM      4  O   UNL     1      69.780 -10.917  54.468  1.00  0.00    -0.299 OA
BRANCH   3   5
ATOM      5  C   UNL     1      68.620  -9.059  53.593  1.00  0.00     0.072 C 
ATOM      6  C   UNL     1      68.985  -7.650  53.136  1.00  0.00     0.012 C 
ENDBRANCH   3   5
ENDBRANCH   1   3
BRANCH   1   7
ATOM      7  C   UNL     1      71.629 -10.470  52.093  1.00  0.00     0.038 C 
BRANCH   7   8
ATOM      8  C   UNL     1      71.878  -9.774  50.782  1.00  0.00    -0.034 C 
ATOM      9  C   UNL     1      71.456  -8.527  50.554  1.00  0.00     0.004 C 
ENDBRANCH   7   8
ENDBRANCH   1   7
TORSDOF 4
ENDMDL
MODEL 6
REMARK VINA RESULT:    -2.531      2.002      3.275
REMARK INTER + INTRA:          -3.346
REMARK INTER:                  -2.854
REMARK INTRA:                  -0.492
REMARK UNBOUND:                -0.224
REMARK SMILES C=CC[C@H](C)C(=O)CC
REMARK SMILES IDX 4 1 5 2 6 3 7 4 8 5 9 6 3 7 2 8 1 9
REMARK H PARENT
REMARK Flexibility Score: inf
ROOT
ATOM      1  C   UNL     1      80.448   2.533  68.064  1.00  0.00     0.057 C 
ATOM      2  C   UNL     1      81.178   3.363  69.125  1.00  0.00     0.016 C 
ENDROOT
BRANCH   1   3
ATOM      3  C   UNL     1      80.732   1.059  68.277  1.00  0.00     0.135 C 
ATOM      4  O   UNL     1      81.825   0.602  67.972  1.00  0.00    -0.299 OA
BRANCH   3   5
ATOM      5  C   UNL     1      79.695   0.143  68.875  1.00  0.00     0.072 C 
ATOM      6  C   UNL     1      78.348   0.849  68.996  1.00  0.00     0.012 C 
ENDBRANCH   3   5
ENDBRANCH   1   3
BRANCH   1   7
ATOM      7  C   UNL     1      80.860   2.983  66.647  1.00  0.00     0.038 C 
BRANCH   7   8
ATOM      8  C   UNL     1      79.740   2.826  65.652  1.00  0.00    -0.034 C 
ATOM      9  C   UNL     1      78.468   3.069  65.979  1.00  0.00     0.004 C 
ENDBRANCH   7   8
ENDBRANCH   1   7
TORSDOF 4
ENDMDL
MODEL 7
REMARK VINA RESULT:    -2.521      2.288      4.275
REMARK INTER + INTRA:          -3.335
REMARK INTER:                  -2.868
REMARK INTRA:                  -0.466
REMARK UNBOUND:                -0.224
REMARK SMILES C=CC[C@H](C)C(=O)CC
REMARK SMILES IDX 4 1 5 2 6 3 7 4 8 5 9 6 3 7 2 8 1 9
REMARK H PARENT
REMARK Flexibility Score: inf
ROOT
ATOM      1  C   UNL     1      79.396   3.004  64.589  1.00  0.00     0.057 C 
ATOM      2  C   UNL     1      79.734   1.935  63.544  1.00  0.00     0.016 C 
ENDROOT
BRANCH   1   3
ATOM      3  C   UNL     1      79.328   4.367  63.928  1.00  0.00     0.135 C 
ATOM      4  O   UNL     1      80.281   4.771  63.275  1.00  0.00    -0.299 OA
BRANCH   3   5
ATOM      5  C   UNL     1      78.100   5.232  64.047  1.00  0.00     0.072 C 
ATOM      6  C   UNL     1      76.888   4.404  64.463  1.00  0.00     0.012 C 
ENDBRANCH   3   5
ENDBRANCH   1   3
BRANCH   1   7
ATOM      7  C   UNL     1      80.430   2.988  65.734  1.00  0.00     0.038 C 
BRANCH   7   8
ATOM      8  C   UNL     1      79.793   2.721  67.072  1.00  0.00    -0.034 C 
ATOM      9  C   UNL     1      78.482   2.497  67.196  1.00  0.00     0.004 C 
ENDBRANCH   7   8
ENDBRANCH   1   7
TORSDOF 4
ENDMDL
MODEL 8
REMARK VINA RESULT:    -2.488      1.587      1.900
REMARK INTER + INTRA:          -3.293
REMARK INTER:                  -3.040
REMARK INTRA:                  -0.253
REMARK UNBOUND:                -0.224
REMARK SMILES C=CC[C@H](C)C(=O)CC
REMARK SMILES IDX 4 1 5 2 6 3 7 4 8 5 9 6 3 7 2 8 1 9
REMARK H PARENT
REMARK Flexibility Score: inf
ROOT
ATOM      1  C   UNL     1      79.830   2.252  66.478  1.00  0.00     0.057 C 
ATOM      2  C   UNL     1      78.448   2.787  66.871  1.00  0.00     0.016 C 
ENDROOT
BRANCH   1   3
ATOM      3  C   UNL     1      80.719   2.172  67.704  1.00  0.00     0.135 C 
ATOM      4  O   UNL     1      80.882   3.164  68.400  1.00  0.00    -0.299 OA
BRANCH   3   5
ATOM      5  C   UNL     1      81.396   0.883  68.093  1.00  0.00     0.072 C 
ATOM      6  C   UNL     1      81.063  -0.230  67.104  1.00  0.00     0.012 C 
ENDBRANCH   3   5
ENDBRANCH   1   3
BRANCH   1   7
ATOM      7  C   UNL     1      80.463   3.138  65.385  1.00  0.00     0.038 C 
BRANCH   7   8
ATOM      8  C   UNL     1      79.441   3.642  64.400  1.00  0.00    -0.034 C 
ATOM      9  C   UNL     1      79.667   4.713  63.636  1.00  0.00     0.004 C 
ENDBRANCH   7   8
ENDBRANCH   1   7
TORSDOF 4
ENDMDL
MODEL 9
REMARK VINA RESULT:    -2.478      1.675      4.162
REMARK INTER + INTRA:          -3.282
REMARK INTER:                  -3.063
REMARK INTRA:                  -0.219
REMARK UNBOUND:                -0.224
REMARK SMILES C=CC[C@H](C)C(=O)CC
REMARK SMILES IDX 4 1 5 2 6 3 7 4 8 5 9 6 3 7 2 8 1 9
REMARK H PARENT
REMARK Flexibility Score: inf
ROOT
ATOM      1  C   UNL     1      79.473   3.123  65.993  1.00  0.00     0.057 C 
ATOM      2  C   UNL     1      78.042   2.643  66.254  1.00  0.00     0.016 C 
ENDROOT
BRANCH   1   3
ATOM      3  C   UNL     1      79.759   3.107  64.504  1.00  0.00     0.135 C 
ATOM      4  O   UNL     1      79.876   2.038  63.921  1.00  0.00    -0.299 OA
BRANCH   3   5
ATOM      5  C   UNL     1      79.887   4.388  63.721  1.00  0.00     0.072 C 
ATOM      6  C   UNL     1      78.533   4.833  63.177  1.00  0.00     0.012 C 
ENDBRANCH   3   5
ENDBRANCH   1   3
BRANCH   1   7
ATOM      7  C   UNL     1      80.486   2.253  66.767  1.00  0.00     0.038 C 
BRANCH   7   8
ATOM      8  C   UNL     1      81.277   3.055  67.767  1.00  0.00    -0.034 C 
ATOM      9  C   UNL     1      80.894   3.167  69.041  1.00  0.00     0.004 C 
ENDBRANCH   7   8
ENDBRANCH   1   7
TORSDOF 4
ENDMDL
