MODEL 1
REMARK VINA RESULT:    -5.341      0.000      0.000
REMARK INTER + INTRA:          -6.913
REMARK INTER:                  -6.590
REMARK INTRA:                  -0.323
REMARK UNBOUND:                -0.323
REMARK SMILES Oc1cc(O)c2cc(O)c(-c3cc(O)c(O)c(O)c3)[o+]c2c1
REMARK SMILES IDX 10 1 20 2 21 3 22 4 2 5 3 6 4 7 6 8 7 9 8 10 11 11 12 12
REMARK SMILES IDX 13 13 19 14 15 15 17 16 14 17 16 19 18 21 9 23 1 25 5 27
REMARK H PARENT 14 18 16 20 18 22 9 24 1 26 5 28
REMARK Flexibility Score: inf
ROOT
ATOM      1  C   UNL     1      -4.646 -13.386  32.576  1.00  0.00     0.402 A 
ATOM      2  O   UNL     1      -4.780 -12.323  33.365  1.00  0.00    -0.202 OA
ATOM      3  C   UNL     1      -5.622 -12.279  34.393  1.00  0.00     0.368 A 
ATOM      4  C   UNL     1      -5.689 -11.116  35.166  1.00  0.00     0.162 A 
ATOM      5  C   UNL     1      -6.561 -11.042  36.254  1.00  0.00     0.128 A 
ATOM      6  C   UNL     1      -7.372 -12.138  36.571  1.00  0.00     0.093 A 
ATOM      7  C   UNL     1      -7.322 -13.313  35.812  1.00  0.00     0.136 A 
ATOM      8  C   UNL     1      -6.439 -13.392  34.705  1.00  0.00     0.125 A 
ATOM      9  C   UNL     1      -6.333 -14.523  33.881  1.00  0.00     0.078 A 
ATOM     10  C   UNL     1      -5.441 -14.525  32.804  1.00  0.00     0.223 A 
ENDROOT
BRANCH   1  11
ATOM     11  C   UNL     1      -3.665 -13.316  31.468  1.00  0.00     0.091 A 
ATOM     12  C   UNL     1      -2.301 -13.493  31.743  1.00  0.00     0.068 A 
ATOM     13  C   UNL     1      -1.355 -13.451  30.709  1.00  0.00     0.162 A 
ATOM     14  C   UNL     1      -4.077 -13.132  30.138  1.00  0.00     0.068 A 
ATOM     15  C   UNL     1      -1.770 -13.247  29.388  1.00  0.00     0.200 A 
ATOM     16  C   UNL     1      -3.136 -13.091  29.100  1.00  0.00     0.162 A 
BRANCH  13  17
ATOM     17  O   UNL     1       0.001 -13.613  30.989  1.00  0.00    -0.504 OA
ATOM     18  H   UNL     1       0.636 -14.023  30.315  1.00  0.00     0.293 HD
ENDBRANCH  13  17
BRANCH  15  19
ATOM     19  O   UNL     1      -0.814 -13.206  28.372  1.00  0.00    -0.502 OA
ATOM     20  H   UNL     1      -0.893 -12.577  27.582  1.00  0.00     0.293 HD
ENDBRANCH  15  19
BRANCH  16  21
ATOM     21  O   UNL     1      -3.555 -12.902  27.783  1.00  0.00    -0.504 OA
ATOM     22  H   UNL     1      -3.585 -13.669  27.120  1.00  0.00     0.293 HD
ENDBRANCH  16  21
ENDBRANCH   1  11
BRANCH  10  23
ATOM     23  O   UNL     1      -5.370 -15.629  31.955  1.00  0.00    -0.500 OA
ATOM     24  H   UNL     1      -4.512 -16.155  31.836  1.00  0.00     0.294 HD
ENDBRANCH  10  23
BRANCH   5  25
ATOM     25  O   UNL     1      -6.615  -9.875  37.012  1.00  0.00    -0.507 OA
ATOM     26  H   UNL     1      -6.839  -8.980  36.593  1.00  0.00     0.293 HD
ENDBRANCH   5  25
BRANCH   7  27
ATOM     27  O   UNL     1      -8.162 -14.363  36.197  1.00  0.00    -0.507 OA
ATOM     28  H   UNL     1      -8.818 -14.318  36.963  1.00  0.00     0.293 HD
ENDBRANCH   7  27
TORSDOF 7
ENDMDL
MODEL 2
REMARK VINA RESULT:    -5.328      0.095      1.789
REMARK INTER + INTRA:          -6.897
REMARK INTER:                  -6.591
REMARK INTRA:                  -0.306
REMARK UNBOUND:                -0.323
REMARK SMILES Oc1cc(O)c2cc(O)c(-c3cc(O)c(O)c(O)c3)[o+]c2c1
REMARK SMILES IDX 10 1 20 2 21 3 22 4 2 5 3 6 4 7 6 8 7 9 8 10 11 11 12 12
REMARK SMILES IDX 13 13 19 14 15 15 17 16 14 17 16 19 18 21 9 23 1 25 5 27
REMARK H PARENT 14 18 16 20 18 22 9 24 1 26 5 28
REMARK Flexibility Score: inf
ROOT
ATOM      1  C   UNL     1      -4.664 -13.454  32.598  1.00  0.00     0.402 A 
ATOM      2  O   UNL     1      -4.791 -12.381  33.374  1.00  0.00    -0.202 OA
ATOM      3  C   UNL     1      -5.632 -12.319  34.402  1.00  0.00     0.368 A 
ATOM      4  C   UNL     1      -5.692 -11.147  35.160  1.00  0.00     0.162 A 
ATOM      5  C   UNL     1      -6.562 -11.054  36.247  1.00  0.00     0.128 A 
ATOM      6  C   UNL     1      -7.379 -12.141  36.579  1.00  0.00     0.093 A 
ATOM      7  C   UNL     1      -7.337 -13.326  35.835  1.00  0.00     0.136 A 
ATOM      8  C   UNL     1      -6.455 -13.423  34.728  1.00  0.00     0.125 A 
ATOM      9  C   UNL     1      -6.356 -14.566  33.918  1.00  0.00     0.078 A 
ATOM     10  C   UNL     1      -5.465 -14.586  32.840  1.00  0.00     0.223 A 
ENDROOT
BRANCH   1  11
ATOM     11  C   UNL     1      -3.684 -13.405  31.489  1.00  0.00     0.091 A 
ATOM     12  C   UNL     1      -4.141 -13.245  30.172  1.00  0.00     0.068 A 
ATOM     13  C   UNL     1      -3.234 -13.176  29.106  1.00  0.00     0.162 A 
ATOM     14  C   UNL     1      -2.301 -13.457  31.731  1.00  0.00     0.068 A 
ATOM     15  C   UNL     1      -1.858 -13.250  29.352  1.00  0.00     0.200 A 
ATOM     16  C   UNL     1      -1.389 -13.386  30.669  1.00  0.00     0.162 A 
BRANCH  13  17
ATOM     17  O   UNL     1      -3.694 -13.032  27.798  1.00  0.00    -0.504 OA
ATOM     18  H   UNL     1      -3.754 -12.124  27.354  1.00  0.00     0.293 HD
ENDBRANCH  13  17
BRANCH  15  19
ATOM     19  O   UNL     1      -0.968 -13.181  28.278  1.00  0.00    -0.502 OA
ATOM     20  H   UNL     1      -0.763 -12.311  27.803  1.00  0.00     0.293 HD
ENDBRANCH  15  19
BRANCH  16  21
ATOM     21  O   UNL     1      -0.018 -13.445  30.919  1.00  0.00    -0.504 OA
ATOM     22  H   UNL     1       0.663 -13.355  30.173  1.00  0.00     0.293 HD
ENDBRANCH  16  21
ENDBRANCH   1  11
BRANCH  10  23
ATOM     23  O   UNL     1      -5.402 -15.701  32.006  1.00  0.00    -0.500 OA
ATOM     24  H   UNL     1      -4.795 -16.486  32.211  1.00  0.00     0.294 HD
ENDBRANCH  10  23
BRANCH   5  25
ATOM     25  O   UNL     1      -6.608  -9.877  36.991  1.00  0.00    -0.507 OA
ATOM     26  H   UNL     1      -7.322  -9.722  37.694  1.00  0.00     0.293 HD
ENDBRANCH   5  25
BRANCH   7  27
ATOM     27  O   UNL     1      -8.182 -14.366  36.234  1.00  0.00    -0.507 OA
ATOM     28  H   UNL     1      -8.655 -14.993  35.598  1.00  0.00     0.293 HD
ENDBRANCH   7  27
TORSDOF 7
ENDMDL
MODEL 3
REMARK VINA RESULT:    -4.306      1.024      3.105
REMARK INTER + INTRA:          -5.637
REMARK INTER:                  -5.264
REMARK INTRA:                  -0.373
REMARK UNBOUND:                -0.323
REMARK SMILES Oc1cc(O)c2cc(O)c(-c3cc(O)c(O)c(O)c3)[o+]c2c1
REMARK SMILES IDX 10 1 20 2 21 3 22 4 2 5 3 6 4 7 6 8 7 9 8 10 11 11 12 12
REMARK SMILES IDX 13 13 19 14 15 15 17 16 14 17 16 19 18 21 9 23 1 25 5 27
REMARK H PARENT 14 18 16 20 18 22 9 24 1 26 5 28
REMARK Flexibility Score: inf
ROOT
ATOM      1  C   UNL     1      -4.474 -12.248  32.565  1.00  0.00     0.402 A 
ATOM      2  O   UNL     1      -5.184 -13.138  33.254  1.00  0.00    -0.202 OA
ATOM      3  C   UNL     1      -5.932 -12.818  34.306  1.00  0.00     0.368 A 
ATOM      4  C   UNL     1      -6.644 -13.824  34.964  1.00  0.00     0.162 A 
ATOM      5  C   UNL     1      -7.440 -13.518  36.068  1.00  0.00     0.128 A 
ATOM      6  C   UNL     1      -7.525 -12.195  36.519  1.00  0.00     0.093 A 
ATOM      7  C   UNL     1      -6.822 -11.170  35.877  1.00  0.00     0.136 A 
ATOM      8  C   UNL     1      -6.010 -11.478  34.755  1.00  0.00     0.125 A 
ATOM      9  C   UNL     1      -5.259 -10.517  34.058  1.00  0.00     0.078 A 
ATOM     10  C   UNL     1      -4.478 -10.898  32.963  1.00  0.00     0.223 A 
ENDROOT
BRANCH   1  11
ATOM     11  C   UNL     1      -3.688 -12.727  31.405  1.00  0.00     0.091 A 
ATOM     12  C   UNL     1      -4.291 -12.787  30.140  1.00  0.00     0.068 A 
ATOM     13  C   UNL     1      -3.563 -13.218  29.023  1.00  0.00     0.162 A 
ATOM     14  C   UNL     1      -2.331 -13.071  31.533  1.00  0.00     0.068 A 
ATOM     15  C   UNL     1      -2.217 -13.579  29.160  1.00  0.00     0.200 A 
ATOM     16  C   UNL     1      -1.598 -13.501  30.419  1.00  0.00     0.162 A 
BRANCH  13  17
ATOM     17  O   UNL     1      -4.172 -13.290  27.771  1.00  0.00    -0.504 OA
ATOM     18  H   UNL     1      -4.321 -14.176  27.303  1.00  0.00     0.293 HD
ENDBRANCH  13  17
BRANCH  15  19
ATOM     19  O   UNL     1      -1.508 -14.008  28.037  1.00  0.00    -0.502 OA
ATOM     20  H   UNL     1      -0.528 -14.260  28.082  1.00  0.00     0.293 HD
ENDBRANCH  15  19
BRANCH  16  21
ATOM     21  O   UNL     1      -0.253 -13.845  30.557  1.00  0.00    -0.504 OA
ATOM     22  H   UNL     1       0.032 -14.788  30.795  1.00  0.00     0.293 HD
ENDBRANCH  16  21
ENDBRANCH   1  11
BRANCH  10  23
ATOM     23  O   UNL     1      -3.693  -9.954  32.301  1.00  0.00    -0.500 OA
ATOM     24  H   UNL     1      -3.225 -10.168  31.428  1.00  0.00     0.294 HD
ENDBRANCH  10  23
BRANCH   5  25
ATOM     25  O   UNL     1      -8.143 -14.534  36.712  1.00  0.00    -0.507 OA
ATOM     26  H   UNL     1      -8.514 -15.327  36.201  1.00  0.00     0.293 HD
ENDBRANCH   5  25
BRANCH   7  27
ATOM     27  O   UNL     1      -6.963  -9.875  36.387  1.00  0.00    -0.507 OA
ATOM     28  H   UNL     1      -7.640  -9.203  36.056  1.00  0.00     0.293 HD
ENDBRANCH   7  27
TORSDOF 7
ENDMDL
MODEL 4
REMARK VINA RESULT:    -3.556      1.485      7.007
REMARK INTER + INTRA:          -4.711
REMARK INTER:                  -4.667
REMARK INTRA:                  -0.044
REMARK UNBOUND:                -0.323
REMARK SMILES Oc1cc(O)c2cc(O)c(-c3cc(O)c(O)c(O)c3)[o+]c2c1
REMARK SMILES IDX 10 1 20 2 21 3 22 4 2 5 3 6 4 7 6 8 7 9 8 10 11 11 12 12
REMARK SMILES IDX 13 13 19 14 15 15 17 16 14 17 16 19 18 21 9 23 1 25 5 27
REMARK H PARENT 14 18 16 20 18 22 9 24 1 26 5 28
REMARK Flexibility Score: inf
ROOT
ATOM      1  C   UNL     1      -4.494 -12.819  32.485  1.00  0.00     0.402 A 
ATOM      2  O   UNL     1      -4.430 -11.851  31.574  1.00  0.00    -0.202 OA
ATOM      3  C   UNL     1      -3.722 -11.949  30.453  1.00  0.00     0.368 A 
ATOM      4  C   UNL     1      -3.720 -10.879  29.555  1.00  0.00     0.162 A 
ATOM      5  C   UNL     1      -2.989 -10.955  28.369  1.00  0.00     0.128 A 
ATOM      6  C   UNL     1      -2.253 -12.110  28.077  1.00  0.00     0.093 A 
ATOM      7  C   UNL     1      -2.240 -13.196  28.960  1.00  0.00     0.136 A 
ATOM      8  C   UNL     1      -2.981 -13.121  30.169  1.00  0.00     0.125 A 
ATOM      9  C   UNL     1      -3.014 -14.155  31.118  1.00  0.00     0.078 A 
ATOM     10  C   UNL     1      -3.764 -14.007  32.289  1.00  0.00     0.223 A 
ENDROOT
BRANCH   1  11
ATOM     11  C   UNL     1      -5.326 -12.593  33.689  1.00  0.00     0.091 A 
ATOM     12  C   UNL     1      -5.276 -11.351  34.339  1.00  0.00     0.068 A 
ATOM     13  C   UNL     1      -6.068 -11.106  35.469  1.00  0.00     0.162 A 
ATOM     14  C   UNL     1      -6.208 -13.579  34.163  1.00  0.00     0.068 A 
ATOM     15  C   UNL     1      -6.930 -12.099  35.949  1.00  0.00     0.200 A 
ATOM     16  C   UNL     1      -7.004 -13.338  35.291  1.00  0.00     0.162 A 
BRANCH  13  17
ATOM     17  O   UNL     1      -6.003  -9.875  36.120  1.00  0.00    -0.504 OA
ATOM     18  H   UNL     1      -6.557  -9.084  35.814  1.00  0.00     0.293 HD
ENDBRANCH  13  17
BRANCH  15  19
ATOM     19  O   UNL     1      -7.709 -11.838  37.077  1.00  0.00    -0.502 OA
ATOM     20  H   UNL     1      -7.489 -12.226  37.987  1.00  0.00     0.293 HD
ENDBRANCH  15  19
BRANCH  16  21
ATOM     21  O   UNL     1      -7.873 -14.325  35.758  1.00  0.00    -0.504 OA
ATOM     22  H   UNL     1      -7.535 -15.234  36.052  1.00  0.00     0.293 HD
ENDBRANCH  16  21
ENDBRANCH   1  11
BRANCH  10  23
ATOM     23  O   UNL     1      -3.759 -15.012  33.256  1.00  0.00    -0.500 OA
ATOM     24  H   UNL     1      -4.595 -15.536  33.484  1.00  0.00     0.294 HD
ENDBRANCH  10  23
BRANCH   5  25
ATOM     25  O   UNL     1      -2.998  -9.877  27.486  1.00  0.00    -0.507 OA
ATOM     26  H   UNL     1      -3.620  -9.088  27.620  1.00  0.00     0.293 HD
ENDBRANCH   5  25
BRANCH   7  27
ATOM     27  O   UNL     1      -1.484 -14.314  28.594  1.00  0.00    -0.507 OA
ATOM     28  H   UNL     1      -1.754 -14.976  27.882  1.00  0.00     0.293 HD
ENDBRANCH   7  27
TORSDOF 7
ENDMDL
MODEL 5
REMARK VINA RESULT:    -2.761      1.398      3.261
REMARK INTER + INTRA:          -3.730
REMARK INTER:                  -3.642
REMARK INTRA:                  -0.088
REMARK UNBOUND:                -0.323
REMARK SMILES Oc1cc(O)c2cc(O)c(-c3cc(O)c(O)c(O)c3)[o+]c2c1
REMARK SMILES IDX 10 1 20 2 21 3 22 4 2 5 3 6 4 7 6 8 7 9 8 10 11 11 12 12
REMARK SMILES IDX 13 13 19 14 15 15 17 16 14 17 16 19 18 21 9 23 1 25 5 27
REMARK H PARENT 14 18 16 20 18 22 9 24 1 26 5 28
REMARK Flexibility Score: inf
ROOT
ATOM      1  C   UNL     1      -4.232 -12.232  31.786  1.00  0.00     0.402 A 
ATOM      2  O   UNL     1      -5.017 -13.055  32.475  1.00  0.00    -0.202 OA
ATOM      3  C   UNL     1      -5.590 -12.723  33.629  1.00  0.00     0.368 A 
ATOM      4  C   UNL     1      -6.401 -13.658  34.278  1.00  0.00     0.162 A 
ATOM      5  C   UNL     1      -7.018 -13.336  35.487  1.00  0.00     0.128 A 
ATOM      6  C   UNL     1      -6.823 -12.071  36.054  1.00  0.00     0.093 A 
ATOM      7  C   UNL     1      -6.015 -11.118  35.423  1.00  0.00     0.136 A 
ATOM      8  C   UNL     1      -5.384 -11.442  34.193  1.00  0.00     0.125 A 
ATOM      9  C   UNL     1      -4.547 -10.555  33.498  1.00  0.00     0.078 A 
ATOM     10  C   UNL     1      -3.957 -10.947  32.293  1.00  0.00     0.223 A 
ENDROOT
BRANCH   1  11
ATOM     11  C   UNL     1      -3.660 -12.715  30.508  1.00  0.00     0.091 A 
ATOM     12  C   UNL     1      -4.519 -13.178  29.500  1.00  0.00     0.068 A 
ATOM     13  C   UNL     1      -4.005 -13.623  28.275  1.00  0.00     0.162 A 
ATOM     14  C   UNL     1      -2.278 -12.667  30.261  1.00  0.00     0.068 A 
ATOM     15  C   UNL     1      -2.625 -13.592  28.042  1.00  0.00     0.200 A 
ATOM     16  C   UNL     1      -1.758 -13.109  29.036  1.00  0.00     0.162 A 
BRANCH  13  17
ATOM     17  O   UNL     1      -4.861 -14.097  27.282  1.00  0.00    -0.504 OA
ATOM     18  H   UNL     1      -4.975 -13.607  26.402  1.00  0.00     0.293 HD
ENDBRANCH  13  17
BRANCH  15  19
ATOM     19  O   UNL     1      -2.130 -14.041  26.816  1.00  0.00    -0.502 OA
ATOM     20  H   UNL     1      -2.567 -14.796  26.302  1.00  0.00     0.293 HD
ENDBRANCH  15  19
BRANCH  16  21
ATOM     21  O   UNL     1      -0.384 -13.063  28.803  1.00  0.00    -0.504 OA
ATOM     22  H   UNL     1       0.281 -13.436  29.470  1.00  0.00     0.293 HD
ENDBRANCH  16  21
ENDBRANCH   1  11
BRANCH  10  23
ATOM     23  O   UNL     1      -3.086 -10.086  31.626  1.00  0.00    -0.500 OA
ATOM     24  H   UNL     1      -2.722  -9.250  32.069  1.00  0.00     0.294 HD
ENDBRANCH  10  23
BRANCH   5  25
ATOM     25  O   UNL     1      -7.823 -14.281  36.120  1.00  0.00    -0.507 OA
ATOM     26  H   UNL     1      -8.595 -14.727  35.638  1.00  0.00     0.293 HD
ENDBRANCH   5  25
BRANCH   7  27
ATOM     27  O   UNL     1      -5.874  -9.877  36.051  1.00  0.00    -0.507 OA
ATOM     28  H   UNL     1      -5.021  -9.550  36.483  1.00  0.00     0.293 HD
ENDBRANCH   7  27
TORSDOF 7
ENDMDL
MODEL 6
REMARK VINA RESULT:    -2.642      1.494      7.002
REMARK INTER + INTRA:          -3.583
REMARK INTER:                  -4.054
REMARK INTRA:                   0.471
REMARK UNBOUND:                -0.323
REMARK SMILES Oc1cc(O)c2cc(O)c(-c3cc(O)c(O)c(O)c3)[o+]c2c1
REMARK SMILES IDX 10 1 20 2 21 3 22 4 2 5 3 6 4 7 6 8 7 9 8 10 11 11 12 12
REMARK SMILES IDX 13 13 19 14 15 15 17 16 14 17 16 19 18 21 9 23 1 25 5 27
REMARK H PARENT 14 18 16 20 18 22 9 24 1 26 5 28
REMARK Flexibility Score: inf
ROOT
ATOM      1  C   UNL     1      -5.041 -12.831  33.224  1.00  0.00     0.402 A 
ATOM      2  O   UNL     1      -4.235 -11.854  32.815  1.00  0.00    -0.202 OA
ATOM      3  C   UNL     1      -3.428 -11.965  31.765  1.00  0.00     0.368 A 
ATOM      4  C   UNL     1      -2.620 -10.881  31.412  1.00  0.00     0.162 A 
ATOM      5  C   UNL     1      -1.765 -10.967  30.312  1.00  0.00     0.128 A 
ATOM      6  C   UNL     1      -1.717 -12.146  29.559  1.00  0.00     0.093 A 
ATOM      7  C   UNL     1      -2.516 -13.245  29.892  1.00  0.00     0.136 A 
ATOM      8  C   UNL     1      -3.386 -13.162  31.011  1.00  0.00     0.125 A 
ATOM      9  C   UNL     1      -4.212 -14.218  31.427  1.00  0.00     0.078 A 
ATOM     10  C   UNL     1      -5.039 -14.063  32.543  1.00  0.00     0.223 A 
ENDROOT
BRANCH   1  11
ATOM     11  C   UNL     1      -5.901 -12.582  34.403  1.00  0.00     0.091 A 
ATOM     12  C   UNL     1      -6.723 -13.611  34.886  1.00  0.00     0.068 A 
ATOM     13  C   UNL     1      -7.533 -13.407  36.012  1.00  0.00     0.162 A 
ATOM     14  C   UNL     1      -5.872 -11.353  35.084  1.00  0.00     0.068 A 
ATOM     15  C   UNL     1      -7.514 -12.174  36.674  1.00  0.00     0.200 A 
ATOM     16  C   UNL     1      -6.678 -11.144  36.211  1.00  0.00     0.162 A 
BRANCH  13  17
ATOM     17  O   UNL     1      -8.359 -14.428  36.480  1.00  0.00    -0.504 OA
ATOM     18  H   UNL     1      -8.932 -14.977  35.849  1.00  0.00     0.293 HD
ENDBRANCH  13  17
BRANCH  15  19
ATOM     19  O   UNL     1      -8.329 -11.988  37.792  1.00  0.00    -0.502 OA
ATOM     20  H   UNL     1      -8.177 -12.488  38.659  1.00  0.00     0.293 HD
ENDBRANCH  15  19
BRANCH  16  21
ATOM     21  O   UNL     1      -6.646  -9.919  36.877  1.00  0.00    -0.504 OA
ATOM     22  H   UNL     1      -6.035  -9.167  36.578  1.00  0.00     0.293 HD
ENDBRANCH  16  21
ENDBRANCH   1  11
BRANCH  10  23
ATOM     23  O   UNL     1      -5.823 -15.127  32.987  1.00  0.00    -0.500 OA
ATOM     24  H   UNL     1      -6.575 -14.994  33.653  1.00  0.00     0.294 HD
ENDBRANCH  10  23
BRANCH   5  25
ATOM     25  O   UNL     1      -0.967  -9.875  29.975  1.00  0.00    -0.507 OA
ATOM     26  H   UNL     1      -1.319  -8.926  30.025  1.00  0.00     0.293 HD
ENDBRANCH   5  25
BRANCH   7  27
ATOM     27  O   UNL     1      -2.412 -14.384  29.088  1.00  0.00    -0.507 OA
ATOM     28  H   UNL     1      -3.197 -14.853  28.658  1.00  0.00     0.293 HD
ENDBRANCH   7  27
TORSDOF 7
ENDMDL
MODEL 7
REMARK VINA RESULT:    -2.619      1.304      7.003
REMARK INTER + INTRA:          -3.555
REMARK INTER:                  -3.519
REMARK INTRA:                  -0.036
REMARK UNBOUND:                -0.323
REMARK SMILES Oc1cc(O)c2cc(O)c(-c3cc(O)c(O)c(O)c3)[o+]c2c1
REMARK SMILES IDX 10 1 20 2 21 3 22 4 2 5 3 6 4 7 6 8 7 9 8 10 11 11 12 12
REMARK SMILES IDX 13 13 19 14 15 15 17 16 14 17 16 19 18 21 9 23 1 25 5 27
REMARK H PARENT 14 18 16 20 18 22 9 24 1 26 5 28
REMARK Flexibility Score: inf
ROOT
ATOM      1  C   UNL     1      -4.331 -13.109  32.402  1.00  0.00     0.402 A 
ATOM      2  O   UNL     1      -3.047 -12.777  32.509  1.00  0.00    -0.202 OA
ATOM      3  C   UNL     1      -2.153 -13.001  31.550  1.00  0.00     0.368 A 
ATOM      4  C   UNL     1      -0.826 -12.613  31.755  1.00  0.00     0.162 A 
ATOM      5  C   UNL     1       0.133 -12.832  30.766  1.00  0.00     0.128 A 
ATOM      6  C   UNL     1      -0.235 -13.445  29.562  1.00  0.00     0.093 A 
ATOM      7  C   UNL     1      -1.558 -13.842  29.333  1.00  0.00     0.136 A 
ATOM      8  C   UNL     1      -2.536 -13.622  30.338  1.00  0.00     0.125 A 
ATOM      9  C   UNL     1      -3.881 -14.000  30.201  1.00  0.00     0.078 A 
ATOM     10  C   UNL     1      -4.787 -13.754  31.237  1.00  0.00     0.223 A 
ENDROOT
BRANCH   1  11
ATOM     11  C   UNL     1      -5.231 -12.798  33.536  1.00  0.00     0.091 A 
ATOM     12  C   UNL     1      -5.262 -11.494  34.053  1.00  0.00     0.068 A 
ATOM     13  C   UNL     1      -6.120 -11.168  35.114  1.00  0.00     0.162 A 
ATOM     14  C   UNL     1      -6.098 -13.766  34.070  1.00  0.00     0.068 A 
ATOM     15  C   UNL     1      -6.966 -12.143  35.654  1.00  0.00     0.200 A 
ATOM     16  C   UNL     1      -6.959 -13.446  35.128  1.00  0.00     0.162 A 
BRANCH  13  17
ATOM     17  O   UNL     1      -6.136  -9.875  35.634  1.00  0.00    -0.504 OA
ATOM     18  H   UNL     1      -5.450  -9.568  36.313  1.00  0.00     0.293 HD
ENDBRANCH  13  17
BRANCH  15  19
ATOM     19  O   UNL     1      -7.811 -11.802  36.711  1.00  0.00    -0.502 OA
ATOM     20  H   UNL     1      -8.598 -11.175  36.592  1.00  0.00     0.293 HD
ENDBRANCH  15  19
BRANCH  16  21
ATOM     21  O   UNL     1      -7.811 -14.416  35.655  1.00  0.00    -0.504 OA
ATOM     22  H   UNL     1      -7.481 -15.113  36.313  1.00  0.00     0.293 HD
ENDBRANCH  16  21
ENDBRANCH   1  11
BRANCH  10  23
ATOM     23  O   UNL     1      -6.112 -14.174  31.123  1.00  0.00    -0.500 OA
ATOM     24  H   UNL     1      -6.719 -14.249  31.931  1.00  0.00     0.294 HD
ENDBRANCH  10  23
BRANCH   5  25
ATOM     25  O   UNL     1       1.451 -12.439  30.988  1.00  0.00    -0.507 OA
ATOM     26  H   UNL     1       1.718 -11.927  31.821  1.00  0.00     0.293 HD
ENDBRANCH   5  25
BRANCH   7  27
ATOM     27  O   UNL     1      -1.846 -14.443  28.104  1.00  0.00    -0.507 OA
ATOM     28  H   UNL     1      -2.391 -14.011  27.372  1.00  0.00     0.293 HD
ENDBRANCH   7  27
TORSDOF 7
ENDMDL
