MODEL 1
REMARK VINA RESULT:    -3.750      0.000      0.000
REMARK INTER + INTRA:          -6.879
REMARK INTER:                  -5.943
REMARK INTRA:                  -0.936
REMARK UNBOUND:                -0.936
REMARK SMILES CCCCCCCCCCCC(=O)[O-]
REMARK SMILES IDX 7 1 8 2 9 3 10 4 11 5 12 6 13 7 14 8 6 9 5 10 4 11 3 12 2 13
REMARK SMILES IDX 1 14
REMARK H PARENT
REMARK Flexibility Score: inf
ROOT
ATOM      1  C   UNL     1       3.490  -5.047   0.161  1.00  0.00     0.000 C 
ENDROOT
BRANCH   1   2
ATOM      2  C   UNL     1       4.214  -3.780  -0.329  1.00  0.00     0.000 C 
BRANCH   2   3
ATOM      3  C   UNL     1       4.943  -2.974   0.766  1.00  0.00     0.000 C 
BRANCH   3   4
ATOM      4  C   UNL     1       5.224  -1.502   0.414  1.00  0.00     0.006 C 
BRANCH   4   5
ATOM      5  C   UNL     1       5.217  -1.238  -1.097  1.00  0.00     0.053 C 
BRANCH   5   6
ATOM      6  C   UNL     1       6.153  -0.122  -1.437  1.00  0.00     0.041 C 
ATOM      7  O   UNL     1       5.860   0.693  -2.350  1.00  0.00    -0.550 OA
ATOM      8  O   UNL     1       7.371  -0.012  -0.779  1.00  0.00    -0.550 OA
ENDBRANCH   5   6
ENDBRANCH   4   5
ENDBRANCH   3   4
ENDBRANCH   2   3
ENDBRANCH   1   2
BRANCH   1   9
ATOM      9  C   UNL     1       1.996  -4.811   0.437  1.00  0.00     0.000 C 
BRANCH   9  10
ATOM     10  C   UNL     1       1.723  -4.413   1.898  1.00  0.00    -0.000 C 
BRANCH  10  11
ATOM     11  C   UNL     1       1.214  -5.593   2.744  1.00  0.00    -0.000 C 
BRANCH  11  12
ATOM     12  C   UNL     1       2.330  -6.268   3.562  1.00  0.00    -0.000 C 
BRANCH  12  13
ATOM     13  C   UNL     1       3.468  -5.330   4.003  1.00  0.00    -0.003 C 
ATOM     14  C   UNL     1       4.840  -5.778   3.498  1.00  0.00     0.004 C 
ENDBRANCH  12  13
ENDBRANCH  11  12
ENDBRANCH  10  11
ENDBRANCH   9  10
ENDBRANCH   1   9
TORSDOF 10
ENDMDL
MODEL 2
REMARK VINA RESULT:    -3.733      1.210      2.660
REMARK INTER + INTRA:          -6.851
REMARK INTER:                  -5.593
REMARK INTRA:                  -1.258
REMARK UNBOUND:                -0.936
REMARK SMILES CCCCCCCCCCCC(=O)[O-]
REMARK SMILES IDX 7 1 8 2 9 3 10 4 11 5 12 6 13 7 14 8 6 9 5 10 4 11 3 12 2 13
REMARK SMILES IDX 1 14
REMARK H PARENT
REMARK Flexibility Score: inf
ROOT
ATOM      1  C   UNL     1       5.427  -5.612   2.649  1.00  0.00     0.000 C 
ENDROOT
BRANCH   1   2
ATOM      2  C   UNL     1       5.471  -5.023   1.228  1.00  0.00     0.000 C 
BRANCH   2   3
ATOM      3  C   UNL     1       5.312  -3.491   1.145  1.00  0.00     0.000 C 
BRANCH   3   4
ATOM      4  C   UNL     1       4.951  -2.947  -0.249  1.00  0.00     0.006 C 
BRANCH   4   5
ATOM      5  C   UNL     1       5.122  -1.427  -0.359  1.00  0.00     0.053 C 
BRANCH   5   6
ATOM      6  C   UNL     1       5.625  -1.055  -1.717  1.00  0.00     0.041 C 
ATOM      7  O   UNL     1       6.661  -1.600  -2.180  1.00  0.00    -0.550 OA
ATOM      8  O   UNL     1       4.979  -0.070  -2.453  1.00  0.00    -0.550 OA
ENDBRANCH   5   6
ENDBRANCH   4   5
ENDBRANCH   3   4
ENDBRANCH   2   3
ENDBRANCH   1   2
BRANCH   1   9
ATOM      9  C   UNL     1       4.083  -6.285   2.974  1.00  0.00     0.000 C 
BRANCH   9  10
ATOM     10  C   UNL     1       3.185  -5.408   3.861  1.00  0.00    -0.000 C 
BRANCH  10  11
ATOM     11  C   UNL     1       2.328  -4.426   3.043  1.00  0.00    -0.000 C 
BRANCH  11  12
ATOM     12  C   UNL     1       1.432  -5.133   2.009  1.00  0.00    -0.000 C 
BRANCH  12  13
ATOM     13  C   UNL     1       1.753  -4.804   0.540  1.00  0.00    -0.003 C 
ATOM     14  C   UNL     1       2.157  -6.033  -0.274  1.00  0.00     0.004 C 
ENDBRANCH  12  13
ENDBRANCH  11  12
ENDBRANCH  10  11
ENDBRANCH   9  10
ENDBRANCH   1   9
TORSDOF 10
ENDMDL
MODEL 3
REMARK VINA RESULT:    -3.701      1.047      1.419
REMARK INTER + INTRA:          -6.801
REMARK INTER:                  -5.605
REMARK INTRA:                  -1.197
REMARK UNBOUND:                -0.936
REMARK SMILES CCCCCCCCCCCC(=O)[O-]
REMARK SMILES IDX 7 1 8 2 9 3 10 4 11 5 12 6 13 7 14 8 6 9 5 10 4 11 3 12 2 13
REMARK SMILES IDX 1 14
REMARK H PARENT
REMARK Flexibility Score: inf
ROOT
ATOM      1  C   UNL     1       4.486  -6.034   0.319  1.00  0.00     0.000 C 
ENDROOT
BRANCH   1   2
ATOM      2  C   UNL     1       5.455  -4.928  -0.135  1.00  0.00     0.000 C 
BRANCH   2   3
ATOM      3  C   UNL     1       5.501  -3.681   0.770  1.00  0.00     0.000 C 
BRANCH   3   4
ATOM      4  C   UNL     1       4.886  -2.408   0.159  1.00  0.00     0.006 C 
BRANCH   4   5
ATOM      5  C   UNL     1       5.300  -2.189  -1.302  1.00  0.00     0.053 C 
BRANCH   5   6
ATOM      6  C   UNL     1       5.635  -0.751  -1.539  1.00  0.00     0.041 C 
ATOM      7  O   UNL     1       5.016  -0.094  -2.417  1.00  0.00    -0.550 OA
ATOM      8  O   UNL     1       6.663  -0.149  -0.826  1.00  0.00    -0.550 OA
ENDBRANCH   5   6
ENDBRANCH   4   5
ENDBRANCH   3   4
ENDBRANCH   2   3
ENDBRANCH   1   2
BRANCH   1   9
ATOM      9  C   UNL     1       3.148  -6.002  -0.440  1.00  0.00     0.000 C 
BRANCH   9  10
ATOM     10  C   UNL     1       2.132  -5.041   0.199  1.00  0.00    -0.000 C 
BRANCH  10  11
ATOM     11  C   UNL     1       1.153  -5.761   1.142  1.00  0.00    -0.000 C 
BRANCH  11  12
ATOM     12  C   UNL     1       1.197  -5.215   2.581  1.00  0.00    -0.000 C 
BRANCH  12  13
ATOM     13  C   UNL     1       2.491  -4.469   2.952  1.00  0.00    -0.003 C 
ATOM     14  C   UNL     1       3.439  -5.307   3.811  1.00  0.00     0.004 C 
ENDBRANCH  12  13
ENDBRANCH  11  12
ENDBRANCH  10  11
ENDBRANCH   9  10
ENDBRANCH   1   9
TORSDOF 10
ENDMDL
MODEL 4
REMARK VINA RESULT:    -3.696      3.276      6.259
REMARK INTER + INTRA:          -6.793
REMARK INTER:                  -5.343
REMARK INTRA:                  -1.450
REMARK UNBOUND:                -0.936
REMARK SMILES CCCCCCCCCCCC(=O)[O-]
REMARK SMILES IDX 7 1 8 2 9 3 10 4 11 5 12 6 13 7 14 8 6 9 5 10 4 11 3 12 2 13
REMARK SMILES IDX 1 14
REMARK H PARENT
REMARK Flexibility Score: inf
ROOT
ATOM      1  C   UNL     1       6.552   0.217  -1.869  1.00  0.00     0.000 C 
ENDROOT
BRANCH   1   2
ATOM      2  C   UNL     1       5.569  -0.966  -1.924  1.00  0.00     0.000 C 
BRANCH   2   3
ATOM      3  C   UNL     1       5.022  -1.431  -0.559  1.00  0.00     0.000 C 
BRANCH   3   4
ATOM      4  C   UNL     1       4.914  -2.957  -0.385  1.00  0.00     0.006 C 
BRANCH   4   5
ATOM      5  C   UNL     1       4.518  -3.368   1.039  1.00  0.00     0.053 C 
BRANCH   5   6
ATOM      6  C   UNL     1       3.131  -3.926   1.054  1.00  0.00     0.041 C 
ATOM      7  O   UNL     1       2.430  -3.851   2.098  1.00  0.00    -0.550 OA
ATOM      8  O   UNL     1       2.628  -4.572  -0.067  1.00  0.00    -0.550 OA
ENDBRANCH   5   6
ENDBRANCH   4   5
ENDBRANCH   3   4
ENDBRANCH   2   3
ENDBRANCH   1   2
BRANCH   1   9
ATOM      9  C   UNL     1       8.014  -0.231  -1.705  1.00  0.00     0.000 C 
BRANCH   9  10
ATOM     10  C   UNL     1       8.206  -1.730  -1.988  1.00  0.00    -0.000 C 
BRANCH  10  11
ATOM     11  C   UNL     1       8.626  -2.516  -0.734  1.00  0.00    -0.000 C 
BRANCH  11  12
ATOM     12  C   UNL     1       8.910  -1.607   0.476  1.00  0.00    -0.000 C 
BRANCH  12  13
ATOM     13  C   UNL     1       7.910  -1.742   1.638  1.00  0.00    -0.003 C 
ATOM     14  C   UNL     1       7.369  -0.396   2.121  1.00  0.00     0.004 C 
ENDBRANCH  12  13
ENDBRANCH  11  12
ENDBRANCH  10  11
ENDBRANCH   9  10
ENDBRANCH   1   9
TORSDOF 10
ENDMDL
MODEL 5
REMARK VINA RESULT:    -3.676      1.215      2.399
REMARK INTER + INTRA:          -6.762
REMARK INTER:                  -5.945
REMARK INTRA:                  -0.817
REMARK UNBOUND:                -0.936
REMARK SMILES CCCCCCCCCCCC(=O)[O-]
REMARK SMILES IDX 7 1 8 2 9 3 10 4 11 5 12 6 13 7 14 8 6 9 5 10 4 11 3 12 2 13
REMARK SMILES IDX 1 14
REMARK H PARENT
REMARK Flexibility Score: inf
ROOT
ATOM      1  C   UNL     1       4.742  -4.883   1.897  1.00  0.00     0.000 C 
ENDROOT
BRANCH   1   2
ATOM      2  C   UNL     1       4.270  -3.631   1.137  1.00  0.00     0.000 C 
BRANCH   2   3
ATOM      3  C   UNL     1       5.342  -2.948   0.263  1.00  0.00     0.000 C 
BRANCH   3   4
ATOM      4  C   UNL     1       5.249  -1.413   0.197  1.00  0.00     0.006 C 
BRANCH   4   5
ATOM      5  C   UNL     1       6.486  -0.767  -0.438  1.00  0.00     0.053 C 
BRANCH   5   6
ATOM      6  C   UNL     1       6.110  -0.032  -1.685  1.00  0.00     0.041 C 
ATOM      7  O   UNL     1       6.800   0.945  -2.077  1.00  0.00    -0.550 OA
ATOM      8  O   UNL     1       4.968  -0.394  -2.388  1.00  0.00    -0.550 OA
ENDBRANCH   5   6
ENDBRANCH   4   5
ENDBRANCH   3   4
ENDBRANCH   2   3
ENDBRANCH   1   2
BRANCH   1   9
ATOM      9  C   UNL     1       3.687  -5.415   2.882  1.00  0.00     0.000 C 
BRANCH   9  10
ATOM     10  C   UNL     1       2.494  -4.459   3.039  1.00  0.00    -0.000 C 
BRANCH  10  11
ATOM     11  C   UNL     1       1.182  -5.061   2.507  1.00  0.00    -0.000 C 
BRANCH  11  12
ATOM     12  C   UNL     1       1.365  -6.476   1.928  1.00  0.00    -0.000 C 
BRANCH  12  13
ATOM     13  C   UNL     1       1.151  -6.589   0.408  1.00  0.00    -0.003 C 
ATOM     14  C   UNL     1       1.442  -5.285  -0.335  1.00  0.00     0.004 C 
ENDBRANCH  12  13
ENDBRANCH  11  12
ENDBRANCH  10  11
ENDBRANCH   9  10
ENDBRANCH   1   9
TORSDOF 10
ENDMDL
MODEL 6
REMARK VINA RESULT:    -3.662      3.338      5.729
REMARK INTER + INTRA:          -6.739
REMARK INTER:                  -5.208
REMARK INTRA:                  -1.530
REMARK UNBOUND:                -0.936
REMARK SMILES CCCCCCCCCCCC(=O)[O-]
REMARK SMILES IDX 7 1 8 2 9 3 10 4 11 5 12 6 13 7 14 8 6 9 5 10 4 11 3 12 2 13
REMARK SMILES IDX 1 14
REMARK H PARENT
REMARK Flexibility Score: inf
ROOT
ATOM      1  C   UNL     1       6.408  -4.029  -2.183  1.00  0.00     0.000 C 
ENDROOT
BRANCH   1   2
ATOM      2  C   UNL     1       6.330  -4.532  -0.730  1.00  0.00     0.000 C 
BRANCH   2   3
ATOM      3  C   UNL     1       4.979  -5.157  -0.322  1.00  0.00     0.000 C 
BRANCH   3   4
ATOM      4  C   UNL     1       3.849  -4.147  -0.053  1.00  0.00     0.006 C 
BRANCH   4   5
ATOM      5  C   UNL     1       3.904  -3.553   1.360  1.00  0.00     0.053 C 
BRANCH   5   6
ATOM      6  C   UNL     1       2.965  -4.280   2.269  1.00  0.00     0.041 C 
ATOM      7  O   UNL     1       1.721  -4.128   2.147  1.00  0.00    -0.550 OA
ATOM      8  O   UNL     1       3.464  -5.088   3.282  1.00  0.00    -0.550 OA
ENDBRANCH   5   6
ENDBRANCH   4   5
ENDBRANCH   3   4
ENDBRANCH   2   3
ENDBRANCH   1   2
BRANCH   1   9
ATOM      9  C   UNL     1       6.819  -2.549  -2.279  1.00  0.00     0.000 C 
BRANCH   9  10
ATOM     10  C   UNL     1       5.608  -1.601  -2.271  1.00  0.00    -0.000 C 
BRANCH  10  11
ATOM     11  C   UNL     1       5.436  -0.877  -0.925  1.00  0.00    -0.000 C 
BRANCH  11  12
ATOM     12  C   UNL     1       6.753  -0.761  -0.136  1.00  0.00    -0.000 C 
BRANCH  12  13
ATOM     13  C   UNL     1       6.642  -1.087   1.364  1.00  0.00    -0.003 C 
ATOM     14  C   UNL     1       7.621  -2.173   1.813  1.00  0.00     0.004 C 
ENDBRANCH  12  13
ENDBRANCH  11  12
ENDBRANCH  10  11
ENDBRANCH   9  10
ENDBRANCH   1   9
TORSDOF 10
ENDMDL
MODEL 7
REMARK VINA RESULT:    -3.661      1.724      2.809
REMARK INTER + INTRA:          -6.737
REMARK INTER:                  -5.518
REMARK INTRA:                  -1.220
REMARK UNBOUND:                -0.936
REMARK SMILES CCCCCCCCCCCC(=O)[O-]
REMARK SMILES IDX 7 1 8 2 9 3 10 4 11 5 12 6 13 7 14 8 6 9 5 10 4 11 3 12 2 13
REMARK SMILES IDX 1 14
REMARK H PARENT
REMARK Flexibility Score: inf
ROOT
ATOM      1  C   UNL     1       6.733  -4.783   0.893  1.00  0.00     0.000 C 
ENDROOT
BRANCH   1   2
ATOM      2  C   UNL     1       7.055  -3.574   1.791  1.00  0.00     0.000 C 
BRANCH   2   3
ATOM      3  C   UNL     1       7.442  -2.283   1.041  1.00  0.00     0.000 C 
BRANCH   3   4
ATOM      4  C   UNL     1       6.401  -1.151   1.112  1.00  0.00     0.006 C 
BRANCH   4   5
ATOM      5  C   UNL     1       5.105  -1.484   0.362  1.00  0.00     0.053 C 
BRANCH   5   6
ATOM      6  C   UNL     1       5.317  -1.385  -1.115  1.00  0.00     0.041 C 
ATOM      7  O   UNL     1       5.208  -0.274  -1.697  1.00  0.00    -0.550 OA
ATOM      8  O   UNL     1       5.587  -2.527  -1.857  1.00  0.00    -0.550 OA
ENDBRANCH   5   6
ENDBRANCH   4   5
ENDBRANCH   3   4
ENDBRANCH   2   3
ENDBRANCH   1   2
BRANCH   1   9
ATOM      9  C   UNL     1       5.357  -5.400   1.196  1.00  0.00     0.000 C 
BRANCH   9  10
ATOM     10  C   UNL     1       4.369  -5.234   0.029  1.00  0.00    -0.000 C 
BRANCH  10  11
ATOM     11  C   UNL     1       3.080  -4.506   0.448  1.00  0.00    -0.000 C 
BRANCH  11  12
ATOM     12  C   UNL     1       3.040  -4.179   1.952  1.00  0.00    -0.000 C 
BRANCH  12  13
ATOM     13  C   UNL     1       1.736  -4.575   2.668  1.00  0.00    -0.003 C 
ATOM     14  C   UNL     1       1.211  -5.945   2.240  1.00  0.00     0.004 C 
ENDBRANCH  12  13
ENDBRANCH  11  12
ENDBRANCH  10  11
ENDBRANCH   9  10
ENDBRANCH   1   9
TORSDOF 10
ENDMDL
MODEL 8
REMARK VINA RESULT:    -3.604      3.420      6.161
REMARK INTER + INTRA:          -6.647
REMARK INTER:                  -5.506
REMARK INTRA:                  -1.141
REMARK UNBOUND:                -0.936
REMARK SMILES CCCCCCCCCCCC(=O)[O-]
REMARK SMILES IDX 7 1 8 2 9 3 10 4 11 5 12 6 13 7 14 8 6 9 5 10 4 11 3 12 2 13
REMARK SMILES IDX 1 14
REMARK H PARENT
REMARK Flexibility Score: inf
ROOT
ATOM      1  C   UNL     1       6.879  -4.081   1.952  1.00  0.00     0.000 C 
ENDROOT
BRANCH   1   2
ATOM      2  C   UNL     1       5.531  -4.819   1.864  1.00  0.00     0.000 C 
BRANCH   2   3
ATOM      3  C   UNL     1       5.199  -5.420   0.483  1.00  0.00     0.000 C 
BRANCH   3   4
ATOM      4  C   UNL     1       3.710  -5.738   0.252  1.00  0.00     0.006 C 
BRANCH   4   5
ATOM      5  C   UNL     1       2.794  -4.540   0.530  1.00  0.00     0.053 C 
BRANCH   5   6
ATOM      6  C   UNL     1       1.861  -4.848   1.658  1.00  0.00     0.041 C 
ATOM      7  O   UNL     1       0.958  -5.714   1.514  1.00  0.00    -0.550 OA
ATOM      8  O   UNL     1       1.956  -4.145   2.851  1.00  0.00    -0.550 OA
ENDBRANCH   5   6
ENDBRANCH   4   5
ENDBRANCH   3   4
ENDBRANCH   2   3
ENDBRANCH   1   2
BRANCH   1   9
ATOM      9  C   UNL     1       7.074  -3.058   0.820  1.00  0.00     0.000 C 
BRANCH   9  10
ATOM     10  C   UNL     1       6.392  -1.713   1.119  1.00  0.00    -0.000 C 
BRANCH  10  11
ATOM     11  C   UNL     1       5.196  -1.439   0.190  1.00  0.00    -0.000 C 
BRANCH  11  12
ATOM     12  C   UNL     1       5.265  -2.237  -1.124  1.00  0.00    -0.000 C 
BRANCH  12  13
ATOM     13  C   UNL     1       5.661  -1.415  -2.363  1.00  0.00    -0.003 C 
ATOM     14  C   UNL     1       5.613   0.094  -2.120  1.00  0.00     0.004 C 
ENDBRANCH  12  13
ENDBRANCH  11  12
ENDBRANCH  10  11
ENDBRANCH   9  10
ENDBRANCH   1   9
TORSDOF 10
ENDMDL
MODEL 9
REMARK VINA RESULT:    -3.511      3.752      6.332
REMARK INTER + INTRA:          -6.499
REMARK INTER:                  -5.187
REMARK INTRA:                  -1.312
REMARK UNBOUND:                -0.936
REMARK SMILES CCCCCCCCCCCC(=O)[O-]
REMARK SMILES IDX 7 1 8 2 9 3 10 4 11 5 12 6 13 7 14 8 6 9 5 10 4 11 3 12 2 13
REMARK SMILES IDX 1 14
REMARK H PARENT
REMARK Flexibility Score: inf
ROOT
ATOM      1  C   UNL     1       5.713  -5.066   0.437  1.00  0.00     0.000 C 
ENDROOT
BRANCH   1   2
ATOM      2  C   UNL     1       4.321  -5.518  -0.042  1.00  0.00     0.000 C 
BRANCH   2   3
ATOM      3  C   UNL     1       3.234  -4.423  -0.031  1.00  0.00     0.000 C 
BRANCH   3   4
ATOM      4  C   UNL     1       1.912  -4.825   0.647  1.00  0.00     0.006 C 
BRANCH   4   5
ATOM      5  C   UNL     1       1.882  -4.483   2.142  1.00  0.00     0.053 C 
BRANCH   5   6
ATOM      6  C   UNL     1       1.833  -5.734   2.962  1.00  0.00     0.041 C 
ATOM      7  O   UNL     1       2.861  -6.131   3.571  1.00  0.00    -0.550 OA
ATOM      8  O   UNL     1       0.668  -6.487   3.014  1.00  0.00    -0.550 OA
ENDBRANCH   5   6
ENDBRANCH   4   5
ENDBRANCH   3   4
ENDBRANCH   2   3
ENDBRANCH   1   2
BRANCH   1   9
ATOM      9  C   UNL     1       5.646  -3.941   1.484  1.00  0.00     0.000 C 
BRANCH   9  10
ATOM     10  C   UNL     1       6.346  -2.656   1.012  1.00  0.00    -0.000 C 
BRANCH  10  11
ATOM     11  C   UNL     1       5.348  -1.547   0.635  1.00  0.00    -0.000 C 
BRANCH  11  12
ATOM     12  C   UNL     1       5.278  -1.296  -0.882  1.00  0.00    -0.000 C 
BRANCH  12  13
ATOM     13  C   UNL     1       6.475  -1.835  -1.685  1.00  0.00    -0.003 C 
ATOM     14  C   UNL     1       6.101  -2.987  -2.618  1.00  0.00     0.004 C 
ENDBRANCH  12  13
ENDBRANCH  11  12
ENDBRANCH  10  11
ENDBRANCH   9  10
ENDBRANCH   1   9
TORSDOF 10
ENDMDL
