MODEL 1
REMARK VINA RESULT:    -3.696      0.000      0.000
REMARK INTER + INTRA:          -4.460
REMARK INTER:                  -4.345
REMARK INTRA:                  -0.115
REMARK UNBOUND:                -0.115
REMARK SMILES O=C([O-])CCC(=O)[O-]
REMARK SMILES IDX 4 1 2 2 1 3 3 4 5 5 6 6 7 7 8 8
REMARK H PARENT
REMARK Flexibility Score: inf
ROOT
ATOM      1  C   UNL     1     -37.374  18.727 -29.726  1.00  0.00     0.059 C 
ENDROOT
BRANCH   1   2
ATOM      2  C   UNL     1     -37.622  17.596 -30.674  1.00  0.00     0.042 C 
ATOM      3  O   UNL     1     -38.441  17.732 -31.621  1.00  0.00    -0.550 OA
ATOM      4  O   UNL     1     -36.914  16.410 -30.541  1.00  0.00    -0.550 OA
ENDBRANCH   1   2
BRANCH   1   5
ATOM      5  C   UNL     1     -38.302  18.622 -28.513  1.00  0.00     0.059 C 
BRANCH   5   6
ATOM      6  C   UNL     1     -39.545  19.425 -28.735  1.00  0.00     0.042 C 
ATOM      7  O   UNL     1     -40.656  18.997 -28.327  1.00  0.00    -0.550 OA
ATOM      8  O   UNL     1     -39.483  20.624 -29.433  1.00  0.00    -0.550 OA
ENDBRANCH   5   6
ENDBRANCH   1   5
TORSDOF 3
ENDMDL
MODEL 2
REMARK VINA RESULT:    -3.696      0.095      3.696
REMARK INTER + INTRA:          -4.460
REMARK INTER:                  -4.351
REMARK INTRA:                  -0.109
REMARK UNBOUND:                -0.115
REMARK SMILES O=C([O-])CCC(=O)[O-]
REMARK SMILES IDX 4 1 2 2 1 3 3 4 5 5 6 6 7 7 8 8
REMARK H PARENT
REMARK Flexibility Score: inf
ROOT
ATOM      1  C   UNL     1     -38.258  18.609 -28.492  1.00  0.00     0.059 C 
ENDROOT
BRANCH   1   2
ATOM      2  C   UNL     1     -39.494  19.413 -28.749  1.00  0.00     0.042 C 
ATOM      3  O   UNL     1     -40.613  19.002 -28.343  1.00  0.00    -0.550 OA
ATOM      4  O   UNL     1     -39.404  20.640 -29.392  1.00  0.00    -0.550 OA
ENDBRANCH   1   2
BRANCH   1   5
ATOM      5  C   UNL     1     -37.316  18.677 -29.696  1.00  0.00     0.059 C 
BRANCH   5   6
ATOM      6  C   UNL     1     -37.545  17.510 -30.604  1.00  0.00     0.042 C 
ATOM      7  O   UNL     1     -36.859  16.462 -30.473  1.00  0.00    -0.550 OA
ATOM      8  O   UNL     1     -38.481  17.596 -31.626  1.00  0.00    -0.550 OA
ENDBRANCH   5   6
ENDBRANCH   1   5
TORSDOF 3
ENDMDL
MODEL 3
REMARK VINA RESULT:    -3.685      0.062      3.756
REMARK INTER + INTRA:          -4.446
REMARK INTER:                  -4.342
REMARK INTRA:                  -0.104
REMARK UNBOUND:                -0.115
REMARK SMILES O=C([O-])CCC(=O)[O-]
REMARK SMILES IDX 4 1 2 2 1 3 3 4 5 5 6 6 7 7 8 8
REMARK H PARENT
REMARK Flexibility Score: inf
ROOT
ATOM      1  C   UNL     1     -38.278  18.621 -28.548  1.00  0.00     0.059 C 
ENDROOT
BRANCH   1   2
ATOM      2  C   UNL     1     -39.525  19.423 -28.758  1.00  0.00     0.042 C 
ATOM      3  O   UNL     1     -40.631  18.995 -28.335  1.00  0.00    -0.550 OA
ATOM      4  O   UNL     1     -39.457  20.664 -29.375  1.00  0.00    -0.550 OA
ENDBRANCH   1   2
BRANCH   1   5
ATOM      5  C   UNL     1     -37.369  18.717 -29.775  1.00  0.00     0.059 C 
BRANCH   5   6
ATOM      6  C   UNL     1     -37.597  17.553 -30.687  1.00  0.00     0.042 C 
ATOM      7  O   UNL     1     -38.463  17.623 -31.599  1.00  0.00    -0.550 OA
ATOM      8  O   UNL     1     -36.888  16.374 -30.502  1.00  0.00    -0.550 OA
ENDBRANCH   5   6
ENDBRANCH   1   5
TORSDOF 3
ENDMDL
MODEL 4
REMARK VINA RESULT:    -3.653      0.926      1.149
REMARK INTER + INTRA:          -4.409
REMARK INTER:                  -4.295
REMARK INTRA:                  -0.114
REMARK UNBOUND:                -0.115
REMARK SMILES O=C([O-])CCC(=O)[O-]
REMARK SMILES IDX 4 1 2 2 1 3 3 4 5 5 6 6 7 7 8 8
REMARK H PARENT
REMARK Flexibility Score: inf
ROOT
ATOM      1  C   UNL     1     -37.257  18.819 -29.959  1.00  0.00     0.059 C 
ENDROOT
BRANCH   1   2
ATOM      2  C   UNL     1     -37.978  18.637 -31.257  1.00  0.00     0.042 C 
ATOM      3  O   UNL     1     -38.073  19.595 -32.069  1.00  0.00    -0.550 OA
ATOM      4  O   UNL     1     -38.503  17.396 -31.593  1.00  0.00    -0.550 OA
ENDBRANCH   1   2
BRANCH   1   5
ATOM      5  C   UNL     1     -38.176  18.477 -28.784  1.00  0.00     0.059 C 
BRANCH   5   6
ATOM      6  C   UNL     1     -39.344  19.411 -28.746  1.00  0.00     0.042 C 
ATOM      7  O   UNL     1     -40.501  18.969 -28.518  1.00  0.00    -0.550 OA
ATOM      8  O   UNL     1     -39.163  20.763 -29.007  1.00  0.00    -0.550 OA
ENDBRANCH   5   6
ENDBRANCH   1   5
TORSDOF 3
ENDMDL
MODEL 5
REMARK VINA RESULT:    -3.638      0.912      3.469
REMARK INTER + INTRA:          -4.391
REMARK INTER:                  -4.289
REMARK INTRA:                  -0.102
REMARK UNBOUND:                -0.115
REMARK SMILES O=C([O-])CCC(=O)[O-]
REMARK SMILES IDX 4 1 2 2 1 3 3 4 5 5 6 6 7 7 8 8
REMARK H PARENT
REMARK Flexibility Score: inf
ROOT
ATOM      1  C   UNL     1     -38.306  18.528 -28.772  1.00  0.00     0.059 C 
ENDROOT
BRANCH   1   2
ATOM      2  C   UNL     1     -39.475  19.462 -28.736  1.00  0.00     0.042 C 
ATOM      3  O   UNL     1     -40.610  19.043 -28.388  1.00  0.00    -0.550 OA
ATOM      4  O   UNL     1     -39.301  20.806 -29.039  1.00  0.00    -0.550 OA
ENDBRANCH   1   2
BRANCH   1   5
ATOM      5  C   UNL     1     -37.352  18.909 -29.906  1.00  0.00     0.059 C 
BRANCH   5   6
ATOM      6  C   UNL     1     -38.005  18.687 -31.234  1.00  0.00     0.042 C 
ATOM      7  O   UNL     1     -38.425  17.543 -31.550  1.00  0.00    -0.550 OA
ATOM      8  O   UNL     1     -38.106  19.732 -32.143  1.00  0.00    -0.550 OA
ENDBRANCH   5   6
ENDBRANCH   1   5
TORSDOF 3
ENDMDL
MODEL 6
REMARK VINA RESULT:    -3.532      2.001      2.424
REMARK INTER + INTRA:          -4.267
REMARK INTER:                  -4.161
REMARK INTRA:                  -0.106
REMARK UNBOUND:                -0.115
REMARK SMILES O=C([O-])CCC(=O)[O-]
REMARK SMILES IDX 4 1 2 2 1 3 3 4 5 5 6 6 7 7 8 8
REMARK H PARENT
REMARK Flexibility Score: inf
ROOT
ATOM      1  C   UNL     1     -37.602  20.499 -29.984  1.00  0.00     0.059 C 
ENDROOT
BRANCH   1   2
ATOM      2  C   UNL     1     -37.574  20.237 -31.457  1.00  0.00     0.042 C 
ATOM      3  O   UNL     1     -37.107  21.100 -32.245  1.00  0.00    -0.550 OA
ATOM      4  O   UNL     1     -38.019  19.019 -31.955  1.00  0.00    -0.550 OA
ENDBRANCH   1   2
BRANCH   1   5
ATOM      5  C   UNL     1     -39.043  20.518 -29.471  1.00  0.00     0.059 C 
BRANCH   5   6
ATOM      6  C   UNL     1     -39.323  19.296 -28.654  1.00  0.00     0.042 C 
ATOM      7  O   UNL     1     -40.503  19.022 -28.308  1.00  0.00    -0.550 OA
ATOM      8  O   UNL     1     -38.278  18.484 -28.235  1.00  0.00    -0.550 OA
ENDBRANCH   5   6
ENDBRANCH   1   5
TORSDOF 3
ENDMDL
MODEL 7
REMARK VINA RESULT:    -3.397      1.335      2.116
REMARK INTER + INTRA:          -4.109
REMARK INTER:                  -3.988
REMARK INTRA:                  -0.120
REMARK UNBOUND:                -0.115
REMARK SMILES O=C([O-])CCC(=O)[O-]
REMARK SMILES IDX 4 1 2 2 1 3 3 4 5 5 6 6 7 7 8 8
REMARK H PARENT
REMARK Flexibility Score: inf
ROOT
ATOM      1  C   UNL     1     -37.978  18.062 -30.252  1.00  0.00     0.059 C 
ENDROOT
BRANCH   1   2
ATOM      2  C   UNL     1     -36.729  18.695 -30.780  1.00  0.00     0.042 C 
ATOM      3  O   UNL     1     -35.621  18.109 -30.658  1.00  0.00    -0.550 OA
ATOM      4  O   UNL     1     -36.794  19.910 -31.449  1.00  0.00    -0.550 OA
ENDBRANCH   1   2
BRANCH   1   5
ATOM      5  C   UNL     1     -38.290  18.585 -28.848  1.00  0.00     0.059 C 
BRANCH   5   6
ATOM      6  C   UNL     1     -39.510  19.452 -28.873  1.00  0.00     0.042 C 
ATOM      7  O   UNL     1     -39.451  20.614 -29.356  1.00  0.00    -0.550 OA
ATOM      8  O   UNL     1     -40.699  18.996 -28.320  1.00  0.00    -0.550 OA
ENDBRANCH   5   6
ENDBRANCH   1   5
TORSDOF 3
ENDMDL
MODEL 8
REMARK VINA RESULT:    -3.388      2.070      2.793
REMARK INTER + INTRA:          -4.098
REMARK INTER:                  -3.947
REMARK INTRA:                  -0.151
REMARK UNBOUND:                -0.115
REMARK SMILES O=C([O-])CCC(=O)[O-]
REMARK SMILES IDX 4 1 2 2 1 3 3 4 5 5 6 6 7 7 8 8
REMARK H PARENT
REMARK Flexibility Score: inf
ROOT
ATOM      1  C   UNL     1     -37.212  19.038 -30.905  1.00  0.00     0.059 C 
ENDROOT
BRANCH   1   2
ATOM      2  C   UNL     1     -37.574  20.447 -31.257  1.00  0.00     0.042 C 
ATOM      3  O   UNL     1     -38.367  20.679 -32.207  1.00  0.00    -0.550 OA
ATOM      4  O   UNL     1     -37.075  21.502 -30.505  1.00  0.00    -0.550 OA
ENDBRANCH   1   2
BRANCH   1   5
ATOM      5  C   UNL     1     -38.435  18.288 -30.374  1.00  0.00     0.059 C 
BRANCH   5   6
ATOM      6  C   UNL     1     -38.685  18.645 -28.942  1.00  0.00     0.042 C 
ATOM      7  O   UNL     1     -37.746  18.600 -28.105  1.00  0.00    -0.550 OA
ATOM      8  O   UNL     1     -39.966  18.979 -28.523  1.00  0.00    -0.550 OA
ENDBRANCH   5   6
ENDBRANCH   1   5
TORSDOF 3
ENDMDL
MODEL 9
REMARK VINA RESULT:    -3.343      2.201      3.526
REMARK INTER + INTRA:          -4.044
REMARK INTER:                  -3.933
REMARK INTRA:                  -0.112
REMARK UNBOUND:                -0.115
REMARK SMILES O=C([O-])CCC(=O)[O-]
REMARK SMILES IDX 4 1 2 2 1 3 3 4 5 5 6 6 7 7 8 8
REMARK H PARENT
REMARK Flexibility Score: inf
ROOT
ATOM      1  C   UNL     1     -38.427  18.298 -30.379  1.00  0.00     0.059 C 
ENDROOT
BRANCH   1   2
ATOM      2  C   UNL     1     -38.642  18.611 -28.931  1.00  0.00     0.042 C 
ATOM      3  O   UNL     1     -37.672  18.591 -28.129  1.00  0.00    -0.550 OA
ATOM      4  O   UNL     1     -39.903  18.972 -28.477  1.00  0.00    -0.550 OA
ENDBRANCH   1   2
BRANCH   1   5
ATOM      5  C   UNL     1     -37.079  18.845 -30.850  1.00  0.00     0.059 C 
BRANCH   5   6
ATOM      6  C   UNL     1     -37.237  20.231 -31.392  1.00  0.00     0.042 C 
ATOM      7  O   UNL     1     -36.373  21.111 -31.143  1.00  0.00    -0.550 OA
ATOM      8  O   UNL     1     -38.364  20.563 -32.133  1.00  0.00    -0.550 OA
ENDBRANCH   5   6
ENDBRANCH   1   5
TORSDOF 3
ENDMDL
