MODEL 1
REMARK VINA RESULT:    -5.226      0.000      0.000
REMARK INTER + INTRA:          -7.420
REMARK INTER:                  -7.059
REMARK INTRA:                  -0.361
REMARK UNBOUND:                -0.361
REMARK SMILES CCCCCCCC(=O)[O-]
REMARK SMILES IDX 5 1 6 2 7 3 8 4 9 5 10 6 4 7 3 8 2 9 1 10
REMARK H PARENT
REMARK Flexibility Score: inf
ROOT
ATOM      1  C   UNL     1      27.803 -10.162  20.971  1.00  0.00     0.000 C 
ENDROOT
BRANCH   1   2
ATOM      2  C   UNL     1      27.410  -8.813  20.334  1.00  0.00     0.006 C 
BRANCH   2   3
ATOM      3  C   UNL     1      26.309  -8.922  19.262  1.00  0.00     0.053 C 
BRANCH   3   4
ATOM      4  C   UNL     1      25.242  -7.882  19.430  1.00  0.00     0.041 C 
ATOM      5  O   UNL     1      24.306  -8.061  20.255  1.00  0.00    -0.550 OA
ATOM      6  O   UNL     1      25.255  -6.734  18.647  1.00  0.00    -0.550 OA
ENDBRANCH   3   4
ENDBRANCH   2   3
ENDBRANCH   1   2
BRANCH   1   7
ATOM      7  C   UNL     1      27.031 -11.382  20.443  1.00  0.00     0.000 C 
BRANCH   7   8
ATOM      8  C   UNL     1      27.945 -12.579  20.133  1.00  0.00    -0.000 C 
BRANCH   8   9
ATOM      9  C   UNL     1      27.457 -13.393  18.925  1.00  0.00    -0.003 C 
ATOM     10  C   UNL     1      26.322 -12.701  18.169  1.00  0.00     0.004 C 
ENDBRANCH   8   9
ENDBRANCH   7   8
ENDBRANCH   1   7
TORSDOF 6
ENDMDL
MODEL 2
REMARK VINA RESULT:    -5.079      1.654      2.171
REMARK INTER + INTRA:          -7.222
REMARK INTER:                  -6.998
REMARK INTRA:                  -0.224
REMARK UNBOUND:                -0.361
REMARK SMILES CCCCCCCC(=O)[O-]
REMARK SMILES IDX 5 1 6 2 7 3 8 4 9 5 10 6 4 7 3 8 2 9 1 10
REMARK H PARENT
REMARK Flexibility Score: inf
ROOT
ATOM      1  C   UNL     1      27.007  -9.350  20.267  1.00  0.00     0.000 C 
ENDROOT
BRANCH   1   2
ATOM      2  C   UNL     1      26.634  -8.396  19.115  1.00  0.00     0.006 C 
BRANCH   2   3
ATOM      3  C   UNL     1      27.733  -7.374  18.766  1.00  0.00     0.053 C 
BRANCH   3   4
ATOM      4  C   UNL     1      27.208  -5.972  18.691  1.00  0.00     0.041 C 
ATOM      5  O   UNL     1      27.808  -5.106  18.000  1.00  0.00    -0.550 OA
ATOM      6  O   UNL     1      26.080  -5.608  19.417  1.00  0.00    -0.550 OA
ENDBRANCH   3   4
ENDBRANCH   2   3
ENDBRANCH   1   2
BRANCH   1   7
ATOM      7  C   UNL     1      26.504 -10.795  20.108  1.00  0.00     0.000 C 
BRANCH   7   8
ATOM      8  C   UNL     1      27.621 -11.838  20.274  1.00  0.00    -0.000 C 
BRANCH   8   9
ATOM      9  C   UNL     1      27.420 -13.062  19.369  1.00  0.00    -0.003 C 
ATOM     10  C   UNL     1      26.381 -12.820  18.274  1.00  0.00     0.004 C 
ENDBRANCH   8   9
ENDBRANCH   7   8
ENDBRANCH   1   7
TORSDOF 6
ENDMDL
MODEL 3
REMARK VINA RESULT:    -5.011      1.431      1.767
REMARK INTER + INTRA:          -7.130
REMARK INTER:                  -6.829
REMARK INTRA:                  -0.301
REMARK UNBOUND:                -0.361
REMARK SMILES CCCCCCCC(=O)[O-]
REMARK SMILES IDX 5 1 6 2 7 3 8 4 9 5 10 6 4 7 3 8 2 9 1 10
REMARK H PARENT
REMARK Flexibility Score: inf
ROOT
ATOM      1  C   UNL     1      26.985  -9.324  20.137  1.00  0.00     0.000 C 
ENDROOT
BRANCH   1   2
ATOM      2  C   UNL     1      26.210  -8.807  18.909  1.00  0.00     0.006 C 
BRANCH   2   3
ATOM      3  C   UNL     1      25.482  -7.470  19.144  1.00  0.00     0.053 C 
BRANCH   3   4
ATOM      4  C   UNL     1      26.421  -6.300  19.148  1.00  0.00     0.041 C 
ATOM      5  O   UNL     1      26.210  -5.321  19.911  1.00  0.00    -0.550 OA
ATOM      6  O   UNL     1      27.505  -6.271  18.279  1.00  0.00    -0.550 OA
ENDBRANCH   3   4
ENDBRANCH   2   3
ENDBRANCH   1   2
BRANCH   1   7
ATOM      7  C   UNL     1      26.658 -10.768  20.556  1.00  0.00     0.000 C 
BRANCH   7   8
ATOM      8  C   UNL     1      27.870 -11.708  20.456  1.00  0.00    -0.000 C 
BRANCH   8   9
ATOM      9  C   UNL     1      27.583 -12.947  19.594  1.00  0.00    -0.003 C 
ATOM     10  C   UNL     1      26.495 -12.696  18.549  1.00  0.00     0.004 C 
ENDBRANCH   8   9
ENDBRANCH   7   8
ENDBRANCH   1   7
TORSDOF 6
ENDMDL
MODEL 4
REMARK VINA RESULT:    -5.007      1.326      1.564
REMARK INTER + INTRA:          -7.125
REMARK INTER:                  -6.851
REMARK INTRA:                  -0.274
REMARK UNBOUND:                -0.361
REMARK SMILES CCCCCCCC(=O)[O-]
REMARK SMILES IDX 5 1 6 2 7 3 8 4 9 5 10 6 4 7 3 8 2 9 1 10
REMARK H PARENT
REMARK Flexibility Score: inf
ROOT
ATOM      1  C   UNL     1      28.384 -10.748  21.012  1.00  0.00     0.000 C 
ENDROOT
BRANCH   1   2
ATOM      2  C   UNL     1      27.951  -9.295  21.295  1.00  0.00     0.006 C 
BRANCH   2   3
ATOM      3  C   UNL     1      28.297  -8.306  20.166  1.00  0.00     0.053 C 
BRANCH   3   4
ATOM      4  C   UNL     1      27.075  -7.767  19.484  1.00  0.00     0.041 C 
ATOM      5  O   UNL     1      26.742  -6.562  19.639  1.00  0.00    -0.550 OA
ATOM      6  O   UNL     1      26.281  -8.604  18.709  1.00  0.00    -0.550 OA
ENDBRANCH   3   4
ENDBRANCH   2   3
ENDBRANCH   1   2
BRANCH   1   7
ATOM      7  C   UNL     1      27.335 -11.614  20.294  1.00  0.00     0.000 C 
BRANCH   7   8
ATOM      8  C   UNL     1      27.886 -12.982  19.859  1.00  0.00    -0.000 C 
BRANCH   8   9
ATOM      9  C   UNL     1      27.146 -13.552  18.640  1.00  0.00    -0.003 C 
ATOM     10  C   UNL     1      26.219 -12.529  17.984  1.00  0.00     0.004 C 
ENDBRANCH   8   9
ENDBRANCH   7   8
ENDBRANCH   1   7
TORSDOF 6
ENDMDL
MODEL 5
REMARK VINA RESULT:    -4.919      3.771      4.448
REMARK INTER + INTRA:          -7.006
REMARK INTER:                  -6.858
REMARK INTRA:                  -0.148
REMARK UNBOUND:                -0.361
REMARK SMILES CCCCCCCC(=O)[O-]
REMARK SMILES IDX 5 1 6 2 7 3 8 4 9 5 10 6 4 7 3 8 2 9 1 10
REMARK H PARENT
REMARK Flexibility Score: inf
ROOT
ATOM      1  C   UNL     1      28.154 -10.801  21.521  1.00  0.00     0.000 C 
ENDROOT
BRANCH   1   2
ATOM      2  C   UNL     1      29.052  -9.629  21.077  1.00  0.00     0.006 C 
BRANCH   2   3
ATOM      3  C   UNL     1      30.154  -9.264  22.089  1.00  0.00     0.053 C 
BRANCH   3   4
ATOM      4  C   UNL     1      31.457  -8.935  21.424  1.00  0.00     0.041 C 
ATOM      5  O   UNL     1      32.257  -8.124  21.962  1.00  0.00    -0.550 OA
ATOM      6  O   UNL     1      31.771  -9.489  20.189  1.00  0.00    -0.550 OA
ENDBRANCH   3   4
ENDBRANCH   2   3
ENDBRANCH   1   2
BRANCH   1   7
ATOM      7  C   UNL     1      27.914 -11.881  20.453  1.00  0.00     0.000 C 
BRANCH   7   8
ATOM      8  C   UNL     1      26.555 -11.735  19.749  1.00  0.00    -0.000 C 
BRANCH   8   9
ATOM      9  C   UNL     1      26.478 -12.545  18.447  1.00  0.00    -0.003 C 
ATOM     10  C   UNL     1      26.825 -14.020  18.652  1.00  0.00     0.004 C 
ENDBRANCH   8   9
ENDBRANCH   7   8
ENDBRANCH   1   7
TORSDOF 6
ENDMDL
MODEL 6
REMARK VINA RESULT:    -4.887      2.103      2.491
REMARK INTER + INTRA:          -6.962
REMARK INTER:                  -6.697
REMARK INTRA:                  -0.265
REMARK UNBOUND:                -0.361
REMARK SMILES CCCCCCCC(=O)[O-]
REMARK SMILES IDX 5 1 6 2 7 3 8 4 9 5 10 6 4 7 3 8 2 9 1 10
REMARK H PARENT
REMARK Flexibility Score: inf
ROOT
ATOM      1  C   UNL     1      27.839 -10.597  21.627  1.00  0.00     0.000 C 
ENDROOT
BRANCH   1   2
ATOM      2  C   UNL     1      29.241 -10.004  21.381  1.00  0.00     0.006 C 
BRANCH   2   3
ATOM      3  C   UNL     1      29.334  -8.487  21.632  1.00  0.00     0.053 C 
BRANCH   3   4
ATOM      4  C   UNL     1      28.148  -7.745  21.092  1.00  0.00     0.041 C 
ATOM      5  O   UNL     1      28.021  -7.570  19.851  1.00  0.00    -0.550 OA
ATOM      6  O   UNL     1      27.204  -7.208  21.959  1.00  0.00    -0.550 OA
ENDBRANCH   3   4
ENDBRANCH   2   3
ENDBRANCH   1   2
BRANCH   1   7
ATOM      7  C   UNL     1      27.230 -11.350  20.433  1.00  0.00     0.000 C 
BRANCH   7   8
ATOM      8  C   UNL     1      27.993 -12.640  20.087  1.00  0.00    -0.000 C 
BRANCH   8   9
ATOM      9  C   UNL     1      27.199 -13.557  19.145  1.00  0.00    -0.003 C 
ATOM     10  C   UNL     1      26.265 -12.779  18.217  1.00  0.00     0.004 C 
ENDBRANCH   8   9
ENDBRANCH   7   8
ENDBRANCH   1   7
TORSDOF 6
ENDMDL
MODEL 7
REMARK VINA RESULT:    -4.711     10.662     11.704
REMARK INTER + INTRA:          -6.724
REMARK INTER:                  -6.527
REMARK INTRA:                  -0.198
REMARK UNBOUND:                -0.361
REMARK SMILES CCCCCCCC(=O)[O-]
REMARK SMILES IDX 5 1 6 2 7 3 8 4 9 5 10 6 4 7 3 8 2 9 1 10
REMARK H PARENT
REMARK Flexibility Score: inf
ROOT
ATOM      1  C   UNL     1      37.311  -9.612  22.003  1.00  0.00     0.000 C 
ENDROOT
BRANCH   1   2
ATOM      2  C   UNL     1      37.677 -10.813  21.108  1.00  0.00     0.006 C 
BRANCH   2   3
ATOM      3  C   UNL     1      38.355 -11.973  21.861  1.00  0.00     0.053 C 
BRANCH   3   4
ATOM      4  C   UNL     1      39.350 -12.704  21.009  1.00  0.00     0.041 C 
ATOM      5  O   UNL     1      39.390 -13.963  21.020  1.00  0.00    -0.550 OA
ATOM      6  O   UNL     1      40.260 -11.996  20.234  1.00  0.00    -0.550 OA
ENDBRANCH   3   4
ENDBRANCH   2   3
ENDBRANCH   1   2
BRANCH   1   7
ATOM      7  C   UNL     1      35.950  -8.962  21.701  1.00  0.00     0.000 C 
BRANCH   7   8
ATOM      8  C   UNL     1      35.112  -9.770  20.696  1.00  0.00    -0.000 C 
BRANCH   8   9
ATOM      9  C   UNL     1      33.761  -9.105  20.390  1.00  0.00    -0.003 C 
ATOM     10  C   UNL     1      33.144  -9.603  19.083  1.00  0.00     0.004 C 
ENDBRANCH   8   9
ENDBRANCH   7   8
ENDBRANCH   1   7
TORSDOF 6
ENDMDL
MODEL 8
REMARK VINA RESULT:    -4.643      2.399      2.815
REMARK INTER + INTRA:          -6.632
REMARK INTER:                  -6.389
REMARK INTRA:                  -0.243
REMARK UNBOUND:                -0.361
REMARK SMILES CCCCCCCC(=O)[O-]
REMARK SMILES IDX 5 1 6 2 7 3 8 4 9 5 10 6 4 7 3 8 2 9 1 10
REMARK H PARENT
REMARK Flexibility Score: inf
ROOT
ATOM      1  C   UNL     1      27.141 -10.186  20.311  1.00  0.00     0.000 C 
ENDROOT
BRANCH   1   2
ATOM      2  C   UNL     1      27.575  -8.723  20.534  1.00  0.00     0.006 C 
BRANCH   2   3
ATOM      3  C   UNL     1      28.418  -8.506  21.805  1.00  0.00     0.053 C 
BRANCH   3   4
ATOM      4  C   UNL     1      27.926  -7.352  22.628  1.00  0.00     0.041 C 
ATOM      5  O   UNL     1      28.479  -7.074  23.725  1.00  0.00    -0.550 OA
ATOM      6  O   UNL     1      26.831  -6.609  22.205  1.00  0.00    -0.550 OA
ENDBRANCH   3   4
ENDBRANCH   2   3
ENDBRANCH   1   2
BRANCH   1   7
ATOM      7  C   UNL     1      28.032 -11.242  20.987  1.00  0.00     0.000 C 
BRANCH   7   8
ATOM      8  C   UNL     1      28.092 -12.563  20.204  1.00  0.00    -0.000 C 
BRANCH   8   9
ATOM      9  C   UNL     1      26.886 -12.748  19.271  1.00  0.00    -0.003 C 
ATOM     10  C   UNL     1      27.183 -13.695  18.108  1.00  0.00     0.004 C 
ENDBRANCH   8   9
ENDBRANCH   7   8
ENDBRANCH   1   7
TORSDOF 6
ENDMDL
MODEL 9
REMARK VINA RESULT:    -4.499     11.314     12.600
REMARK INTER + INTRA:          -6.439
REMARK INTER:                  -6.010
REMARK INTRA:                  -0.428
REMARK UNBOUND:                -0.361
REMARK SMILES CCCCCCCC(=O)[O-]
REMARK SMILES IDX 5 1 6 2 7 3 8 4 9 5 10 6 4 7 3 8 2 9 1 10
REMARK H PARENT
REMARK Flexibility Score: inf
ROOT
ATOM      1  C   UNL     1      36.266 -10.413  21.010  1.00  0.00     0.000 C 
ENDROOT
BRANCH   1   2
ATOM      2  C   UNL     1      37.792 -10.633  21.045  1.00  0.00     0.006 C 
BRANCH   2   3
ATOM      3  C   UNL     1      38.226 -11.908  21.792  1.00  0.00     0.053 C 
BRANCH   3   4
ATOM      4  C   UNL     1      39.291 -12.667  21.058  1.00  0.00     0.041 C 
ATOM      5  O   UNL     1      39.320 -13.926  21.107  1.00  0.00    -0.550 OA
ATOM      6  O   UNL     1      40.276 -11.986  20.354  1.00  0.00    -0.550 OA
ENDBRANCH   3   4
ENDBRANCH   2   3
ENDBRANCH   1   2
BRANCH   1   7
ATOM      7  C   UNL     1      35.778  -9.116  21.675  1.00  0.00     0.000 C 
BRANCH   7   8
ATOM      8  C   UNL     1      36.883  -8.396  22.466  1.00  0.00    -0.000 C 
BRANCH   8   9
ATOM      9  C   UNL     1      36.656  -8.462  23.984  1.00  0.00    -0.003 C 
ATOM     10  C   UNL     1      37.796  -9.168  24.718  1.00  0.00     0.004 C 
ENDBRANCH   8   9
ENDBRANCH   7   8
ENDBRANCH   1   7
TORSDOF 6
ENDMDL
