MODEL 1
REMARK VINA RESULT:    -2.771      0.000      0.000
REMARK INTER + INTRA:          -4.198
REMARK INTER:                  -4.229
REMARK INTRA:                   0.031
REMARK UNBOUND:                 0.031
REMARK SMILES CC1=CCC[C@@H](C)C(=O)C[C@H](C(C)C)C(=O)C1
REMARK SMILES IDX 8 1 9 2 6 3 7 4 5 5 4 6 3 7 2 8 1 9 10 11 11 12 15 13 16 14
REMARK SMILES IDX 17 15 12 17 13 18 14 19
REMARK H PARENT
REMARK Flexibility Score: 70.00
ROOT
ATOM      1  C   UNL     1      10.290  16.330  13.406  1.00  0.00     0.136 C 
ATOM      2  O   UNL     1       9.344  15.784  13.956  1.00  0.00    -0.299 OA
ENDROOT
BRANCH   1   3
ATOM      3  C   UNL     1      10.062  16.989  12.050  1.00  0.00     0.053 C 
ATOM      4  C   UNL     1       8.929  18.025  12.141  1.00  0.00     0.016 C 
BRANCH   3   5
ATOM      5  C   UNL     1       9.730  15.945  10.957  1.00  0.00     0.015 C 
BRANCH   5   6
ATOM      6  C   UNL     1      10.916  15.055  10.553  1.00  0.00     0.028 C 
BRANCH   6   7
ATOM      7  C   UNL     1      12.137  15.866  10.190  1.00  0.00    -0.028 C 
ATOM      8  C   UNL     1      13.399  15.659  10.639  1.00  0.00    -0.070 CG0
ATOM      9  C   UNL     1      14.473  16.609  10.170  1.00  0.00     0.039 C 
ATOM     10  G   UNL     1      13.786  14.560  11.615  1.00  0.00     0.000 G0
ENDBRANCH   6   7
ENDBRANCH   5   6
ENDBRANCH   3   5
ENDBRANCH   1   3
BRANCH   1  11
ATOM     11  C   UNL     1      11.654  16.189  14.061  1.00  0.00     0.087 C 
BRANCH  11  12
ATOM     12  C   UNL     1      12.432  14.856  13.862  1.00  0.00     0.066 C 
BRANCH  12  13
ATOM     13  C   UNL     1      13.713  15.002  13.048  1.00  0.00     0.140 C 
ATOM     14  O   UNL     1      14.740  15.392  13.586  1.00  0.00    -0.299 OA
BRANCH  13  15
ATOM     15  C   UNL     1      13.781  14.564  11.603  1.00  0.00     0.106 CG0
ATOM     16  G   UNL     1      13.399  15.694  10.661  1.00  0.00     0.000 G0
ENDBRANCH  13  15
ENDBRANCH  12  13
BRANCH  12  17
ATOM     17  C   UNL     1      12.605  13.989  15.156  1.00  0.00    -0.006 C 
ATOM     18  C   UNL     1      13.800  13.022  15.123  1.00  0.00     0.008 C 
ATOM     19  C   UNL     1      12.666  14.850  16.429  1.00  0.00     0.008 C 
ENDBRANCH  12  17
ENDBRANCH  11  12
ENDBRANCH   1  11
TORSDOF 1
ENDMDL
MODEL 2
REMARK VINA RESULT:    -1.830      1.544      4.323
REMARK INTER + INTRA:          -2.762
REMARK INTER:                  -2.959
REMARK INTRA:                   0.197
REMARK UNBOUND:                 0.031
REMARK SMILES CC1=CCC[C@@H](C)C(=O)C[C@H](C(C)C)C(=O)C1
REMARK SMILES IDX 8 1 9 2 6 3 7 4 5 5 4 6 3 7 2 8 1 9 10 11 11 12 15 13 16 14
REMARK SMILES IDX 17 15 12 17 13 18 14 19
REMARK H PARENT
REMARK Flexibility Score: 70.00
ROOT
ATOM      1  C   UNL     1      11.882  15.340  14.685  1.00  0.00     0.136 C 
ATOM      2  O   UNL     1      12.073  16.031  15.676  1.00  0.00    -0.299 OA
ENDROOT
BRANCH   1   3
ATOM      3  C   UNL     1      13.018  14.453  14.187  1.00  0.00     0.053 C 
ATOM      4  C   UNL     1      13.467  13.484  15.295  1.00  0.00     0.016 C 
BRANCH   3   5
ATOM      5  C   UNL     1      14.226  15.290  13.703  1.00  0.00     0.015 C 
BRANCH   5   6
ATOM      6  C   UNL     1      14.129  15.749  12.240  1.00  0.00     0.028 C 
BRANCH   6   7
ATOM      7  C   UNL     1      13.388  14.753  11.379  1.00  0.00    -0.028 C 
ATOM      8  C   UNL     1      12.276  14.999  10.646  1.00  0.00    -0.070 CG0
ATOM      9  C   UNL     1      11.676  13.849   9.876  1.00  0.00     0.039 C 
ATOM     10  G   UNL     1      11.575  16.347  10.588  1.00  0.00     0.000 G0
ENDBRANCH   6   7
ENDBRANCH   5   6
ENDBRANCH   3   5
ENDBRANCH   1   3
BRANCH   1  11
ATOM     11  C   UNL     1      10.567  15.526  13.948  1.00  0.00     0.087 C 
BRANCH  11  12
ATOM     12  C   UNL     1      10.434  16.728  12.968  1.00  0.00     0.066 C 
BRANCH  12  13
ATOM     13  C   UNL     1      10.338  16.325  11.501  1.00  0.00     0.140 C 
ATOM     14  O   UNL     1       9.247  16.077  11.005  1.00  0.00    -0.299 OA
BRANCH  13  15
ATOM     15  C   UNL     1      11.551  16.332  10.602  1.00  0.00     0.106 CG0
ATOM     16  G   UNL     1      12.275  14.996  10.632  1.00  0.00     0.000 G0
ENDBRANCH  13  15
ENDBRANCH  12  13
BRANCH  12  17
ATOM     17  C   UNL     1       9.388  17.816  13.391  1.00  0.00    -0.006 C 
ATOM     18  C   UNL     1       8.770  18.597  12.221  1.00  0.00     0.008 C 
ATOM     19  C   UNL     1       8.274  17.238  14.280  1.00  0.00     0.008 C 
ENDBRANCH  12  17
ENDBRANCH  11  12
ENDBRANCH   1  11
TORSDOF 1
ENDMDL
MODEL 3
REMARK VINA RESULT:    -1.071      2.024      3.775
REMARK INTER + INTRA:          -1.604
REMARK INTER:                  -2.235
REMARK INTRA:                   0.631
REMARK UNBOUND:                 0.031
REMARK SMILES CC1=CCC[C@@H](C)C(=O)C[C@H](C(C)C)C(=O)C1
REMARK SMILES IDX 8 1 9 2 6 3 7 4 5 5 4 6 3 7 2 8 1 9 10 11 11 12 15 13 16 14
REMARK SMILES IDX 17 15 12 17 13 18 14 19
REMARK H PARENT
REMARK Flexibility Score: 70.00
ROOT
ATOM      1  C   UNL     1      12.179  14.665  10.735  1.00  0.00     0.136 C 
ATOM      2  O   UNL     1      11.290  14.030  10.185  1.00  0.00    -0.299 OA
ENDROOT
BRANCH   1   3
ATOM      3  C   UNL     1      12.917  15.729   9.931  1.00  0.00     0.053 C 
ATOM      4  C   UNL     1      14.396  15.789  10.350  1.00  0.00     0.016 C 
BRANCH   3   5
ATOM      5  C   UNL     1      12.269  17.125  10.099  1.00  0.00     0.015 C 
BRANCH   5   6
ATOM      6  C   UNL     1      10.748  17.144   9.875  1.00  0.00     0.028 C 
BRANCH   6   7
ATOM      7  C   UNL     1      10.016  17.822  11.009  1.00  0.00    -0.028 C 
ATOM      8  C   UNL     1       9.674  17.258  12.193  1.00  0.00    -0.070 CG0
ATOM      9  C   UNL     1       8.917  18.109  13.181  1.00  0.00     0.039 C 
ATOM     10  G   UNL     1       9.969  15.813  12.564  1.00  0.00     0.000 G0
ENDBRANCH   6   7
ENDBRANCH   5   6
ENDBRANCH   3   5
ENDBRANCH   1   3
BRANCH   1  11
ATOM     11  C   UNL     1      12.568  14.246  12.143  1.00  0.00     0.087 C 
BRANCH  11  12
ATOM     12  C   UNL     1      12.462  15.300  13.282  1.00  0.00     0.066 C 
BRANCH  12  13
ATOM     13  C   UNL     1      11.031  15.692  13.633  1.00  0.00     0.140 C 
ATOM     14  O   UNL     1      10.748  16.018  14.778  1.00  0.00    -0.299 OA
BRANCH  13  15
ATOM     15  C   UNL     1       9.963  15.803  12.571  1.00  0.00     0.106 CG0
ATOM     16  G   UNL     1       9.682  17.253  12.212  1.00  0.00     0.000 G0
ENDBRANCH  13  15
ENDBRANCH  12  13
BRANCH  12  17
ATOM     17  C   UNL     1      13.361  15.017  14.534  1.00  0.00    -0.006 C 
ATOM     18  C   UNL     1      12.987  13.747  15.315  1.00  0.00     0.008 C 
ATOM     19  C   UNL     1      14.857  14.990  14.181  1.00  0.00     0.008 C 
ENDBRANCH  12  17
ENDBRANCH  11  12
ENDBRANCH   1  11
TORSDOF 1
ENDMDL
MODEL 4
REMARK VINA RESULT:    -0.612      1.660      4.788
REMARK INTER + INTRA:          -0.904
REMARK INTER:                  -1.650
REMARK INTRA:                   0.747
REMARK UNBOUND:                 0.031
REMARK SMILES CC1=CCC[C@@H](C)C(=O)C[C@H](C(C)C)C(=O)C1
REMARK SMILES IDX 8 1 9 2 6 3 7 4 5 5 4 6 3 7 2 8 1 9 10 11 11 12 15 13 16 14
REMARK SMILES IDX 17 15 12 17 13 18 14 19
REMARK H PARENT
REMARK Flexibility Score: 70.00
ROOT
ATOM      1  C   UNL     1      13.907  14.660  13.808  1.00  0.00     0.136 C 
ATOM      2  O   UNL     1      14.837  13.874  13.685  1.00  0.00    -0.299 OA
ENDROOT
BRANCH   1   3
ATOM      3  C   UNL     1      13.018  14.546  15.042  1.00  0.00     0.053 C 
ATOM      4  C   UNL     1      13.005  13.098  15.562  1.00  0.00     0.016 C 
BRANCH   3   5
ATOM      5  C   UNL     1      11.571  15.009  14.748  1.00  0.00     0.015 C 
BRANCH   5   6
ATOM      6  C   UNL     1      11.453  16.486  14.339  1.00  0.00     0.028 C 
BRANCH   6   7
ATOM      7  C   UNL     1      10.146  16.779  13.641  1.00  0.00    -0.028 C 
ATOM      8  C   UNL     1       9.966  16.919  12.305  1.00  0.00    -0.070 CG0
ATOM      9  C   UNL     1       8.575  17.240  11.816  1.00  0.00     0.039 C 
ATOM     10  G   UNL     1      11.083  16.816  11.279  1.00  0.00     0.000 G0
ENDBRANCH   6   7
ENDBRANCH   5   6
ENDBRANCH   3   5
ENDBRANCH   1   3
BRANCH   1  11
ATOM     11  C   UNL     1      13.632  15.602  12.649  1.00  0.00     0.087 C 
BRANCH  11  12
ATOM     12  C   UNL     1      13.026  15.009  11.345  1.00  0.00     0.066 C 
BRANCH  12  13
ATOM     13  C   UNL     1      11.564  15.376  11.117  1.00  0.00     0.140 C 
ATOM     14  O   UNL     1      10.738  14.498  10.904  1.00  0.00    -0.299 OA
BRANCH  13  15
ATOM     15  C   UNL     1      11.077  16.799  11.262  1.00  0.00     0.106 CG0
ATOM     16  G   UNL     1       9.957  16.903  12.284  1.00  0.00     0.000 G0
ENDBRANCH  13  15
ENDBRANCH  12  13
BRANCH  12  17
ATOM     17  C   UNL     1      13.920  15.165  10.067  1.00  0.00    -0.006 C 
ATOM     18  C   UNL     1      14.548  16.558   9.893  1.00  0.00     0.008 C 
ATOM     19  C   UNL     1      15.012  14.086   9.986  1.00  0.00     0.008 C 
ENDBRANCH  12  17
ENDBRANCH  11  12
ENDBRANCH   1  11
TORSDOF 1
ENDMDL
MODEL 5
REMARK VINA RESULT:    -0.411      1.671      4.123
REMARK INTER + INTRA:          -0.597
REMARK INTER:                  -2.558
REMARK INTRA:                   1.962
REMARK UNBOUND:                 0.031
REMARK SMILES CC1=CCC[C@@H](C)C(=O)C[C@H](C(C)C)C(=O)C1
REMARK SMILES IDX 8 1 9 2 6 3 7 4 5 5 4 6 3 7 2 8 1 9 10 11 11 12 15 13 16 14
REMARK SMILES IDX 17 15 12 17 13 18 14 19
REMARK H PARENT
REMARK Flexibility Score: 70.00
ROOT
ATOM      1  C   UNL     1      10.984  16.491  10.491  1.00  0.00     0.136 C 
ATOM      2  O   UNL     1      10.700  17.625  10.131  1.00  0.00    -0.299 OA
ENDROOT
BRANCH   1   3
ATOM      3  C   UNL     1      12.240  15.840   9.922  1.00  0.00     0.053 C 
ATOM      4  C   UNL     1      12.079  14.311   9.877  1.00  0.00     0.016 C 
BRANCH   3   5
ATOM      5  C   UNL     1      13.498  16.209  10.744  1.00  0.00     0.015 C 
BRANCH   5   6
ATOM      6  C   UNL     1      14.336  15.000  11.191  1.00  0.00     0.028 C 
BRANCH   6   7
ATOM      7  C   UNL     1      14.513  14.956  12.690  1.00  0.00    -0.028 C 
ATOM      8  C   UNL     1      13.534  14.764  13.608  1.00  0.00    -0.070 CG0
ATOM      9  C   UNL     1      13.926  14.782  15.064  1.00  0.00     0.039 C 
ATOM     10  G   UNL     1      12.066  14.575  13.259  1.00  0.00     0.000 G0
ENDBRANCH   6   7
ENDBRANCH   5   6
ENDBRANCH   3   5
ENDBRANCH   1   3
BRANCH   1  11
ATOM     11  C   UNL     1       9.984  15.769  11.378  1.00  0.00     0.087 C 
BRANCH  11  12
ATOM     12  C   UNL     1       9.945  16.130  12.891  1.00  0.00     0.066 C 
BRANCH  12  13
ATOM     13  C   UNL     1      11.212  15.753  13.651  1.00  0.00     0.140 C 
ATOM     14  O   UNL     1      11.516  16.356  14.672  1.00  0.00    -0.299 OA
BRANCH  13  15
ATOM     15  C   UNL     1      12.053  14.568  13.240  1.00  0.00     0.106 CG0
ATOM     16  G   UNL     1      13.514  14.767  13.609  1.00  0.00     0.000 G0
ENDBRANCH  13  15
ENDBRANCH  12  13
BRANCH  12  17
ATOM     17  C   UNL     1       9.421  17.570  13.217  1.00  0.00    -0.006 C 
ATOM     18  C   UNL     1       8.829  18.322  12.014  1.00  0.00     0.008 C 
ATOM     19  C   UNL     1       8.417  17.574  14.381  1.00  0.00     0.008 C 
ENDBRANCH  12  17
ENDBRANCH  11  12
ENDBRANCH   1  11
TORSDOF 1
ENDMDL
