MODEL 1
REMARK VINA RESULT:    -2.601      0.000      0.000
REMARK INTER + INTRA:          -2.601
REMARK INTER:                  -2.601
REMARK INTRA:                   0.000
REMARK UNBOUND:                 0.000
REMARK SMILES CC(=O)[O-]
REMARK SMILES IDX 1 1 2 2 3 3 4 4
REMARK H PARENT
REMARK Flexibility Score: inf
ROOT
ATOM      1  C   UNL     1      -3.898   8.502   5.697  1.00  0.00     0.063 C 
ATOM      2  C   UNL     1      -3.948   7.228   6.470  1.00  0.00     0.038 C 
ATOM      3  O   UNL     1      -2.882   6.682   6.858  1.00  0.00    -0.550 OA
ATOM      4  O   UNL     1      -5.173   6.668   6.808  1.00  0.00    -0.550 OA
ENDROOT
TORSDOF 0
ENDMDL
MODEL 2
REMARK VINA RESULT:    -2.547      3.152      3.934
REMARK INTER + INTRA:          -2.547
REMARK INTER:                  -2.547
REMARK INTRA:                   0.000
REMARK UNBOUND:                 0.000
REMARK SMILES CC(=O)[O-]
REMARK SMILES IDX 1 1 2 2 3 3 4 4
REMARK H PARENT
REMARK Flexibility Score: inf
ROOT
ATOM      1  C   UNL     1      -6.768   3.978   7.859  1.00  0.00     0.063 C 
ATOM      2  C   UNL     1      -6.075   4.743   6.784  1.00  0.00     0.038 C 
ATOM      3  O   UNL     1      -6.002   4.272   5.619  1.00  0.00    -0.550 OA
ATOM      4  O   UNL     1      -5.552   6.002   7.052  1.00  0.00    -0.550 OA
ENDROOT
TORSDOF 0
ENDMDL
MODEL 3
REMARK VINA RESULT:    -2.523      1.498      2.078
REMARK INTER + INTRA:          -2.523
REMARK INTER:                  -2.523
REMARK INTRA:                   0.000
REMARK UNBOUND:                 0.000
REMARK SMILES CC(=O)[O-]
REMARK SMILES IDX 1 1 2 2 3 3 4 4
REMARK H PARENT
REMARK Flexibility Score: inf
ROOT
ATOM      1  C   UNL     1      -3.498   8.662   5.754  1.00  0.00     0.063 C 
ATOM      2  C   UNL     1      -4.831   8.377   6.358  1.00  0.00     0.038 C 
ATOM      3  O   UNL     1      -5.677   9.300   6.486  1.00  0.00    -0.550 OA
ATOM      4  O   UNL     1      -5.162   7.081   6.733  1.00  0.00    -0.550 OA
ENDROOT
TORSDOF 0
ENDMDL
MODEL 4
REMARK VINA RESULT:    -2.492      4.192      4.648
REMARK INTER + INTRA:          -2.492
REMARK INTER:                  -2.492
REMARK INTRA:                   0.000
REMARK UNBOUND:                 0.000
REMARK SMILES CC(=O)[O-]
REMARK SMILES IDX 1 1 2 2 3 3 4 4
REMARK H PARENT
REMARK Flexibility Score: inf
ROOT
ATOM      1  C   UNL     1      -6.758   3.831   7.838  1.00  0.00     0.063 C 
ATOM      2  C   UNL     1      -5.983   3.576   6.590  1.00  0.00     0.038 C 
ATOM      3  O   UNL     1      -6.000   4.416   5.653  1.00  0.00    -0.550 OA
ATOM      4  O   UNL     1      -5.200   2.435   6.478  1.00  0.00    -0.550 OA
ENDROOT
TORSDOF 0
ENDMDL
MODEL 5
REMARK VINA RESULT:    -2.475     13.401     14.134
REMARK INTER + INTRA:          -2.475
REMARK INTER:                  -2.475
REMARK INTRA:                   0.000
REMARK UNBOUND:                 0.000
REMARK SMILES CC(=O)[O-]
REMARK SMILES IDX 1 1 2 2 3 3 4 4
REMARK H PARENT
REMARK Flexibility Score: inf
ROOT
ATOM      1  C   UNL     1       5.677  -3.699   7.480  1.00  0.00     0.063 C 
ATOM      2  C   UNL     1       6.056  -2.330   7.027  1.00  0.00     0.038 C 
ATOM      3  O   UNL     1       5.376  -1.334   7.388  1.00  0.00    -0.550 OA
ATOM      4  O   UNL     1       7.191  -2.144   6.249  1.00  0.00    -0.550 OA
ENDROOT
TORSDOF 0
ENDMDL
MODEL 6
REMARK VINA RESULT:    -2.424      1.374      1.789
REMARK INTER + INTRA:          -2.424
REMARK INTER:                  -2.424
REMARK INTRA:                   0.000
REMARK UNBOUND:                 0.000
REMARK SMILES CC(=O)[O-]
REMARK SMILES IDX 1 1 2 2 3 3 4 4
REMARK H PARENT
REMARK Flexibility Score: inf
ROOT
ATOM      1  C   UNL     1      -5.175   6.210   6.768  1.00  0.00     0.063 C 
ATOM      2  C   UNL     1      -3.964   7.030   6.474  1.00  0.00     0.038 C 
ATOM      3  O   UNL     1      -2.838   6.671   6.905  1.00  0.00    -0.550 OA
ATOM      4  O   UNL     1      -4.069   8.164   5.679  1.00  0.00    -0.550 OA
ENDROOT
TORSDOF 0
ENDMDL
MODEL 7
REMARK VINA RESULT:    -2.394     14.084     14.238
REMARK INTER + INTRA:          -2.394
REMARK INTER:                  -2.394
REMARK INTRA:                   0.000
REMARK UNBOUND:                 0.000
REMARK SMILES CC(=O)[O-]
REMARK SMILES IDX 1 1 2 2 3 3 4 4
REMARK H PARENT
REMARK Flexibility Score: inf
ROOT
ATOM      1  C   UNL     1       0.319  -0.094  -5.390  1.00  0.00     0.063 C 
ATOM      2  C   UNL     1      -0.471  -0.964  -4.472  1.00  0.00     0.038 C 
ATOM      3  O   UNL     1      -1.268  -0.449  -3.644  1.00  0.00    -0.550 OA
ATOM      4  O   UNL     1      -0.369  -2.346  -4.563  1.00  0.00    -0.550 OA
ENDROOT
TORSDOF 0
ENDMDL
MODEL 8
REMARK VINA RESULT:    -2.384     13.828     14.380
REMARK INTER + INTRA:          -2.384
REMARK INTER:                  -2.384
REMARK INTRA:                   0.000
REMARK UNBOUND:                 0.000
REMARK SMILES CC(=O)[O-]
REMARK SMILES IDX 1 1 2 2 3 3 4 4
REMARK H PARENT
REMARK Flexibility Score: inf
ROOT
ATOM      1  C   UNL     1       6.548  -2.384   6.747  1.00  0.00     0.063 C 
ATOM      2  C   UNL     1       5.677  -3.360   7.463  1.00  0.00     0.038 C 
ATOM      3  O   UNL     1       6.140  -4.474   7.822  1.00  0.00    -0.550 OA
ATOM      4  O   UNL     1       4.368  -3.022   7.781  1.00  0.00    -0.550 OA
ENDROOT
TORSDOF 0
ENDMDL
MODEL 9
REMARK VINA RESULT:    -2.369     14.325     14.520
REMARK INTER + INTRA:          -2.369
REMARK INTER:                  -2.369
REMARK INTRA:                   0.000
REMARK UNBOUND:                 0.000
REMARK SMILES CC(=O)[O-]
REMARK SMILES IDX 1 1 2 2 3 3 4 4
REMARK H PARENT
REMARK Flexibility Score: inf
ROOT
ATOM      1  C   UNL     1      -0.412  -1.554  -4.759  1.00  0.00     0.063 C 
ATOM      2  C   UNL     1       0.071  -0.207  -5.178  1.00  0.00     0.038 C 
ATOM      3  O   UNL     1       0.813  -0.088  -6.188  1.00  0.00    -0.550 OA
ATOM      4  O   UNL     1      -0.338   0.925  -4.486  1.00  0.00    -0.550 OA
ENDROOT
TORSDOF 0
ENDMDL
