MODEL 1
REMARK VINA RESULT:    -4.699      0.000      0.000
REMARK INTER + INTRA:          -8.338
REMARK INTER:                  -6.897
REMARK INTRA:                  -1.441
REMARK UNBOUND:                -1.441
REMARK SMILES O=c1c(O[C@@H]2O[C@H](CO)[C@@H](O)[C@@H](O)[C@@H]2O)c(-c2ccc(O)c(O)c2)oc2cc(O)cc(O)c12
REMARK SMILES IDX 4 1 3 2 16 3 25 4 2 5 26 6 1 7 33 8 27 9 31 10 28 11 30 12
REMARK SMILES IDX 17 13 18 14 19 15 20 16 24 17 22 18 21 19 23 21 32 23 29 25
REMARK SMILES IDX 5 27 14 28 6 29 12 30 7 31 10 32 15 33 13 35 8 37 9 38 11 40
REMARK H PARENT 21 20 23 22 32 24 29 26 15 34 13 36 9 39 11 41
REMARK Flexibility Score: inf
ROOT
ATOM      1  O   UNL     1      18.836   0.285  11.870  1.00  0.00    -0.454 OA
ENDROOT
BRANCH   1   2
ATOM      2  C   UNL     1      18.341   1.565  12.192  1.00  0.00     0.214 A 
ATOM      3  C   UNL     1      18.848   2.195  13.347  1.00  0.00     0.180 A 
ATOM      4  O   UNL     1      18.369   3.371  13.734  1.00  0.00    -0.452 OA
ATOM      5  C   UNL     1      17.339   2.234  11.451  1.00  0.00     0.239 A 
ATOM      6  C   UNL     1      17.427   4.028  13.074  1.00  0.00     0.146 A 
ATOM      7  O   UNL     1      16.864   1.714  10.407  1.00  0.00    -0.285 OA
ATOM      8  C   UNL     1      16.867   3.489  11.892  1.00  0.00     0.111 A 
ATOM      9  C   UNL     1      16.992   5.264  13.561  1.00  0.00     0.094 A 
ATOM     10  C   UNL     1      15.863   4.222  11.212  1.00  0.00     0.134 A 
ATOM     11  C   UNL     1      16.001   5.981  12.885  1.00  0.00     0.123 A 
ATOM     12  C   UNL     1      15.442   5.461  11.717  1.00  0.00     0.093 A 
BRANCH   3  13
ATOM     13  C   UNL     1      19.893   1.560  14.182  1.00  0.00     0.025 A 
ATOM     14  C   UNL     1      21.243   1.931  14.071  1.00  0.00     0.016 A 
ATOM     15  C   UNL     1      22.212   1.319  14.871  1.00  0.00     0.051 A 
ATOM     16  C   UNL     1      21.846   0.342  15.802  1.00  0.00     0.157 A 
ATOM     17  C   UNL     1      19.525   0.593  15.131  1.00  0.00     0.062 A 
ATOM     18  C   UNL     1      20.495  -0.021  15.936  1.00  0.00     0.158 A 
BRANCH  16  19
ATOM     19  O   UNL     1      22.835  -0.252  16.585  1.00  0.00    -0.504 OA
ATOM     20  H   UNL     1      23.821  -0.102  16.411  1.00  0.00     0.293 HD
ENDBRANCH  16  19
BRANCH  18  21
ATOM     21  O   UNL     1      20.123  -0.989  16.867  1.00  0.00    -0.504 OA
ATOM     22  H   UNL     1      20.807  -1.453  17.454  1.00  0.00     0.293 HD
ENDBRANCH  18  21
ENDBRANCH   3  13
BRANCH  10  23
ATOM     23  O   UNL     1      15.282   3.730  10.042  1.00  0.00    -0.507 OA
ATOM     24  H   UNL     1      14.463   3.133  10.064  1.00  0.00     0.293 HD
ENDBRANCH  10  23
BRANCH  11  25
ATOM     25  O   UNL     1      15.563   7.214  13.366  1.00  0.00    -0.508 OA
ATOM     26  H   UNL     1      16.121   7.757  14.015  1.00  0.00     0.293 HD
ENDBRANCH  11  25
ENDBRANCH   1   2
BRANCH   1  27
ATOM     27  C   UNL     1      18.286  -0.983  12.238  1.00  0.00     0.339 C 
ATOM     28  C   UNL     1      17.694  -1.704  11.001  1.00  0.00     0.214 C 
ATOM     29  O   UNL     1      19.249  -1.788  12.902  1.00  0.00    -0.332 OA
ATOM     30  C   UNL     1      18.751  -2.543  10.237  1.00  0.00     0.180 C 
ATOM     31  C   UNL     1      20.398  -2.104  12.112  1.00  0.00     0.179 C 
ATOM     32  C   UNL     1      20.167  -2.054  10.571  1.00  0.00     0.177 C 
BRANCH  28  33
ATOM     33  O   UNL     1      17.113  -0.753  10.144  1.00  0.00    -0.384 OA
ATOM     34  H   UNL     1      16.254  -1.139   9.826  1.00  0.00     0.211 HD
ENDBRANCH  28  33
BRANCH  30  35
ATOM     35  O   UNL     1      18.625  -3.899  10.583  1.00  0.00    -0.387 OA
ATOM     36  H   UNL     1      19.146  -4.417   9.914  1.00  0.00     0.211 HD
ENDBRANCH  30  35
BRANCH  31  37
ATOM     37  C   UNL     1      21.593  -1.235  12.541  1.00  0.00     0.191 C 
BRANCH  37  38
ATOM     38  O   UNL     1      21.923  -0.311  11.539  1.00  0.00    -0.394 OA
ATOM     39  H   UNL     1      22.864  -0.494  11.282  1.00  0.00     0.210 HD
ENDBRANCH  37  38
ENDBRANCH  31  37
BRANCH  32  40
ATOM     40  O   UNL     1      21.139  -2.796   9.875  1.00  0.00    -0.387 OA
ATOM     41  H   UNL     1      21.140  -2.497   8.928  1.00  0.00     0.211 HD
ENDBRANCH  32  40
ENDBRANCH   1  27
TORSDOF 12
ENDMDL
MODEL 2
REMARK VINA RESULT:    -4.692      0.875      2.100
REMARK INTER + INTRA:          -8.328
REMARK INTER:                  -6.898
REMARK INTRA:                  -1.430
REMARK UNBOUND:                -1.441
REMARK SMILES O=c1c(O[C@@H]2O[C@H](CO)[C@@H](O)[C@@H](O)[C@@H]2O)c(-c2ccc(O)c(O)c2)oc2cc(O)cc(O)c12
REMARK SMILES IDX 4 1 3 2 16 3 25 4 2 5 26 6 1 7 33 8 27 9 31 10 28 11 30 12
REMARK SMILES IDX 17 13 18 14 19 15 20 16 24 17 22 18 21 19 23 21 32 23 29 25
REMARK SMILES IDX 5 27 14 28 6 29 12 30 7 31 10 32 15 33 13 35 8 37 9 38 11 40
REMARK H PARENT 21 20 23 22 32 24 29 26 15 34 13 36 9 39 11 41
REMARK Flexibility Score: inf
ROOT
ATOM      1  O   UNL     1      19.024   0.276  12.149  1.00  0.00    -0.454 OA
ENDROOT
BRANCH   1   2
ATOM      2  C   UNL     1      18.496   1.523  12.539  1.00  0.00     0.214 A 
ATOM      3  C   UNL     1      18.948   2.077  13.755  1.00  0.00     0.180 A 
ATOM      4  O   UNL     1      18.435   3.217  14.203  1.00  0.00    -0.452 OA
ATOM      5  C   UNL     1      17.512   2.229  11.808  1.00  0.00     0.239 A 
ATOM      6  C   UNL     1      17.508   3.905  13.554  1.00  0.00     0.146 A 
ATOM      7  O   UNL     1      17.085   1.777  10.713  1.00  0.00    -0.285 OA
ATOM      8  C   UNL     1      17.003   3.443  12.317  1.00  0.00     0.111 A 
ATOM      9  C   UNL     1      17.034   5.098  14.109  1.00  0.00     0.094 A 
ATOM     10  C   UNL     1      16.013   4.208  11.650  1.00  0.00     0.134 A 
ATOM     11  C   UNL     1      16.058   5.848  13.445  1.00  0.00     0.123 A 
ATOM     12  C   UNL     1      15.552   5.402  12.223  1.00  0.00     0.093 A 
BRANCH   3  13
ATOM     13  C   UNL     1      19.970   1.401  14.584  1.00  0.00     0.025 A 
ATOM     14  C   UNL     1      21.320   1.788  14.541  1.00  0.00     0.016 A 
ATOM     15  C   UNL     1      22.267   1.134  15.334  1.00  0.00     0.051 A 
ATOM     16  C   UNL     1      21.880   0.099  16.190  1.00  0.00     0.157 A 
ATOM     17  C   UNL     1      19.580   0.374  15.459  1.00  0.00     0.062 A 
ATOM     18  C   UNL     1      20.529  -0.281  16.257  1.00  0.00     0.158 A 
BRANCH  16  19
ATOM     19  O   UNL     1      22.848  -0.534  16.969  1.00  0.00    -0.504 OA
ATOM     20  H   UNL     1      23.471  -1.236  16.587  1.00  0.00     0.293 HD
ENDBRANCH  16  19
BRANCH  18  21
ATOM     21  O   UNL     1      20.135  -1.308  17.114  1.00  0.00    -0.504 OA
ATOM     22  H   UNL     1      20.708  -2.132  17.253  1.00  0.00     0.293 HD
ENDBRANCH  18  21
ENDBRANCH   3  13
BRANCH  10  23
ATOM     23  O   UNL     1      15.485   3.791  10.427  1.00  0.00    -0.507 OA
ATOM     24  H   UNL     1      14.490   3.822  10.238  1.00  0.00     0.293 HD
ENDBRANCH  10  23
BRANCH  11  25
ATOM     25  O   UNL     1      15.582   7.037  13.993  1.00  0.00    -0.508 OA
ATOM     26  H   UNL     1      14.698   7.076  14.488  1.00  0.00     0.293 HD
ENDBRANCH  11  25
ENDBRANCH   1   2
BRANCH   1  27
ATOM     27  C   UNL     1      19.979   0.016  11.116  1.00  0.00     0.339 C 
ATOM     28  C   UNL     1      20.919  -1.148  11.520  1.00  0.00     0.214 C 
ATOM     29  O   UNL     1      19.338  -0.235   9.875  1.00  0.00    -0.332 OA
ATOM     30  C   UNL     1      20.343  -2.538  11.143  1.00  0.00     0.180 C 
ATOM     31  C   UNL     1      18.480  -1.379   9.875  1.00  0.00     0.179 C 
ATOM     32  C   UNL     1      18.822  -2.454  10.951  1.00  0.00     0.177 C 
BRANCH  28  33
ATOM     33  O   UNL     1      21.172  -1.083  12.901  1.00  0.00    -0.384 OA
ATOM     34  H   UNL     1      21.723  -0.270  13.055  1.00  0.00     0.211 HD
ENDBRANCH  28  33
BRANCH  30  35
ATOM     35  O   UNL     1      20.944  -2.999   9.959  1.00  0.00    -0.387 OA
ATOM     36  H   UNL     1      20.948  -2.236   9.323  1.00  0.00     0.211 HD
ENDBRANCH  30  35
BRANCH  31  37
ATOM     37  C   UNL     1      17.008  -0.938   9.953  1.00  0.00     0.191 C 
BRANCH  37  38
ATOM     38  O   UNL     1      16.496  -1.136  11.244  1.00  0.00    -0.394 OA
ATOM     39  H   UNL     1      16.729  -0.327  11.770  1.00  0.00     0.210 HD
ENDBRANCH  37  38
ENDBRANCH  31  37
BRANCH  32  40
ATOM     40  O   UNL     1      18.280  -3.710  10.622  1.00  0.00    -0.387 OA
ATOM     41  H   UNL     1      18.579  -4.366  11.305  1.00  0.00     0.211 HD
ENDBRANCH  32  40
ENDBRANCH   1  27
TORSDOF 12
ENDMDL
MODEL 3
REMARK VINA RESULT:    -4.585      2.310      7.315
REMARK INTER + INTRA:          -8.170
REMARK INTER:                  -6.483
REMARK INTRA:                  -1.687
REMARK UNBOUND:                -1.441
REMARK SMILES O=c1c(O[C@@H]2O[C@H](CO)[C@@H](O)[C@@H](O)[C@@H]2O)c(-c2ccc(O)c(O)c2)oc2cc(O)cc(O)c12
REMARK SMILES IDX 4 1 3 2 16 3 25 4 2 5 26 6 1 7 33 8 27 9 31 10 28 11 30 12
REMARK SMILES IDX 17 13 18 14 19 15 20 16 24 17 22 18 21 19 23 21 32 23 29 25
REMARK SMILES IDX 5 27 14 28 6 29 12 30 7 31 10 32 15 33 13 35 8 37 9 38 11 40
REMARK H PARENT 21 20 23 22 32 24 29 26 15 34 13 36 9 39 11 41
REMARK Flexibility Score: inf
ROOT
ATOM      1  O   UNL     1      20.214   2.024  11.836  1.00  0.00    -0.454 OA
ENDROOT
BRANCH   1   2
ATOM      2  C   UNL     1      19.888   0.710  11.443  1.00  0.00     0.214 A 
ATOM      3  C   UNL     1      18.523   0.360  11.390  1.00  0.00     0.180 A 
ATOM      4  O   UNL     1      18.161  -0.882  11.091  1.00  0.00    -0.452 OA
ATOM      5  C   UNL     1      20.846  -0.286  11.141  1.00  0.00     0.239 A 
ATOM      6  C   UNL     1      19.025  -1.846  10.809  1.00  0.00     0.146 A 
ATOM      7  O   UNL     1      22.075  -0.016  11.166  1.00  0.00    -0.285 OA
ATOM      8  C   UNL     1      20.416  -1.590  10.816  1.00  0.00     0.111 A 
ATOM      9  C   UNL     1      18.543  -3.122  10.501  1.00  0.00     0.094 A 
ATOM     10  C   UNL     1      21.310  -2.645  10.506  1.00  0.00     0.134 A 
ATOM     11  C   UNL     1      19.431  -4.158  10.197  1.00  0.00     0.123 A 
ATOM     12  C   UNL     1      20.806  -3.918  10.200  1.00  0.00     0.093 A 
BRANCH   3  13
ATOM     13  C   UNL     1      17.457   1.340  11.698  1.00  0.00     0.025 A 
ATOM     14  C   UNL     1      16.883   2.136  10.693  1.00  0.00     0.016 A 
ATOM     15  C   UNL     1      15.878   3.054  11.007  1.00  0.00     0.051 A 
ATOM     16  C   UNL     1      15.420   3.179  12.323  1.00  0.00     0.157 A 
ATOM     17  C   UNL     1      16.983   1.453  13.014  1.00  0.00     0.062 A 
ATOM     18  C   UNL     1      15.972   2.372  13.331  1.00  0.00     0.158 A 
BRANCH  16  19
ATOM     19  O   UNL     1      14.416   4.104  12.606  1.00  0.00    -0.504 OA
ATOM     20  H   UNL     1      14.620   5.020  12.987  1.00  0.00     0.293 HD
ENDBRANCH  16  19
BRANCH  18  21
ATOM     21  O   UNL     1      15.516   2.486  14.644  1.00  0.00    -0.504 OA
ATOM     22  H   UNL     1      14.993   1.741  15.091  1.00  0.00     0.293 HD
ENDBRANCH  18  21
ENDBRANCH   3  13
BRANCH  10  23
ATOM     23  O   UNL     1      22.691  -2.441  10.502  1.00  0.00    -0.507 OA
ATOM     24  H   UNL     1      23.306  -2.939  11.134  1.00  0.00     0.293 HD
ENDBRANCH  10  23
BRANCH  11  25
ATOM     25  O   UNL     1      18.957  -5.432   9.890  1.00  0.00    -0.508 OA
ATOM     26  H   UNL     1      17.977  -5.671   9.991  1.00  0.00     0.293 HD
ENDBRANCH  11  25
ENDBRANCH   1   2
BRANCH   1  27
ATOM     27  C   UNL     1      20.246   2.557  13.164  1.00  0.00     0.339 C 
ATOM     28  C   UNL     1      21.705   2.818  13.615  1.00  0.00     0.214 C 
ATOM     29  O   UNL     1      19.448   3.726  13.267  1.00  0.00    -0.332 OA
ATOM     30  C   UNL     1      22.218   4.219  13.191  1.00  0.00     0.180 C 
ATOM     31  C   UNL     1      19.873   4.805  12.431  1.00  0.00     0.179 C 
ATOM     32  C   UNL     1      21.379   4.769  12.029  1.00  0.00     0.177 C 
BRANCH  28  33
ATOM     33  O   UNL     1      22.539   1.815  13.092  1.00  0.00    -0.384 OA
ATOM     34  H   UNL     1      22.159   1.553  12.212  1.00  0.00     0.211 HD
ENDBRANCH  28  33
BRANCH  30  35
ATOM     35  O   UNL     1      22.150   5.102  14.282  1.00  0.00    -0.387 OA
ATOM     36  H   UNL     1      22.217   4.549  15.105  1.00  0.00     0.211 HD
ENDBRANCH  30  35
BRANCH  31  37
ATOM     37  C   UNL     1      18.955   4.917  11.201  1.00  0.00     0.191 C 
BRANCH  37  38
ATOM     38  O   UNL     1      19.589   4.410  10.057  1.00  0.00    -0.394 OA
ATOM     39  H   UNL     1      18.984   3.720   9.678  1.00  0.00     0.210 HD
ENDBRANCH  37  38
ENDBRANCH  31  37
BRANCH  32  40
ATOM     40  O   UNL     1      21.839   6.035  11.622  1.00  0.00    -0.387 OA
ATOM     41  H   UNL     1      21.372   6.724  12.163  1.00  0.00     0.211 HD
ENDBRANCH  32  40
ENDBRANCH   1  27
TORSDOF 12
ENDMDL
MODEL 4
REMARK VINA RESULT:    -4.557      2.248      6.868
REMARK INTER + INTRA:          -8.130
REMARK INTER:                  -7.250
REMARK INTRA:                  -0.880
REMARK UNBOUND:                -1.441
REMARK SMILES O=c1c(O[C@@H]2O[C@H](CO)[C@@H](O)[C@@H](O)[C@@H]2O)c(-c2ccc(O)c(O)c2)oc2cc(O)cc(O)c12
REMARK SMILES IDX 4 1 3 2 16 3 25 4 2 5 26 6 1 7 33 8 27 9 31 10 28 11 30 12
REMARK SMILES IDX 17 13 18 14 19 15 20 16 24 17 22 18 21 19 23 21 32 23 29 25
REMARK SMILES IDX 5 27 14 28 6 29 12 30 7 31 10 32 15 33 13 35 8 37 9 38 11 40
REMARK H PARENT 21 20 23 22 32 24 29 26 15 34 13 36 9 39 11 41
REMARK Flexibility Score: inf
ROOT
ATOM      1  O   UNL     1      17.569   2.139  11.694  1.00  0.00    -0.454 OA
ENDROOT
BRANCH   1   2
ATOM      2  C   UNL     1      18.494   1.105  11.442  1.00  0.00     0.214 A 
ATOM      3  C   UNL     1      19.860   1.377  11.660  1.00  0.00     0.180 A 
ATOM      4  O   UNL     1      20.780   0.463  11.376  1.00  0.00    -0.452 OA
ATOM      5  C   UNL     1      18.138  -0.170  10.944  1.00  0.00     0.239 A 
ATOM      6  C   UNL     1      20.490  -0.740  10.902  1.00  0.00     0.146 A 
ATOM      7  O   UNL     1      16.930  -0.461  10.742  1.00  0.00    -0.285 OA
ATOM      8  C   UNL     1      19.148  -1.117  10.667  1.00  0.00     0.111 A 
ATOM      9  C   UNL     1      21.532  -1.635  10.638  1.00  0.00     0.094 A 
ATOM     10  C   UNL     1      18.877  -2.413  10.162  1.00  0.00     0.134 A 
ATOM     11  C   UNL     1      21.257  -2.912  10.140  1.00  0.00     0.123 A 
ATOM     12  C   UNL     1      19.936  -3.296   9.904  1.00  0.00     0.093 A 
BRANCH   3  13
ATOM     13  C   UNL     1      20.318   2.688  12.173  1.00  0.00     0.025 A 
ATOM     14  C   UNL     1      21.299   2.780  13.175  1.00  0.00     0.016 A 
ATOM     15  C   UNL     1      21.716   4.028  13.643  1.00  0.00     0.051 A 
ATOM     16  C   UNL     1      21.175   5.201  13.108  1.00  0.00     0.157 A 
ATOM     17  C   UNL     1      19.790   3.867  11.624  1.00  0.00     0.062 A 
ATOM     18  C   UNL     1      20.210   5.121  12.090  1.00  0.00     0.158 A 
BRANCH  16  19
ATOM     19  O   UNL     1      21.610   6.433  13.595  1.00  0.00    -0.504 OA
ATOM     20  H   UNL     1      22.115   7.093  13.016  1.00  0.00     0.293 HD
ENDBRANCH  16  19
BRANCH  18  21
ATOM     21  O   UNL     1      19.671   6.287  11.547  1.00  0.00    -0.504 OA
ATOM     22  H   UNL     1      18.818   6.272  10.999  1.00  0.00     0.293 HD
ENDBRANCH  18  21
ENDBRANCH   3  13
BRANCH  10  23
ATOM     23  O   UNL     1      17.568  -2.829   9.913  1.00  0.00    -0.507 OA
ATOM     24  H   UNL     1      17.365  -3.726   9.487  1.00  0.00     0.293 HD
ENDBRANCH  10  23
BRANCH  11  25
ATOM     25  O   UNL     1      22.290  -3.808   9.875  1.00  0.00    -0.508 OA
ATOM     26  H   UNL     1      22.396  -4.240   8.964  1.00  0.00     0.293 HD
ENDBRANCH  11  25
ENDBRANCH   1   2
BRANCH   1  27
ATOM     27  C   UNL     1      16.288   2.031  12.322  1.00  0.00     0.339 C 
ATOM     28  C   UNL     1      16.416   2.193  13.857  1.00  0.00     0.214 C 
ATOM     29  O   UNL     1      15.367   2.961  11.771  1.00  0.00    -0.332 OA
ATOM     30  C   UNL     1      16.356   3.676  14.308  1.00  0.00     0.180 C 
ATOM     31  C   UNL     1      15.742   4.330  11.937  1.00  0.00     0.179 C 
ATOM     32  C   UNL     1      16.700   4.607  13.135  1.00  0.00     0.177 C 
BRANCH  28  33
ATOM     33  O   UNL     1      17.615   1.601  14.288  1.00  0.00    -0.384 OA
ATOM     34  H   UNL     1      17.655   1.715  15.275  1.00  0.00     0.211 HD
ENDBRANCH  28  33
BRANCH  30  35
ATOM     35  O   UNL     1      15.070   3.978  14.788  1.00  0.00    -0.387 OA
ATOM     36  H   UNL     1      15.155   4.117  15.768  1.00  0.00     0.211 HD
ENDBRANCH  30  35
BRANCH  31  37
ATOM     37  C   UNL     1      16.298   4.893  10.617  1.00  0.00     0.191 C 
BRANCH  37  38
ATOM     38  O   UNL     1      16.697   6.228  10.773  1.00  0.00    -0.394 OA
ATOM     39  H   UNL     1      16.161   6.600  11.521  1.00  0.00     0.210 HD
ENDBRANCH  37  38
ENDBRANCH  31  37
BRANCH  32  40
ATOM     40  O   UNL     1      16.664   5.957  13.530  1.00  0.00    -0.387 OA
ATOM     41  H   UNL     1      16.504   6.513  12.723  1.00  0.00     0.211 HD
ENDBRANCH  32  40
ENDBRANCH   1  27
TORSDOF 12
ENDMDL
MODEL 5
REMARK VINA RESULT:    -4.516      3.853      6.519
REMARK INTER + INTRA:          -8.070
REMARK INTER:                  -7.052
REMARK INTRA:                  -1.017
REMARK UNBOUND:                -1.441
REMARK SMILES O=c1c(O[C@@H]2O[C@H](CO)[C@@H](O)[C@@H](O)[C@@H]2O)c(-c2ccc(O)c(O)c2)oc2cc(O)cc(O)c12
REMARK SMILES IDX 4 1 3 2 16 3 25 4 2 5 26 6 1 7 33 8 27 9 31 10 28 11 30 12
REMARK SMILES IDX 17 13 18 14 19 15 20 16 24 17 22 18 21 19 23 21 32 23 29 25
REMARK SMILES IDX 5 27 14 28 6 29 12 30 7 31 10 32 15 33 13 35 8 37 9 38 11 40
REMARK H PARENT 21 20 23 22 32 24 29 26 15 34 13 36 9 39 11 41
REMARK Flexibility Score: inf
ROOT
ATOM      1  O   UNL     1      18.275   6.044  11.608  1.00  0.00    -0.454 OA
ENDROOT
BRANCH   1   2
ATOM      2  C   UNL     1      17.223   6.982  11.573  1.00  0.00     0.214 A 
ATOM      3  C   UNL     1      15.973   6.588  12.095  1.00  0.00     0.180 A 
ATOM      4  O   UNL     1      14.930   7.408  12.027  1.00  0.00    -0.452 OA
ATOM      5  C   UNL     1      17.334   8.274  11.008  1.00  0.00     0.239 A 
ATOM      6  C   UNL     1      14.990   8.622  11.500  1.00  0.00     0.146 A 
ATOM      7  O   UNL     1      18.433   8.672  10.538  1.00  0.00    -0.285 OA
ATOM      8  C   UNL     1      16.203   9.116  10.967  1.00  0.00     0.111 A 
ATOM      9  C   UNL     1      13.836   9.411  11.479  1.00  0.00     0.094 A 
ATOM     10  C   UNL     1      16.229  10.421  10.415  1.00  0.00     0.134 A 
ATOM     11  C   UNL     1      13.869  10.697  10.933  1.00  0.00     0.123 A 
ATOM     12  C   UNL     1      15.060  11.197  10.404  1.00  0.00     0.093 A 
BRANCH   3  13
ATOM     13  C   UNL     1      15.769   5.252  12.697  1.00  0.00     0.025 A 
ATOM     14  C   UNL     1      15.006   4.266  12.050  1.00  0.00     0.016 A 
ATOM     15  C   UNL     1      14.827   3.011  12.638  1.00  0.00     0.051 A 
ATOM     16  C   UNL     1      15.421   2.717  13.869  1.00  0.00     0.157 A 
ATOM     17  C   UNL     1      16.380   4.948  13.924  1.00  0.00     0.062 A 
ATOM     18  C   UNL     1      16.204   3.688  14.515  1.00  0.00     0.158 A 
BRANCH  16  19
ATOM     19  O   UNL     1      15.224   1.456  14.431  1.00  0.00    -0.504 OA
ATOM     20  H   UNL     1      15.038   1.330  15.419  1.00  0.00     0.293 HD
ENDBRANCH  16  19
BRANCH  18  21
ATOM     21  O   UNL     1      16.804   3.398  15.740  1.00  0.00    -0.504 OA
ATOM     22  H   UNL     1      16.790   4.060  16.507  1.00  0.00     0.293 HD
ENDBRANCH  18  21
ENDBRANCH   3  13
BRANCH  10  23
ATOM     23  O   UNL     1      17.402  10.952   9.877  1.00  0.00    -0.507 OA
ATOM     24  H   UNL     1      17.410  11.837   9.383  1.00  0.00     0.293 HD
ENDBRANCH  10  23
BRANCH  11  25
ATOM     25  O   UNL     1      12.721  11.488  10.909  1.00  0.00    -0.508 OA
ATOM     26  H   UNL     1      12.691  12.361  10.395  1.00  0.00     0.293 HD
ENDBRANCH  11  25
ENDBRANCH   1   2
BRANCH   1  27
ATOM     27  C   UNL     1      19.447   6.014  10.788  1.00  0.00     0.339 C 
ATOM     28  C   UNL     1      20.726   5.980  11.662  1.00  0.00     0.214 C 
ATOM     29  O   UNL     1      19.406   4.928   9.875  1.00  0.00    -0.332 OA
ATOM     30  C   UNL     1      21.138   4.538  12.060  1.00  0.00     0.180 C 
ATOM     31  C   UNL     1      19.360   3.640  10.493  1.00  0.00     0.179 C 
ATOM     32  C   UNL     1      19.940   3.585  11.938  1.00  0.00     0.177 C 
BRANCH  28  33
ATOM     33  O   UNL     1      20.524   6.763  12.811  1.00  0.00    -0.384 OA
ATOM     34  H   UNL     1      20.178   6.156  13.517  1.00  0.00     0.211 HD
ENDBRANCH  28  33
BRANCH  30  35
ATOM     35  O   UNL     1      22.180   4.093  11.229  1.00  0.00    -0.387 OA
ATOM     36  H   UNL     1      22.416   4.852  10.632  1.00  0.00     0.211 HD
ENDBRANCH  30  35
BRANCH  31  37
ATOM     37  C   UNL     1      17.932   3.070  10.426  1.00  0.00     0.191 C 
BRANCH  37  38
ATOM     38  O   UNL     1      17.915   1.720  10.806  1.00  0.00    -0.394 OA
ATOM     39  H   UNL     1      18.793   1.533  11.231  1.00  0.00     0.210 HD
ENDBRANCH  37  38
ENDBRANCH  31  37
BRANCH  32  40
ATOM     40  O   UNL     1      20.292   2.274  12.309  1.00  0.00    -0.387 OA
ATOM     41  H   UNL     1      19.601   1.655  11.957  1.00  0.00     0.211 HD
ENDBRANCH  32  40
ENDBRANCH   1  27
TORSDOF 12
ENDMDL
MODEL 6
REMARK VINA RESULT:    -4.199      4.033      6.773
REMARK INTER + INTRA:          -7.604
REMARK INTER:                  -6.538
REMARK INTRA:                  -1.067
REMARK UNBOUND:                -1.441
REMARK SMILES O=c1c(O[C@@H]2O[C@H](CO)[C@@H](O)[C@@H](O)[C@@H]2O)c(-c2ccc(O)c(O)c2)oc2cc(O)cc(O)c12
REMARK SMILES IDX 4 1 3 2 16 3 25 4 2 5 26 6 1 7 33 8 27 9 31 10 28 11 30 12
REMARK SMILES IDX 17 13 18 14 19 15 20 16 24 17 22 18 21 19 23 21 32 23 29 25
REMARK SMILES IDX 5 27 14 28 6 29 12 30 7 31 10 32 15 33 13 35 8 37 9 38 11 40
REMARK H PARENT 21 20 23 22 32 24 29 26 15 34 13 36 9 39 11 41
REMARK Flexibility Score: inf
ROOT
ATOM      1  O   UNL     1      18.372   6.443  11.329  1.00  0.00    -0.454 OA
ENDROOT
BRANCH   1   2
ATOM      2  C   UNL     1      17.166   7.168  11.257  1.00  0.00     0.214 A 
ATOM      3  C   UNL     1      15.969   6.487  11.561  1.00  0.00     0.180 A 
ATOM      4  O   UNL     1      14.799   7.104  11.445  1.00  0.00    -0.452 OA
ATOM      5  C   UNL     1      17.081   8.522  10.857  1.00  0.00     0.239 A 
ATOM      6  C   UNL     1      14.674   8.367  11.067  1.00  0.00     0.146 A 
ATOM      7  O   UNL     1      18.124   9.173  10.584  1.00  0.00    -0.285 OA
ATOM      8  C   UNL     1      15.817   9.142  10.758  1.00  0.00     0.111 A 
ATOM      9  C   UNL     1      13.396   8.927  10.980  1.00  0.00     0.094 A 
ATOM     10  C   UNL     1      15.644  10.491  10.360  1.00  0.00     0.134 A 
ATOM     11  C   UNL     1      13.234  10.259  10.587  1.00  0.00     0.123 A 
ATOM     12  C   UNL     1      14.353  11.034  10.279  1.00  0.00     0.093 A 
BRANCH   3  13
ATOM     13  C   UNL     1      15.969   5.068  11.981  1.00  0.00     0.025 A 
ATOM     14  C   UNL     1      15.992   4.026  11.039  1.00  0.00     0.016 A 
ATOM     15  C   UNL     1      15.992   2.694  11.459  1.00  0.00     0.051 A 
ATOM     16  C   UNL     1      15.986   2.382  12.822  1.00  0.00     0.157 A 
ATOM     17  C   UNL     1      15.982   4.753  13.349  1.00  0.00     0.062 A 
ATOM     18  C   UNL     1      15.984   3.416  13.773  1.00  0.00     0.158 A 
BRANCH  16  19
ATOM     19  O   UNL     1      15.985   1.043  13.211  1.00  0.00    -0.504 OA
ATOM     20  H   UNL     1      15.135   0.560  13.478  1.00  0.00     0.293 HD
ENDBRANCH  16  19
BRANCH  18  21
ATOM     21  O   UNL     1      15.985   3.112  15.134  1.00  0.00    -0.504 OA
ATOM     22  H   UNL     1      15.133   2.864  15.622  1.00  0.00     0.293 HD
ENDBRANCH  18  21
ENDBRANCH   3  13
BRANCH  10  23
ATOM     23  O   UNL     1      16.741  11.294  10.044  1.00  0.00    -0.507 OA
ATOM     24  H   UNL     1      17.130  11.952  10.710  1.00  0.00     0.293 HD
ENDBRANCH  10  23
BRANCH  11  25
ATOM     25  O   UNL     1      11.963  10.823  10.497  1.00  0.00    -0.508 OA
ATOM     26  H   UNL     1      11.760  11.572   9.845  1.00  0.00     0.293 HD
ENDBRANCH  11  25
ENDBRANCH   1   2
BRANCH   1  27
ATOM     27  C   UNL     1      19.032   5.736  10.273  1.00  0.00     0.339 C 
ATOM     28  C   UNL     1      20.349   6.449   9.877  1.00  0.00     0.214 C 
ATOM     29  O   UNL     1      19.255   4.379  10.626  1.00  0.00    -0.332 OA
ATOM     30  C   UNL     1      21.555   5.998  10.742  1.00  0.00     0.180 C 
ATOM     31  C   UNL     1      20.096   4.198  11.767  1.00  0.00     0.179 C 
ATOM     32  C   UNL     1      21.067   5.381  12.061  1.00  0.00     0.177 C 
BRANCH  28  33
ATOM     33  O   UNL     1      20.171   7.839   9.974  1.00  0.00    -0.384 OA
ATOM     34  H   UNL     1      19.200   7.997  10.116  1.00  0.00     0.211 HD
ENDBRANCH  28  33
BRANCH  30  35
ATOM     35  O   UNL     1      22.324   5.058  10.036  1.00  0.00    -0.387 OA
ATOM     36  H   UNL     1      21.759   4.247   9.927  1.00  0.00     0.211 HD
ENDBRANCH  30  35
BRANCH  31  37
ATOM     37  C   UNL     1      19.248   3.834  12.999  1.00  0.00     0.191 C 
BRANCH  37  38
ATOM     38  O   UNL     1      19.914   2.900  13.806  1.00  0.00    -0.394 OA
ATOM     39  H   UNL     1      20.609   2.478  13.238  1.00  0.00     0.210 HD
ENDBRANCH  37  38
ENDBRANCH  31  37
BRANCH  32  40
ATOM     40  O   UNL     1      22.150   4.979  12.865  1.00  0.00    -0.387 OA
ATOM     41  H   UNL     1      22.824   5.708  12.867  1.00  0.00     0.211 HD
ENDBRANCH  32  40
ENDBRANCH   1  27
TORSDOF 12
ENDMDL
MODEL 7
REMARK VINA RESULT:    -4.069      1.617      4.890
REMARK INTER + INTRA:          -7.413
REMARK INTER:                  -6.455
REMARK INTRA:                  -0.958
REMARK UNBOUND:                -1.441
REMARK SMILES O=c1c(O[C@@H]2O[C@H](CO)[C@@H](O)[C@@H](O)[C@@H]2O)c(-c2ccc(O)c(O)c2)oc2cc(O)cc(O)c12
REMARK SMILES IDX 4 1 3 2 16 3 25 4 2 5 26 6 1 7 33 8 27 9 31 10 28 11 30 12
REMARK SMILES IDX 17 13 18 14 19 15 20 16 24 17 22 18 21 19 23 21 32 23 29 25
REMARK SMILES IDX 5 27 14 28 6 29 12 30 7 31 10 32 15 33 13 35 8 37 9 38 11 40
REMARK H PARENT 21 20 23 22 32 24 29 26 15 34 13 36 9 39 11 41
REMARK Flexibility Score: inf
ROOT
ATOM      1  O   UNL     1      19.288   0.124  14.068  1.00  0.00    -0.454 OA
ENDROOT
BRANCH   1   2
ATOM      2  C   UNL     1      18.341   0.773  13.250  1.00  0.00     0.214 A 
ATOM      3  C   UNL     1      18.238   0.357  11.907  1.00  0.00     0.180 A 
ATOM      4  O   UNL     1      17.411   0.979  11.075  1.00  0.00    -0.452 OA
ATOM      5  C   UNL     1      17.522   1.842  13.684  1.00  0.00     0.239 A 
ATOM      6  C   UNL     1      16.632   1.987  11.438  1.00  0.00     0.146 A 
ATOM      7  O   UNL     1      17.574   2.241  14.877  1.00  0.00    -0.285 OA
ATOM      8  C   UNL     1      16.648   2.466  12.768  1.00  0.00     0.111 A 
ATOM      9  C   UNL     1      15.791   2.573  10.487  1.00  0.00     0.094 A 
ATOM     10  C   UNL     1      15.799   3.544  13.121  1.00  0.00     0.134 A 
ATOM     11  C   UNL     1      14.956   3.636  10.841  1.00  0.00     0.123 A 
ATOM     12  C   UNL     1      14.962   4.117  12.151  1.00  0.00     0.093 A 
BRANCH   3  13
ATOM     13  C   UNL     1      19.064  -0.748  11.370  1.00  0.00     0.025 A 
ATOM     14  C   UNL     1      20.214  -0.497  10.604  1.00  0.00     0.016 A 
ATOM     15  C   UNL     1      20.978  -1.557  10.108  1.00  0.00     0.051 A 
ATOM     16  C   UNL     1      20.615  -2.879  10.384  1.00  0.00     0.157 A 
ATOM     17  C   UNL     1      18.712  -2.076  11.662  1.00  0.00     0.062 A 
ATOM     18  C   UNL     1      19.479  -3.141  11.167  1.00  0.00     0.158 A 
BRANCH  16  19
ATOM     19  O   UNL     1      21.397  -3.916   9.875  1.00  0.00    -0.504 OA
ATOM     20  H   UNL     1      22.407  -3.915   9.951  1.00  0.00     0.293 HD
ENDBRANCH  16  19
BRANCH  18  21
ATOM     21  O   UNL     1      19.116  -4.457  11.452  1.00  0.00    -0.504 OA
ATOM     22  H   UNL     1      18.798  -4.732  12.374  1.00  0.00     0.293 HD
ENDBRANCH  18  21
ENDBRANCH   3  13
BRANCH  10  23
ATOM     23  O   UNL     1      15.781   4.051  14.421  1.00  0.00    -0.507 OA
ATOM     24  H   UNL     1      16.543   3.886  15.068  1.00  0.00     0.293 HD
ENDBRANCH  10  23
BRANCH  11  25
ATOM     25  O   UNL     1      14.116   4.224   9.898  1.00  0.00    -0.508 OA
ATOM     26  H   UNL     1      14.480   4.813   9.158  1.00  0.00     0.293 HD
ENDBRANCH  11  25
ENDBRANCH   1   2
BRANCH   1  27
ATOM     27  C   UNL     1      20.698   0.011  13.852  1.00  0.00     0.339 C 
ATOM     28  C   UNL     1      21.468   1.059  14.694  1.00  0.00     0.214 C 
ATOM     29  O   UNL     1      21.153  -1.308  14.115  1.00  0.00    -0.332 OA
ATOM     30  C   UNL     1      21.788   0.556  16.126  1.00  0.00     0.180 C 
ATOM     31  C   UNL     1      20.954  -1.743  15.462  1.00  0.00     0.179 C 
ATOM     32  C   UNL     1      20.849  -0.596  16.512  1.00  0.00     0.177 C 
BRANCH  28  33
ATOM     33  O   UNL     1      20.720   2.247  14.752  1.00  0.00    -0.384 OA
ATOM     34  H   UNL     1      19.790   2.016  14.488  1.00  0.00     0.211 HD
ENDBRANCH  28  33
BRANCH  30  35
ATOM     35  O   UNL     1      23.123   0.119  16.190  1.00  0.00    -0.387 OA
ATOM     36  H   UNL     1      23.694   0.910  16.005  1.00  0.00     0.211 HD
ENDBRANCH  30  35
BRANCH  31  37
ATOM     37  C   UNL     1      19.752  -2.701  15.538  1.00  0.00     0.191 C 
BRANCH  37  38
ATOM     38  O   UNL     1      19.660  -3.286  16.810  1.00  0.00    -0.394 OA
ATOM     39  H   UNL     1      18.694  -3.427  16.989  1.00  0.00     0.210 HD
ENDBRANCH  37  38
ENDBRANCH  31  37
BRANCH  32  40
ATOM     40  O   UNL     1      21.117  -1.057  17.814  1.00  0.00    -0.387 OA
ATOM     41  H   UNL     1      22.100  -1.044  17.953  1.00  0.00     0.211 HD
ENDBRANCH  32  40
ENDBRANCH   1  27
TORSDOF 12
ENDMDL
MODEL 8
REMARK VINA RESULT:    -3.911      2.515      6.875
REMARK INTER + INTRA:          -7.181
REMARK INTER:                  -5.794
REMARK INTRA:                  -1.387
REMARK UNBOUND:                -1.441
REMARK SMILES O=c1c(O[C@@H]2O[C@H](CO)[C@@H](O)[C@@H](O)[C@@H]2O)c(-c2ccc(O)c(O)c2)oc2cc(O)cc(O)c12
REMARK SMILES IDX 4 1 3 2 16 3 25 4 2 5 26 6 1 7 33 8 27 9 31 10 28 11 30 12
REMARK SMILES IDX 17 13 18 14 19 15 20 16 24 17 22 18 21 19 23 21 32 23 29 25
REMARK SMILES IDX 5 27 14 28 6 29 12 30 7 31 10 32 15 33 13 35 8 37 9 38 11 40
REMARK H PARENT 21 20 23 22 32 24 29 26 15 34 13 36 9 39 11 41
REMARK Flexibility Score: inf
ROOT
ATOM      1  O   UNL     1      20.084  -1.918  13.995  1.00  0.00    -0.454 OA
ENDROOT
BRANCH   1   2
ATOM      2  C   UNL     1      20.363  -1.818  15.373  1.00  0.00     0.214 A 
ATOM      3  C   UNL     1      20.481  -0.526  15.928  1.00  0.00     0.180 A 
ATOM      4  O   UNL     1      20.808  -0.374  17.206  1.00  0.00    -0.452 OA
ATOM      5  C   UNL     1      20.572  -2.931  16.221  1.00  0.00     0.239 A 
ATOM      6  C   UNL     1      21.019  -1.388  18.031  1.00  0.00     0.146 A 
ATOM      7  O   UNL     1      20.469  -4.102  15.771  1.00  0.00    -0.285 OA
ATOM      8  C   UNL     1      20.907  -2.722  17.576  1.00  0.00     0.111 A 
ATOM      9  C   UNL     1      21.355  -1.122  19.362  1.00  0.00     0.094 A 
ATOM     10  C   UNL     1      21.137  -3.781  18.488  1.00  0.00     0.134 A 
ATOM     11  C   UNL     1      21.581  -2.172  20.257  1.00  0.00     0.123 A 
ATOM     12  C   UNL     1      21.473  -3.493  19.820  1.00  0.00     0.093 A 
BRANCH   3  13
ATOM     13  C   UNL     1      20.283   0.691  15.110  1.00  0.00     0.025 A 
ATOM     14  C   UNL     1      21.374   1.406  14.587  1.00  0.00     0.016 A 
ATOM     15  C   UNL     1      21.163   2.553  13.817  1.00  0.00     0.051 A 
ATOM     16  C   UNL     1      19.865   2.992  13.544  1.00  0.00     0.157 A 
ATOM     17  C   UNL     1      18.980   1.123  14.819  1.00  0.00     0.062 A 
ATOM     18  C   UNL     1      18.767   2.273  14.044  1.00  0.00     0.158 A 
BRANCH  16  19
ATOM     19  O   UNL     1      19.686   4.140  12.773  1.00  0.00    -0.504 OA
ATOM     20  H   UNL     1      20.287   4.360  11.988  1.00  0.00     0.293 HD
ENDBRANCH  16  19
BRANCH  18  21
ATOM     21  O   UNL     1      17.468   2.701  13.770  1.00  0.00    -0.504 OA
ATOM     22  H   UNL     1      16.911   2.274  13.039  1.00  0.00     0.293 HD
ENDBRANCH  18  21
ENDBRANCH   3  13
BRANCH  10  23
ATOM     23  O   UNL     1      21.038  -5.113  18.085  1.00  0.00    -0.507 OA
ATOM     24  H   UNL     1      21.349  -5.417  17.169  1.00  0.00     0.293 HD
ENDBRANCH  10  23
BRANCH  11  25
ATOM     25  O   UNL     1      21.916  -1.913  21.585  1.00  0.00    -0.508 OA
ATOM     26  H   UNL     1      21.602  -1.073  22.056  1.00  0.00     0.293 HD
ENDBRANCH  11  25
ENDBRANCH   1   2
BRANCH   1  27
ATOM     27  C   UNL     1      20.955  -1.607  12.903  1.00  0.00     0.339 C 
ATOM     28  C   UNL     1      21.489  -2.903  12.242  1.00  0.00     0.214 C 
ATOM     29  O   UNL     1      20.312  -0.764  11.958  1.00  0.00    -0.332 OA
ATOM     30  C   UNL     1      20.538  -3.449  11.146  1.00  0.00     0.180 C 
ATOM     31  C   UNL     1      19.153  -1.337  11.350  1.00  0.00     0.179 C 
ATOM     32  C   UNL     1      19.120  -2.895  11.342  1.00  0.00     0.177 C 
BRANCH  28  33
ATOM     33  O   UNL     1      21.700  -3.876  13.234  1.00  0.00    -0.384 OA
ATOM     34  H   UNL     1      20.865  -3.929  13.769  1.00  0.00     0.211 HD
ENDBRANCH  28  33
BRANCH  30  35
ATOM     35  O   UNL     1      21.016  -3.085   9.875  1.00  0.00    -0.387 OA
ATOM     36  H   UNL     1      21.417  -2.181   9.967  1.00  0.00     0.211 HD
ENDBRANCH  30  35
BRANCH  31  37
ATOM     37  C   UNL     1      17.877  -0.740  11.970  1.00  0.00     0.191 C 
BRANCH  37  38
ATOM     38  O   UNL     1      16.742  -1.121  11.240  1.00  0.00    -0.394 OA
ATOM     39  H   UNL     1      16.470  -0.331  10.704  1.00  0.00     0.210 HD
ENDBRANCH  37  38
ENDBRANCH  31  37
BRANCH  32  40
ATOM     40  O   UNL     1      18.239  -3.392  10.363  1.00  0.00    -0.387 OA
ATOM     41  H   UNL     1      17.309  -3.233  10.671  1.00  0.00     0.211 HD
ENDBRANCH  32  40
ENDBRANCH   1  27
TORSDOF 12
ENDMDL
