MODEL 1
REMARK VINA RESULT:    -1.686      0.000      0.000
REMARK INTER + INTRA:          -2.688
REMARK INTER:                  -2.277
REMARK INTRA:                  -0.411
REMARK UNBOUND:                -0.411
REMARK SMILES CCCCCCC=CC(=O)[O-]
REMARK SMILES IDX 5 1 6 2 7 3 8 4 9 5 10 6 11 7 4 8 3 9 2 10 1 11
REMARK H PARENT
REMARK Flexibility Score: inf
ROOT
ATOM      1  C   UNL     1     138.049 127.288 129.770  1.00  0.00     0.004 C 
ENDROOT
BRANCH   1   2
ATOM      2  C   UNL     1     136.617 127.263 129.212  1.00  0.00     0.027 C 
BRANCH   2   3
ATOM      3  C   UNL     1     135.618 127.685 130.256  1.00  0.00    -0.025 C 
ATOM      4  C   UNL     1     134.479 128.360 130.028  1.00  0.00     0.020 C 
BRANCH   4   5
ATOM      5  C   UNL     1     133.959 128.799 128.716  1.00  0.00     0.064 C 
ATOM      6  O   UNL     1     134.288 129.900 128.200  1.00  0.00    -0.545 OA
ATOM      7  O   UNL     1     133.093 127.963 128.024  1.00  0.00    -0.545 OA
ENDBRANCH   4   5
ENDBRANCH   2   3
ENDBRANCH   1   2
BRANCH   1   8
ATOM      8  C   UNL     1     138.095 127.663 131.259  1.00  0.00     0.000 C 
BRANCH   8   9
ATOM      9  C   UNL     1     139.431 128.309 131.665  1.00  0.00    -0.000 C 
BRANCH   9  10
ATOM     10  C   UNL     1     140.413 128.416 130.488  1.00  0.00    -0.003 C 
ATOM     11  C   UNL     1     141.848 128.069 130.884  1.00  0.00     0.004 C 
ENDBRANCH   9  10
ENDBRANCH   8   9
ENDBRANCH   1   8
TORSDOF 6
ENDMDL
MODEL 2
REMARK VINA RESULT:    -1.619      1.095      1.568
REMARK INTER + INTRA:          -2.598
REMARK INTER:                  -2.623
REMARK INTRA:                   0.025
REMARK UNBOUND:                -0.411
REMARK SMILES CCCCCCC=CC(=O)[O-]
REMARK SMILES IDX 5 1 6 2 7 3 8 4 9 5 10 6 11 7 4 8 3 9 2 10 1 11
REMARK H PARENT
REMARK Flexibility Score: inf
ROOT
ATOM      1  C   UNL     1     137.297 127.924 131.583  1.00  0.00     0.004 C 
ENDROOT
BRANCH   1   2
ATOM      2  C   UNL     1     136.617 126.808 130.773  1.00  0.00     0.027 C 
BRANCH   2   3
ATOM      3  C   UNL     1     136.713 127.072 129.294  1.00  0.00    -0.025 C 
ATOM      4  C   UNL     1     135.884 127.850 128.578  1.00  0.00     0.020 C 
BRANCH   4   5
ATOM      5  C   UNL     1     134.733 128.623 129.091  1.00  0.00     0.064 C 
ATOM      6  O   UNL     1     134.211 128.382 130.211  1.00  0.00    -0.545 OA
ATOM      7  O   UNL     1     134.223 129.658 128.318  1.00  0.00    -0.545 OA
ENDBRANCH   4   5
ENDBRANCH   2   3
ENDBRANCH   1   2
BRANCH   1   8
ATOM      8  C   UNL     1     138.823 127.761 131.644  1.00  0.00     0.000 C 
BRANCH   8   9
ATOM      9  C   UNL     1     139.566 128.871 130.881  1.00  0.00    -0.000 C 
BRANCH   9  10
ATOM     10  C   UNL     1     140.737 128.328 130.047  1.00  0.00    -0.003 C 
ATOM     11  C   UNL     1     141.994 128.087 130.882  1.00  0.00     0.004 C 
ENDBRANCH   9  10
ENDBRANCH   8   9
ENDBRANCH   1   8
TORSDOF 6
ENDMDL
MODEL 3
REMARK VINA RESULT:    -1.616      3.032      5.571
REMARK INTER + INTRA:          -2.595
REMARK INTER:                  -2.691
REMARK INTRA:                   0.096
REMARK UNBOUND:                -0.411
REMARK SMILES CCCCCCC=CC(=O)[O-]
REMARK SMILES IDX 5 1 6 2 7 3 8 4 9 5 10 6 11 7 4 8 3 9 2 10 1 11
REMARK H PARENT
REMARK Flexibility Score: inf
ROOT
ATOM      1  C   UNL     1     137.148 127.010 131.268  1.00  0.00     0.004 C 
ENDROOT
BRANCH   1   2
ATOM      2  C   UNL     1     137.925 128.298 131.583  1.00  0.00     0.027 C 
BRANCH   2   3
ATOM      3  C   UNL     1     139.272 127.990 132.180  1.00  0.00    -0.025 C 
ATOM      4  C   UNL     1     140.448 128.025 131.531  1.00  0.00     0.020 C 
BRANCH   4   5
ATOM      5  C   UNL     1     140.666 128.397 130.118  1.00  0.00     0.064 C 
ATOM      6  O   UNL     1     139.731 128.806 129.381  1.00  0.00    -0.545 OA
ATOM      7  O   UNL     1     141.948 128.309 129.592  1.00  0.00    -0.545 OA
ENDBRANCH   4   5
ENDBRANCH   2   3
ENDBRANCH   1   2
BRANCH   1   8
ATOM      8  C   UNL     1     137.263 126.598 129.792  1.00  0.00     0.000 C 
BRANCH   8   9
ATOM      9  C   UNL     1     136.226 127.303 128.901  1.00  0.00    -0.000 C 
BRANCH   9  10
ATOM     10  C   UNL     1     135.067 127.906 129.710  1.00  0.00    -0.003 C 
ATOM     11  C   UNL     1     134.272 128.944 128.919  1.00  0.00     0.004 C 
ENDBRANCH   9  10
ENDBRANCH   8   9
ENDBRANCH   1   8
TORSDOF 6
ENDMDL
MODEL 4
REMARK VINA RESULT:    -1.585      3.410      5.805
REMARK INTER + INTRA:          -2.552
REMARK INTER:                  -2.350
REMARK INTRA:                  -0.202
REMARK UNBOUND:                -0.411
REMARK SMILES CCCCCCC=CC(=O)[O-]
REMARK SMILES IDX 5 1 6 2 7 3 8 4 9 5 10 6 11 7 4 8 3 9 2 10 1 11
REMARK H PARENT
REMARK Flexibility Score: inf
ROOT
ATOM      1  C   UNL     1     137.911 127.460 129.339  1.00  0.00     0.004 C 
ENDROOT
BRANCH   1   2
ATOM      2  C   UNL     1     138.261 126.974 130.754  1.00  0.00     0.027 C 
BRANCH   2   3
ATOM      3  C   UNL     1     138.731 128.112 131.621  1.00  0.00    -0.025 C 
ATOM      4  C   UNL     1     139.949 128.677 131.588  1.00  0.00     0.020 C 
BRANCH   4   5
ATOM      5  C   UNL     1     141.063 128.322 130.683  1.00  0.00     0.064 C 
ATOM      6  O   UNL     1     140.999 128.504 129.439  1.00  0.00    -0.545 OA
ATOM      7  O   UNL     1     142.224 127.787 131.227  1.00  0.00    -0.545 OA
ENDBRANCH   4   5
ENDBRANCH   2   3
ENDBRANCH   1   2
BRANCH   1   8
ATOM      8  C   UNL     1     136.417 127.303 129.016  1.00  0.00     0.000 C 
BRANCH   8   9
ATOM      9  C   UNL     1     135.529 127.391 130.269  1.00  0.00    -0.000 C 
BRANCH   9  10
ATOM     10  C   UNL     1     134.427 128.453 130.136  1.00  0.00    -0.003 C 
ATOM     11  C   UNL     1     134.308 129.005 128.715  1.00  0.00     0.004 C 
ENDBRANCH   9  10
ENDBRANCH   8   9
ENDBRANCH   1   8
TORSDOF 6
ENDMDL
MODEL 5
REMARK VINA RESULT:    -1.565      3.287      5.782
REMARK INTER + INTRA:          -2.525
REMARK INTER:                  -2.216
REMARK INTRA:                  -0.309
REMARK UNBOUND:                -0.411
REMARK SMILES CCCCCCC=CC(=O)[O-]
REMARK SMILES IDX 5 1 6 2 7 3 8 4 9 5 10 6 11 7 4 8 3 9 2 10 1 11
REMARK H PARENT
REMARK Flexibility Score: inf
ROOT
ATOM      1  C   UNL     1     136.624 127.039 129.431  1.00  0.00     0.004 C 
ENDROOT
BRANCH   1   2
ATOM      2  C   UNL     1     138.121 127.109 129.771  1.00  0.00     0.027 C 
BRANCH   2   3
ATOM      3  C   UNL     1     138.346 127.763 131.109  1.00  0.00    -0.025 C 
ATOM      4  C   UNL     1     139.508 128.272 131.551  1.00  0.00     0.020 C 
BRANCH   4   5
ATOM      5  C   UNL     1     140.789 128.323 130.814  1.00  0.00     0.064 C 
ATOM      6  O   UNL     1     141.852 127.840 131.285  1.00  0.00    -0.545 OA
ATOM      7  O   UNL     1     140.814 128.907 129.554  1.00  0.00    -0.545 OA
ENDBRANCH   4   5
ENDBRANCH   2   3
ENDBRANCH   1   2
BRANCH   1   8
ATOM      8  C   UNL     1     135.731 127.396 130.629  1.00  0.00     0.000 C 
BRANCH   8   9
ATOM      9  C   UNL     1     134.677 128.462 130.282  1.00  0.00    -0.000 C 
BRANCH   9  10
ATOM     10  C   UNL     1     134.343 128.492 128.783  1.00  0.00    -0.003 C 
ATOM     11  C   UNL     1     133.999 129.895 128.283  1.00  0.00     0.004 C 
ENDBRANCH   9  10
ENDBRANCH   8   9
ENDBRANCH   1   8
TORSDOF 6
ENDMDL
MODEL 6
REMARK VINA RESULT:    -1.446      1.972      3.062
REMARK INTER + INTRA:          -2.364
REMARK INTER:                  -2.003
REMARK INTRA:                  -0.361
REMARK UNBOUND:                -0.411
REMARK SMILES CCCCCCC=CC(=O)[O-]
REMARK SMILES IDX 5 1 6 2 7 3 8 4 9 5 10 6 11 7 4 8 3 9 2 10 1 11
REMARK H PARENT
REMARK Flexibility Score: inf
ROOT
ATOM      1  C   UNL     1     140.069 128.300 130.064  1.00  0.00     0.004 C 
ENDROOT
BRANCH   1   2
ATOM      2  C   UNL     1     138.848 128.842 130.824  1.00  0.00     0.027 C 
BRANCH   2   3
ATOM      3  C   UNL     1     138.094 127.731 131.507  1.00  0.00    -0.025 C 
ATOM      4  C   UNL     1     136.963 127.158 131.063  1.00  0.00     0.020 C 
BRANCH   4   5
ATOM      5  C   UNL     1     136.246 127.473 129.809  1.00  0.00     0.064 C 
ATOM      6  O   UNL     1     136.678 127.114 128.682  1.00  0.00    -0.545 OA
ATOM      7  O   UNL     1     135.048 128.172 129.880  1.00  0.00    -0.545 OA
ENDBRANCH   4   5
ENDBRANCH   2   3
ENDBRANCH   1   2
BRANCH   1   8
ATOM      8  C   UNL     1     141.284 128.083 130.980  1.00  0.00     0.000 C 
BRANCH   8   9
ATOM      9  C   UNL     1     142.614 128.096 130.208  1.00  0.00    -0.000 C 
BRANCH   9  10
ATOM     10  C   UNL     1     142.430 128.452 128.724  1.00  0.00    -0.003 C 
ATOM     11  C   UNL     1     143.743 128.425 127.943  1.00  0.00     0.004 C 
ENDBRANCH   9  10
ENDBRANCH   8   9
ENDBRANCH   1   8
TORSDOF 6
ENDMDL
MODEL 7
REMARK VINA RESULT:    -0.876      1.646      2.371
REMARK INTER + INTRA:          -1.594
REMARK INTER:                  -1.307
REMARK INTRA:                  -0.288
REMARK UNBOUND:                -0.411
REMARK SMILES CCCCCCC=CC(=O)[O-]
REMARK SMILES IDX 5 1 6 2 7 3 8 4 9 5 10 6 11 7 4 8 3 9 2 10 1 11
REMARK H PARENT
REMARK Flexibility Score: inf
ROOT
ATOM      1  C   UNL     1     138.402 128.411 132.141  1.00  0.00     0.004 C 
ENDROOT
BRANCH   1   2
ATOM      2  C   UNL     1     137.064 127.838 131.647  1.00  0.00     0.027 C 
BRANCH   2   3
ATOM      3  C   UNL     1     137.280 126.693 130.695  1.00  0.00    -0.025 C 
ATOM      4  C   UNL     1     136.973 126.688 129.387  1.00  0.00     0.020 C 
BRANCH   4   5
ATOM      5  C   UNL     1     136.391 127.804 128.611  1.00  0.00     0.064 C 
ATOM      6  O   UNL     1     135.215 128.211 128.803  1.00  0.00    -0.545 OA
ATOM      7  O   UNL     1     137.174 128.433 127.652  1.00  0.00    -0.545 OA
ENDBRANCH   4   5
ENDBRANCH   2   3
ENDBRANCH   1   2
BRANCH   1   8
ATOM      8  C   UNL     1     139.608 127.810 131.402  1.00  0.00     0.000 C 
BRANCH   8   9
ATOM      9  C   UNL     1     140.058 128.671 130.209  1.00  0.00    -0.000 C 
BRANCH   9  10
ATOM     10  C   UNL     1     141.493 128.352 129.762  1.00  0.00    -0.003 C 
ATOM     11  C   UNL     1     142.429 128.074 130.938  1.00  0.00     0.004 C 
ENDBRANCH   9  10
ENDBRANCH   8   9
ENDBRANCH   1   8
TORSDOF 6
ENDMDL
MODEL 8
REMARK VINA RESULT:     0.051      3.768      5.215
REMARK INTER + INTRA:          -0.343
REMARK INTER:                  -0.011
REMARK INTRA:                  -0.332
REMARK UNBOUND:                -0.411
REMARK SMILES CCCCCCC=CC(=O)[O-]
REMARK SMILES IDX 5 1 6 2 7 3 8 4 9 5 10 6 11 7 4 8 3 9 2 10 1 11
REMARK H PARENT
REMARK Flexibility Score: inf
ROOT
ATOM      1  C   UNL     1     136.594 127.501 128.731  1.00  0.00     0.004 C 
ENDROOT
BRANCH   1   2
ATOM      2  C   UNL     1     137.505 126.778 129.736  1.00  0.00     0.027 C 
BRANCH   2   3
ATOM      3  C   UNL     1     137.640 127.563 131.013  1.00  0.00    -0.025 C 
ATOM      4  C   UNL     1     138.744 128.205 131.430  1.00  0.00     0.020 C 
BRANCH   4   5
ATOM      5  C   UNL     1     140.035 128.299 130.716  1.00  0.00     0.064 C 
ATOM      6  O   UNL     1     140.117 128.729 129.535  1.00  0.00    -0.545 OA
ATOM      7  O   UNL     1     141.195 127.917 131.375  1.00  0.00    -0.545 OA
ENDBRANCH   4   5
ENDBRANCH   2   3
ENDBRANCH   1   2
BRANCH   1   8
ATOM      8  C   UNL     1     137.355 127.985 127.488  1.00  0.00     0.000 C 
BRANCH   8   9
ATOM      9  C   UNL     1     137.557 129.510 127.476  1.00  0.00    -0.000 C 
BRANCH   9  10
ATOM     10  C   UNL     1     137.661 130.078 126.052  1.00  0.00    -0.003 C 
ATOM     11  C   UNL     1     138.334 129.112 125.078  1.00  0.00     0.004 C 
ENDBRANCH   9  10
ENDBRANCH   8   9
ENDBRANCH   1   8
TORSDOF 6
ENDMDL
MODEL 9
REMARK VINA RESULT:     0.379      3.110      6.466
REMARK INTER + INTRA:           0.100
REMARK INTER:                   0.184
REMARK INTRA:                  -0.084
REMARK UNBOUND:                -0.411
REMARK SMILES CCCCCCC=CC(=O)[O-]
REMARK SMILES IDX 5 1 6 2 7 3 8 4 9 5 10 6 11 7 4 8 3 9 2 10 1 11
REMARK H PARENT
REMARK Flexibility Score: inf
ROOT
ATOM      1  C   UNL     1     134.348 128.799 129.031  1.00  0.00     0.004 C 
ENDROOT
BRANCH   1   2
ATOM      2  C   UNL     1     135.764 128.261 128.769  1.00  0.00     0.027 C 
BRANCH   2   3
ATOM      3  C   UNL     1     136.036 127.022 129.579  1.00  0.00    -0.025 C 
ATOM      4  C   UNL     1     137.142 126.781 130.303  1.00  0.00     0.020 C 
BRANCH   4   5
ATOM      5  C   UNL     1     138.299 127.685 130.476  1.00  0.00     0.064 C 
ATOM      6  O   UNL     1     138.959 128.123 129.498  1.00  0.00    -0.545 OA
ATOM      7  O   UNL     1     138.657 128.076 131.760  1.00  0.00    -0.545 OA
ENDBRANCH   4   5
ENDBRANCH   2   3
ENDBRANCH   1   2
BRANCH   1   8
ATOM      8  C   UNL     1     133.949 129.912 128.050  1.00  0.00     0.000 C 
BRANCH   8   9
ATOM      9  C   UNL     1     132.754 129.519 127.165  1.00  0.00    -0.000 C 
BRANCH   9  10
ATOM     10  C   UNL     1     132.404 130.604 126.135  1.00  0.00    -0.003 C 
ATOM     11  C   UNL     1     131.221 130.216 125.248  1.00  0.00     0.004 C 
ENDBRANCH   9  10
ENDBRANCH   8   9
ENDBRANCH   1   8
TORSDOF 6
ENDMDL
