MODEL 1
REMARK VINA RESULT:    14.675      0.000      0.000
REMARK INTER + INTRA:          28.005
REMARK INTER:                  27.543
REMARK INTRA:                   0.462
REMARK UNBOUND:                 0.462
REMARK SMILES O=C([O-])CCCCCCCCCCCCCCC(=O)[O-]
REMARK SMILES IDX 10 1 9 2 8 3 7 4 6 5 5 6 4 7 2 8 1 9 3 10 11 11 12 12 13 13
REMARK SMILES IDX 14 14 15 15 16 16 17 17 18 18 19 19 20 20
REMARK H PARENT
REMARK Flexibility Score: inf
ROOT
ATOM      1  C   UNL     1     -17.438  15.162  16.767  1.00  0.00     0.000 C 
ENDROOT
BRANCH   1   2
ATOM      2  C   UNL     1     -18.003  14.217  17.840  1.00  0.00     0.000 C 
BRANCH   2   3
ATOM      3  C   UNL     1     -19.080  14.890  18.709  1.00  0.00     0.000 C 
BRANCH   3   4
ATOM      4  C   UNL     1     -19.082  16.425  18.582  1.00  0.00     0.000 C 
BRANCH   4   5
ATOM      5  C   UNL     1     -19.121  17.194  19.916  1.00  0.00     0.000 C 
BRANCH   5   6
ATOM      6  C   UNL     1     -17.966  18.199  20.063  1.00  0.00     0.006 C 
BRANCH   6   7
ATOM      7  C   UNL     1     -18.469  19.637  20.238  1.00  0.00     0.053 C 
BRANCH   7   8
ATOM      8  C   UNL     1     -18.451  20.062  21.675  1.00  0.00     0.041 C 
ATOM      9  O   UNL     1     -19.073  21.093  22.039  1.00  0.00    -0.550 OA
ATOM     10  O   UNL     1     -17.723  19.330  22.606  1.00  0.00    -0.550 OA
ENDBRANCH   7   8
ENDBRANCH   6   7
ENDBRANCH   5   6
ENDBRANCH   4   5
ENDBRANCH   3   4
ENDBRANCH   2   3
ENDBRANCH   1   2
BRANCH   1  11
ATOM     11  C   UNL     1     -18.519  16.038  16.117  1.00  0.00     0.000 C 
BRANCH  11  12
ATOM     12  C   UNL     1     -18.865  15.529  14.709  1.00  0.00     0.000 C 
BRANCH  12  13
ATOM     13  C   UNL     1     -19.073  16.671  13.702  1.00  0.00     0.000 C 
BRANCH  13  14
ATOM     14  C   UNL     1     -18.527  18.016  14.212  1.00  0.00     0.000 C 
BRANCH  14  15
ATOM     15  C   UNL     1     -17.108  18.309  13.701  1.00  0.00     0.000 C 
BRANCH  15  16
ATOM     16  C   UNL     1     -16.798  17.594  12.374  1.00  0.00     0.006 C 
BRANCH  16  17
ATOM     17  C   UNL     1     -17.688  18.091  11.227  1.00  0.00     0.053 C 
BRANCH  17  18
ATOM     18  C   UNL     1     -17.752  17.098  10.107  1.00  0.00     0.041 C 
ATOM     19  O   UNL     1     -17.450  15.893  10.310  1.00  0.00    -0.550 OA
ATOM     20  O   UNL     1     -18.178  17.498   8.847  1.00  0.00    -0.550 OA
ENDBRANCH  17  18
ENDBRANCH  16  17
ENDBRANCH  15  16
ENDBRANCH  14  15
ENDBRANCH  13  14
ENDBRANCH  12  13
ENDBRANCH  11  12
ENDBRANCH   1  11
TORSDOF 15
ENDMDL
MODEL 2
REMARK VINA RESULT:    15.214      1.893      2.821
REMARK INTER + INTRA:          29.017
REMARK INTER:                  28.918
REMARK INTRA:                   0.100
REMARK UNBOUND:                 0.462
REMARK SMILES O=C([O-])CCCCCCCCCCCCCCC(=O)[O-]
REMARK SMILES IDX 10 1 9 2 8 3 7 4 6 5 5 6 4 7 2 8 1 9 3 10 11 11 12 12 13 13
REMARK SMILES IDX 14 14 15 15 16 16 17 17 18 18 19 19 20 20
REMARK H PARENT
REMARK Flexibility Score: inf
ROOT
ATOM      1  C   UNL     1     -18.035  18.314  15.656  1.00  0.00     0.000 C 
ENDROOT
BRANCH   1   2
ATOM      2  C   UNL     1     -18.770  18.474  16.997  1.00  0.00     0.000 C 
BRANCH   2   3
ATOM      3  C   UNL     1     -18.164  17.600  18.109  1.00  0.00     0.000 C 
BRANCH   3   4
ATOM      4  C   UNL     1     -19.063  17.509  19.357  1.00  0.00     0.000 C 
BRANCH   4   5
ATOM      5  C   UNL     1     -19.124  18.786  20.215  1.00  0.00     0.000 C 
BRANCH   5   6
ATOM      6  C   UNL     1     -18.635  18.563  21.657  1.00  0.00     0.006 C 
BRANCH   6   7
ATOM      7  C   UNL     1     -18.673  19.853  22.487  1.00  0.00     0.053 C 
BRANCH   7   8
ATOM      8  C   UNL     1     -18.255  21.045  21.681  1.00  0.00     0.041 C 
ATOM      9  O   UNL     1     -19.093  21.655  20.968  1.00  0.00    -0.550 OA
ATOM     10  O   UNL     1     -16.930  21.464  21.698  1.00  0.00    -0.550 OA
ENDBRANCH   7   8
ENDBRANCH   6   7
ENDBRANCH   5   6
ENDBRANCH   4   5
ENDBRANCH   3   4
ENDBRANCH   2   3
ENDBRANCH   1   2
BRANCH   1  11
ATOM     11  C   UNL     1     -18.995  18.142  14.469  1.00  0.00     0.000 C 
BRANCH  11  12
ATOM     12  C   UNL     1     -18.916  16.716  13.902  1.00  0.00     0.000 C 
BRANCH  12  13
ATOM     13  C   UNL     1     -19.089  16.677  12.375  1.00  0.00     0.000 C 
BRANCH  13  14
ATOM     14  C   UNL     1     -17.761  16.882  11.624  1.00  0.00     0.000 C 
BRANCH  14  15
ATOM     15  C   UNL     1     -17.952  16.969  10.102  1.00  0.00     0.000 C 
BRANCH  15  16
ATOM     16  C   UNL     1     -16.679  16.594   9.324  1.00  0.00     0.006 C 
BRANCH  16  17
ATOM     17  C   UNL     1     -16.115  15.235   9.757  1.00  0.00     0.053 C 
BRANCH  17  18
ATOM     18  C   UNL     1     -16.928  14.100   9.216  1.00  0.00     0.041 C 
ATOM     19  O   UNL     1     -18.157  14.252   8.989  1.00  0.00    -0.550 OA
ATOM     20  O   UNL     1     -16.320  12.884   8.930  1.00  0.00    -0.550 OA
ENDBRANCH  17  18
ENDBRANCH  16  17
ENDBRANCH  15  16
ENDBRANCH  14  15
ENDBRANCH  13  14
ENDBRANCH  12  13
ENDBRANCH  11  12
ENDBRANCH   1  11
TORSDOF 15
ENDMDL
MODEL 3
REMARK VINA RESULT:    16.543      1.930      2.573
REMARK INTER + INTRA:          31.512
REMARK INTER:                  30.849
REMARK INTRA:                   0.664
REMARK UNBOUND:                 0.462
REMARK SMILES O=C([O-])CCCCCCCCCCCCCCC(=O)[O-]
REMARK SMILES IDX 10 1 9 2 8 3 7 4 6 5 5 6 4 7 2 8 1 9 3 10 11 11 12 12 13 13
REMARK SMILES IDX 14 14 15 15 16 16 17 17 18 18 19 19 20 20
REMARK H PARENT
REMARK Flexibility Score: inf
ROOT
ATOM      1  C   UNL     1     -17.472  17.532  15.672  1.00  0.00     0.000 C 
ENDROOT
BRANCH   1   2
ATOM      2  C   UNL     1     -18.498  17.712  16.802  1.00  0.00     0.000 C 
BRANCH   2   3
ATOM      3  C   UNL     1     -17.890  17.473  18.195  1.00  0.00     0.000 C 
BRANCH   3   4
ATOM      4  C   UNL     1     -18.952  17.192  19.274  1.00  0.00     0.000 C 
BRANCH   4   5
ATOM      5  C   UNL     1     -19.124  18.300  20.329  1.00  0.00     0.000 C 
BRANCH   5   6
ATOM      6  C   UNL     1     -18.057  18.245  21.436  1.00  0.00     0.006 C 
BRANCH   6   7
ATOM      7  C   UNL     1     -17.836  19.612  22.095  1.00  0.00     0.053 C 
BRANCH   7   8
ATOM      8  C   UNL     1     -18.656  20.683  21.443  1.00  0.00     0.041 C 
ATOM      9  O   UNL     1     -19.120  21.632  22.127  1.00  0.00    -0.550 OA
ATOM     10  O   UNL     1     -18.929  20.617  20.082  1.00  0.00    -0.550 OA
ENDBRANCH   7   8
ENDBRANCH   6   7
ENDBRANCH   5   6
ENDBRANCH   4   5
ENDBRANCH   3   4
ENDBRANCH   2   3
ENDBRANCH   1   2
BRANCH   1  11
ATOM     11  C   UNL     1     -18.098  17.664  14.275  1.00  0.00     0.000 C 
BRANCH  11  12
ATOM     12  C   UNL     1     -18.780  16.353  13.853  1.00  0.00     0.000 C 
BRANCH  12  13
ATOM     13  C   UNL     1     -19.125  16.321  12.356  1.00  0.00     0.000 C 
BRANCH  13  14
ATOM     14  C   UNL     1     -18.394  17.414  11.557  1.00  0.00     0.000 C 
BRANCH  14  15
ATOM     15  C   UNL     1     -17.291  16.845  10.652  1.00  0.00     0.000 C 
BRANCH  15  16
ATOM     16  C   UNL     1     -17.676  16.872   9.162  1.00  0.00     0.006 C 
BRANCH  16  17
ATOM     17  C   UNL     1     -18.374  18.179   8.767  1.00  0.00     0.053 C 
BRANCH  17  18
ATOM     18  C   UNL     1     -17.981  18.622   7.391  1.00  0.00     0.041 C 
ATOM     19  O   UNL     1     -18.218  17.888   6.396  1.00  0.00    -0.550 OA
ATOM     20  O   UNL     1     -17.382  19.862   7.205  1.00  0.00    -0.550 OA
ENDBRANCH  17  18
ENDBRANCH  16  17
ENDBRANCH  15  16
ENDBRANCH  14  15
ENDBRANCH  13  14
ENDBRANCH  12  13
ENDBRANCH  11  12
ENDBRANCH   1  11
TORSDOF 15
ENDMDL
