MODEL 1
REMARK VINA RESULT:    -3.107      0.000      0.000
REMARK INTER + INTRA:          -5.025
REMARK INTER:                  -4.742
REMARK INTRA:                  -0.282
REMARK UNBOUND:                -0.282
REMARK SMILES CC1=CCC[C@@H](C)C(=O)C[C@H](C(C)C)C(=O)C1
REMARK SMILES IDX 8 1 9 2 6 3 7 4 5 5 4 6 3 7 2 8 1 9 10 11 11 12 15 13 16 14
REMARK SMILES IDX 17 15 12 17 13 18 14 19
REMARK H PARENT
REMARK Flexibility Score: 70.00
ROOT
ATOM      1  C   UNL     1     100.953   6.160  75.946  1.00  0.00     0.136 C 
ATOM      2  O   UNL     1     101.276   4.982  75.970  1.00  0.00    -0.299 OA
ENDROOT
BRANCH   1   3
ATOM      3  C   UNL     1     101.931   7.177  76.516  1.00  0.00     0.053 C 
ATOM      4  C   UNL     1     103.234   7.311  75.709  1.00  0.00     0.016 C 
BRANCH   3   5
ATOM      5  C   UNL     1     102.163   6.967  78.028  1.00  0.00     0.015 C 
BRANCH   5   6
ATOM      6  C   UNL     1     100.980   7.373  78.929  1.00  0.00     0.028 C 
BRANCH   6   7
ATOM      7  C   UNL     1     100.570   8.796  78.642  1.00  0.00    -0.028 C 
ATOM      8  C   UNL     1      99.332   9.172  78.246  1.00  0.00    -0.070 CG0
ATOM      9  C   UNL     1      99.114  10.619  77.883  1.00  0.00     0.039 C 
ATOM     10  G   UNL     1      98.153   8.211  78.199  1.00  0.00     0.000 G0
ENDBRANCH   6   7
ENDBRANCH   5   6
ENDBRANCH   3   5
ENDBRANCH   1   3
BRANCH   1  11
ATOM     11  C   UNL     1      99.603   6.534  75.363  1.00  0.00     0.087 C 
BRANCH  11  12
ATOM     12  C   UNL     1      98.383   6.371  76.323  1.00  0.00     0.066 C 
BRANCH  12  13
ATOM     13  C   UNL     1      97.814   7.694  76.824  1.00  0.00     0.140 C 
ATOM     14  O   UNL     1      97.024   8.321  76.136  1.00  0.00    -0.299 OA
BRANCH  13  15
ATOM     15  C   UNL     1      98.148   8.197  78.210  1.00  0.00     0.106 CG0
ATOM     16  G   UNL     1      99.352   9.127  78.227  1.00  0.00     0.000 G0
ENDBRANCH  13  15
ENDBRANCH  12  13
BRANCH  12  17
ATOM     17  C   UNL     1      97.258   5.406  75.822  1.00  0.00    -0.006 C 
ATOM     18  C   UNL     1      97.521   4.780  74.445  1.00  0.00     0.008 C 
ATOM     19  C   UNL     1      96.961   4.299  76.849  1.00  0.00     0.008 C 
ENDBRANCH  12  17
ENDBRANCH  11  12
ENDBRANCH   1  11
TORSDOF 1
ENDMDL
MODEL 2
REMARK VINA RESULT:    -2.592      2.607      3.668
REMARK INTER + INTRA:          -4.239
REMARK INTER:                  -4.090
REMARK INTRA:                  -0.148
REMARK UNBOUND:                -0.282
REMARK SMILES CC1=CCC[C@@H](C)C(=O)C[C@H](C(C)C)C(=O)C1
REMARK SMILES IDX 8 1 9 2 6 3 7 4 5 5 4 6 3 7 2 8 1 9 10 11 11 12 15 13 16 14
REMARK SMILES IDX 17 15 12 17 13 18 14 19
REMARK H PARENT
REMARK Flexibility Score: 70.00
ROOT
ATOM      1  C   UNL     1     102.953   5.617  76.109  1.00  0.00     0.136 C 
ATOM      2  O   UNL     1     104.116   5.581  76.483  1.00  0.00    -0.299 OA
ENDROOT
BRANCH   1   3
ATOM      3  C   UNL     1     102.193   6.925  76.272  1.00  0.00     0.053 C 
ATOM      4  C   UNL     1     102.696   8.057  75.360  1.00  0.00     0.016 C 
BRANCH   3   5
ATOM      5  C   UNL     1     102.070   7.339  77.754  1.00  0.00     0.015 C 
BRANCH   5   6
ATOM      6  C   UNL     1     100.798   6.834  78.465  1.00  0.00     0.028 C 
BRANCH   6   7
ATOM      7  C   UNL     1      99.578   7.145  77.635  1.00  0.00    -0.028 C 
ATOM      8  C   UNL     1      98.819   6.215  77.010  1.00  0.00    -0.070 CG0
ATOM      9  C   UNL     1      97.702   6.697  76.119  1.00  0.00     0.039 C 
ATOM     10  G   UNL     1      99.017   4.720  77.206  1.00  0.00     0.000 G0
ENDBRANCH   6   7
ENDBRANCH   5   6
ENDBRANCH   3   5
ENDBRANCH   1   3
BRANCH   1  11
ATOM     11  C   UNL     1     102.339   4.361  75.520  1.00  0.00     0.087 C 
BRANCH  11  12
ATOM     12  C   UNL     1     101.284   3.639  76.414  1.00  0.00     0.066 C 
BRANCH  12  13
ATOM     13  C   UNL     1      99.846   4.055  76.127  1.00  0.00     0.140 C 
ATOM     14  O   UNL     1      99.337   3.800  75.046  1.00  0.00    -0.299 OA
BRANCH  13  15
ATOM     15  C   UNL     1      99.005   4.706  77.203  1.00  0.00     0.106 CG0
ATOM     16  G   UNL     1      98.842   6.204  77.001  1.00  0.00     0.000 G0
ENDBRANCH  13  15
ENDBRANCH  12  13
BRANCH  12  17
ATOM     17  C   UNL     1     101.432   2.084  76.507  1.00  0.00    -0.006 C 
ATOM     18  C   UNL     1     102.864   1.594  76.762  1.00  0.00     0.008 C 
ATOM     19  C   UNL     1     100.482   1.485  77.559  1.00  0.00     0.008 C 
ENDBRANCH  12  17
ENDBRANCH  11  12
ENDBRANCH   1  11
TORSDOF 1
ENDMDL
MODEL 3
REMARK VINA RESULT:    -2.565      2.702      4.508
REMARK INTER + INTRA:          -4.197
REMARK INTER:                  -4.198
REMARK INTRA:                   0.001
REMARK UNBOUND:                -0.282
REMARK SMILES CC1=CCC[C@@H](C)C(=O)C[C@H](C(C)C)C(=O)C1
REMARK SMILES IDX 8 1 9 2 6 3 7 4 5 5 4 6 3 7 2 8 1 9 10 11 11 12 15 13 16 14
REMARK SMILES IDX 17 15 12 17 13 18 14 19
REMARK H PARENT
REMARK Flexibility Score: 70.00
ROOT
ATOM      1  C   UNL     1     101.307   7.757  78.929  1.00  0.00     0.136 C 
ATOM      2  O   UNL     1     101.014   8.438  79.901  1.00  0.00    -0.299 OA
ENDROOT
BRANCH   1   3
ATOM      3  C   UNL     1     102.434   8.246  78.032  1.00  0.00     0.053 C 
ATOM      4  C   UNL     1     101.984   9.246  76.953  1.00  0.00     0.016 C 
BRANCH   3   5
ATOM      5  C   UNL     1     103.274   7.077  77.474  1.00  0.00     0.015 C 
BRANCH   5   6
ATOM      6  C   UNL     1     103.032   6.755  75.986  1.00  0.00     0.028 C 
BRANCH   6   7
ATOM      7  C   UNL     1     103.212   5.279  75.736  1.00  0.00    -0.028 C 
ATOM      8  C   UNL     1     102.198   4.409  75.517  1.00  0.00    -0.070 CG0
ATOM      9  C   UNL     1     102.535   2.944  75.403  1.00  0.00     0.039 C 
ATOM     10  G   UNL     1     100.754   4.853  75.336  1.00  0.00     0.000 G0
ENDBRANCH   6   7
ENDBRANCH   5   6
ENDBRANCH   3   5
ENDBRANCH   1   3
BRANCH   1  11
ATOM     11  C   UNL     1     100.527   6.481  78.673  1.00  0.00     0.087 C 
BRANCH  11  12
ATOM     12  C   UNL     1      99.851   6.371  77.270  1.00  0.00     0.066 C 
BRANCH  12  13
ATOM     13  C   UNL     1      99.985   4.994  76.629  1.00  0.00     0.140 C 
ATOM     14  O   UNL     1      99.430   4.028  77.128  1.00  0.00    -0.299 OA
BRANCH  13  15
ATOM     15  C   UNL     1     100.729   4.826  75.323  1.00  0.00     0.106 CG0
ATOM     16  G   UNL     1     102.179   4.409  75.518  1.00  0.00     0.000 G0
ENDBRANCH  13  15
ENDBRANCH  12  13
BRANCH  12  17
ATOM     17  C   UNL     1      98.385   6.911  77.186  1.00  0.00    -0.006 C 
ATOM     18  C   UNL     1      98.218   8.374  77.621  1.00  0.00     0.008 C 
ATOM     19  C   UNL     1      97.786   6.714  75.783  1.00  0.00     0.008 C 
ENDBRANCH  12  17
ENDBRANCH  11  12
ENDBRANCH   1  11
TORSDOF 1
ENDMDL
MODEL 4
REMARK VINA RESULT:    -2.554      2.283      4.367
REMARK INTER + INTRA:          -4.180
REMARK INTER:                  -4.090
REMARK INTRA:                  -0.090
REMARK UNBOUND:                -0.282
REMARK SMILES CC1=CCC[C@@H](C)C(=O)C[C@H](C(C)C)C(=O)C1
REMARK SMILES IDX 8 1 9 2 6 3 7 4 5 5 4 6 3 7 2 8 1 9 10 11 11 12 15 13 16 14
REMARK SMILES IDX 17 15 12 17 13 18 14 19
REMARK H PARENT
REMARK Flexibility Score: 70.00
ROOT
ATOM      1  C   UNL     1     100.194   7.974  78.756  1.00  0.00     0.136 C 
ATOM      2  O   UNL     1      99.033   8.355  78.715  1.00  0.00    -0.299 OA
ENDROOT
BRANCH   1   3
ATOM      3  C   UNL     1     101.233   8.923  79.335  1.00  0.00     0.053 C 
ATOM      4  C   UNL     1     101.002   9.275  80.814  1.00  0.00     0.016 C 
BRANCH   3   5
ATOM      5  C   UNL     1     101.449  10.159  78.435  1.00  0.00     0.015 C 
BRANCH   5   6
ATOM      6  C   UNL     1     101.836   9.841  76.977  1.00  0.00     0.028 C 
BRANCH   6   7
ATOM      7  C   UNL     1     103.245   9.305  76.917  1.00  0.00    -0.028 C 
ATOM      8  C   UNL     1     103.609   8.180  76.260  1.00  0.00    -0.070 CG0
ATOM      9  C   UNL     1     105.036   7.712  76.395  1.00  0.00     0.039 C 
ATOM     10  G   UNL     1     102.659   7.404  75.361  1.00  0.00     0.000 G0
ENDBRANCH   6   7
ENDBRANCH   5   6
ENDBRANCH   3   5
ENDBRANCH   1   3
BRANCH   1  11
ATOM     11  C   UNL     1     100.527   6.594  78.222  1.00  0.00     0.087 C 
BRANCH  11  12
ATOM     12  C   UNL     1     100.570   6.462  76.667  1.00  0.00     0.066 C 
BRANCH  12  13
ATOM     13  C   UNL     1     101.973   6.264  76.105  1.00  0.00     0.140 C 
ATOM     14  O   UNL     1     102.513   5.171  76.174  1.00  0.00    -0.299 OA
BRANCH  13  15
ATOM     15  C   UNL     1     102.674   7.390  75.377  1.00  0.00     0.106 CG0
ATOM     16  G   UNL     1     103.629   8.167  76.270  1.00  0.00     0.000 G0
ENDBRANCH  13  15
ENDBRANCH  12  13
BRANCH  12  17
ATOM     17  C   UNL     1      99.548   5.451  76.050  1.00  0.00    -0.006 C 
ATOM     18  C   UNL     1      98.076   5.764  76.357  1.00  0.00     0.008 C 
ATOM     19  C   UNL     1      99.742   5.303  74.530  1.00  0.00     0.008 C 
ENDBRANCH  12  17
ENDBRANCH  11  12
ENDBRANCH   1  11
TORSDOF 1
ENDMDL
MODEL 5
REMARK VINA RESULT:    -2.404      2.142      3.084
REMARK INTER + INTRA:          -3.952
REMARK INTER:                  -3.819
REMARK INTRA:                  -0.133
REMARK UNBOUND:                -0.282
REMARK SMILES CC1=CCC[C@@H](C)C(=O)C[C@H](C(C)C)C(=O)C1
REMARK SMILES IDX 8 1 9 2 6 3 7 4 5 5 4 6 3 7 2 8 1 9 10 11 11 12 15 13 16 14
REMARK SMILES IDX 17 15 12 17 13 18 14 19
REMARK H PARENT
REMARK Flexibility Score: 70.00
ROOT
ATOM      1  C   UNL     1     100.684   4.217  75.055  1.00  0.00     0.136 C 
ATOM      2  O   UNL     1      99.909   3.319  74.764  1.00  0.00    -0.299 OA
ENDROOT
BRANCH   1   3
ATOM      3  C   UNL     1     102.172   3.902  75.052  1.00  0.00     0.053 C 
ATOM      4  C   UNL     1     102.628   3.030  76.235  1.00  0.00     0.016 C 
BRANCH   3   5
ATOM      5  C   UNL     1     103.030   5.171  74.858  1.00  0.00     0.015 C 
BRANCH   5   6
ATOM      6  C   UNL     1     103.702   5.703  76.139  1.00  0.00     0.028 C 
BRANCH   6   7
ATOM      7  C   UNL     1     103.332   7.149  76.360  1.00  0.00    -0.028 C 
ATOM      8  C   UNL     1     102.307   7.567  77.139  1.00  0.00    -0.070 CG0
ATOM      9  C   UNL     1     101.992   9.042  77.161  1.00  0.00     0.039 C 
ATOM     10  G   UNL     1     101.502   6.625  78.020  1.00  0.00     0.000 G0
ENDBRANCH   6   7
ENDBRANCH   5   6
ENDBRANCH   3   5
ENDBRANCH   1   3
BRANCH   1  11
ATOM     11  C   UNL     1     100.118   5.580  75.409  1.00  0.00     0.087 C 
BRANCH  11  12
ATOM     12  C   UNL     1      99.381   5.672  76.781  1.00  0.00     0.066 C 
BRANCH  12  13
ATOM     13  C   UNL     1     100.006   6.669  77.750  1.00  0.00     0.140 C 
ATOM     14  O   UNL     1      99.300   7.457  78.360  1.00  0.00    -0.299 OA
BRANCH  13  15
ATOM     15  C   UNL     1     101.491   6.632  78.036  1.00  0.00     0.106 CG0
ATOM     16  G   UNL     1     102.289   7.565  77.138  1.00  0.00     0.000 G0
ENDBRANCH  13  15
ENDBRANCH  12  13
BRANCH  12  17
ATOM     17  C   UNL     1      97.827   5.836  76.700  1.00  0.00    -0.006 C 
ATOM     18  C   UNL     1      97.340   6.740  75.559  1.00  0.00     0.008 C 
ATOM     19  C   UNL     1      97.115   4.474  76.625  1.00  0.00     0.008 C 
ENDBRANCH  12  17
ENDBRANCH  11  12
ENDBRANCH   1  11
TORSDOF 1
ENDMDL
MODEL 6
REMARK VINA RESULT:    -2.379      3.841      5.500
REMARK INTER + INTRA:          -3.913
REMARK INTER:                  -4.162
REMARK INTRA:                   0.250
REMARK UNBOUND:                -0.282
REMARK SMILES CC1=CCC[C@@H](C)C(=O)C[C@H](C(C)C)C(=O)C1
REMARK SMILES IDX 8 1 9 2 6 3 7 4 5 5 4 6 3 7 2 8 1 9 10 11 11 12 15 13 16 14
REMARK SMILES IDX 17 15 12 17 13 18 14 19
REMARK H PARENT
REMARK Flexibility Score: 70.00
ROOT
ATOM      1  C   UNL     1      98.153   2.321  73.817  1.00  0.00     0.136 C 
ATOM      2  O   UNL     1      97.685   1.215  74.039  1.00  0.00    -0.299 OA
ENDROOT
BRANCH   1   3
ATOM      3  C   UNL     1      98.627   3.146  75.005  1.00  0.00     0.053 C 
ATOM      4  C   UNL     1      99.591   2.396  75.939  1.00  0.00     0.016 C 
BRANCH   3   5
ATOM      5  C   UNL     1      97.451   3.818  75.745  1.00  0.00     0.015 C 
BRANCH   5   6
ATOM      6  C   UNL     1      97.416   5.356  75.647  1.00  0.00     0.028 C 
BRANCH   6   7
ATOM      7  C   UNL     1      98.784   5.888  75.300  1.00  0.00    -0.028 C 
ATOM      8  C   UNL     1      99.149   6.320  74.070  1.00  0.00    -0.070 CG0
ATOM      9  C   UNL     1     100.590   6.709  73.855  1.00  0.00     0.039 C 
ATOM     10  G   UNL     1      98.162   6.472  72.922  1.00  0.00     0.000 G0
ENDBRANCH   6   7
ENDBRANCH   5   6
ENDBRANCH   3   5
ENDBRANCH   1   3
BRANCH   1  11
ATOM     11  C   UNL     1      98.222   2.807  72.381  1.00  0.00     0.087 C 
BRANCH  11  12
ATOM     12  C   UNL     1      97.403   4.097  72.062  1.00  0.00     0.066 C 
BRANCH  12  13
ATOM     13  C   UNL     1      98.261   5.346  71.902  1.00  0.00     0.140 C 
ATOM     14  O   UNL     1      98.973   5.480  70.918  1.00  0.00    -0.299 OA
BRANCH  13  15
ATOM     15  C   UNL     1      98.172   6.472  72.907  1.00  0.00     0.106 CG0
ATOM     16  G   UNL     1      99.152   6.314  74.060  1.00  0.00     0.000 G0
ENDBRANCH  13  15
ENDBRANCH  12  13
BRANCH  12  17
ATOM     17  C   UNL     1      96.354   3.960  70.910  1.00  0.00    -0.006 C 
ATOM     18  C   UNL     1      96.207   5.208  70.028  1.00  0.00     0.008 C 
ATOM     19  C   UNL     1      96.636   2.730  70.028  1.00  0.00     0.008 C 
ENDBRANCH  12  17
ENDBRANCH  11  12
ENDBRANCH   1  11
TORSDOF 1
ENDMDL
MODEL 7
REMARK VINA RESULT:    -2.364      2.430      4.708
REMARK INTER + INTRA:          -3.891
REMARK INTER:                  -3.647
REMARK INTRA:                  -0.244
REMARK UNBOUND:                -0.282
REMARK SMILES CC1=CCC[C@@H](C)C(=O)C[C@H](C(C)C)C(=O)C1
REMARK SMILES IDX 8 1 9 2 6 3 7 4 5 5 4 6 3 7 2 8 1 9 10 11 11 12 15 13 16 14
REMARK SMILES IDX 17 15 12 17 13 18 14 19
REMARK H PARENT
REMARK Flexibility Score: 70.00
ROOT
ATOM      1  C   UNL     1     102.890   7.161  76.581  1.00  0.00     0.136 C 
ATOM      2  O   UNL     1     103.154   8.338  76.387  1.00  0.00    -0.299 OA
ENDROOT
BRANCH   1   3
ATOM      3  C   UNL     1     103.268   6.159  75.500  1.00  0.00     0.053 C 
ATOM      4  C   UNL     1     104.782   6.048  75.253  1.00  0.00     0.016 C 
BRANCH   3   5
ATOM      5  C   UNL     1     102.448   6.370  74.208  1.00  0.00     0.015 C 
BRANCH   5   6
ATOM      6  C   UNL     1     100.943   6.064  74.338  1.00  0.00     0.028 C 
BRANCH   6   7
ATOM      7  C   UNL     1     100.731   4.600  74.631  1.00  0.00    -0.028 C 
ATOM      8  C   UNL     1     100.012   4.123  75.673  1.00  0.00    -0.070 CG0
ATOM      9  C   UNL     1      99.995   2.632  75.898  1.00  0.00     0.039 C 
ATOM     10  G   UNL     1      99.190   5.019  76.588  1.00  0.00     0.000 G0
ENDBRANCH   6   7
ENDBRANCH   5   6
ENDBRANCH   3   5
ENDBRANCH   1   3
BRANCH   1  11
ATOM     11  C   UNL     1     102.198   6.773  77.874  1.00  0.00     0.087 C 
BRANCH  11  12
ATOM     12  C   UNL     1     100.638   6.827  77.850  1.00  0.00     0.066 C 
BRANCH  12  13
ATOM     13  C   UNL     1      99.976   5.454  77.825  1.00  0.00     0.140 C 
ATOM     14  O   UNL     1     100.009   4.739  78.814  1.00  0.00    -0.299 OA
BRANCH  13  15
ATOM     15  C   UNL     1      99.195   5.001  76.611  1.00  0.00     0.106 CG0
ATOM     16  G   UNL     1     100.012   4.121  75.678  1.00  0.00     0.000 G0
ENDBRANCH  13  15
ENDBRANCH  12  13
BRANCH  12  17
ATOM     17  C   UNL     1      99.981   7.771  78.910  1.00  0.00    -0.006 C 
ATOM     18  C   UNL     1     100.957   8.734  79.599  1.00  0.00     0.008 C 
ATOM     19  C   UNL     1      98.803   8.562  78.314  1.00  0.00     0.008 C 
ENDBRANCH  12  17
ENDBRANCH  11  12
ENDBRANCH   1  11
TORSDOF 1
ENDMDL
MODEL 8
REMARK VINA RESULT:    -2.324      3.419      5.536
REMARK INTER + INTRA:          -3.829
REMARK INTER:                  -3.843
REMARK INTRA:                   0.013
REMARK UNBOUND:                -0.282
REMARK SMILES CC1=CCC[C@@H](C)C(=O)C[C@H](C(C)C)C(=O)C1
REMARK SMILES IDX 8 1 9 2 6 3 7 4 5 5 4 6 3 7 2 8 1 9 10 11 11 12 15 13 16 14
REMARK SMILES IDX 17 15 12 17 13 18 14 19
REMARK H PARENT
REMARK Flexibility Score: 70.00
ROOT
ATOM      1  C   UNL     1     100.153   3.225  77.834  1.00  0.00     0.136 C 
ATOM      2  O   UNL     1     100.389   3.094  79.026  1.00  0.00    -0.299 OA
ENDROOT
BRANCH   1   3
ATOM      3  C   UNL     1     100.623   2.128  76.891  1.00  0.00     0.053 C 
ATOM      4  C   UNL     1     100.507   0.710  77.475  1.00  0.00     0.016 C 
BRANCH   3   5
ATOM      5  C   UNL     1     102.014   2.436  76.297  1.00  0.00     0.015 C 
BRANCH   5   6
ATOM      6  C   UNL     1     101.996   3.023  74.871  1.00  0.00     0.028 C 
BRANCH   6   7
ATOM      7  C   UNL     1     100.706   2.664  74.176  1.00  0.00    -0.028 C 
ATOM      8  C   UNL     1      99.777   3.562  73.774  1.00  0.00    -0.070 CG0
ATOM      9  C   UNL     1      98.485   3.036  73.202  1.00  0.00     0.039 C 
ATOM     10  G   UNL     1     100.002   5.065  73.833  1.00  0.00     0.000 G0
ENDBRANCH   6   7
ENDBRANCH   5   6
ENDBRANCH   3   5
ENDBRANCH   1   3
BRANCH   1  11
ATOM     11  C   UNL     1      99.420   4.470  77.370  1.00  0.00     0.087 C 
BRANCH  11  12
ATOM     12  C   UNL     1     100.221   5.411  76.416  1.00  0.00     0.066 C 
BRANCH  12  13
ATOM     13  C   UNL     1      99.511   5.699  75.098  1.00  0.00     0.140 C 
ATOM     14  O   UNL     1      98.588   6.498  75.061  1.00  0.00    -0.299 OA
BRANCH  13  15
ATOM     15  C   UNL     1      99.997   5.072  73.811  1.00  0.00     0.106 CG0
ATOM     16  G   UNL     1      99.782   3.566  73.769  1.00  0.00     0.000 G0
ENDBRANCH  13  15
ENDBRANCH  12  13
BRANCH  12  17
ATOM     17  C   UNL     1     100.781   6.715  77.072  1.00  0.00    -0.006 C 
ATOM     18  C   UNL     1     100.356   6.928  78.533  1.00  0.00     0.008 C 
ATOM     19  C   UNL     1     102.314   6.795  76.960  1.00  0.00     0.008 C 
ENDBRANCH  12  17
ENDBRANCH  11  12
ENDBRANCH   1  11
TORSDOF 1
ENDMDL
MODEL 9
REMARK VINA RESULT:    -2.232      2.023      2.361
REMARK INTER + INTRA:          -3.688
REMARK INTER:                  -3.535
REMARK INTRA:                  -0.153
REMARK UNBOUND:                -0.282
REMARK SMILES CC1=CCC[C@@H](C)C(=O)C[C@H](C(C)C)C(=O)C1
REMARK SMILES IDX 8 1 9 2 6 3 7 4 5 5 4 6 3 7 2 8 1 9 10 11 11 12 15 13 16 14
REMARK SMILES IDX 17 15 12 17 13 18 14 19
REMARK H PARENT
REMARK Flexibility Score: 70.00
ROOT
ATOM      1  C   UNL     1     101.559   6.701  74.496  1.00  0.00     0.136 C 
ATOM      2  O   UNL     1     101.565   6.113  73.426  1.00  0.00    -0.299 OA
ENDROOT
BRANCH   1   3
ATOM      3  C   UNL     1     102.861   7.329  74.970  1.00  0.00     0.053 C 
ATOM      4  C   UNL     1     103.739   6.387  75.812  1.00  0.00     0.016 C 
BRANCH   3   5
ATOM      5  C   UNL     1     102.630   8.706  75.629  1.00  0.00     0.015 C 
BRANCH   5   6
ATOM      6  C   UNL     1     102.999   8.782  77.124  1.00  0.00     0.028 C 
BRANCH   6   7
ATOM      7  C   UNL     1     102.054   9.707  77.848  1.00  0.00    -0.028 C 
ATOM      8  C   UNL     1     100.972   9.301  78.552  1.00  0.00    -0.070 CG0
ATOM      9  C   UNL     1     100.058  10.358  79.119  1.00  0.00     0.039 C 
ATOM     10  G   UNL     1     100.672   7.836  78.832  1.00  0.00     0.000 G0
ENDBRANCH   6   7
ENDBRANCH   5   6
ENDBRANCH   3   5
ENDBRANCH   1   3
BRANCH   1  11
ATOM     11  C   UNL     1     100.266   6.760  75.288  1.00  0.00     0.087 C 
BRANCH  11  12
ATOM     12  C   UNL     1     100.345   6.233  76.755  1.00  0.00     0.066 C 
BRANCH  12  13
ATOM     13  C   UNL     1      99.772   7.198  77.786  1.00  0.00     0.140 C 
ATOM     14  O   UNL     1      98.570   7.416  77.822  1.00  0.00    -0.299 OA
BRANCH  13  15
ATOM     15  C   UNL     1     100.667   7.824  78.833  1.00  0.00     0.106 CG0
ATOM     16  G   UNL     1     100.965   9.290  78.556  1.00  0.00     0.000 G0
ENDBRANCH  13  15
ENDBRANCH  12  13
BRANCH  12  17
ATOM     17  C   UNL     1      99.829   4.773  76.975  1.00  0.00    -0.006 C 
ATOM     18  C   UNL     1     100.120   3.812  75.813  1.00  0.00     0.008 C 
ATOM     19  C   UNL     1     100.358   4.175  78.290  1.00  0.00     0.008 C 
ENDBRANCH  12  17
ENDBRANCH  11  12
ENDBRANCH   1  11
TORSDOF 1
ENDMDL
