MODEL 1
REMARK VINA RESULT:    -4.668      0.000      0.000
REMARK INTER + INTRA:          -5.918
REMARK INTER:                  -6.579
REMARK INTRA:                   0.661
REMARK UNBOUND:                 0.661
REMARK SMILES CC1=CCC(=C(C)C)C(=O)CC(C)=CCC1
REMARK SMILES IDX 12 1 14 2 13 3 15 4 16 5 2 6 1 7 3 8 11 10 9 11 10 12 5 13
REMARK SMILES IDX 6 14 7 15 8 16 4 17
REMARK H PARENT
REMARK Flexibility Score: 60.00
ROOT
ATOM      1  C   UNL     1      -2.533 -23.023  -9.406  1.00  0.00    -0.070 C 
ATOM      2  C   UNL     1      -1.237 -23.229  -9.075  1.00  0.00    -0.027 C 
ATOM      3  C   UNL     1      -3.229 -21.837  -8.784  1.00  0.00     0.039 C 
ENDROOT
BRANCH   2   4
ATOM      4  C   UNL     1      -0.384 -24.402  -9.493  1.00  0.00     0.032 C 
BRANCH   4   5
ATOM      5  C   UNL     1       0.586 -24.051 -10.637  1.00  0.00     0.034 C 
BRANCH   5   6
ATOM      6  C   UNL     1       0.059 -24.495 -11.989  1.00  0.00    -0.077 C 
ATOM      7  C   UNL     1       0.356 -25.901 -12.446  1.00  0.00     0.039 C 
ATOM      8  C   UNL     1      -0.686 -23.709 -12.799  1.00  0.00    -0.023 CG0
ATOM      9  G   UNL     1      -1.115 -22.291 -12.501  1.00  0.00     0.000 G0
ENDBRANCH   5   6
ENDBRANCH   4   5
ENDBRANCH   2   4
BRANCH   1  10
ATOM     10  C   UNL     1      -3.331 -23.948 -10.310  1.00  0.00     0.111 C 
BRANCH  10  11
ATOM     11  C   UNL     1      -3.246 -23.522 -11.756  1.00  0.00     0.163 C 
ATOM     12  O   UNL     1      -3.779 -24.262 -12.625  1.00  0.00    -0.294 OA
BRANCH  11  13
ATOM     13  C   UNL     1      -2.600 -22.236 -12.164  1.00  0.00    -0.002 C 
ATOM     14  C   UNL     1      -3.314 -21.077 -12.281  1.00  0.00    -0.069 C 
ATOM     15  C   UNL     1      -2.646 -19.772 -12.657  1.00  0.00     0.039 C 
ATOM     16  C   UNL     1      -4.813 -21.045 -12.074  1.00  0.00     0.039 C 
BRANCH  13  17
ATOM     17  C   UNL     1      -1.124 -22.288 -12.518  1.00  0.00     0.066 CG0
ATOM     18  G   UNL     1      -0.710 -23.717 -12.779  1.00  0.00     0.000 G0
ENDBRANCH  13  17
ENDBRANCH  11  13
ENDBRANCH  10  11
ENDBRANCH   1  10
TORSDOF 0
ENDMDL
MODEL 2
REMARK VINA RESULT:    -4.089      1.554      4.198
REMARK INTER + INTRA:          -5.101
REMARK INTER:                  -5.944
REMARK INTRA:                   0.843
REMARK UNBOUND:                 0.661
REMARK SMILES CC1=CCC(=C(C)C)C(=O)CC(C)=CCC1
REMARK SMILES IDX 12 1 14 2 13 3 15 4 16 5 2 6 1 7 3 8 11 10 9 11 10 12 5 13
REMARK SMILES IDX 6 14 7 15 8 16 4 17
REMARK H PARENT
REMARK Flexibility Score: 60.00
ROOT
ATOM      1  C   UNL     1      -2.961 -22.914  -9.750  1.00  0.00    -0.070 C 
ATOM      2  C   UNL     1      -3.880 -22.918 -10.743  1.00  0.00    -0.027 C 
ATOM      3  C   UNL     1      -3.014 -21.777  -8.758  1.00  0.00     0.039 C 
ENDROOT
BRANCH   2   4
ATOM      4  C   UNL     1      -3.945 -23.891 -11.896  1.00  0.00     0.032 C 
BRANCH   4   5
ATOM      5  C   UNL     1      -3.638 -23.226 -13.251  1.00  0.00     0.034 C 
BRANCH   5   6
ATOM      6  C   UNL     1      -2.468 -22.264 -13.163  1.00  0.00    -0.077 C 
ATOM      7  C   UNL     1      -2.750 -20.785 -13.244  1.00  0.00     0.039 C 
ATOM      8  C   UNL     1      -1.185 -22.656 -12.990  1.00  0.00    -0.023 CG0
ATOM      9  G   UNL     1      -0.710 -24.083 -12.852  1.00  0.00     0.000 G0
ENDBRANCH   5   6
ENDBRANCH   4   5
ENDBRANCH   2   4
BRANCH   1  10
ATOM     10  C   UNL     1      -1.852 -23.945  -9.620  1.00  0.00     0.111 C 
BRANCH  10  11
ATOM     11  C   UNL     1      -0.602 -23.509 -10.346  1.00  0.00     0.163 C 
ATOM     12  O   UNL     1       0.002 -22.486  -9.927  1.00  0.00    -0.294 OA
BRANCH  11  13
ATOM     13  C   UNL     1      -0.046 -24.284 -11.500  1.00  0.00    -0.002 C 
ATOM     14  C   UNL     1       1.049 -25.090 -11.364  1.00  0.00    -0.069 C 
ATOM     15  C   UNL     1       1.582 -25.900 -12.526  1.00  0.00     0.039 C 
ATOM     16  C   UNL     1       1.805 -25.187 -10.057  1.00  0.00     0.039 C 
BRANCH  13  17
ATOM     17  C   UNL     1      -0.708 -24.079 -12.851  1.00  0.00     0.066 CG0
ATOM     18  G   UNL     1      -1.189 -22.652 -12.974  1.00  0.00     0.000 G0
ENDBRANCH  13  17
ENDBRANCH  11  13
ENDBRANCH  10  11
ENDBRANCH   1  10
TORSDOF 0
ENDMDL
MODEL 3
REMARK VINA RESULT:    -3.859      3.323      5.737
REMARK INTER + INTRA:          -4.777
REMARK INTER:                  -5.468
REMARK INTRA:                   0.691
REMARK UNBOUND:                 0.661
REMARK SMILES CC1=CCC(=C(C)C)C(=O)CC(C)=CCC1
REMARK SMILES IDX 12 1 14 2 13 3 15 4 16 5 2 6 1 7 3 8 11 10 9 11 10 12 5 13
REMARK SMILES IDX 6 14 7 15 8 16 4 17
REMARK H PARENT
REMARK Flexibility Score: 60.00
ROOT
ATOM      1  C   UNL     1       3.466 -27.548 -10.650  1.00  0.00    -0.070 C 
ATOM      2  C   UNL     1       3.138 -28.607 -11.428  1.00  0.00    -0.027 C 
ATOM      3  C   UNL     1       4.934 -27.279 -10.426  1.00  0.00     0.039 C 
ENDROOT
BRANCH   2   4
ATOM      4  C   UNL     1       1.744 -29.119 -11.698  1.00  0.00     0.032 C 
BRANCH   4   5
ATOM      5  C   UNL     1       1.402 -29.145 -13.200  1.00  0.00     0.034 C 
BRANCH   5   6
ATOM      6  C   UNL     1       1.695 -27.818 -13.875  1.00  0.00    -0.077 C 
ATOM      7  C   UNL     1       2.587 -27.816 -15.091  1.00  0.00     0.039 C 
ATOM      8  C   UNL     1       1.181 -26.637 -13.464  1.00  0.00    -0.023 CG0
ATOM      9  G   UNL     1       0.245 -26.441 -12.294  1.00  0.00     0.000 G0
ENDBRANCH   5   6
ENDBRANCH   4   5
ENDBRANCH   2   4
BRANCH   1  10
ATOM     10  C   UNL     1       2.445 -26.669  -9.947  1.00  0.00     0.111 C 
BRANCH  10  11
ATOM     11  C   UNL     1       2.079 -25.466 -10.783  1.00  0.00     0.163 C 
ATOM     12  O   UNL     1       2.970 -24.601 -10.999  1.00  0.00    -0.294 OA
BRANCH  11  13
ATOM     13  C   UNL     1       0.722 -25.309 -11.391  1.00  0.00    -0.002 C 
ATOM     14  C   UNL     1      -0.073 -24.234 -11.107  1.00  0.00    -0.069 C 
ATOM     15  C   UNL     1      -1.430 -24.062 -11.755  1.00  0.00     0.039 C 
ATOM     16  C   UNL     1       0.345 -23.181 -10.104  1.00  0.00     0.039 C 
BRANCH  13  17
ATOM     17  C   UNL     1       0.231 -26.435 -12.284  1.00  0.00     0.066 CG0
ATOM     18  G   UNL     1       1.177 -26.614 -13.447  1.00  0.00     0.000 G0
ENDBRANCH  13  17
ENDBRANCH  11  13
ENDBRANCH  10  11
ENDBRANCH   1  10
TORSDOF 0
ENDMDL
MODEL 4
REMARK VINA RESULT:    -3.755      4.260      7.058
REMARK INTER + INTRA:          -4.630
REMARK INTER:                  -5.394
REMARK INTRA:                   0.764
REMARK UNBOUND:                 0.661
REMARK SMILES CC1=CCC(=C(C)C)C(=O)CC(C)=CCC1
REMARK SMILES IDX 12 1 14 2 13 3 15 4 16 5 2 6 1 7 3 8 11 10 9 11 10 12 5 13
REMARK SMILES IDX 6 14 7 15 8 16 4 17
REMARK H PARENT
REMARK Flexibility Score: 60.00
ROOT
ATOM      1  C   UNL     1       1.144 -24.585 -11.168  1.00  0.00    -0.070 C 
ATOM      2  C   UNL     1       0.542 -24.854 -12.350  1.00  0.00    -0.027 C 
ATOM      3  C   UNL     1       0.449 -23.622 -10.237  1.00  0.00     0.039 C 
ENDROOT
BRANCH   2   4
ATOM      4  C   UNL     1       1.105 -25.697 -13.468  1.00  0.00     0.032 C 
BRANCH   4   5
ATOM      5  C   UNL     1       0.789 -27.195 -13.297  1.00  0.00     0.034 C 
BRANCH   5   6
ATOM      6  C   UNL     1       1.935 -28.077 -13.755  1.00  0.00    -0.077 C 
ATOM      7  C   UNL     1       2.251 -28.131 -15.229  1.00  0.00     0.039 C 
ATOM      8  C   UNL     1       2.708 -28.801 -12.914  1.00  0.00    -0.023 CG0
ATOM      9  G   UNL     1       2.570 -28.849 -11.411  1.00  0.00     0.000 G0
ENDBRANCH   5   6
ENDBRANCH   4   5
ENDBRANCH   2   4
BRANCH   1  10
ATOM     10  C   UNL     1       2.497 -25.146 -10.762  1.00  0.00     0.111 C 
BRANCH  10  11
ATOM     11  C   UNL     1       2.381 -26.559 -10.247  1.00  0.00     0.163 C 
ATOM     12  O   UNL     1       1.487 -26.808  -9.394  1.00  0.00    -0.294 OA
BRANCH  11  13
ATOM     13  C   UNL     1       3.254 -27.662 -10.756  1.00  0.00    -0.002 C 
ATOM     14  C   UNL     1       4.618 -27.578 -10.713  1.00  0.00    -0.069 C 
ATOM     15  C   UNL     1       5.494 -28.714 -11.195  1.00  0.00     0.039 C 
ATOM     16  C   UNL     1       5.320 -26.334 -10.215  1.00  0.00     0.039 C 
BRANCH  13  17
ATOM     17  C   UNL     1       2.560 -28.853 -11.394  1.00  0.00     0.066 CG0
ATOM     18  G   UNL     1       2.715 -28.790 -12.896  1.00  0.00     0.000 G0
ENDBRANCH  13  17
ENDBRANCH  11  13
ENDBRANCH  10  11
ENDBRANCH   1  10
TORSDOF 0
ENDMDL
MODEL 5
REMARK VINA RESULT:    -3.639      3.443      6.072
REMARK INTER + INTRA:          -4.467
REMARK INTER:                  -5.260
REMARK INTRA:                   0.793
REMARK UNBOUND:                 0.661
REMARK SMILES CC1=CCC(=C(C)C)C(=O)CC(C)=CCC1
REMARK SMILES IDX 12 1 14 2 13 3 15 4 16 5 2 6 1 7 3 8 11 10 9 11 10 12 5 13
REMARK SMILES IDX 6 14 7 15 8 16 4 17
REMARK H PARENT
REMARK Flexibility Score: 60.00
ROOT
ATOM      1  C   UNL     1       1.515 -27.246 -14.108  1.00  0.00    -0.070 C 
ATOM      2  C   UNL     1       1.854 -28.449 -13.589  1.00  0.00    -0.027 C 
ATOM      3  C   UNL     1       2.148 -26.852 -15.420  1.00  0.00     0.039 C 
ENDROOT
BRANCH   2   4
ATOM      4  C   UNL     1       1.427 -28.996 -12.248  1.00  0.00     0.032 C 
BRANCH   4   5
ATOM      5  C   UNL     1       2.621 -29.277 -11.315  1.00  0.00     0.034 C 
BRANCH   5   6
ATOM      6  C   UNL     1       3.470 -28.041 -11.087  1.00  0.00    -0.077 C 
ATOM      7  C   UNL     1       4.917 -28.079 -11.513  1.00  0.00     0.039 C 
ATOM      8  C   UNL     1       2.999 -26.895 -10.546  1.00  0.00    -0.023 CG0
ATOM      9  G   UNL     1       1.579 -26.652 -10.092  1.00  0.00     0.000 G0
ENDBRANCH   5   6
ENDBRANCH   4   5
ENDBRANCH   2   4
BRANCH   1  10
ATOM     10  C   UNL     1       0.593 -26.256 -13.415  1.00  0.00     0.111 C 
BRANCH  10  11
ATOM     11  C   UNL     1       1.320 -25.474 -12.348  1.00  0.00     0.163 C 
ATOM     12  O   UNL     1       2.252 -24.705 -12.708  1.00  0.00    -0.294 OA
BRANCH  11  13
ATOM     13  C   UNL     1       0.930 -25.551 -10.906  1.00  0.00    -0.002 C 
ATOM     14  C   UNL     1       0.079 -24.643 -10.342  1.00  0.00    -0.069 C 
ATOM     15  C   UNL     1      -0.341 -24.750  -8.892  1.00  0.00     0.039 C 
ATOM     16  C   UNL     1      -0.459 -23.466 -11.126  1.00  0.00     0.039 C 
BRANCH  13  17
ATOM     17  C   UNL     1       1.580 -26.641 -10.073  1.00  0.00     0.066 CG0
ATOM     18  G   UNL     1       2.992 -26.879 -10.554  1.00  0.00     0.000 G0
ENDBRANCH  13  17
ENDBRANCH  11  13
ENDBRANCH  10  11
ENDBRANCH   1  10
TORSDOF 0
ENDMDL
MODEL 6
REMARK VINA RESULT:    -3.516      3.634      6.890
REMARK INTER + INTRA:          -4.294
REMARK INTER:                  -5.488
REMARK INTRA:                   1.194
REMARK UNBOUND:                 0.661
REMARK SMILES CC1=CCC(=C(C)C)C(=O)CC(C)=CCC1
REMARK SMILES IDX 12 1 14 2 13 3 15 4 16 5 2 6 1 7 3 8 11 10 9 11 10 12 5 13
REMARK SMILES IDX 6 14 7 15 8 16 4 17
REMARK H PARENT
REMARK Flexibility Score: 60.00
ROOT
ATOM      1  C   UNL     1       1.538 -27.288 -13.246  1.00  0.00    -0.070 C 
ATOM      2  C   UNL     1       0.935 -26.088 -13.420  1.00  0.00    -0.027 C 
ATOM      3  C   UNL     1       2.471 -27.761 -14.334  1.00  0.00     0.039 C 
ENDROOT
BRANCH   2   4
ATOM      4  C   UNL     1      -0.107 -25.473 -12.518  1.00  0.00     0.032 C 
BRANCH   4   5
ATOM      5  C   UNL     1       0.419 -24.239 -11.760  1.00  0.00     0.034 C 
BRANCH   5   6
ATOM      6  C   UNL     1       0.571 -24.504 -10.274  1.00  0.00    -0.077 C 
ATOM      7  C   UNL     1      -0.615 -24.248  -9.377  1.00  0.00     0.039 C 
ATOM      8  C   UNL     1       1.702 -24.981  -9.708  1.00  0.00    -0.023 CG0
ATOM      9  G   UNL     1       2.976 -25.329 -10.441  1.00  0.00     0.000 G0
ENDBRANCH   5   6
ENDBRANCH   4   5
ENDBRANCH   2   4
BRANCH   1  10
ATOM     10  C   UNL     1       1.276 -28.200 -12.059  1.00  0.00     0.111 C 
BRANCH  10  11
ATOM     11  C   UNL     1       1.742 -27.576 -10.766  1.00  0.00     0.163 C 
ATOM     12  O   UNL     1       1.023 -27.725  -9.742  1.00  0.00    -0.294 OA
BRANCH  11  13
ATOM     13  C   UNL     1       3.041 -26.841 -10.665  1.00  0.00    -0.002 C 
ATOM     14  C   UNL     1       4.242 -27.495 -10.699  1.00  0.00    -0.069 C 
ATOM     15  C   UNL     1       5.552 -26.741 -10.636  1.00  0.00     0.039 C 
ATOM     16  C   UNL     1       4.321 -29.004 -10.765  1.00  0.00     0.039 C 
BRANCH  13  17
ATOM     17  C   UNL     1       2.970 -25.340 -10.449  1.00  0.00     0.066 CG0
ATOM     18  G   UNL     1       1.705 -24.990  -9.703  1.00  0.00     0.000 G0
ENDBRANCH  13  17
ENDBRANCH  11  13
ENDBRANCH  10  11
ENDBRANCH   1  10
TORSDOF 0
ENDMDL
MODEL 7
REMARK VINA RESULT:    -3.443      9.232     11.648
REMARK INTER + INTRA:          -4.191
REMARK INTER:                  -5.002
REMARK INTRA:                   0.811
REMARK UNBOUND:                 0.661
REMARK SMILES CC1=CCC(=C(C)C)C(=O)CC(C)=CCC1
REMARK SMILES IDX 12 1 14 2 13 3 15 4 16 5 2 6 1 7 3 8 11 10 9 11 10 12 5 13
REMARK SMILES IDX 6 14 7 15 8 16 4 17
REMARK H PARENT
REMARK Flexibility Score: 60.00
ROOT
ATOM      1  C   UNL     1       9.476 -29.036 -11.237  1.00  0.00    -0.070 C 
ATOM      2  C   UNL     1       9.832 -29.938 -12.182  1.00  0.00    -0.027 C 
ATOM      3  C   UNL     1       9.187 -29.558  -9.851  1.00  0.00     0.039 C 
ENDROOT
BRANCH   2   4
ATOM      4  C   UNL     1      10.062 -29.656 -13.646  1.00  0.00     0.032 C 
BRANCH   4   5
ATOM      5  C   UNL     1       9.068 -30.402 -14.557  1.00  0.00     0.034 C 
BRANCH   5   6
ATOM      6  C   UNL     1       8.028 -29.472 -15.151  1.00  0.00    -0.077 C 
ATOM      7  C   UNL     1       8.172 -29.068 -16.597  1.00  0.00     0.039 C 
ATOM      8  C   UNL     1       6.962 -29.002 -14.465  1.00  0.00    -0.023 CG0
ATOM      9  G   UNL     1       6.628 -29.320 -13.026  1.00  0.00     0.000 G0
ENDBRANCH   5   6
ENDBRANCH   4   5
ENDBRANCH   2   4
BRANCH   1  10
ATOM     10  C   UNL     1       9.291 -27.553 -11.514  1.00  0.00     0.111 C 
BRANCH  10  11
ATOM     11  C   UNL     1       8.053 -27.292 -12.338  1.00  0.00     0.163 C 
ATOM     12  O   UNL     1       8.110 -26.402 -13.228  1.00  0.00    -0.294 OA
BRANCH  11  13
ATOM     13  C   UNL     1       6.800 -28.089 -12.157  1.00  0.00    -0.002 C 
ATOM     14  C   UNL     1       5.868 -27.758 -11.213  1.00  0.00    -0.069 C 
ATOM     15  C   UNL     1       4.585 -28.546 -11.062  1.00  0.00     0.039 C 
ATOM     16  C   UNL     1       6.086 -26.612 -10.250  1.00  0.00     0.039 C 
BRANCH  13  17
ATOM     17  C   UNL     1       6.640 -29.328 -13.019  1.00  0.00     0.066 CG0
ATOM     18  G   UNL     1       6.949 -28.993 -14.459  1.00  0.00     0.000 G0
ENDBRANCH  13  17
ENDBRANCH  11  13
ENDBRANCH  10  11
ENDBRANCH   1  10
TORSDOF 0
ENDMDL
MODEL 8
REMARK VINA RESULT:    -3.295      7.794     10.388
REMARK INTER + INTRA:          -3.982
REMARK INTER:                  -4.998
REMARK INTRA:                   1.016
REMARK UNBOUND:                 0.661
REMARK SMILES CC1=CCC(=C(C)C)C(=O)CC(C)=CCC1
REMARK SMILES IDX 12 1 14 2 13 3 15 4 16 5 2 6 1 7 3 8 11 10 9 11 10 12 5 13
REMARK SMILES IDX 6 14 7 15 8 16 4 17
REMARK H PARENT
REMARK Flexibility Score: 60.00
ROOT
ATOM      1  C   UNL     1       8.639 -26.987 -10.353  1.00  0.00    -0.070 C 
ATOM      2  C   UNL     1       9.564 -27.915 -10.694  1.00  0.00    -0.027 C 
ATOM      3  C   UNL     1       8.606 -26.533  -8.915  1.00  0.00     0.039 C 
ENDROOT
BRANCH   2   4
ATOM      4  C   UNL     1       9.705 -28.584 -12.040  1.00  0.00     0.032 C 
BRANCH   4   5
ATOM      5  C   UNL     1       8.900 -29.893 -12.138  1.00  0.00     0.034 C 
BRANCH   5   6
ATOM      6  C   UNL     1       7.684 -29.750 -13.034  1.00  0.00    -0.077 C 
ATOM      7  C   UNL     1       7.841 -30.044 -14.505  1.00  0.00     0.039 C 
ATOM      8  C   UNL     1       6.458 -29.398 -12.585  1.00  0.00    -0.023 CG0
ATOM      9  G   UNL     1       6.096 -29.100 -11.149  1.00  0.00     0.000 G0
ENDBRANCH   5   6
ENDBRANCH   4   5
ENDBRANCH   2   4
BRANCH   1  10
ATOM     10  C   UNL     1       7.603 -26.433 -11.318  1.00  0.00     0.111 C 
BRANCH  10  11
ATOM     11  C   UNL     1       6.204 -26.567 -10.767  1.00  0.00     0.163 C 
ATOM     12  O   UNL     1       5.729 -25.600 -10.113  1.00  0.00    -0.294 OA
BRANCH  11  13
ATOM     13  C   UNL     1       5.367 -27.780 -11.019  1.00  0.00    -0.002 C 
ATOM     14  C   UNL     1       4.003 -27.713 -11.078  1.00  0.00    -0.069 C 
ATOM     15  C   UNL     1       3.164 -28.938 -11.372  1.00  0.00     0.039 C 
ATOM     16  C   UNL     1       3.260 -26.420 -10.818  1.00  0.00     0.039 C 
BRANCH  13  17
ATOM     17  C   UNL     1       6.093 -29.109 -11.135  1.00  0.00     0.066 CG0
ATOM     18  G   UNL     1       6.449 -29.372 -12.579  1.00  0.00     0.000 G0
ENDBRANCH  13  17
ENDBRANCH  11  13
ENDBRANCH  10  11
ENDBRANCH   1  10
TORSDOF 0
ENDMDL
MODEL 9
REMARK VINA RESULT:    -3.138      8.541     11.013
REMARK INTER + INTRA:          -3.761
REMARK INTER:                  -4.231
REMARK INTRA:                   0.470
REMARK UNBOUND:                 0.661
REMARK SMILES CC1=CCC(=C(C)C)C(=O)CC(C)=CCC1
REMARK SMILES IDX 12 1 14 2 13 3 15 4 16 5 2 6 1 7 3 8 11 10 9 11 10 12 5 13
REMARK SMILES IDX 6 14 7 15 8 16 4 17
REMARK H PARENT
REMARK Flexibility Score: 60.00
ROOT
ATOM      1  C   UNL     1       7.632 -25.952 -10.487  1.00  0.00    -0.070 C 
ATOM      2  C   UNL     1       6.429 -25.964  -9.865  1.00  0.00    -0.027 C 
ATOM      3  C   UNL     1       8.804 -25.390  -9.720  1.00  0.00     0.039 C 
ENDROOT
BRANCH   2   4
ATOM      4  C   UNL     1       5.113 -26.379 -10.476  1.00  0.00     0.032 C 
BRANCH   4   5
ATOM      5  C   UNL     1       4.800 -27.871 -10.253  1.00  0.00     0.034 C 
BRANCH   5   6
ATOM      6  C   UNL     1       4.597 -28.613 -11.560  1.00  0.00    -0.077 C 
ATOM      7  C   UNL     1       3.276 -28.458 -12.272  1.00  0.00     0.039 C 
ATOM      8  C   UNL     1       5.541 -29.388 -12.139  1.00  0.00    -0.023 CG0
ATOM      9  G   UNL     1       6.930 -29.637 -11.600  1.00  0.00     0.000 G0
ENDBRANCH   5   6
ENDBRANCH   4   5
ENDBRANCH   2   4
BRANCH   1  10
ATOM     10  C   UNL     1       7.846 -26.407 -11.921  1.00  0.00     0.111 C 
BRANCH  10  11
ATOM     11  C   UNL     1       8.601 -27.713 -11.981  1.00  0.00     0.163 C 
ATOM     12  O   UNL     1       9.781 -27.738 -11.540  1.00  0.00    -0.294 OA
BRANCH  11  13
ATOM     13  C   UNL     1       7.970 -28.968 -12.497  1.00  0.00    -0.002 C 
ATOM     14  C   UNL     1       8.255 -29.458 -13.740  1.00  0.00    -0.069 C 
ATOM     15  C   UNL     1       7.642 -30.748 -14.240  1.00  0.00     0.039 C 
ATOM     16  C   UNL     1       9.168 -28.718 -14.694  1.00  0.00     0.039 C 
BRANCH  13  17
ATOM     17  C   UNL     1       6.939 -29.639 -11.606  1.00  0.00     0.066 CG0
ATOM     18  G   UNL     1       5.552 -29.378 -12.144  1.00  0.00     0.000 G0
ENDBRANCH  13  17
ENDBRANCH  11  13
ENDBRANCH  10  11
ENDBRANCH   1  10
TORSDOF 0
ENDMDL
