MODEL 1
REMARK VINA RESULT:    -4.791      0.000      0.000
REMARK INTER + INTRA:          -8.185
REMARK INTER:                  -7.312
REMARK INTRA:                  -0.872
REMARK UNBOUND:                -0.872
REMARK SMILES O=C([O-])CCCCCCCCC(=O)[O-]
REMARK SMILES IDX 7 1 6 2 5 3 4 4 2 5 1 6 3 7 8 8 9 9 10 10 11 11 12 12 13 13
REMARK SMILES IDX 14 14
REMARK H PARENT
REMARK Flexibility Score: inf
ROOT
ATOM      1  C   UNL     1      11.636   6.867 -11.037  1.00  0.00     0.000 C 
ENDROOT
BRANCH   1   2
ATOM      2  C   UNL     1      10.498   6.029 -10.442  1.00  0.00     0.000 C 
BRANCH   2   3
ATOM      3  C   UNL     1       9.348   5.871 -11.444  1.00  0.00     0.006 C 
BRANCH   3   4
ATOM      4  C   UNL     1       9.240   7.096 -12.355  1.00  0.00     0.053 C 
BRANCH   4   5
ATOM      5  C   UNL     1       7.827   7.582 -12.417  1.00  0.00     0.041 C 
ATOM      6  O   UNL     1       6.874   6.760 -12.418  1.00  0.00    -0.550 OA
ATOM      7  O   UNL     1       7.563   8.943 -12.522  1.00  0.00    -0.550 OA
ENDBRANCH   4   5
ENDBRANCH   3   4
ENDBRANCH   2   3
ENDBRANCH   1   2
BRANCH   1   8
ATOM      8  C   UNL     1      12.909   6.028 -11.205  1.00  0.00     0.000 C 
BRANCH   8   9
ATOM      9  C   UNL     1      12.794   5.094 -12.419  1.00  0.00     0.000 C 
BRANCH   9  10
ATOM     10  C   UNL     1      12.528   5.854 -13.728  1.00  0.00     0.006 C 
BRANCH  10  11
ATOM     11  C   UNL     1      11.639   5.066 -14.699  1.00  0.00     0.053 C 
BRANCH  11  12
ATOM     12  C   UNL     1      10.761   5.996 -15.473  1.00  0.00     0.041 C 
ATOM     13  O   UNL     1       9.558   5.696 -15.694  1.00  0.00    -0.550 OA
ATOM     14  O   UNL     1      11.283   7.173 -15.995  1.00  0.00    -0.550 OA
ENDBRANCH  11  12
ENDBRANCH  10  11
ENDBRANCH   9  10
ENDBRANCH   8   9
ENDBRANCH   1   8
TORSDOF 9
ENDMDL
MODEL 2
REMARK VINA RESULT:    -4.742      3.357      5.614
REMARK INTER + INTRA:          -8.109
REMARK INTER:                  -7.490
REMARK INTRA:                  -0.619
REMARK UNBOUND:                -0.872
REMARK SMILES O=C([O-])CCCCCCCCC(=O)[O-]
REMARK SMILES IDX 7 1 6 2 5 3 4 4 2 5 1 6 3 7 8 8 9 9 10 10 11 11 12 12 13 13
REMARK SMILES IDX 14 14
REMARK H PARENT
REMARK Flexibility Score: inf
ROOT
ATOM      1  C   UNL     1      10.852   5.299 -15.025  1.00  0.00     0.000 C 
ENDROOT
BRANCH   1   2
ATOM      2  C   UNL     1      12.151   5.877 -15.598  1.00  0.00     0.000 C 
BRANCH   2   3
ATOM      3  C   UNL     1      12.011   7.379 -15.874  1.00  0.00     0.006 C 
BRANCH   3   4
ATOM      4  C   UNL     1      13.379   8.027 -16.103  1.00  0.00     0.053 C 
BRANCH   4   5
ATOM      5  C   UNL     1      13.945   8.526 -14.812  1.00  0.00     0.041 C 
ATOM      6  O   UNL     1      13.180   8.936 -13.901  1.00  0.00    -0.550 OA
ATOM      7  O   UNL     1      15.323   8.586 -14.634  1.00  0.00    -0.550 OA
ENDBRANCH   4   5
ENDBRANCH   3   4
ENDBRANCH   2   3
ENDBRANCH   1   2
BRANCH   1   8
ATOM      8  C   UNL     1      11.130   4.458 -13.772  1.00  0.00     0.000 C 
BRANCH   8   9
ATOM      9  C   UNL     1      12.386   4.957 -13.043  1.00  0.00     0.000 C 
BRANCH   9  10
ATOM     10  C   UNL     1      12.089   6.111 -12.072  1.00  0.00     0.006 C 
BRANCH  10  11
ATOM     11  C   UNL     1      13.249   6.386 -11.107  1.00  0.00     0.053 C 
BRANCH  11  12
ATOM     12  C   UNL     1      12.832   6.113  -9.697  1.00  0.00     0.041 C 
ATOM     13  O   UNL     1      11.632   6.271  -9.349  1.00  0.00    -0.550 OA
ATOM     14  O   UNL     1      13.777   5.730  -8.754  1.00  0.00    -0.550 OA
ENDBRANCH  11  12
ENDBRANCH  10  11
ENDBRANCH   9  10
ENDBRANCH   8   9
ENDBRANCH   1   8
TORSDOF 9
ENDMDL
MODEL 3
REMARK VINA RESULT:    -4.719      1.967      4.368
REMARK INTER + INTRA:          -8.074
REMARK INTER:                  -7.366
REMARK INTRA:                  -0.708
REMARK UNBOUND:                -0.872
REMARK SMILES O=C([O-])CCCCCCCCC(=O)[O-]
REMARK SMILES IDX 7 1 6 2 5 3 4 4 2 5 1 6 3 7 8 8 9 9 10 10 11 11 12 12 13 13
REMARK SMILES IDX 14 14
REMARK H PARENT
REMARK Flexibility Score: inf
ROOT
ATOM      1  C   UNL     1      12.032   5.527 -15.515  1.00  0.00     0.000 C 
ENDROOT
BRANCH   1   2
ATOM      2  C   UNL     1      12.390   6.989 -15.803  1.00  0.00     0.000 C 
BRANCH   2   3
ATOM      3  C   UNL     1      11.156   7.892 -15.685  1.00  0.00     0.006 C 
BRANCH   3   4
ATOM      4  C   UNL     1       9.934   7.242 -16.338  1.00  0.00     0.053 C 
BRANCH   4   5
ATOM      5  C   UNL     1       9.151   8.255 -17.111  1.00  0.00     0.041 C 
ATOM      6  O   UNL     1       8.058   8.687 -16.662  1.00  0.00    -0.550 OA
ATOM      7  O   UNL     1       9.605   8.685 -18.353  1.00  0.00    -0.550 OA
ENDBRANCH   4   5
ENDBRANCH   3   4
ENDBRANCH   2   3
ENDBRANCH   1   2
BRANCH   1   8
ATOM      8  C   UNL     1      12.252   5.188 -14.035  1.00  0.00     0.000 C 
BRANCH   8   9
ATOM      9  C   UNL     1      10.913   4.939 -13.324  1.00  0.00     0.000 C 
BRANCH   9  10
ATOM     10  C   UNL     1      10.701   5.867 -12.118  1.00  0.00     0.006 C 
BRANCH  10  11
ATOM     11  C   UNL     1       9.255   5.852 -11.607  1.00  0.00     0.053 C 
BRANCH  11  12
ATOM     12  C   UNL     1       8.447   6.906 -12.296  1.00  0.00     0.041 C 
ATOM     13  O   UNL     1       7.198   6.783 -12.397  1.00  0.00    -0.550 OA
ATOM     14  O   UNL     1       9.079   8.001 -12.871  1.00  0.00    -0.550 OA
ENDBRANCH  11  12
ENDBRANCH  10  11
ENDBRANCH   9  10
ENDBRANCH   8   9
ENDBRANCH   1   8
TORSDOF 9
ENDMDL
MODEL 4
REMARK VINA RESULT:    -4.714      2.662      5.517
REMARK INTER + INTRA:          -8.067
REMARK INTER:                  -7.316
REMARK INTRA:                  -0.751
REMARK UNBOUND:                -0.872
REMARK SMILES O=C([O-])CCCCCCCCC(=O)[O-]
REMARK SMILES IDX 7 1 6 2 5 3 4 4 2 5 1 6 3 7 8 8 9 9 10 10 11 11 12 12 13 13
REMARK SMILES IDX 14 14
REMARK H PARENT
REMARK Flexibility Score: inf
ROOT
ATOM      1  C   UNL     1       8.773   7.584 -15.119  1.00  0.00     0.000 C 
ENDROOT
BRANCH   1   2
ATOM      2  C   UNL     1       9.396   6.413 -15.887  1.00  0.00     0.000 C 
BRANCH   2   3
ATOM      3  C   UNL     1      10.909   6.342 -15.653  1.00  0.00     0.006 C 
BRANCH   3   4
ATOM      4  C   UNL     1      11.478   7.722 -15.312  1.00  0.00     0.053 C 
BRANCH   4   5
ATOM      5  C   UNL     1      12.351   8.218 -16.420  1.00  0.00     0.041 C 
ATOM      6  O   UNL     1      13.597   8.054 -16.367  1.00  0.00    -0.550 OA
ATOM      7  O   UNL     1      11.791   8.906 -17.491  1.00  0.00    -0.550 OA
ENDBRANCH   4   5
ENDBRANCH   3   4
ENDBRANCH   2   3
ENDBRANCH   1   2
BRANCH   1   8
ATOM      8  C   UNL     1       7.471   7.159 -14.428  1.00  0.00     0.000 C 
BRANCH   8   9
ATOM      9  C   UNL     1       7.528   7.452 -12.921  1.00  0.00     0.000 C 
BRANCH   9  10
ATOM     10  C   UNL     1       8.948   7.329 -12.347  1.00  0.00     0.006 C 
BRANCH  10  11
ATOM     11  C   UNL     1       9.162   6.023 -11.572  1.00  0.00     0.053 C 
BRANCH  11  12
ATOM     12  C   UNL     1      10.511   6.014 -10.927  1.00  0.00     0.041 C 
ATOM     13  O   UNL     1      11.552   5.964 -11.633  1.00  0.00    -0.550 OA
ATOM     14  O   UNL     1      10.619   6.010  -9.541  1.00  0.00    -0.550 OA
ENDBRANCH  11  12
ENDBRANCH  10  11
ENDBRANCH   9  10
ENDBRANCH   8   9
ENDBRANCH   1   8
TORSDOF 9
ENDMDL
MODEL 5
REMARK VINA RESULT:    -4.709      2.520      4.493
REMARK INTER + INTRA:          -8.059
REMARK INTER:                  -7.362
REMARK INTRA:                  -0.697
REMARK UNBOUND:                -0.872
REMARK SMILES O=C([O-])CCCCCCCCC(=O)[O-]
REMARK SMILES IDX 7 1 6 2 5 3 4 4 2 5 1 6 3 7 8 8 9 9 10 10 11 11 12 12 13 13
REMARK SMILES IDX 14 14
REMARK H PARENT
REMARK Flexibility Score: inf
ROOT
ATOM      1  C   UNL     1      13.220   6.217 -10.477  1.00  0.00     0.000 C 
ENDROOT
BRANCH   1   2
ATOM      2  C   UNL     1      14.424   7.125 -10.199  1.00  0.00     0.000 C 
BRANCH   2   3
ATOM      3  C   UNL     1      14.695   8.059 -11.383  1.00  0.00     0.006 C 
BRANCH   3   4
ATOM      4  C   UNL     1      13.449   8.215 -12.258  1.00  0.00     0.053 C 
BRANCH   4   5
ATOM      5  C   UNL     1      12.973   9.633 -12.246  1.00  0.00     0.041 C 
ATOM      6  O   UNL     1      13.687  10.545 -12.738  1.00  0.00    -0.550 OA
ATOM      7  O   UNL     1      11.761   9.955 -11.646  1.00  0.00    -0.550 OA
ENDBRANCH   4   5
ENDBRANCH   3   4
ENDBRANCH   2   3
ENDBRANCH   1   2
BRANCH   1   8
ATOM      8  C   UNL     1      12.360   6.041  -9.220  1.00  0.00     0.000 C 
BRANCH   8   9
ATOM      9  C   UNL     1      10.864   6.117  -9.563  1.00  0.00     0.000 C 
BRANCH   9  10
ATOM     10  C   UNL     1      10.601   6.092 -11.077  1.00  0.00     0.006 C 
BRANCH  10  11
ATOM     11  C   UNL     1       9.111   5.969 -11.416  1.00  0.00     0.053 C 
BRANCH  11  12
ATOM     12  C   UNL     1       8.705   7.036 -12.381  1.00  0.00     0.041 C 
ATOM     13  O   UNL     1       9.578   7.751 -12.940  1.00  0.00    -0.550 OA
ATOM     14  O   UNL     1       7.359   7.277 -12.627  1.00  0.00    -0.550 OA
ENDBRANCH  11  12
ENDBRANCH  10  11
ENDBRANCH   9  10
ENDBRANCH   8   9
ENDBRANCH   1   8
TORSDOF 9
ENDMDL
MODEL 6
REMARK VINA RESULT:    -4.700      3.351      4.646
REMARK INTER + INTRA:          -8.045
REMARK INTER:                  -7.410
REMARK INTRA:                  -0.635
REMARK UNBOUND:                -0.872
REMARK SMILES O=C([O-])CCCCCCCCC(=O)[O-]
REMARK SMILES IDX 7 1 6 2 5 3 4 4 2 5 1 6 3 7 8 8 9 9 10 10 11 11 12 12 13 13
REMARK SMILES IDX 14 14
REMARK H PARENT
REMARK Flexibility Score: inf
ROOT
ATOM      1  C   UNL     1      11.405   4.434 -13.798  1.00  0.00     0.000 C 
ENDROOT
BRANCH   1   2
ATOM      2  C   UNL     1      12.556   4.945 -12.923  1.00  0.00     0.000 C 
BRANCH   2   3
ATOM      3  C   UNL     1      12.108   6.131 -12.061  1.00  0.00     0.006 C 
BRANCH   3   4
ATOM      4  C   UNL     1      13.196   6.523 -11.058  1.00  0.00     0.053 C 
BRANCH   4   5
ATOM      5  C   UNL     1      12.796   6.132  -9.671  1.00  0.00     0.041 C 
ATOM      6  O   UNL     1      13.657   5.699  -8.861  1.00  0.00    -0.550 OA
ATOM      7  O   UNL     1      11.461   6.198  -9.287  1.00  0.00    -0.550 OA
ENDBRANCH   4   5
ENDBRANCH   3   4
ENDBRANCH   2   3
ENDBRANCH   1   2
BRANCH   1   8
ATOM      8  C   UNL     1      10.967   5.500 -14.810  1.00  0.00     0.000 C 
BRANCH   8   9
ATOM      9  C   UNL     1      12.154   5.963 -15.668  1.00  0.00     0.000 C 
BRANCH   9  10
ATOM     10  C   UNL     1      12.147   7.479 -15.921  1.00  0.00     0.006 C 
BRANCH  10  11
ATOM     11  C   UNL     1      13.557   8.052 -16.114  1.00  0.00     0.053 C 
BRANCH  11  12
ATOM     12  C   UNL     1      14.089   8.574 -14.818  1.00  0.00     0.041 C 
ATOM     13  O   UNL     1      15.331   8.664 -14.632  1.00  0.00    -0.550 OA
ATOM     14  O   UNL     1      13.214   8.916 -13.794  1.00  0.00    -0.550 OA
ENDBRANCH  11  12
ENDBRANCH  10  11
ENDBRANCH   9  10
ENDBRANCH   8   9
ENDBRANCH   1   8
TORSDOF 9
ENDMDL
MODEL 7
REMARK VINA RESULT:    -4.671      2.790      4.798
REMARK INTER + INTRA:          -8.001
REMARK INTER:                  -7.146
REMARK INTRA:                  -0.855
REMARK UNBOUND:                -0.872
REMARK SMILES O=C([O-])CCCCCCCCC(=O)[O-]
REMARK SMILES IDX 7 1 6 2 5 3 4 4 2 5 1 6 3 7 8 8 9 9 10 10 11 11 12 12 13 13
REMARK SMILES IDX 14 14
REMARK H PARENT
REMARK Flexibility Score: inf
ROOT
ATOM      1  C   UNL     1      12.140   5.554 -15.584  1.00  0.00     0.000 C 
ENDROOT
BRANCH   1   2
ATOM      2  C   UNL     1      12.360   7.045 -15.868  1.00  0.00     0.000 C 
BRANCH   2   3
ATOM      3  C   UNL     1      11.091   7.855 -15.575  1.00  0.00     0.006 C 
BRANCH   3   4
ATOM      4  C   UNL     1       9.879   7.256 -16.291  1.00  0.00     0.053 C 
BRANCH   4   5
ATOM      5  C   UNL     1       9.200   8.291 -17.131  1.00  0.00     0.041 C 
ATOM      6  O   UNL     1       9.758   8.728 -18.171  1.00  0.00    -0.550 OA
ATOM      7  O   UNL     1       7.973   8.811 -16.737  1.00  0.00    -0.550 OA
ENDBRANCH   4   5
ENDBRANCH   3   4
ENDBRANCH   2   3
ENDBRANCH   1   2
BRANCH   1   8
ATOM      8  C   UNL     1      12.270   5.254 -14.085  1.00  0.00     0.000 C 
BRANCH   8   9
ATOM      9  C   UNL     1      11.004   4.566 -13.551  1.00  0.00     0.000 C 
BRANCH   9  10
ATOM     10  C   UNL     1      10.271   5.410 -12.496  1.00  0.00     0.006 C 
BRANCH  10  11
ATOM     11  C   UNL     1      11.108   6.598 -12.004  1.00  0.00     0.053 C 
BRANCH  11  12
ATOM     12  C   UNL     1      11.540   6.381 -10.589  1.00  0.00     0.041 C 
ATOM     13  O   UNL     1      12.757   6.468 -10.277  1.00  0.00    -0.550 OA
ATOM     14  O   UNL     1      10.606   6.033  -9.622  1.00  0.00    -0.550 OA
ENDBRANCH  11  12
ENDBRANCH  10  11
ENDBRANCH   9  10
ENDBRANCH   8   9
ENDBRANCH   1   8
TORSDOF 9
ENDMDL
MODEL 8
REMARK VINA RESULT:    -4.648      2.973      5.062
REMARK INTER + INTRA:          -7.965
REMARK INTER:                  -7.125
REMARK INTRA:                  -0.840
REMARK UNBOUND:                -0.872
REMARK SMILES O=C([O-])CCCCCCCCC(=O)[O-]
REMARK SMILES IDX 7 1 6 2 5 3 4 4 2 5 1 6 3 7 8 8 9 9 10 10 11 11 12 12 13 13
REMARK SMILES IDX 14 14
REMARK H PARENT
REMARK Flexibility Score: inf
ROOT
ATOM      1  C   UNL     1      10.806   4.965 -14.724  1.00  0.00     0.000 C 
ENDROOT
BRANCH   1   2
ATOM      2  C   UNL     1      12.139   5.320 -15.392  1.00  0.00     0.000 C 
BRANCH   2   3
ATOM      3  C   UNL     1      12.210   6.816 -15.721  1.00  0.00     0.006 C 
BRANCH   3   4
ATOM      4  C   UNL     1      10.812   7.440 -15.745  1.00  0.00     0.053 C 
BRANCH   4   5
ATOM      5  C   UNL     1      10.708   8.452 -16.842  1.00  0.00     0.041 C 
ATOM      6  O   UNL     1       9.579   8.842 -17.238  1.00  0.00    -0.550 OA
ATOM      7  O   UNL     1      11.858   8.927 -17.462  1.00  0.00    -0.550 OA
ENDBRANCH   4   5
ENDBRANCH   3   4
ENDBRANCH   2   3
ENDBRANCH   1   2
BRANCH   1   8
ATOM      8  C   UNL     1      11.016   4.552 -13.262  1.00  0.00     0.000 C 
BRANCH   8   9
ATOM      9  C   UNL     1      10.453   5.613 -12.304  1.00  0.00     0.000 C 
BRANCH   9  10
ATOM     10  C   UNL     1      11.504   6.658 -11.894  1.00  0.00     0.006 C 
BRANCH  10  11
ATOM     11  C   UNL     1      12.865   6.031 -11.568  1.00  0.00     0.053 C 
BRANCH  11  12
ATOM     12  C   UNL     1      13.285   6.389 -10.178  1.00  0.00     0.041 C 
ATOM     13  O   UNL     1      12.568   6.066  -9.195  1.00  0.00    -0.550 OA
ATOM     14  O   UNL     1      14.445   7.125  -9.971  1.00  0.00    -0.550 OA
ENDBRANCH  11  12
ENDBRANCH  10  11
ENDBRANCH   9  10
ENDBRANCH   8   9
ENDBRANCH   1   8
TORSDOF 9
ENDMDL
MODEL 9
REMARK VINA RESULT:    -4.643      3.035      4.211
REMARK INTER + INTRA:          -7.958
REMARK INTER:                  -7.081
REMARK INTRA:                  -0.877
REMARK UNBOUND:                -0.872
REMARK SMILES O=C([O-])CCCCCCCCC(=O)[O-]
REMARK SMILES IDX 7 1 6 2 5 3 4 4 2 5 1 6 3 7 8 8 9 9 10 10 11 11 12 12 13 13
REMARK SMILES IDX 14 14
REMARK H PARENT
REMARK Flexibility Score: inf
ROOT
ATOM      1  C   UNL     1      10.999   4.768 -13.360  1.00  0.00     0.000 C 
ENDROOT
BRANCH   1   2
ATOM      2  C   UNL     1      10.370   5.629 -12.258  1.00  0.00     0.000 C 
BRANCH   2   3
ATOM      3  C   UNL     1      11.387   6.627 -11.691  1.00  0.00     0.006 C 
BRANCH   3   4
ATOM      4  C   UNL     1      12.774   5.992 -11.572  1.00  0.00     0.053 C 
BRANCH   4   5
ATOM      5  C   UNL     1      13.423   6.386 -10.283  1.00  0.00     0.041 C 
ATOM      6  O   UNL     1      14.277   7.310 -10.261  1.00  0.00    -0.550 OA
ATOM      7  O   UNL     1      13.120   5.699  -9.114  1.00  0.00    -0.550 OA
ENDBRANCH   4   5
ENDBRANCH   3   4
ENDBRANCH   2   3
ENDBRANCH   1   2
BRANCH   1   8
ATOM      8  C   UNL     1      10.736   5.370 -14.746  1.00  0.00     0.000 C 
BRANCH   8   9
ATOM      9  C   UNL     1      12.052   5.593 -15.507  1.00  0.00     0.000 C 
BRANCH   9  10
ATOM     10  C   UNL     1      12.512   7.060 -15.477  1.00  0.00     0.006 C 
BRANCH  10  11
ATOM     11  C   UNL     1      11.350   8.039 -15.266  1.00  0.00     0.053 C 
BRANCH  11  12
ATOM     12  C   UNL     1      10.871   8.571 -16.579  1.00  0.00     0.041 C 
ATOM     13  O   UNL     1       9.640   8.608 -16.837  1.00  0.00    -0.550 OA
ATOM     14  O   UNL     1      11.788   8.981 -17.539  1.00  0.00    -0.550 OA
ENDBRANCH  11  12
ENDBRANCH  10  11
ENDBRANCH   9  10
ENDBRANCH   8   9
ENDBRANCH   1   8
TORSDOF 9
ENDMDL
