MODEL 1
REMARK VINA RESULT:    -5.174      0.000      0.000
REMARK INTER + INTRA:          -5.477
REMARK INTER:                  -5.477
REMARK INTRA:                   0.000
REMARK UNBOUND:                 0.000
REMARK SMILES O=c1ccc2cc(O)c(O)cc2o1
REMARK SMILES IDX 4 1 3 2 2 3 1 4 13 5 12 6 11 7 9 8 7 9 6 10 5 11 8 12 10 14
REMARK H PARENT 8 13 10 15
REMARK Flexibility Score: inf
ROOT
ATOM      1  C   UNL     1      12.205 -51.109 -13.022  1.00  0.00     0.019 A 
ATOM      2  C   UNL     1      13.227 -50.389 -12.405  1.00  0.00     0.094 A 
ATOM      3  C   UNL     1      13.225 -48.993 -12.500  1.00  0.00     0.336 A 
ATOM      4  O   UNL     1      14.139 -48.325 -11.951  1.00  0.00    -0.246 OA
ATOM      5  O   UNL     1      12.260 -48.366 -13.169  1.00  0.00    -0.423 OA
ATOM      6  C   UNL     1      11.267 -49.016 -13.772  1.00  0.00     0.142 A 
ATOM      7  C   UNL     1      10.282 -48.304 -14.460  1.00  0.00     0.098 A 
ATOM      8  C   UNL     1       9.231 -48.973 -15.099  1.00  0.00     0.161 A 
ATOM      9  C   UNL     1       9.168 -50.389 -15.045  1.00  0.00     0.158 A 
ATOM     10  C   UNL     1      10.157 -51.100 -14.354  1.00  0.00     0.062 A 
ATOM     11  C   UNL     1      11.205 -50.423 -13.718  1.00  0.00     0.022 A 
ENDROOT
BRANCH   9  12
ATOM     12  O   UNL     1       8.149 -51.120 -15.658  1.00  0.00    -0.504 OA
ATOM     13  H   UNL     1       8.276 -52.035 -16.067  1.00  0.00     0.293 HD
ENDBRANCH   9  12
BRANCH   8  14
ATOM     14  O   UNL     1       8.280 -48.202 -15.769  1.00  0.00    -0.504 OA
ATOM     15  H   UNL     1       8.505 -47.504 -16.462  1.00  0.00     0.293 HD
ENDBRANCH   8  14
TORSDOF 2
ENDMDL
MODEL 2
REMARK VINA RESULT:    -5.150      1.154      2.285
REMARK INTER + INTRA:          -5.451
REMARK INTER:                  -5.451
REMARK INTRA:                   0.000
REMARK UNBOUND:                 0.000
REMARK SMILES O=c1ccc2cc(O)c(O)cc2o1
REMARK SMILES IDX 4 1 3 2 2 3 1 4 13 5 12 6 11 7 9 8 7 9 6 10 5 11 8 12 10 14
REMARK H PARENT 8 13 10 15
REMARK Flexibility Score: inf
ROOT
ATOM      1  C   UNL     1      12.571 -48.343 -13.313  1.00  0.00     0.019 A 
ATOM      2  C   UNL     1      13.534 -49.074 -12.616  1.00  0.00     0.094 A 
ATOM      3  C   UNL     1      13.342 -50.447 -12.435  1.00  0.00     0.336 A 
ATOM      4  O   UNL     1      14.198 -51.125 -11.810  1.00  0.00    -0.246 OA
ATOM      5  O   UNL     1      12.257 -51.045 -12.923  1.00  0.00    -0.423 OA
ATOM      6  C   UNL     1      11.315 -50.385 -13.593  1.00  0.00     0.142 A 
ATOM      7  C   UNL     1      10.198 -51.065 -14.082  1.00  0.00     0.098 A 
ATOM      8  C   UNL     1       9.199 -50.384 -14.789  1.00  0.00     0.161 A 
ATOM      9  C   UNL     1       9.326 -48.989 -15.010  1.00  0.00     0.158 A 
ATOM     10  C   UNL     1      10.448 -48.309 -14.519  1.00  0.00     0.062 A 
ATOM     11  C   UNL     1      11.442 -48.998 -13.813  1.00  0.00     0.022 A 
ENDROOT
BRANCH   9  12
ATOM     12  O   UNL     1       8.369 -48.248 -15.706  1.00  0.00    -0.504 OA
ATOM     13  H   UNL     1       8.184 -48.348 -16.694  1.00  0.00     0.293 HD
ENDBRANCH   9  12
BRANCH   8  14
ATOM     14  O   UNL     1       8.108 -51.123 -15.249  1.00  0.00    -0.504 OA
ATOM     15  H   UNL     1       7.145 -50.885 -15.063  1.00  0.00     0.293 HD
ENDBRANCH   8  14
TORSDOF 2
ENDMDL
MODEL 3
REMARK VINA RESULT:    -4.603     12.049     13.441
REMARK INTER + INTRA:          -4.872
REMARK INTER:                  -4.872
REMARK INTRA:                   0.000
REMARK UNBOUND:                 0.000
REMARK SMILES O=c1ccc2cc(O)c(O)cc2o1
REMARK SMILES IDX 4 1 3 2 2 3 1 4 13 5 12 6 11 7 9 8 7 9 6 10 5 11 8 12 10 14
REMARK H PARENT 8 13 10 15
REMARK Flexibility Score: inf
ROOT
ATOM      1  C   UNL     1      11.631 -35.126 -16.821  1.00  0.00     0.019 A 
ATOM      2  C   UNL     1      12.791 -35.663 -17.379  1.00  0.00     0.094 A 
ATOM      3  C   UNL     1      12.822 -37.025 -17.697  1.00  0.00     0.336 A 
ATOM      4  O   UNL     1      13.859 -37.529 -18.201  1.00  0.00    -0.246 OA
ATOM      5  O   UNL     1      11.759 -37.793 -17.470  1.00  0.00    -0.423 OA
ATOM      6  C   UNL     1      10.634 -37.321 -16.940  1.00  0.00     0.142 A 
ATOM      7  C   UNL     1       9.550 -38.175 -16.724  1.00  0.00     0.098 A 
ATOM      8  C   UNL     1       8.359 -37.692 -16.167  1.00  0.00     0.161 A 
ATOM      9  C   UNL     1       8.254 -36.321 -15.819  1.00  0.00     0.158 A 
ATOM     10  C   UNL     1       9.343 -35.467 -16.037  1.00  0.00     0.062 A 
ATOM     11  C   UNL     1      10.530 -35.958 -16.594  1.00  0.00     0.022 A 
ENDROOT
BRANCH   9  12
ATOM     12  O   UNL     1       7.098 -35.773 -15.260  1.00  0.00    -0.504 OA
ATOM     13  H   UNL     1       6.171 -35.905 -15.638  1.00  0.00     0.293 HD
ENDBRANCH   9  12
BRANCH   8  14
ATOM     14  O   UNL     1       7.314 -38.599 -15.978  1.00  0.00    -0.504 OA
ATOM     15  H   UNL     1       6.982 -39.235 -16.688  1.00  0.00     0.293 HD
ENDBRANCH   8  14
TORSDOF 2
ENDMDL
MODEL 4
REMARK VINA RESULT:    -4.569     11.969     13.278
REMARK INTER + INTRA:          -4.836
REMARK INTER:                  -4.836
REMARK INTRA:                   0.000
REMARK UNBOUND:                 0.000
REMARK SMILES O=c1ccc2cc(O)c(O)cc2o1
REMARK SMILES IDX 4 1 3 2 2 3 1 4 13 5 12 6 11 7 9 8 7 9 6 10 5 11 8 12 10 14
REMARK H PARENT 8 13 10 15
REMARK Flexibility Score: inf
ROOT
ATOM      1  C   UNL     1      11.796 -38.131 -17.665  1.00  0.00     0.019 A 
ATOM      2  C   UNL     1      12.897 -37.318 -17.933  1.00  0.00     0.094 A 
ATOM      3  C   UNL     1      12.842 -35.965 -17.583  1.00  0.00     0.336 A 
ATOM      4  O   UNL     1      13.825 -35.215 -17.816  1.00  0.00    -0.246 OA
ATOM      5  O   UNL     1      11.754 -35.464 -17.002  1.00  0.00    -0.423 OA
ATOM      6  C   UNL     1      10.682 -36.205 -16.730  1.00  0.00     0.142 A 
ATOM      7  C   UNL     1       9.568 -35.625 -16.120  1.00  0.00     0.098 A 
ATOM      8  C   UNL     1       8.433 -36.391 -15.826  1.00  0.00     0.161 A 
ATOM      9  C   UNL     1       8.417 -37.771 -16.153  1.00  0.00     0.158 A 
ATOM     10  C   UNL     1       9.536 -38.350 -16.764  1.00  0.00     0.062 A 
ATOM     11  C   UNL     1      10.667 -37.577 -17.055  1.00  0.00     0.022 A 
ENDROOT
BRANCH   9  12
ATOM     12  O   UNL     1       7.321 -38.594 -15.888  1.00  0.00    -0.504 OA
ATOM     13  H   UNL     1       6.414 -38.253 -15.601  1.00  0.00     0.293 HD
ENDBRANCH   9  12
BRANCH   8  14
ATOM     14  O   UNL     1       7.354 -35.749 -15.216  1.00  0.00    -0.504 OA
ATOM     15  H   UNL     1       6.456 -36.181 -15.057  1.00  0.00     0.293 HD
ENDBRANCH   8  14
TORSDOF 2
ENDMDL
MODEL 5
REMARK VINA RESULT:    -4.522     12.123     13.793
REMARK INTER + INTRA:          -4.786
REMARK INTER:                  -4.786
REMARK INTRA:                   0.000
REMARK UNBOUND:                 0.000
REMARK SMILES O=c1ccc2cc(O)c(O)cc2o1
REMARK SMILES IDX 4 1 3 2 2 3 1 4 13 5 12 6 11 7 9 8 7 9 6 10 5 11 8 12 10 14
REMARK H PARENT 8 13 10 15
REMARK Flexibility Score: inf
ROOT
ATOM      1  C   UNL     1       9.051 -37.990 -16.317  1.00  0.00     0.019 A 
ATOM      2  C   UNL     1       7.829 -37.327 -16.426  1.00  0.00     0.094 A 
ATOM      3  C   UNL     1       7.694 -36.306 -17.373  1.00  0.00     0.336 A 
ATOM      4  O   UNL     1       6.600 -35.694 -17.487  1.00  0.00    -0.246 OA
ATOM      5  O   UNL     1       8.718 -35.976 -18.157  1.00  0.00    -0.423 OA
ATOM      6  C   UNL     1       9.899 -36.584 -18.085  1.00  0.00     0.142 A 
ATOM      7  C   UNL     1      10.938 -36.195 -18.934  1.00  0.00     0.098 A 
ATOM      8  C   UNL     1      12.187 -36.825 -18.871  1.00  0.00     0.161 A 
ATOM      9  C   UNL     1      12.398 -37.869 -17.934  1.00  0.00     0.158 A 
ATOM     10  C   UNL     1      11.354 -38.257 -17.084  1.00  0.00     0.062 A 
ATOM     11  C   UNL     1      10.108 -37.621 -17.154  1.00  0.00     0.022 A 
ENDROOT
BRANCH   9  12
ATOM     12  O   UNL     1      13.616 -38.540 -17.817  1.00  0.00    -0.504 OA
ATOM     13  H   UNL     1      13.712 -39.482 -17.467  1.00  0.00     0.293 HD
ENDBRANCH   9  12
BRANCH   8  14
ATOM     14  O   UNL     1      13.182 -36.388 -19.748  1.00  0.00    -0.504 OA
ATOM     15  H   UNL     1      13.873 -36.993 -20.165  1.00  0.00     0.293 HD
ENDBRANCH   8  14
TORSDOF 2
ENDMDL
MODEL 6
REMARK VINA RESULT:    -4.465     12.210     14.017
REMARK INTER + INTRA:          -4.726
REMARK INTER:                  -4.726
REMARK INTRA:                   0.000
REMARK UNBOUND:                 0.000
REMARK SMILES O=c1ccc2cc(O)c(O)cc2o1
REMARK SMILES IDX 4 1 3 2 2 3 1 4 13 5 12 6 11 7 9 8 7 9 6 10 5 11 8 12 10 14
REMARK H PARENT 8 13 10 15
REMARK Flexibility Score: inf
ROOT
ATOM      1  C   UNL     1       9.391 -35.074 -16.303  1.00  0.00     0.019 A 
ATOM      2  C   UNL     1       8.103 -35.595 -16.193  1.00  0.00     0.094 A 
ATOM      3  C   UNL     1       7.889 -36.944 -16.495  1.00  0.00     0.336 A 
ATOM      4  O   UNL     1       6.734 -37.434 -16.401  1.00  0.00    -0.246 OA
ATOM      5  O   UNL     1       8.903 -37.716 -16.880  1.00  0.00    -0.423 OA
ATOM      6  C   UNL     1      10.147 -37.258 -16.998  1.00  0.00     0.142 A 
ATOM      7  C   UNL     1      11.172 -38.115 -17.407  1.00  0.00     0.098 A 
ATOM      8  C   UNL     1      12.486 -37.648 -17.536  1.00  0.00     0.161 A 
ATOM      9  C   UNL     1      12.777 -36.290 -17.247  1.00  0.00     0.158 A 
ATOM     10  C   UNL     1      11.748 -35.434 -16.837  1.00  0.00     0.062 A 
ATOM     11  C   UNL     1      10.436 -35.908 -16.711  1.00  0.00     0.022 A 
ENDROOT
BRANCH   9  12
ATOM     12  O   UNL     1      14.063 -35.758 -17.354  1.00  0.00    -0.504 OA
ATOM     13  H   UNL     1      14.895 -36.313 -17.497  1.00  0.00     0.293 HD
ENDBRANCH   9  12
BRANCH   8  14
ATOM     14  O   UNL     1      13.462 -38.556 -17.949  1.00  0.00    -0.504 OA
ATOM     15  H   UNL     1      14.021 -39.110 -17.318  1.00  0.00     0.293 HD
ENDBRANCH   8  14
TORSDOF 2
ENDMDL
MODEL 7
REMARK VINA RESULT:    -4.435     12.236     13.552
REMARK INTER + INTRA:          -4.694
REMARK INTER:                  -4.694
REMARK INTRA:                   0.000
REMARK UNBOUND:                 0.000
REMARK SMILES O=c1ccc2cc(O)c(O)cc2o1
REMARK SMILES IDX 4 1 3 2 2 3 1 4 13 5 12 6 11 7 9 8 7 9 6 10 5 11 8 12 10 14
REMARK H PARENT 8 13 10 15
REMARK Flexibility Score: inf
ROOT
ATOM      1  C   UNL     1      11.295 -35.636 -19.175  1.00  0.00     0.019 A 
ATOM      2  C   UNL     1      12.645 -35.956 -19.036  1.00  0.00     0.094 A 
ATOM      3  C   UNL     1      13.019 -36.920 -18.094  1.00  0.00     0.336 A 
ATOM      4  O   UNL     1      14.232 -37.223 -17.952  1.00  0.00    -0.246 OA
ATOM      5  O   UNL     1      12.097 -37.522 -17.345  1.00  0.00    -0.423 OA
ATOM      6  C   UNL     1      10.799 -37.246 -17.447  1.00  0.00     0.142 A 
ATOM      7  C   UNL     1       9.877 -37.910 -16.635  1.00  0.00     0.098 A 
ATOM      8  C   UNL     1       8.508 -37.631 -16.731  1.00  0.00     0.161 A 
ATOM      9  C   UNL     1       8.056 -36.663 -17.664  1.00  0.00     0.158 A 
ATOM     10  C   UNL     1       8.983 -35.999 -18.477  1.00  0.00     0.062 A 
ATOM     11  C   UNL     1      10.350 -36.285 -18.375  1.00  0.00     0.022 A 
ENDROOT
BRANCH   9  12
ATOM     12  O   UNL     1       6.707 -36.336 -17.813  1.00  0.00    -0.504 OA
ATOM     13  H   UNL     1       6.074 -36.815 -18.437  1.00  0.00     0.293 HD
ENDBRANCH   9  12
BRANCH   8  14
ATOM     14  O   UNL     1       7.641 -38.329 -15.890  1.00  0.00    -0.504 OA
ATOM     15  H   UNL     1       7.790 -39.281 -15.589  1.00  0.00     0.293 HD
ENDBRANCH   8  14
TORSDOF 2
ENDMDL
MODEL 8
REMARK VINA RESULT:    -4.263     12.668     14.772
REMARK INTER + INTRA:          -4.512
REMARK INTER:                  -4.512
REMARK INTRA:                   0.000
REMARK UNBOUND:                 0.000
REMARK SMILES O=c1ccc2cc(O)c(O)cc2o1
REMARK SMILES IDX 4 1 3 2 2 3 1 4 13 5 12 6 11 7 9 8 7 9 6 10 5 11 8 12 10 14
REMARK H PARENT 8 13 10 15
REMARK Flexibility Score: inf
ROOT
ATOM      1  C   UNL     1       9.666 -35.042 -19.929  1.00  0.00     0.019 A 
ATOM      2  C   UNL     1       8.313 -34.874 -20.224  1.00  0.00     0.094 A 
ATOM      3  C   UNL     1       7.362 -35.539 -19.443  1.00  0.00     0.336 A 
ATOM      4  O   UNL     1       6.136 -35.401 -19.692  1.00  0.00    -0.246 OA
ATOM      5  O   UNL     1       7.745 -36.319 -18.434  1.00  0.00    -0.423 OA
ATOM      6  C   UNL     1       9.025 -36.506 -18.120  1.00  0.00     0.142 A 
ATOM      7  C   UNL     1       9.368 -37.336 -17.051  1.00  0.00     0.098 A 
ATOM      8  C   UNL     1      10.711 -37.543 -16.708  1.00  0.00     0.161 A 
ATOM      9  C   UNL     1      11.730 -36.901 -17.456  1.00  0.00     0.158 A 
ATOM     10  C   UNL     1      11.383 -36.069 -18.528  1.00  0.00     0.062 A 
ATOM     11  C   UNL     1      10.039 -35.868 -18.864  1.00  0.00     0.022 A 
ENDROOT
BRANCH   9  12
ATOM     12  O   UNL     1      13.087 -37.062 -17.170  1.00  0.00    -0.504 OA
ATOM     13  H   UNL     1      13.831 -36.624 -17.693  1.00  0.00     0.293 HD
ENDBRANCH   9  12
BRANCH   8  14
ATOM     14  O   UNL     1      10.985 -38.384 -15.629  1.00  0.00    -0.504 OA
ATOM     15  H   UNL     1      10.295 -38.681 -14.954  1.00  0.00     0.293 HD
ENDBRANCH   8  14
TORSDOF 2
ENDMDL
