MODEL 1
REMARK VINA RESULT:    -4.338      0.000      0.000
REMARK INTER + INTRA:          -6.814
REMARK INTER:                  -6.113
REMARK INTRA:                  -0.701
REMARK UNBOUND:                -0.701
REMARK SMILES C=CCCCCCCC(=O)[O-]
REMARK SMILES IDX 6 1 7 2 8 3 9 4 10 5 11 6 5 7 4 8 3 9 2 10 1 11
REMARK H PARENT
REMARK Flexibility Score: inf
ROOT
ATOM      1  C   UNL     1       8.181   1.018   1.979  1.00  0.00     0.000 C 
ENDROOT
BRANCH   1   2
ATOM      2  C   UNL     1       7.096   0.092   1.399  1.00  0.00     0.006 C 
BRANCH   2   3
ATOM      3  C   UNL     1       5.677   0.686   1.445  1.00  0.00     0.053 C 
BRANCH   3   4
ATOM      4  C   UNL     1       4.888   0.201   2.624  1.00  0.00     0.041 C 
ATOM      5  O   UNL     1       3.737   0.662   2.846  1.00  0.00    -0.550 OA
ATOM      6  O   UNL     1       5.435  -0.731   3.495  1.00  0.00    -0.550 OA
ENDBRANCH   3   4
ENDBRANCH   2   3
ENDBRANCH   1   2
BRANCH   1   7
ATOM      7  C   UNL     1       7.734   2.487   2.066  1.00  0.00     0.000 C 
BRANCH   7   8
ATOM      8  C   UNL     1       8.178   3.310   0.846  1.00  0.00     0.004 C 
BRANCH   8   9
ATOM      9  C   UNL     1       7.079   4.255   0.337  1.00  0.00     0.027 C 
BRANCH   9  10
ATOM     10  C   UNL     1       6.378   3.676  -0.862  1.00  0.00    -0.035 C 
ATOM     11  C   UNL     1       6.822   2.573  -1.472  1.00  0.00     0.004 C 
ENDBRANCH   9  10
ENDBRANCH   8   9
ENDBRANCH   7   8
ENDBRANCH   1   7
TORSDOF 7
ENDMDL
MODEL 2
REMARK VINA RESULT:    -4.321      1.645      1.869
REMARK INTER + INTRA:          -6.790
REMARK INTER:                  -6.160
REMARK INTRA:                  -0.629
REMARK UNBOUND:                -0.701
REMARK SMILES C=CCCCCCCC(=O)[O-]
REMARK SMILES IDX 6 1 7 2 8 3 9 4 10 5 11 6 5 7 4 8 3 9 2 10 1 11
REMARK H PARENT
REMARK Flexibility Score: inf
ROOT
ATOM      1  C   UNL     1       8.055   0.382   1.538  1.00  0.00     0.000 C 
ENDROOT
BRANCH   1   2
ATOM      2  C   UNL     1       6.762  -0.019   2.273  1.00  0.00     0.006 C 
BRANCH   2   3
ATOM      3  C   UNL     1       5.682  -0.621   1.356  1.00  0.00     0.053 C 
BRANCH   3   4
ATOM      4  C   UNL     1       5.548  -2.105   1.521  1.00  0.00     0.041 C 
ATOM      5  O   UNL     1       5.273  -2.829   0.529  1.00  0.00    -0.550 OA
ATOM      6  O   UNL     1       5.693  -2.684   2.775  1.00  0.00    -0.550 OA
ENDBRANCH   3   4
ENDBRANCH   2   3
ENDBRANCH   1   2
BRANCH   1   7
ATOM      7  C   UNL     1       8.567   1.775   1.939  1.00  0.00     0.000 C 
BRANCH   7   8
ATOM      8  C   UNL     1       7.480   2.855   1.830  1.00  0.00     0.004 C 
BRANCH   8   9
ATOM      9  C   UNL     1       7.578   3.667   0.529  1.00  0.00     0.027 C 
BRANCH   9  10
ATOM     10  C   UNL     1       6.514   3.251  -0.451  1.00  0.00    -0.035 C 
ATOM     11  C   UNL     1       6.773   2.411  -1.457  1.00  0.00     0.004 C 
ENDBRANCH   9  10
ENDBRANCH   8   9
ENDBRANCH   7   8
ENDBRANCH   1   7
TORSDOF 7
ENDMDL
MODEL 3
REMARK VINA RESULT:    -4.307      2.880      4.576
REMARK INTER + INTRA:          -6.770
REMARK INTER:                  -6.233
REMARK INTRA:                  -0.538
REMARK UNBOUND:                -0.701
REMARK SMILES C=CCCCCCCC(=O)[O-]
REMARK SMILES IDX 6 1 7 2 8 3 9 4 10 5 11 6 5 7 4 8 3 9 2 10 1 11
REMARK H PARENT
REMARK Flexibility Score: inf
ROOT
ATOM      1  C   UNL     1       8.471   1.495   2.441  1.00  0.00     0.000 C 
ENDROOT
BRANCH   1   2
ATOM      2  C   UNL     1       7.969   2.620   1.517  1.00  0.00     0.006 C 
BRANCH   2   3
ATOM      3  C   UNL     1       6.788   2.212   0.619  1.00  0.00     0.053 C 
BRANCH   3   4
ATOM      4  C   UNL     1       6.722   3.015  -0.645  1.00  0.00     0.041 C 
ATOM      5  O   UNL     1       6.569   4.264  -0.593  1.00  0.00    -0.550 OA
ATOM      6  O   UNL     1       6.792   2.383  -1.879  1.00  0.00    -0.550 OA
ENDBRANCH   3   4
ENDBRANCH   2   3
ENDBRANCH   1   2
BRANCH   1   7
ATOM      7  C   UNL     1       8.320   0.095   1.822  1.00  0.00     0.000 C 
BRANCH   7   8
ATOM      8  C   UNL     1       7.631  -0.896   2.772  1.00  0.00     0.004 C 
BRANCH   8   9
ATOM      9  C   UNL     1       6.100  -0.765   2.758  1.00  0.00     0.027 C 
BRANCH   9  10
ATOM     10  C   UNL     1       5.532  -1.192   1.432  1.00  0.00    -0.035 C 
ATOM     11  C   UNL     1       5.504  -2.474   1.058  1.00  0.00     0.004 C 
ENDBRANCH   9  10
ENDBRANCH   8   9
ENDBRANCH   7   8
ENDBRANCH   1   7
TORSDOF 7
ENDMDL
MODEL 4
REMARK VINA RESULT:    -4.286      2.918      4.658
REMARK INTER + INTRA:          -6.741
REMARK INTER:                  -6.215
REMARK INTRA:                  -0.525
REMARK UNBOUND:                -0.701
REMARK SMILES C=CCCCCCCC(=O)[O-]
REMARK SMILES IDX 6 1 7 2 8 3 9 4 10 5 11 6 5 7 4 8 3 9 2 10 1 11
REMARK H PARENT
REMARK Flexibility Score: inf
ROOT
ATOM      1  C   UNL     1       8.568   1.382   2.248  1.00  0.00     0.000 C 
ENDROOT
BRANCH   1   2
ATOM      2  C   UNL     1       7.819   2.520   1.532  1.00  0.00     0.006 C 
BRANCH   2   3
ATOM      3  C   UNL     1       6.809   2.038   0.476  1.00  0.00     0.053 C 
BRANCH   3   4
ATOM      4  C   UNL     1       6.653   3.006  -0.658  1.00  0.00     0.041 C 
ATOM      5  O   UNL     1       6.499   2.584  -1.834  1.00  0.00    -0.550 OA
ATOM      6  O   UNL     1       6.714   4.373  -0.422  1.00  0.00    -0.550 OA
ENDBRANCH   3   4
ENDBRANCH   2   3
ENDBRANCH   1   2
BRANCH   1   7
ATOM      7  C   UNL     1       8.081  -0.016   1.829  1.00  0.00     0.000 C 
BRANCH   7   8
ATOM      8  C   UNL     1       7.456  -0.795   2.997  1.00  0.00     0.004 C 
BRANCH   8   9
ATOM      9  C   UNL     1       5.962  -1.087   2.782  1.00  0.00     0.027 C 
BRANCH   9  10
ATOM     10  C   UNL     1       5.669  -1.377   1.336  1.00  0.00    -0.035 C 
ATOM     11  C   UNL     1       5.251  -2.579   0.930  1.00  0.00     0.004 C 
ENDBRANCH   9  10
ENDBRANCH   8   9
ENDBRANCH   7   8
ENDBRANCH   1   7
TORSDOF 7
ENDMDL
MODEL 5
REMARK VINA RESULT:    -4.247      3.204      5.441
REMARK INTER + INTRA:          -6.686
REMARK INTER:                  -6.209
REMARK INTRA:                  -0.477
REMARK UNBOUND:                -0.701
REMARK SMILES C=CCCCCCCC(=O)[O-]
REMARK SMILES IDX 6 1 7 2 8 3 9 4 10 5 11 6 5 7 4 8 3 9 2 10 1 11
REMARK H PARENT
REMARK Flexibility Score: inf
ROOT
ATOM      1  C   UNL     1       6.149   0.417   2.042  1.00  0.00     0.000 C 
ENDROOT
BRANCH   1   2
ATOM      2  C   UNL     1       7.214   0.975   1.079  1.00  0.00     0.006 C 
BRANCH   2   3
ATOM      3  C   UNL     1       6.741   2.187   0.257  1.00  0.00     0.053 C 
BRANCH   3   4
ATOM      4  C   UNL     1       7.508   3.435   0.576  1.00  0.00     0.041 C 
ATOM      5  O   UNL     1       8.621   3.360   1.160  1.00  0.00    -0.550 OA
ATOM      6  O   UNL     1       6.980   4.680   0.261  1.00  0.00    -0.550 OA
ENDBRANCH   3   4
ENDBRANCH   2   3
ENDBRANCH   1   2
BRANCH   1   7
ATOM      7  C   UNL     1       5.380  -0.781   1.459  1.00  0.00     0.000 C 
BRANCH   7   8
ATOM      8  C   UNL     1       6.030  -2.126   1.816  1.00  0.00     0.004 C 
BRANCH   8   9
ATOM      9  C   UNL     1       6.198  -2.319   3.331  1.00  0.00     0.027 C 
BRANCH   9  10
ATOM     10  C   UNL     1       7.604  -2.732   3.672  1.00  0.00    -0.035 C 
ATOM     11  C   UNL     1       8.597  -1.842   3.764  1.00  0.00     0.004 C 
ENDBRANCH   9  10
ENDBRANCH   8   9
ENDBRANCH   7   8
ENDBRANCH   1   7
TORSDOF 7
ENDMDL
MODEL 6
REMARK VINA RESULT:    -4.195      2.324      4.555
REMARK INTER + INTRA:          -6.612
REMARK INTER:                  -5.981
REMARK INTRA:                  -0.631
REMARK UNBOUND:                -0.701
REMARK SMILES C=CCCCCCCC(=O)[O-]
REMARK SMILES IDX 6 1 7 2 8 3 9 4 10 5 11 6 5 7 4 8 3 9 2 10 1 11
REMARK H PARENT
REMARK Flexibility Score: inf
ROOT
ATOM      1  C   UNL     1       8.573   1.302   2.305  1.00  0.00     0.000 C 
ENDROOT
BRANCH   1   2
ATOM      2  C   UNL     1       7.238   1.503   1.565  1.00  0.00     0.006 C 
BRANCH   2   3
ATOM      3  C   UNL     1       6.452   0.202   1.328  1.00  0.00     0.053 C 
BRANCH   3   4
ATOM      4  C   UNL     1       5.186   0.140   2.129  1.00  0.00     0.041 C 
ATOM      5  O   UNL     1       5.173  -0.445   3.244  1.00  0.00    -0.550 OA
ATOM      6  O   UNL     1       4.015   0.695   1.631  1.00  0.00    -0.550 OA
ENDBRANCH   3   4
ENDBRANCH   2   3
ENDBRANCH   1   2
BRANCH   1   7
ATOM      7  C   UNL     1       9.284  -0.007   1.919  1.00  0.00     0.000 C 
BRANCH   7   8
ATOM      8  C   UNL     1       9.753  -0.805   3.146  1.00  0.00     0.004 C 
BRANCH   8   9
ATOM      9  C   UNL     1       8.599  -1.168   4.094  1.00  0.00     0.027 C 
BRANCH   9  10
ATOM     10  C   UNL     1       8.005  -2.503   3.737  1.00  0.00    -0.035 C 
ATOM     11  C   UNL     1       8.605  -3.651   4.063  1.00  0.00     0.004 C 
ENDBRANCH   9  10
ENDBRANCH   8   9
ENDBRANCH   7   8
ENDBRANCH   1   7
TORSDOF 7
ENDMDL
MODEL 7
REMARK VINA RESULT:    -4.159      3.168      5.436
REMARK INTER + INTRA:          -6.562
REMARK INTER:                  -6.209
REMARK INTRA:                  -0.352
REMARK UNBOUND:                -0.701
REMARK SMILES C=CCCCCCCC(=O)[O-]
REMARK SMILES IDX 6 1 7 2 8 3 9 4 10 5 11 6 5 7 4 8 3 9 2 10 1 11
REMARK H PARENT
REMARK Flexibility Score: inf
ROOT
ATOM      1  C   UNL     1       5.573   1.117   1.126  1.00  0.00     0.000 C 
ENDROOT
BRANCH   1   2
ATOM      2  C   UNL     1       7.067   1.337   0.824  1.00  0.00     0.006 C 
BRANCH   2   3
ATOM      3  C   UNL     1       7.479   2.818   0.750  1.00  0.00     0.053 C 
BRANCH   3   4
ATOM      4  C   UNL     1       6.944   3.504  -0.471  1.00  0.00     0.041 C 
ATOM      5  O   UNL     1       6.767   2.854  -1.535  1.00  0.00    -0.550 OA
ATOM      6  O   UNL     1       6.675   4.866  -0.446  1.00  0.00    -0.550 OA
ENDBRANCH   3   4
ENDBRANCH   2   3
ENDBRANCH   1   2
BRANCH   1   7
ATOM      7  C   UNL     1       5.311  -0.134   1.982  1.00  0.00     0.000 C 
BRANCH   7   8
ATOM      8  C   UNL     1       5.335  -1.428   1.153  1.00  0.00     0.004 C 
BRANCH   8   9
ATOM      9  C   UNL     1       6.005  -2.594   1.896  1.00  0.00     0.027 C 
BRANCH   9  10
ATOM     10  C   UNL     1       6.728  -2.111   3.124  1.00  0.00    -0.035 C 
ATOM     11  C   UNL     1       7.621  -2.874   3.761  1.00  0.00     0.004 C 
ENDBRANCH   9  10
ENDBRANCH   8   9
ENDBRANCH   7   8
ENDBRANCH   1   7
TORSDOF 7
ENDMDL
MODEL 8
REMARK VINA RESULT:    -4.079      3.297      5.557
REMARK INTER + INTRA:          -6.449
REMARK INTER:                  -5.806
REMARK INTRA:                  -0.643
REMARK UNBOUND:                -0.701
REMARK SMILES C=CCCCCCCC(=O)[O-]
REMARK SMILES IDX 6 1 7 2 8 3 9 4 10 5 11 6 5 7 4 8 3 9 2 10 1 11
REMARK H PARENT
REMARK Flexibility Score: inf
ROOT
ATOM      1  C   UNL     1       5.691  -1.075   1.808  1.00  0.00     0.000 C 
ENDROOT
BRANCH   1   2
ATOM      2  C   UNL     1       6.942  -0.222   1.526  1.00  0.00     0.006 C 
BRANCH   2   3
ATOM      3  C   UNL     1       6.866   1.207   2.091  1.00  0.00     0.053 C 
BRANCH   3   4
ATOM      4  C   UNL     1       8.140   1.972   1.896  1.00  0.00     0.041 C 
ATOM      5  O   UNL     1       8.120   3.107   1.352  1.00  0.00    -0.550 OA
ATOM      6  O   UNL     1       9.353   1.418   2.284  1.00  0.00    -0.550 OA
ENDBRANCH   3   4
ENDBRANCH   2   3
ENDBRANCH   1   2
BRANCH   1   7
ATOM      7  C   UNL     1       6.028  -2.500   2.278  1.00  0.00     0.000 C 
BRANCH   7   8
ATOM      8  C   UNL     1       6.668  -2.523   3.674  1.00  0.00     0.004 C 
BRANCH   8   9
ATOM      9  C   UNL     1       8.009  -3.273   3.699  1.00  0.00     0.027 C 
BRANCH   9  10
ATOM     10  C   UNL     1       9.141  -2.349   4.057  1.00  0.00    -0.035 C 
ATOM     11  C   UNL     1       8.923  -1.135   4.571  1.00  0.00     0.004 C 
ENDBRANCH   9  10
ENDBRANCH   8   9
ENDBRANCH   7   8
ENDBRANCH   1   7
TORSDOF 7
ENDMDL
MODEL 9
REMARK VINA RESULT:    -4.058      3.262      5.238
REMARK INTER + INTRA:          -6.419
REMARK INTER:                  -6.079
REMARK INTRA:                  -0.340
REMARK UNBOUND:                -0.701
REMARK SMILES C=CCCCCCCC(=O)[O-]
REMARK SMILES IDX 6 1 7 2 8 3 9 4 10 5 11 6 5 7 4 8 3 9 2 10 1 11
REMARK H PARENT
REMARK Flexibility Score: inf
ROOT
ATOM      1  C   UNL     1       7.393  -0.082   1.644  1.00  0.00     0.000 C 
ENDROOT
BRANCH   1   2
ATOM      2  C   UNL     1       6.351   0.967   1.215  1.00  0.00     0.006 C 
BRANCH   2   3
ATOM      3  C   UNL     1       6.962   2.248   0.619  1.00  0.00     0.053 C 
BRANCH   3   4
ATOM      4  C   UNL     1       6.392   2.587  -0.725  1.00  0.00     0.041 C 
ATOM      5  O   UNL     1       5.282   3.176  -0.811  1.00  0.00    -0.550 OA
ATOM      6  O   UNL     1       7.067   2.223  -1.882  1.00  0.00    -0.550 OA
ENDBRANCH   3   4
ENDBRANCH   2   3
ENDBRANCH   1   2
BRANCH   1   7
ATOM      7  C   UNL     1       8.790   0.518   1.877  1.00  0.00     0.000 C 
BRANCH   7   8
ATOM      8  C   UNL     1       9.719  -0.436   2.644  1.00  0.00     0.004 C 
BRANCH   8   9
ATOM      9  C   UNL     1       9.054  -1.034   3.894  1.00  0.00     0.027 C 
BRANCH   9  10
ATOM     10  C   UNL     1       9.504  -2.451   4.122  1.00  0.00    -0.035 C 
ATOM     11  C   UNL     1       8.649  -3.477   4.083  1.00  0.00     0.004 C 
ENDBRANCH   9  10
ENDBRANCH   8   9
ENDBRANCH   7   8
ENDBRANCH   1   7
TORSDOF 7
ENDMDL
