MODEL 1
REMARK VINA RESULT:    -3.252      0.000      0.000
REMARK INTER + INTRA:          -5.065
REMARK INTER:                  -4.393
REMARK INTRA:                  -0.672
REMARK UNBOUND:                -0.672
REMARK SMILES CCCCCCCC(=O)[O-]
REMARK SMILES IDX 5 1 6 2 7 3 8 4 9 5 10 6 4 7 3 8 2 9 1 10
REMARK H PARENT
REMARK Flexibility Score: inf
ROOT
ATOM      1  C   UNL     1     129.219 133.422 114.771  1.00  0.00     0.000 C 
ENDROOT
BRANCH   1   2
ATOM      2  C   UNL     1     127.849 133.695 115.423  1.00  0.00     0.006 C 
BRANCH   2   3
ATOM      3  C   UNL     1     127.863 133.620 116.961  1.00  0.00     0.053 C 
BRANCH   3   4
ATOM      4  C   UNL     1     128.042 132.221 117.469  1.00  0.00     0.041 C 
ATOM      5  O   UNL     1     127.060 131.432 117.518  1.00  0.00    -0.550 OA
ATOM      6  O   UNL     1     129.300 131.776 117.853  1.00  0.00    -0.550 OA
ENDBRANCH   3   4
ENDBRANCH   2   3
ENDBRANCH   1   2
BRANCH   1   7
ATOM      7  C   UNL     1     129.307 132.124 113.946  1.00  0.00     0.000 C 
BRANCH   7   8
ATOM      8  C   UNL     1     127.963 131.411 113.694  1.00  0.00    -0.000 C 
BRANCH   8   9
ATOM      9  C   UNL     1     127.820 130.038 114.372  1.00  0.00    -0.003 C 
ATOM     10  C   UNL     1     129.095 129.590 115.084  1.00  0.00     0.004 C 
ENDBRANCH   8   9
ENDBRANCH   7   8
ENDBRANCH   1   7
TORSDOF 6
ENDMDL
MODEL 2
REMARK VINA RESULT:    -3.175     15.752     16.917
REMARK INTER + INTRA:          -4.960
REMARK INTER:                  -4.320
REMARK INTRA:                  -0.640
REMARK UNBOUND:                -0.672
REMARK SMILES CCCCCCCC(=O)[O-]
REMARK SMILES IDX 5 1 6 2 7 3 8 4 9 5 10 6 4 7 3 8 2 9 1 10
REMARK H PARENT
REMARK Flexibility Score: inf
ROOT
ATOM      1  C   UNL     1     142.456 127.617 116.539  1.00  0.00     0.000 C 
ENDROOT
BRANCH   1   2
ATOM      2  C   UNL     1     143.428 127.077 117.606  1.00  0.00     0.006 C 
BRANCH   2   3
ATOM      3  C   UNL     1     144.006 128.163 118.532  1.00  0.00     0.053 C 
BRANCH   3   4
ATOM      4  C   UNL     1     145.474 128.381 118.318  1.00  0.00     0.041 C 
ATOM      5  O   UNL     1     145.926 129.547 118.164  1.00  0.00    -0.550 OA
ATOM      6  O   UNL     1     146.347 127.301 118.327  1.00  0.00    -0.550 OA
ENDBRANCH   3   4
ENDBRANCH   2   3
ENDBRANCH   1   2
BRANCH   1   7
ATOM      7  C   UNL     1     143.058 127.796 115.132  1.00  0.00     0.000 C 
BRANCH   7   8
ATOM      8  C   UNL     1     144.457 127.177 114.931  1.00  0.00    -0.000 C 
BRANCH   8   9
ATOM      9  C   UNL     1     145.569 128.184 114.594  1.00  0.00    -0.003 C 
ATOM     10  C   UNL     1     145.101 129.637 114.671  1.00  0.00     0.004 C 
ENDBRANCH   8   9
ENDBRANCH   7   8
ENDBRANCH   1   7
TORSDOF 6
ENDMDL
MODEL 3
REMARK VINA RESULT:    -3.174     14.865     15.868
REMARK INTER + INTRA:          -4.959
REMARK INTER:                  -4.314
REMARK INTRA:                  -0.645
REMARK UNBOUND:                -0.672
REMARK SMILES CCCCCCCC(=O)[O-]
REMARK SMILES IDX 5 1 6 2 7 3 8 4 9 5 10 6 4 7 3 8 2 9 1 10
REMARK H PARENT
REMARK Flexibility Score: inf
ROOT
ATOM      1  C   UNL     1     143.935 130.329 115.538  1.00  0.00     0.000 C 
ENDROOT
BRANCH   1   2
ATOM      2  C   UNL     1     142.729 129.776 114.754  1.00  0.00     0.006 C 
BRANCH   2   3
ATOM      3  C   UNL     1     141.686 129.062 115.634  1.00  0.00     0.053 C 
BRANCH   3   4
ATOM      4  C   UNL     1     141.953 127.593 115.769  1.00  0.00     0.041 C 
ATOM      5  O   UNL     1     142.087 126.875 114.742  1.00  0.00    -0.550 OA
ATOM      6  O   UNL     1     142.093 127.023 117.028  1.00  0.00    -0.550 OA
ENDBRANCH   3   4
ENDBRANCH   2   3
ENDBRANCH   1   2
BRANCH   1   7
ATOM      7  C   UNL     1     145.295 129.698 115.184  1.00  0.00     0.000 C 
BRANCH   7   8
ATOM      8  C   UNL     1     145.256 128.631 114.072  1.00  0.00    -0.000 C 
BRANCH   8   9
ATOM      9  C   UNL     1     145.729 127.231 114.498  1.00  0.00    -0.003 C 
ATOM     10  C   UNL     1     145.686 127.024 116.011  1.00  0.00     0.004 C 
ENDBRANCH   8   9
ENDBRANCH   7   8
ENDBRANCH   1   7
TORSDOF 6
ENDMDL
MODEL 4
REMARK VINA RESULT:    -3.171     15.653     16.732
REMARK INTER + INTRA:          -4.955
REMARK INTER:                  -4.335
REMARK INTRA:                  -0.621
REMARK UNBOUND:                -0.672
REMARK SMILES CCCCCCCC(=O)[O-]
REMARK SMILES IDX 5 1 6 2 7 3 8 4 9 5 10 6 4 7 3 8 2 9 1 10
REMARK H PARENT
REMARK Flexibility Score: inf
ROOT
ATOM      1  C   UNL     1     145.599 128.080 114.506  1.00  0.00     0.000 C 
ENDROOT
BRANCH   1   2
ATOM      2  C   UNL     1     145.376 129.587 114.743  1.00  0.00     0.006 C 
BRANCH   2   3
ATOM      3  C   UNL     1     146.184 130.161 115.921  1.00  0.00     0.053 C 
BRANCH   3   4
ATOM      4  C   UNL     1     145.460 130.044 117.229  1.00  0.00     0.041 C 
ATOM      5  O   UNL     1     145.968 129.391 118.179  1.00  0.00    -0.550 OA
ATOM      6  O   UNL     1     144.243 130.688 117.411  1.00  0.00    -0.550 OA
ENDBRANCH   3   4
ENDBRANCH   2   3
ENDBRANCH   1   2
BRANCH   1   7
ATOM      7  C   UNL     1     144.475 127.160 115.018  1.00  0.00     0.000 C 
BRANCH   7   8
ATOM      8  C   UNL     1     143.077 127.808 115.095  1.00  0.00    -0.000 C 
BRANCH   8   9
ATOM      9  C   UNL     1     142.367 127.660 116.451  1.00  0.00    -0.003 C 
ATOM     10  C   UNL     1     143.296 127.161 117.558  1.00  0.00     0.004 C 
ENDBRANCH   8   9
ENDBRANCH   7   8
ENDBRANCH   1   7
TORSDOF 6
ENDMDL
MODEL 5
REMARK VINA RESULT:    -3.141     16.143     17.163
REMARK INTER + INTRA:          -4.914
REMARK INTER:                  -4.615
REMARK INTRA:                  -0.299
REMARK UNBOUND:                -0.672
REMARK SMILES CCCCCCCC(=O)[O-]
REMARK SMILES IDX 5 1 6 2 7 3 8 4 9 5 10 6 4 7 3 8 2 9 1 10
REMARK H PARENT
REMARK Flexibility Score: inf
ROOT
ATOM      1  C   UNL     1     145.217 129.693 114.717  1.00  0.00     0.000 C 
ENDROOT
BRANCH   1   2
ATOM      2  C   UNL     1     145.893 130.171 116.017  1.00  0.00     0.006 C 
BRANCH   2   3
ATOM      3  C   UNL     1     146.771 131.424 115.841  1.00  0.00     0.053 C 
BRANCH   3   4
ATOM      4  C   UNL     1     146.103 132.672 116.335  1.00  0.00     0.041 C 
ATOM      5  O   UNL     1     146.792 133.675 116.659  1.00  0.00    -0.550 OA
ATOM      6  O   UNL     1     144.718 132.740 116.401  1.00  0.00    -0.550 OA
ENDBRANCH   3   4
ENDBRANCH   2   3
ENDBRANCH   1   2
BRANCH   1   7
ATOM      7  C   UNL     1     145.541 128.246 114.302  1.00  0.00     0.000 C 
BRANCH   7   8
ATOM      8  C   UNL     1     144.667 127.160 114.962  1.00  0.00    -0.000 C 
BRANCH   8   9
ATOM      9  C   UNL     1     143.172 127.506 115.068  1.00  0.00    -0.003 C 
ATOM     10  C   UNL     1     142.654 127.472 116.505  1.00  0.00     0.004 C 
ENDBRANCH   8   9
ENDBRANCH   7   8
ENDBRANCH   1   7
TORSDOF 6
ENDMDL
MODEL 6
REMARK VINA RESULT:    -3.137      2.032      2.831
REMARK INTER + INTRA:          -4.909
REMARK INTER:                  -4.366
REMARK INTRA:                  -0.543
REMARK UNBOUND:                -0.672
REMARK SMILES CCCCCCCC(=O)[O-]
REMARK SMILES IDX 5 1 6 2 7 3 8 4 9 5 10 6 4 7 3 8 2 9 1 10
REMARK H PARENT
REMARK Flexibility Score: inf
ROOT
ATOM      1  C   UNL     1     129.645 133.054 114.157  1.00  0.00     0.000 C 
ENDROOT
BRANCH   1   2
ATOM      2  C   UNL     1     128.242 132.415 114.127  1.00  0.00     0.006 C 
BRANCH   2   3
ATOM      3  C   UNL     1     128.247 130.888 114.323  1.00  0.00     0.053 C 
BRANCH   3   4
ATOM      4  C   UNL     1     128.223 130.491 115.769  1.00  0.00     0.041 C 
ATOM      5  O   UNL     1     127.579 131.179 116.605  1.00  0.00    -0.550 OA
ATOM      6  O   UNL     1     128.879 129.341 116.186  1.00  0.00    -0.550 OA
ENDBRANCH   3   4
ENDBRANCH   2   3
ENDBRANCH   1   2
BRANCH   1   7
ATOM      7  C   UNL     1     130.479 132.870 112.875  1.00  0.00     0.000 C 
BRANCH   7   8
ATOM      8  C   UNL     1     131.717 131.961 113.020  1.00  0.00    -0.000 C 
BRANCH   8   9
ATOM      9  C   UNL     1     131.900 131.332 114.412  1.00  0.00    -0.003 C 
ATOM     10  C   UNL     1     132.028 129.810 114.364  1.00  0.00     0.004 C 
ENDBRANCH   8   9
ENDBRANCH   7   8
ENDBRANCH   1   7
TORSDOF 6
ENDMDL
MODEL 7
REMARK VINA RESULT:    -3.097     16.612     17.555
REMARK INTER + INTRA:          -4.854
REMARK INTER:                  -4.515
REMARK INTRA:                  -0.340
REMARK UNBOUND:                -0.672
REMARK SMILES CCCCCCCC(=O)[O-]
REMARK SMILES IDX 5 1 6 2 7 3 8 4 9 5 10 6 4 7 3 8 2 9 1 10
REMARK H PARENT
REMARK Flexibility Score: inf
ROOT
ATOM      1  C   UNL     1     144.436 130.527 115.525  1.00  0.00     0.000 C 
ENDROOT
BRANCH   1   2
ATOM      2  C   UNL     1     145.793 130.623 116.250  1.00  0.00     0.006 C 
BRANCH   2   3
ATOM      3  C   UNL     1     146.608 131.878 115.887  1.00  0.00     0.053 C 
BRANCH   3   4
ATOM      4  C   UNL     1     146.243 133.066 116.726  1.00  0.00     0.041 C 
ATOM      5  O   UNL     1     145.427 132.944 117.678  1.00  0.00    -0.550 OA
ATOM      6  O   UNL     1     146.833 134.298 116.481  1.00  0.00    -0.550 OA
ENDBRANCH   3   4
ENDBRANCH   2   3
ENDBRANCH   1   2
BRANCH   1   7
ATOM      7  C   UNL     1     144.240 129.268 114.660  1.00  0.00     0.000 C 
BRANCH   7   8
ATOM      8  C   UNL     1     145.536 128.528 114.271  1.00  0.00    -0.000 C 
BRANCH   8   9
ATOM      9  C   UNL     1     145.594 127.052 114.701  1.00  0.00    -0.003 C 
ATOM     10  C   UNL     1     145.925 126.876 116.182  1.00  0.00     0.004 C 
ENDBRANCH   8   9
ENDBRANCH   7   8
ENDBRANCH   1   7
TORSDOF 6
ENDMDL
MODEL 8
REMARK VINA RESULT:    -3.094     16.172     17.355
REMARK INTER + INTRA:          -4.851
REMARK INTER:                  -4.286
REMARK INTRA:                  -0.565
REMARK UNBOUND:                -0.672
REMARK SMILES CCCCCCCC(=O)[O-]
REMARK SMILES IDX 5 1 6 2 7 3 8 4 9 5 10 6 4 7 3 8 2 9 1 10
REMARK H PARENT
REMARK Flexibility Score: inf
ROOT
ATOM      1  C   UNL     1     145.635 127.375 114.515  1.00  0.00     0.000 C 
ENDROOT
BRANCH   1   2
ATOM      2  C   UNL     1     145.967 127.100 115.995  1.00  0.00     0.006 C 
BRANCH   2   3
ATOM      3  C   UNL     1     144.729 127.000 116.905  1.00  0.00     0.053 C 
BRANCH   3   4
ATOM      4  C   UNL     1     144.923 127.691 118.221  1.00  0.00     0.041 C 
ATOM      5  O   UNL     1     145.943 128.404 118.420  1.00  0.00    -0.550 OA
ATOM      6  O   UNL     1     143.960 127.579 119.215  1.00  0.00    -0.550 OA
ENDBRANCH   3   4
ENDBRANCH   2   3
ENDBRANCH   1   2
BRANCH   1   7
ATOM      7  C   UNL     1     145.382 128.853 114.162  1.00  0.00     0.000 C 
BRANCH   7   8
ATOM      8  C   UNL     1     145.944 129.877 115.169  1.00  0.00    -0.000 C 
BRANCH   8   9
ATOM      9  C   UNL     1     144.889 130.764 115.850  1.00  0.00    -0.003 C 
ATOM     10  C   UNL     1     143.469 130.482 115.363  1.00  0.00     0.004 C 
ENDBRANCH   8   9
ENDBRANCH   7   8
ENDBRANCH   1   7
TORSDOF 6
ENDMDL
MODEL 9
REMARK VINA RESULT:    -3.031     10.518     11.647
REMARK INTER + INTRA:          -4.766
REMARK INTER:                  -4.185
REMARK INTRA:                  -0.581
REMARK UNBOUND:                -0.672
REMARK SMILES CCCCCCCC(=O)[O-]
REMARK SMILES IDX 5 1 6 2 7 3 8 4 9 5 10 6 4 7 3 8 2 9 1 10
REMARK H PARENT
REMARK Flexibility Score: inf
ROOT
ATOM      1  C   UNL     1     127.809 141.897 115.287  1.00  0.00     0.000 C 
ENDROOT
BRANCH   1   2
ATOM      2  C   UNL     1     127.665 141.856 116.821  1.00  0.00     0.006 C 
BRANCH   2   3
ATOM      3  C   UNL     1     128.923 142.319 117.580  1.00  0.00     0.053 C 
BRANCH   3   4
ATOM      4  C   UNL     1     128.702 143.589 118.345  1.00  0.00     0.041 C 
ATOM      5  O   UNL     1     128.611 144.688 117.738  1.00  0.00    -0.550 OA
ATOM      6  O   UNL     1     128.558 143.553 119.726  1.00  0.00    -0.550 OA
ENDBRANCH   3   4
ENDBRANCH   2   3
ENDBRANCH   1   2
BRANCH   1   7
ATOM      7  C   UNL     1     127.647 143.290 114.648  1.00  0.00     0.000 C 
BRANCH   7   8
ATOM      8  C   UNL     1     128.821 143.747 113.759  1.00  0.00    -0.000 C 
BRANCH   8   9
ATOM      9  C   UNL     1     130.212 143.302 114.241  1.00  0.00    -0.003 C 
ATOM     10  C   UNL     1     130.961 144.400 114.994  1.00  0.00     0.004 C 
ENDBRANCH   8   9
ENDBRANCH   7   8
ENDBRANCH   1   7
TORSDOF 6
ENDMDL
