MODEL 1
REMARK VINA RESULT:     0.120      0.000      0.000
REMARK INTER + INTRA:           0.643
REMARK INTER:                   0.184
REMARK INTRA:                   0.460
REMARK UNBOUND:                 0.460
REMARK SMILES CCCCCCCCCCC(=O)[O-]
REMARK SMILES IDX 7 1 8 2 9 3 10 4 11 5 12 6 13 7 6 8 5 9 4 10 3 11 2 12 1 13
REMARK H PARENT
REMARK Flexibility Score: inf
ROOT
ATOM      1  C   UNL     1      16.069  -7.262  27.052  1.00  0.00     0.000 C 
ENDROOT
BRANCH   1   2
ATOM      2  C   UNL     1      15.956  -8.790  27.005  1.00  0.00     0.000 C 
BRANCH   2   3
ATOM      3  C   UNL     1      16.684  -9.358  25.778  1.00  0.00     0.006 C 
BRANCH   3   4
ATOM      4  C   UNL     1      16.851  -8.314  24.666  1.00  0.00     0.053 C 
BRANCH   4   5
ATOM      5  C   UNL     1      18.280  -7.890  24.512  1.00  0.00     0.041 C 
ATOM      6  O   UNL     1      18.685  -6.825  25.046  1.00  0.00    -0.550 OA
ATOM      7  O   UNL     1      19.170  -8.689  23.807  1.00  0.00    -0.550 OA
ENDBRANCH   4   5
ENDBRANCH   3   4
ENDBRANCH   2   3
ENDBRANCH   1   2
BRANCH   1   8
ATOM      8  C   UNL     1      15.892  -6.741  28.484  1.00  0.00     0.000 C 
BRANCH   8   9
ATOM      9  C   UNL     1      16.208  -7.834  29.511  1.00  0.00    -0.000 C 
BRANCH   9  10
ATOM     10  C   UNL     1      17.599  -7.630  30.123  1.00  0.00    -0.000 C 
BRANCH  10  11
ATOM     11  C   UNL     1      18.396  -8.943  30.125  1.00  0.00    -0.000 C 
BRANCH  11  12
ATOM     12  C   UNL     1      17.664 -10.078  29.392  1.00  0.00    -0.003 C 
ATOM     13  C   UNL     1      16.376 -10.502  30.096  1.00  0.00     0.004 C 
ENDBRANCH  11  12
ENDBRANCH  10  11
ENDBRANCH   9  10
ENDBRANCH   8   9
ENDBRANCH   1   8
TORSDOF 9
ENDMDL
MODEL 2
REMARK VINA RESULT:     2.322      2.573      5.186
REMARK INTER + INTRA:           4.004
REMARK INTER:                   3.509
REMARK INTRA:                   0.495
REMARK UNBOUND:                 0.460
REMARK SMILES CCCCCCCCCCC(=O)[O-]
REMARK SMILES IDX 7 1 8 2 9 3 10 4 11 5 12 6 13 7 6 8 5 9 4 10 3 11 2 12 1 13
REMARK H PARENT
REMARK Flexibility Score: inf
ROOT
ATOM      1  C   UNL     1      16.507  -7.532  27.493  1.00  0.00     0.000 C 
ENDROOT
BRANCH   1   2
ATOM      2  C   UNL     1      15.875  -7.504  28.890  1.00  0.00     0.000 C 
BRANCH   2   3
ATOM      3  C   UNL     1      16.915  -7.132  29.957  1.00  0.00     0.006 C 
BRANCH   3   4
ATOM      4  C   UNL     1      18.118  -8.085  29.953  1.00  0.00     0.053 C 
BRANCH   4   5
ATOM      5  C   UNL     1      17.691  -9.520  29.999  1.00  0.00     0.041 C 
ATOM      6  O   UNL     1      16.473  -9.815  30.116  1.00  0.00    -0.550 OA
ATOM      7  O   UNL     1      18.635 -10.531  29.879  1.00  0.00    -0.550 OA
ENDBRANCH   4   5
ENDBRANCH   3   4
ENDBRANCH   2   3
ENDBRANCH   1   2
BRANCH   1   8
ATOM      8  C   UNL     1      16.569  -8.963  26.944  1.00  0.00     0.000 C 
BRANCH   8   9
ATOM      9  C   UNL     1      15.955  -9.042  25.541  1.00  0.00    -0.000 C 
BRANCH   9  10
ATOM     10  C   UNL     1      16.799  -8.261  24.526  1.00  0.00    -0.000 C 
BRANCH  10  11
ATOM     11  C   UNL     1      18.250  -8.765  24.515  1.00  0.00    -0.000 C 
BRANCH  11  12
ATOM     12  C   UNL     1      19.272  -7.617  24.521  1.00  0.00    -0.003 C 
ATOM     13  C   UNL     1      18.635  -6.256  24.246  1.00  0.00     0.004 C 
ENDBRANCH  11  12
ENDBRANCH  10  11
ENDBRANCH   9  10
ENDBRANCH   8   9
ENDBRANCH   1   8
TORSDOF 9
ENDMDL
