MODEL 1
REMARK VINA RESULT:    -4.715      0.000      0.000
REMARK INTER + INTRA:          -5.365
REMARK INTER:                  -5.129
REMARK INTRA:                  -0.236
REMARK UNBOUND:                -0.236
REMARK SMILES O=C([O-])c1ccccc1O
REMARK SMILES IDX 4 1 9 2 5 3 8 4 6 5 7 6 2 7 1 8 3 9 10 10
REMARK H PARENT 10 11
REMARK Flexibility Score: inf
ROOT
ATOM      1  C   UNL     1      20.387  32.975  53.013  1.00  0.00     0.039 A 
ATOM      2  C   UNL     1      19.045  32.528  53.005  1.00  0.00     0.124 A 
ATOM      3  C   UNL     1      20.664  34.299  52.619  1.00  0.00     0.014 A 
ATOM      4  C   UNL     1      18.018  33.399  52.609  1.00  0.00     0.047 A 
ATOM      5  C   UNL     1      19.633  35.156  52.226  1.00  0.00     0.001 A 
ATOM      6  C   UNL     1      18.312  34.708  52.222  1.00  0.00     0.004 A 
ENDROOT
BRANCH   1   7
ATOM      7  C   UNL     1      21.508  32.093  53.424  1.00  0.00     0.075 C 
ATOM      8  O   UNL     1      21.545  31.583  54.575  1.00  0.00    -0.545 OA
ATOM      9  O   UNL     1      22.541  31.812  52.537  1.00  0.00    -0.545 OA
ENDBRANCH   1   7
BRANCH   2  10
ATOM     10  O   UNL     1      18.725  31.224  53.388  1.00  0.00    -0.507 OA
ATOM     11  H   UNL     1      18.059  31.035  54.128  1.00  0.00     0.293 HD
ENDBRANCH   2  10
TORSDOF 2
ENDMDL
MODEL 2
REMARK VINA RESULT:    -4.713      2.664      3.427
REMARK INTER + INTRA:          -5.362
REMARK INTER:                  -5.108
REMARK INTRA:                  -0.255
REMARK UNBOUND:                -0.236
REMARK SMILES O=C([O-])c1ccccc1O
REMARK SMILES IDX 4 1 9 2 5 3 8 4 6 5 7 6 2 7 1 8 3 9 10 10
REMARK H PARENT 10 11
REMARK Flexibility Score: inf
ROOT
ATOM      1  C   UNL     1      19.767  34.138  52.677  1.00  0.00     0.039 A 
ATOM      2  C   UNL     1      18.601  33.359  52.488  1.00  0.00     0.124 A 
ATOM      3  C   UNL     1      20.916  33.520  53.210  1.00  0.00     0.014 A 
ATOM      4  C   UNL     1      18.604  31.998  52.829  1.00  0.00     0.047 A 
ATOM      5  C   UNL     1      20.906  32.165  53.546  1.00  0.00     0.001 A 
ATOM      6  C   UNL     1      19.752  31.404  53.356  1.00  0.00     0.004 A 
ENDROOT
BRANCH   1   7
ATOM      7  C   UNL     1      19.815  35.580  52.330  1.00  0.00     0.075 C 
ATOM      8  O   UNL     1      20.308  36.423  53.124  1.00  0.00    -0.545 OA
ATOM      9  O   UNL     1      19.312  36.026  51.112  1.00  0.00    -0.545 OA
ENDBRANCH   1   7
BRANCH   2  10
ATOM     10  O   UNL     1      17.440  33.929  51.962  1.00  0.00    -0.507 OA
ATOM     11  H   UNL     1      17.451  34.833  51.505  1.00  0.00     0.293 HD
ENDBRANCH   2  10
TORSDOF 2
ENDMDL
MODEL 3
REMARK VINA RESULT:    -4.427      1.086      1.403
REMARK INTER + INTRA:          -5.051
REMARK INTER:                  -4.799
REMARK INTRA:                  -0.252
REMARK UNBOUND:                -0.236
REMARK SMILES O=C([O-])c1ccccc1O
REMARK SMILES IDX 4 1 9 2 5 3 8 4 6 5 7 6 2 7 1 8 3 9 10 10
REMARK H PARENT 10 11
REMARK Flexibility Score: inf
ROOT
ATOM      1  C   UNL     1      20.618  32.994  52.582  1.00  0.00     0.039 A 
ATOM      2  C   UNL     1      19.635  32.778  53.578  1.00  0.00     0.124 A 
ATOM      3  C   UNL     1      20.379  33.967  51.592  1.00  0.00     0.014 A 
ATOM      4  C   UNL     1      18.449  33.529  53.565  1.00  0.00     0.047 A 
ATOM      5  C   UNL     1      19.194  34.707  51.591  1.00  0.00     0.001 A 
ATOM      6  C   UNL     1      18.230  34.488  52.576  1.00  0.00     0.004 A 
ENDROOT
BRANCH   1   7
ATOM      7  C   UNL     1      21.889  32.227  52.553  1.00  0.00     0.075 C 
ATOM      8  O   UNL     1      22.273  31.647  51.503  1.00  0.00    -0.545 OA
ATOM      9  O   UNL     1      22.681  32.138  53.692  1.00  0.00    -0.545 OA
ENDBRANCH   1   7
BRANCH   2  10
ATOM     10  O   UNL     1      19.830  31.825  54.578  1.00  0.00    -0.507 OA
ATOM     11  H   UNL     1      19.708  32.050  55.558  1.00  0.00     0.293 HD
ENDBRANCH   2  10
TORSDOF 2
ENDMDL
MODEL 4
REMARK VINA RESULT:    -4.318      2.612      4.748
REMARK INTER + INTRA:          -4.933
REMARK INTER:                  -4.678
REMARK INTRA:                  -0.255
REMARK UNBOUND:                -0.236
REMARK SMILES O=C([O-])c1ccccc1O
REMARK SMILES IDX 4 1 9 2 5 3 8 4 6 5 7 6 2 7 1 8 3 9 10 10
REMARK H PARENT 10 11
REMARK Flexibility Score: inf
ROOT
ATOM      1  C   UNL     1      22.842  32.097  52.995  1.00  0.00     0.039 A 
ATOM      2  C   UNL     1      23.380  31.608  51.781  1.00  0.00     0.124 A 
ATOM      3  C   UNL     1      23.719  32.382  54.061  1.00  0.00     0.014 A 
ATOM      4  C   UNL     1      24.765  31.416  51.656  1.00  0.00     0.047 A 
ATOM      5  C   UNL     1      25.095  32.186  53.923  1.00  0.00     0.001 A 
ATOM      6  C   UNL     1      25.618  31.704  52.723  1.00  0.00     0.004 A 
ENDROOT
BRANCH   1   7
ATOM      7  C   UNL     1      21.385  32.318  53.178  1.00  0.00     0.075 C 
ATOM      8  O   UNL     1      20.793  31.922  54.216  1.00  0.00    -0.545 OA
ATOM      9  O   UNL     1      20.647  32.971  52.197  1.00  0.00    -0.545 OA
ENDBRANCH   1   7
BRANCH   2  10
ATOM     10  O   UNL     1      22.549  31.312  50.700  1.00  0.00    -0.507 OA
ATOM     11  H   UNL     1      22.020  32.033  50.224  1.00  0.00     0.293 HD
ENDBRANCH   2  10
TORSDOF 2
ENDMDL
MODEL 5
REMARK VINA RESULT:    -4.139      1.720      3.675
REMARK INTER + INTRA:          -4.738
REMARK INTER:                  -4.491
REMARK INTRA:                  -0.246
REMARK UNBOUND:                -0.236
REMARK SMILES O=C([O-])c1ccccc1O
REMARK SMILES IDX 4 1 9 2 5 3 8 4 6 5 7 6 2 7 1 8 3 9 10 10
REMARK H PARENT 10 11
REMARK Flexibility Score: inf
ROOT
ATOM      1  C   UNL     1      20.458  32.371  52.505  1.00  0.00     0.039 A 
ATOM      2  C   UNL     1      21.372  31.922  53.487  1.00  0.00     0.124 A 
ATOM      3  C   UNL     1      20.868  32.398  51.157  1.00  0.00     0.014 A 
ATOM      4  C   UNL     1      22.661  31.513  53.109  1.00  0.00     0.047 A 
ATOM      5  C   UNL     1      22.153  31.989  50.795  1.00  0.00     0.001 A 
ATOM      6  C   UNL     1      23.048  31.547  51.769  1.00  0.00     0.004 A 
ENDROOT
BRANCH   1   7
ATOM      7  C   UNL     1      19.084  32.813  52.853  1.00  0.00     0.075 C 
ATOM      8  O   UNL     1      18.397  32.190  53.705  1.00  0.00    -0.545 OA
ATOM      9  O   UNL     1      18.530  33.932  52.239  1.00  0.00    -0.545 OA
ENDBRANCH   1   7
BRANCH   2  10
ATOM     10  O   UNL     1      21.009  31.879  54.833  1.00  0.00    -0.507 OA
ATOM     11  H   UNL     1      21.608  31.457  55.533  1.00  0.00     0.293 HD
ENDBRANCH   2  10
TORSDOF 2
ENDMDL
MODEL 6
REMARK VINA RESULT:    -4.104      3.040      3.865
REMARK INTER + INTRA:          -4.700
REMARK INTER:                  -4.474
REMARK INTRA:                  -0.226
REMARK UNBOUND:                -0.236
REMARK SMILES O=C([O-])c1ccccc1O
REMARK SMILES IDX 4 1 9 2 5 3 8 4 6 5 7 6 2 7 1 8 3 9 10 10
REMARK H PARENT 10 11
REMARK Flexibility Score: inf
ROOT
ATOM      1  C   UNL     1      23.212  31.709  52.209  1.00  0.00     0.039 A 
ATOM      2  C   UNL     1      22.174  31.806  51.252  1.00  0.00     0.124 A 
ATOM      3  C   UNL     1      22.895  31.863  53.573  1.00  0.00     0.014 A 
ATOM      4  C   UNL     1      20.857  32.052  51.670  1.00  0.00     0.047 A 
ATOM      5  C   UNL     1      21.580  32.108  53.975  1.00  0.00     0.001 A 
ATOM      6  C   UNL     1      20.562  32.202  53.026  1.00  0.00     0.004 A 
ENDROOT
BRANCH   1   7
ATOM      7  C   UNL     1      24.621  31.449  51.818  1.00  0.00     0.075 C 
ATOM      8  O   UNL     1      25.255  32.263  51.096  1.00  0.00    -0.545 OA
ATOM      9  O   UNL     1      25.266  30.295  52.247  1.00  0.00    -0.545 OA
ENDBRANCH   1   7
BRANCH   2  10
ATOM     10  O   UNL     1      22.443  31.660  49.890  1.00  0.00    -0.507 OA
ATOM     11  H   UNL     1      21.856  32.086  49.183  1.00  0.00     0.293 HD
ENDBRANCH   2  10
TORSDOF 2
ENDMDL
MODEL 7
REMARK VINA RESULT:    -4.007      3.026      4.342
REMARK INTER + INTRA:          -4.594
REMARK INTER:                  -4.510
REMARK INTRA:                  -0.085
REMARK UNBOUND:                -0.236
REMARK SMILES O=C([O-])c1ccccc1O
REMARK SMILES IDX 4 1 9 2 5 3 8 4 6 5 7 6 2 7 1 8 3 9 10 10
REMARK H PARENT 10 11
REMARK Flexibility Score: inf
ROOT
ATOM      1  C   UNL     1      23.856  31.662  52.118  1.00  0.00     0.039 A 
ATOM      2  C   UNL     1      23.321  32.037  53.373  1.00  0.00     0.124 A 
ATOM      3  C   UNL     1      22.992  31.583  51.008  1.00  0.00     0.014 A 
ATOM      4  C   UNL     1      21.952  32.322  53.494  1.00  0.00     0.047 A 
ATOM      5  C   UNL     1      21.631  31.868  51.142  1.00  0.00     0.001 A 
ATOM      6  C   UNL     1      21.112  32.238  52.383  1.00  0.00     0.004 A 
ENDROOT
BRANCH   1   7
ATOM      7  C   UNL     1      25.297  31.352  51.938  1.00  0.00     0.075 C 
ATOM      8  O   UNL     1      26.104  32.228  51.531  1.00  0.00    -0.545 OA
ATOM      9  O   UNL     1      25.780  30.079  52.220  1.00  0.00    -0.545 OA
ENDBRANCH   1   7
BRANCH   2  10
ATOM     10  O   UNL     1      24.140  32.129  54.499  1.00  0.00    -0.507 OA
ATOM     11  H   UNL     1      24.630  31.323  54.868  1.00  0.00     0.293 HD
ENDBRANCH   2  10
TORSDOF 2
ENDMDL
MODEL 8
REMARK VINA RESULT:    -3.937      2.225      3.541
REMARK INTER + INTRA:          -4.519
REMARK INTER:                  -4.278
REMARK INTRA:                  -0.241
REMARK UNBOUND:                -0.236
REMARK SMILES O=C([O-])c1ccccc1O
REMARK SMILES IDX 4 1 9 2 5 3 8 4 6 5 7 6 2 7 1 8 3 9 10 10
REMARK H PARENT 10 11
REMARK Flexibility Score: inf
ROOT
ATOM      1  C   UNL     1      19.695  33.368  52.542  1.00  0.00     0.039 A 
ATOM      2  C   UNL     1      19.410  32.763  53.789  1.00  0.00     0.124 A 
ATOM      3  C   UNL     1      20.927  33.087  51.918  1.00  0.00     0.014 A 
ATOM      4  C   UNL     1      20.347  31.901  54.381  1.00  0.00     0.047 A 
ATOM      5  C   UNL     1      21.851  32.228  52.518  1.00  0.00     0.001 A 
ATOM      6  C   UNL     1      21.561  31.635  53.747  1.00  0.00     0.004 A 
ENDROOT
BRANCH   1   7
ATOM      7  C   UNL     1      18.738  34.285  51.875  1.00  0.00     0.075 C 
ATOM      8  O   UNL     1      17.497  34.077  51.924  1.00  0.00    -0.545 OA
ATOM      9  O   UNL     1      19.200  35.399  51.182  1.00  0.00    -0.545 OA
ENDBRANCH   1   7
BRANCH   2  10
ATOM     10  O   UNL     1      18.202  33.013  54.443  1.00  0.00    -0.507 OA
ATOM     11  H   UNL     1      17.609  33.792  54.184  1.00  0.00     0.293 HD
ENDBRANCH   2  10
TORSDOF 2
ENDMDL
MODEL 9
REMARK VINA RESULT:    -3.908      3.481      4.374
REMARK INTER + INTRA:          -4.487
REMARK INTER:                  -4.233
REMARK INTRA:                  -0.255
REMARK UNBOUND:                -0.236
REMARK SMILES O=C([O-])c1ccccc1O
REMARK SMILES IDX 4 1 9 2 5 3 8 4 6 5 7 6 2 7 1 8 3 9 10 10
REMARK H PARENT 10 11
REMARK Flexibility Score: inf
ROOT
ATOM      1  C   UNL     1      23.816  32.109  53.322  1.00  0.00     0.039 A 
ATOM      2  C   UNL     1      23.850  31.662  51.979  1.00  0.00     0.124 A 
ATOM      3  C   UNL     1      22.574  32.452  53.892  1.00  0.00     0.014 A 
ATOM      4  C   UNL     1      22.659  31.568  51.242  1.00  0.00     0.047 A 
ATOM      5  C   UNL     1      21.396  32.354  53.146  1.00  0.00     0.001 A 
ATOM      6  C   UNL     1      21.439  31.913  51.824  1.00  0.00     0.004 A 
ENDROOT
BRANCH   1   7
ATOM      7  C   UNL     1      25.047  32.225  54.144  1.00  0.00     0.075 C 
ATOM      8  O   UNL     1      25.280  33.260  54.821  1.00  0.00    -0.545 OA
ATOM      9  O   UNL     1      25.967  31.183  54.179  1.00  0.00    -0.545 OA
ENDBRANCH   1   7
BRANCH   2  10
ATOM     10  O   UNL     1      25.058  31.312  51.375  1.00  0.00    -0.507 OA
ATOM     11  H   UNL     1      25.617  30.537  51.713  1.00  0.00     0.293 HD
ENDBRANCH   2  10
TORSDOF 2
ENDMDL
