MODEL 1
REMARK VINA RESULT:    -3.821      0.000      0.000
REMARK INTER + INTRA:          -5.571
REMARK INTER:                  -5.161
REMARK INTRA:                  -0.410
REMARK UNBOUND:                -0.410
REMARK SMILES CCCCCCC=CC(=O)[O-]
REMARK SMILES IDX 5 1 6 2 7 3 8 4 9 5 10 6 11 7 4 8 3 9 2 10 1 11
REMARK H PARENT
REMARK Flexibility Score: inf
ROOT
ATOM      1  C   UNL     1       3.422   4.355   9.816  1.00  0.00     0.004 C 
ENDROOT
BRANCH   1   2
ATOM      2  C   UNL     1       4.144   5.581   9.246  1.00  0.00     0.027 C 
BRANCH   2   3
ATOM      3  C   UNL     1       5.180   5.182   8.236  1.00  0.00    -0.025 C 
ATOM      4  C   UNL     1       6.447   5.597   8.333  1.00  0.00     0.020 C 
BRANCH   4   5
ATOM      5  C   UNL     1       7.482   5.208   7.362  1.00  0.00     0.064 C 
ATOM      6  O   UNL     1       7.485   5.673   6.191  1.00  0.00    -0.545 OA
ATOM      7  O   UNL     1       8.473   4.312   7.742  1.00  0.00    -0.545 OA
ENDBRANCH   4   5
ENDBRANCH   2   3
ENDBRANCH   1   2
BRANCH   1   8
ATOM      8  C   UNL     1       1.907   4.452   9.583  1.00  0.00     0.000 C 
BRANCH   8   9
ATOM      9  C   UNL     1       1.541   4.531   8.093  1.00  0.00    -0.000 C 
BRANCH   9  10
ATOM     10  C   UNL     1       1.065   3.185   7.527  1.00  0.00    -0.003 C 
ATOM     11  C   UNL     1       2.212   2.436   6.854  1.00  0.00     0.004 C 
ENDBRANCH   9  10
ENDBRANCH   8   9
ENDBRANCH   1   8
TORSDOF 6
ENDMDL
MODEL 2
REMARK VINA RESULT:    -3.813      1.469      2.624
REMARK INTER + INTRA:          -5.560
REMARK INTER:                  -5.286
REMARK INTRA:                  -0.275
REMARK UNBOUND:                -0.410
REMARK SMILES CCCCCCC=CC(=O)[O-]
REMARK SMILES IDX 5 1 6 2 7 3 8 4 9 5 10 6 11 7 4 8 3 9 2 10 1 11
REMARK H PARENT
REMARK Flexibility Score: inf
ROOT
ATOM      1  C   UNL     1       3.403   4.201   9.646  1.00  0.00     0.004 C 
ENDROOT
BRANCH   1   2
ATOM      2  C   UNL     1       4.140   5.494   9.278  1.00  0.00     0.027 C 
BRANCH   2   3
ATOM      3  C   UNL     1       5.151   5.255   8.194  1.00  0.00    -0.025 C 
ATOM      4  C   UNL     1       6.437   5.586   8.351  1.00  0.00     0.020 C 
BRANCH   4   5
ATOM      5  C   UNL     1       7.446   5.349   7.308  1.00  0.00     0.064 C 
ATOM      6  O   UNL     1       7.492   6.064   6.271  1.00  0.00    -0.545 OA
ATOM      7  O   UNL     1       8.364   4.318   7.466  1.00  0.00    -0.545 OA
ENDBRANCH   4   5
ENDBRANCH   2   3
ENDBRANCH   1   2
BRANCH   1   8
ATOM      8  C   UNL     1       1.895   4.453   9.798  1.00  0.00     0.000 C 
BRANCH   8   9
ATOM      9  C   UNL     1       1.283   3.687  10.981  1.00  0.00    -0.000 C 
BRANCH   9  10
ATOM     10  C   UNL     1       2.323   3.316  12.049  1.00  0.00    -0.003 C 
ATOM     11  C   UNL     1       2.245   4.262  13.244  1.00  0.00     0.004 C 
ENDBRANCH   9  10
ENDBRANCH   8   9
ENDBRANCH   1   8
TORSDOF 6
ENDMDL
MODEL 3
REMARK VINA RESULT:    -3.811     12.972     14.865
REMARK INTER + INTRA:          -5.559
REMARK INTER:                  -5.003
REMARK INTRA:                  -0.556
REMARK UNBOUND:                -0.410
REMARK SMILES CCCCCCC=CC(=O)[O-]
REMARK SMILES IDX 5 1 6 2 7 3 8 4 9 5 10 6 11 7 4 8 3 9 2 10 1 11
REMARK H PARENT
REMARK Flexibility Score: inf
ROOT
ATOM      1  C   UNL     1      -6.381  -3.724   9.031  1.00  0.00     0.004 C 
ENDROOT
BRANCH   1   2
ATOM      2  C   UNL     1      -6.606  -5.193   8.654  1.00  0.00     0.027 C 
BRANCH   2   3
ATOM      3  C   UNL     1      -7.466  -5.316   7.430  1.00  0.00    -0.025 C 
ATOM      4  C   UNL     1      -7.334  -4.480   6.396  1.00  0.00     0.020 C 
BRANCH   4   5
ATOM      5  C   UNL     1      -8.157  -4.590   5.181  1.00  0.00     0.064 C 
ATOM      6  O   UNL     1      -8.690  -3.573   4.661  1.00  0.00    -0.545 OA
ATOM      7  O   UNL     1      -8.351  -5.835   4.598  1.00  0.00    -0.545 OA
ENDBRANCH   4   5
ENDBRANCH   2   3
ENDBRANCH   1   2
BRANCH   1   8
ATOM      8  C   UNL     1      -4.896  -3.451   9.316  1.00  0.00     0.000 C 
BRANCH   8   9
ATOM      9  C   UNL     1      -4.085  -4.741   9.515  1.00  0.00    -0.000 C 
BRANCH   9  10
ATOM     10  C   UNL     1      -2.915  -4.863   8.528  1.00  0.00    -0.003 C 
ATOM     11  C   UNL     1      -3.127  -3.968   7.310  1.00  0.00     0.004 C 
ENDBRANCH   9  10
ENDBRANCH   8   9
ENDBRANCH   1   8
TORSDOF 6
ENDMDL
MODEL 4
REMARK VINA RESULT:    -3.802     12.159     13.955
REMARK INTER + INTRA:          -5.545
REMARK INTER:                  -5.233
REMARK INTRA:                  -0.313
REMARK UNBOUND:                -0.410
REMARK SMILES CCCCCCC=CC(=O)[O-]
REMARK SMILES IDX 5 1 6 2 7 3 8 4 9 5 10 6 11 7 4 8 3 9 2 10 1 11
REMARK H PARENT
REMARK Flexibility Score: inf
ROOT
ATOM      1  C   UNL     1      -2.777  -4.536   9.220  1.00  0.00     0.004 C 
ENDROOT
BRANCH   1   2
ATOM      2  C   UNL     1      -4.194  -4.892   9.684  1.00  0.00     0.027 C 
BRANCH   2   3
ATOM      3  C   UNL     1      -5.188  -4.737   8.569  1.00  0.00    -0.025 C 
ATOM      4  C   UNL     1      -6.471  -5.079   8.724  1.00  0.00     0.020 C 
BRANCH   4   5
ATOM      5  C   UNL     1      -7.465  -4.923   7.650  1.00  0.00     0.064 C 
ATOM      6  O   UNL     1      -8.292  -3.973   7.661  1.00  0.00    -0.545 OA
ATOM      7  O   UNL     1      -7.492  -5.840   6.607  1.00  0.00    -0.545 OA
ENDBRANCH   4   5
ENDBRANCH   2   3
ENDBRANCH   1   2
BRANCH   1   8
ATOM      8  C   UNL     1      -2.352  -3.162   9.759  1.00  0.00     0.000 C 
BRANCH   8   9
ATOM      9  C   UNL     1      -2.930  -2.867  11.151  1.00  0.00    -0.000 C 
BRANCH   9  10
ATOM     10  C   UNL     1      -1.867  -2.924  12.258  1.00  0.00    -0.003 C 
ATOM     11  C   UNL     1      -2.501  -3.223  13.614  1.00  0.00     0.004 C 
ENDBRANCH   9  10
ENDBRANCH   8   9
ENDBRANCH   1   8
TORSDOF 6
ENDMDL
MODEL 5
REMARK VINA RESULT:    -3.780     12.633     14.409
REMARK INTER + INTRA:          -5.516
REMARK INTER:                  -5.155
REMARK INTRA:                  -0.361
REMARK UNBOUND:                -0.410
REMARK SMILES CCCCCCC=CC(=O)[O-]
REMARK SMILES IDX 5 1 6 2 7 3 8 4 9 5 10 6 11 7 4 8 3 9 2 10 1 11
REMARK H PARENT
REMARK Flexibility Score: inf
ROOT
ATOM      1  C   UNL     1      -8.561  -3.740   8.052  1.00  0.00     0.004 C 
ENDROOT
BRANCH   1   2
ATOM      2  C   UNL     1      -7.469  -4.077   9.074  1.00  0.00     0.027 C 
BRANCH   2   3
ATOM      3  C   UNL     1      -6.149  -4.317   8.401  1.00  0.00    -0.025 C 
ATOM      4  C   UNL     1      -5.017  -4.436   9.103  1.00  0.00     0.020 C 
BRANCH   4   5
ATOM      5  C   UNL     1      -3.714  -4.684   8.465  1.00  0.00     0.064 C 
ATOM      6  O   UNL     1      -2.705  -5.005   9.148  1.00  0.00    -0.545 OA
ATOM      7  O   UNL     1      -3.594  -4.562   7.086  1.00  0.00    -0.545 OA
ENDBRANCH   4   5
ENDBRANCH   2   3
ENDBRANCH   1   2
BRANCH   1   8
ATOM      8  C   UNL     1      -9.641  -2.845   8.678  1.00  0.00     0.000 C 
BRANCH   8   9
ATOM      9  C   UNL     1     -10.125  -3.364  10.040  1.00  0.00    -0.000 C 
BRANCH   9  10
ATOM     10  C   UNL     1     -10.049  -2.297  11.142  1.00  0.00    -0.003 C 
ATOM     11  C   UNL     1      -9.343  -1.040  10.643  1.00  0.00     0.004 C 
ENDBRANCH   9  10
ENDBRANCH   8   9
ENDBRANCH   1   8
TORSDOF 6
ENDMDL
MODEL 6
REMARK VINA RESULT:    -3.774     11.459     13.664
REMARK INTER + INTRA:          -5.508
REMARK INTER:                  -5.096
REMARK INTRA:                  -0.413
REMARK UNBOUND:                -0.410
REMARK SMILES CCCCCCC=CC(=O)[O-]
REMARK SMILES IDX 5 1 6 2 7 3 8 4 9 5 10 6 11 7 4 8 3 9 2 10 1 11
REMARK H PARENT
REMARK Flexibility Score: inf
ROOT
ATOM      1  C   UNL     1      -3.726  -3.510  10.226  1.00  0.00     0.004 C 
ENDROOT
BRANCH   1   2
ATOM      2  C   UNL     1      -4.153  -4.853   9.622  1.00  0.00     0.027 C 
BRANCH   2   3
ATOM      3  C   UNL     1      -5.183  -4.664   8.546  1.00  0.00    -0.025 C 
ATOM      4  C   UNL     1      -6.405  -5.196   8.647  1.00  0.00     0.020 C 
BRANCH   4   5
ATOM      5  C   UNL     1      -7.435  -5.012   7.612  1.00  0.00     0.064 C 
ATOM      6  O   UNL     1      -8.209  -4.018   7.633  1.00  0.00    -0.545 OA
ATOM      7  O   UNL     1      -7.556  -5.950   6.595  1.00  0.00    -0.545 OA
ENDBRANCH   4   5
ENDBRANCH   2   3
ENDBRANCH   1   2
BRANCH   1   8
ATOM      8  C   UNL     1      -2.195  -3.394  10.278  1.00  0.00     0.000 C 
BRANCH   8   9
ATOM      9  C   UNL     1      -1.506  -4.104   9.103  1.00  0.00    -0.000 C 
BRANCH   9  10
ATOM     10  C   UNL     1      -0.658  -3.150   8.249  1.00  0.00    -0.003 C 
ATOM     11  C   UNL     1      -1.539  -2.248   7.391  1.00  0.00     0.004 C 
ENDBRANCH   9  10
ENDBRANCH   8   9
ENDBRANCH   1   8
TORSDOF 6
ENDMDL
MODEL 7
REMARK VINA RESULT:    -3.728     12.482     14.599
REMARK INTER + INTRA:          -5.446
REMARK INTER:                  -5.092
REMARK INTRA:                  -0.354
REMARK UNBOUND:                -0.410
REMARK SMILES CCCCCCC=CC(=O)[O-]
REMARK SMILES IDX 5 1 6 2 7 3 8 4 9 5 10 6 11 7 4 8 3 9 2 10 1 11
REMARK H PARENT
REMARK Flexibility Score: inf
ROOT
ATOM      1  C   UNL     1      -5.311  -4.555   8.914  1.00  0.00     0.004 C 
ENDROOT
BRANCH   1   2
ATOM      2  C   UNL     1      -5.529  -3.044   9.048  1.00  0.00     0.027 C 
BRANCH   2   3
ATOM      3  C   UNL     1      -6.991  -2.705   9.078  1.00  0.00    -0.025 C 
ATOM      4  C   UNL     1      -7.930  -3.657   9.071  1.00  0.00     0.020 C 
BRANCH   4   5
ATOM      5  C   UNL     1      -9.368  -3.348   9.113  1.00  0.00     0.064 C 
ATOM      6  O   UNL     1     -10.049  -3.558  10.152  1.00  0.00    -0.545 OA
ATOM      7  O   UNL     1      -9.986  -2.818   7.988  1.00  0.00    -0.545 OA
ENDBRANCH   4   5
ENDBRANCH   2   3
ENDBRANCH   1   2
BRANCH   1   8
ATOM      8  C   UNL     1      -3.913  -4.954   9.408  1.00  0.00     0.000 C 
BRANCH   8   9
ATOM      9  C   UNL     1      -2.866  -4.960   8.284  1.00  0.00    -0.000 C 
BRANCH   9  10
ATOM     10  C   UNL     1      -1.633  -4.108   8.618  1.00  0.00    -0.003 C 
ATOM     11  C   UNL     1      -1.664  -3.641  10.071  1.00  0.00     0.004 C 
ENDBRANCH   9  10
ENDBRANCH   8   9
ENDBRANCH   1   8
TORSDOF 6
ENDMDL
MODEL 8
REMARK VINA RESULT:    -3.721      3.638      6.029
REMARK INTER + INTRA:          -5.436
REMARK INTER:                  -5.212
REMARK INTRA:                  -0.224
REMARK UNBOUND:                -0.410
REMARK SMILES CCCCCCC=CC(=O)[O-]
REMARK SMILES IDX 5 1 6 2 7 3 8 4 9 5 10 6 11 7 4 8 3 9 2 10 1 11
REMARK H PARENT
REMARK Flexibility Score: inf
ROOT
ATOM      1  C   UNL     1       7.153   4.132   8.749  1.00  0.00     0.004 C 
ENDROOT
BRANCH   1   2
ATOM      2  C   UNL     1       6.485   5.455   8.358  1.00  0.00     0.027 C 
BRANCH   2   3
ATOM      3  C   UNL     1       5.005   5.286   8.176  1.00  0.00    -0.025 C 
ATOM      4  C   UNL     1       4.170   5.261   9.220  1.00  0.00     0.020 C 
BRANCH   4   5
ATOM      5  C   UNL     1       2.715   5.109   9.064  1.00  0.00     0.064 C 
ATOM      6  O   UNL     1       2.093   5.699   8.141  1.00  0.00    -0.545 OA
ATOM      7  O   UNL     1       2.013   4.303   9.952  1.00  0.00    -0.545 OA
ENDBRANCH   4   5
ENDBRANCH   2   3
ENDBRANCH   1   2
BRANCH   1   8
ATOM      8  C   UNL     1       8.610   4.088   8.265  1.00  0.00     0.000 C 
BRANCH   8   9
ATOM      9  C   UNL     1       9.599   3.755   9.392  1.00  0.00    -0.000 C 
BRANCH   9  10
ATOM     10  C   UNL     1       9.143   2.565  10.249  1.00  0.00    -0.003 C 
ATOM     11  C   UNL     1       9.771   2.615  11.639  1.00  0.00     0.004 C 
ENDBRANCH   9  10
ENDBRANCH   8   9
ENDBRANCH   1   8
TORSDOF 6
ENDMDL
MODEL 9
REMARK VINA RESULT:    -3.670      2.619      3.696
REMARK INTER + INTRA:          -5.368
REMARK INTER:                  -5.055
REMARK INTRA:                  -0.313
REMARK UNBOUND:                -0.410
REMARK SMILES CCCCCCC=CC(=O)[O-]
REMARK SMILES IDX 5 1 6 2 7 3 8 4 9 5 10 6 11 7 4 8 3 9 2 10 1 11
REMARK H PARENT
REMARK Flexibility Score: inf
ROOT
ATOM      1  C   UNL     1       6.185   5.581   8.380  1.00  0.00     0.004 C 
ENDROOT
BRANCH   1   2
ATOM      2  C   UNL     1       7.468   4.837   7.991  1.00  0.00     0.027 C 
BRANCH   2   3
ATOM      3  C   UNL     1       7.802   3.768   8.992  1.00  0.00    -0.025 C 
ATOM      4  C   UNL     1       9.062   3.368   9.194  1.00  0.00     0.020 C 
BRANCH   4   5
ATOM      5  C   UNL     1       9.413   2.332  10.178  1.00  0.00     0.064 C 
ATOM      6  O   UNL     1       9.085   1.128  10.002  1.00  0.00    -0.545 OA
ATOM      7  O   UNL     1      10.117   2.687  11.322  1.00  0.00    -0.545 OA
ENDBRANCH   4   5
ENDBRANCH   2   3
ENDBRANCH   1   2
BRANCH   1   8
ATOM      8  C   UNL     1       5.084   4.595   8.796  1.00  0.00     0.000 C 
BRANCH   8   9
ATOM      9  C   UNL     1       3.715   5.274   8.966  1.00  0.00    -0.000 C 
BRANCH   9  10
ATOM     10  C   UNL     1       2.905   5.308   7.661  1.00  0.00    -0.003 C 
ATOM     11  C   UNL     1       3.126   4.039   6.843  1.00  0.00     0.004 C 
ENDBRANCH   9  10
ENDBRANCH   8   9
ENDBRANCH   1   8
TORSDOF 6
ENDMDL
