MODEL 1
REMARK VINA RESULT:    -4.032      0.000      0.000
REMARK INTER + INTRA:          -8.389
REMARK INTER:                  -7.567
REMARK INTRA:                  -0.821
REMARK UNBOUND:                -0.821
REMARK SMILES O=C([O-])CCCCCCCCCCCCCCC(=O)[O-]
REMARK SMILES IDX 10 1 9 2 8 3 7 4 6 5 5 6 4 7 2 8 1 9 3 10 11 11 12 12 13 13
REMARK SMILES IDX 14 14 15 15 16 16 17 17 18 18 19 19 20 20
REMARK H PARENT
REMARK Flexibility Score: inf
ROOT
ATOM      1  C   UNL     1      31.874   1.796 -33.321  1.00  0.00     0.000 C 
ENDROOT
BRANCH   1   2
ATOM      2  C   UNL     1      31.670   1.129 -34.690  1.00  0.00     0.000 C 
BRANCH   2   3
ATOM      3  C   UNL     1      32.507  -0.152 -34.862  1.00  0.00     0.000 C 
BRANCH   3   4
ATOM      4  C   UNL     1      33.544  -0.104 -36.001  1.00  0.00     0.000 C 
BRANCH   4   5
ATOM      5  C   UNL     1      33.091  -0.750 -37.325  1.00  0.00     0.000 C 
BRANCH   5   6
ATOM      6  C   UNL     1      32.297   0.179 -38.266  1.00  0.00     0.006 C 
BRANCH   6   7
ATOM      7  C   UNL     1      30.773  -0.009 -38.206  1.00  0.00     0.053 C 
BRANCH   7   8
ATOM      8  C   UNL     1      30.039   1.193 -38.716  1.00  0.00     0.041 C 
ATOM      9  O   UNL     1      30.458   1.806 -39.733  1.00  0.00    -0.550 OA
ATOM     10  O   UNL     1      28.913   1.657 -38.048  1.00  0.00    -0.550 OA
ENDBRANCH   7   8
ENDBRANCH   6   7
ENDBRANCH   5   6
ENDBRANCH   4   5
ENDBRANCH   3   4
ENDBRANCH   2   3
ENDBRANCH   1   2
BRANCH   1  11
ATOM     11  C   UNL     1      33.219   2.537 -33.268  1.00  0.00     0.000 C 
BRANCH  11  12
ATOM     12  C   UNL     1      33.054   4.058 -33.110  1.00  0.00     0.000 C 
BRANCH  12  13
ATOM     13  C   UNL     1      34.388   4.769 -32.825  1.00  0.00     0.000 C 
BRANCH  13  14
ATOM     14  C   UNL     1      34.677   4.897 -31.321  1.00  0.00     0.000 C 
BRANCH  14  15
ATOM     15  C   UNL     1      35.496   6.154 -30.978  1.00  0.00     0.000 C 
BRANCH  15  16
ATOM     16  C   UNL     1      34.722   7.459 -31.245  1.00  0.00     0.006 C 
BRANCH  16  17
ATOM     17  C   UNL     1      33.391   7.569 -30.485  1.00  0.00     0.053 C 
BRANCH  17  18
ATOM     18  C   UNL     1      32.965   8.994 -30.301  1.00  0.00     0.041 C 
ATOM     19  O   UNL     1      32.344   9.340 -29.261  1.00  0.00    -0.550 OA
ATOM     20  O   UNL     1      33.286   9.945 -31.261  1.00  0.00    -0.550 OA
ENDBRANCH  17  18
ENDBRANCH  16  17
ENDBRANCH  15  16
ENDBRANCH  14  15
ENDBRANCH  13  14
ENDBRANCH  12  13
ENDBRANCH  11  12
ENDBRANCH   1  11
TORSDOF 15
ENDMDL
MODEL 2
REMARK VINA RESULT:    -4.018     11.407     13.499
REMARK INTER + INTRA:          -8.363
REMARK INTER:                  -6.286
REMARK INTRA:                  -2.077
REMARK UNBOUND:                -0.821
REMARK SMILES O=C([O-])CCCCCCCCCCCCCCC(=O)[O-]
REMARK SMILES IDX 10 1 9 2 8 3 7 4 6 5 5 6 4 7 2 8 1 9 3 10 11 11 12 12 13 13
REMARK SMILES IDX 14 14 15 15 16 16 17 17 18 18 19 19 20 20
REMARK H PARENT
REMARK Flexibility Score: inf
ROOT
ATOM      1  C   UNL     1      23.866  -3.516 -28.744  1.00  0.00     0.000 C 
ENDROOT
BRANCH   1   2
ATOM      2  C   UNL     1      23.514  -4.374 -29.968  1.00  0.00     0.000 C 
BRANCH   2   3
ATOM      3  C   UNL     1      24.754  -4.806 -30.772  1.00  0.00     0.000 C 
BRANCH   3   4
ATOM      4  C   UNL     1      24.450  -5.487 -32.121  1.00  0.00     0.000 C 
BRANCH   4   5
ATOM      5  C   UNL     1      24.842  -4.672 -33.369  1.00  0.00     0.000 C 
BRANCH   5   6
ATOM      6  C   UNL     1      23.697  -3.855 -34.001  1.00  0.00     0.006 C 
BRANCH   6   7
ATOM      7  C   UNL     1      23.900  -2.333 -33.949  1.00  0.00     0.053 C 
BRANCH   7   8
ATOM      8  C   UNL     1      23.645  -1.779 -32.581  1.00  0.00     0.041 C 
ATOM      9  O   UNL     1      24.607  -1.392 -31.866  1.00  0.00    -0.550 OA
ATOM     10  O   UNL     1      22.350  -1.725 -32.081  1.00  0.00    -0.550 OA
ENDBRANCH   7   8
ENDBRANCH   6   7
ENDBRANCH   5   6
ENDBRANCH   4   5
ENDBRANCH   3   4
ENDBRANCH   2   3
ENDBRANCH   1   2
BRANCH   1  11
ATOM     11  C   UNL     1      25.300  -3.800 -28.270  1.00  0.00     0.000 C 
BRANCH  11  12
ATOM     12  C   UNL     1      25.345  -4.557 -26.932  1.00  0.00     0.000 C 
BRANCH  12  13
ATOM     13  C   UNL     1      24.123  -5.469 -26.729  1.00  0.00     0.000 C 
BRANCH  13  14
ATOM     14  C   UNL     1      24.511  -6.950 -26.586  1.00  0.00     0.000 C 
BRANCH  14  15
ATOM     15  C   UNL     1      24.267  -7.754 -27.874  1.00  0.00     0.000 C 
BRANCH  15  16
ATOM     16  C   UNL     1      25.483  -7.748 -28.819  1.00  0.00     0.006 C 
BRANCH  16  17
ATOM     17  C   UNL     1      26.816  -8.090 -28.134  1.00  0.00     0.053 C 
BRANCH  17  18
ATOM     18  C   UNL     1      27.836  -7.008 -28.317  1.00  0.00     0.041 C 
ATOM     19  O   UNL     1      27.715  -6.176 -29.255  1.00  0.00    -0.550 OA
ATOM     20  O   UNL     1      28.900  -6.897 -27.431  1.00  0.00    -0.550 OA
ENDBRANCH  17  18
ENDBRANCH  16  17
ENDBRANCH  15  16
ENDBRANCH  14  15
ENDBRANCH  13  14
ENDBRANCH  12  13
ENDBRANCH  11  12
ENDBRANCH   1  11
TORSDOF 15
ENDMDL
MODEL 3
REMARK VINA RESULT:    -3.999     11.935     13.699
REMARK INTER + INTRA:          -8.328
REMARK INTER:                  -6.036
REMARK INTRA:                  -2.291
REMARK UNBOUND:                -0.821
REMARK SMILES O=C([O-])CCCCCCCCCCCCCCC(=O)[O-]
REMARK SMILES IDX 10 1 9 2 8 3 7 4 6 5 5 6 4 7 2 8 1 9 3 10 11 11 12 12 13 13
REMARK SMILES IDX 14 14 15 15 16 16 17 17 18 18 19 19 20 20
REMARK H PARENT
REMARK Flexibility Score: inf
ROOT
ATOM      1  C   UNL     1      25.862  -4.275 -26.718  1.00  0.00     0.000 C 
ENDROOT
BRANCH   1   2
ATOM      2  C   UNL     1      24.608  -4.206 -27.602  1.00  0.00     0.000 C 
BRANCH   2   3
ATOM      3  C   UNL     1      24.923  -4.357 -29.101  1.00  0.00     0.000 C 
BRANCH   3   4
ATOM      4  C   UNL     1      23.760  -4.892 -29.959  1.00  0.00     0.000 C 
BRANCH   4   5
ATOM      5  C   UNL     1      24.180  -5.578 -31.275  1.00  0.00     0.000 C 
BRANCH   5   6
ATOM      6  C   UNL     1      24.718  -4.627 -32.363  1.00  0.00     0.006 C 
BRANCH   6   7
ATOM      7  C   UNL     1      23.661  -4.158 -33.375  1.00  0.00     0.053 C 
BRANCH   7   8
ATOM      8  C   UNL     1      23.552  -2.665 -33.422  1.00  0.00     0.041 C 
ATOM      9  O   UNL     1      23.713  -2.053 -34.511  1.00  0.00    -0.550 OA
ATOM     10  O   UNL     1      23.309  -1.947 -32.258  1.00  0.00    -0.550 OA
ENDBRANCH   7   8
ENDBRANCH   6   7
ENDBRANCH   5   6
ENDBRANCH   4   5
ENDBRANCH   3   4
ENDBRANCH   2   3
ENDBRANCH   1   2
BRANCH   1  11
ATOM     11  C   UNL     1      25.743  -5.407 -25.686  1.00  0.00     0.000 C 
BRANCH  11  12
ATOM     12  C   UNL     1      24.505  -6.291 -25.914  1.00  0.00     0.000 C 
BRANCH  12  13
ATOM     13  C   UNL     1      24.871  -7.703 -26.404  1.00  0.00     0.000 C 
BRANCH  13  14
ATOM     14  C   UNL     1      24.389  -7.970 -27.839  1.00  0.00     0.000 C 
BRANCH  14  15
ATOM     15  C   UNL     1      25.548  -8.066 -28.847  1.00  0.00     0.000 C 
BRANCH  15  16
ATOM     16  C   UNL     1      26.929  -7.937 -28.178  1.00  0.00     0.006 C 
BRANCH  16  17
ATOM     17  C   UNL     1      27.777  -6.767 -28.701  1.00  0.00     0.053 C 
BRANCH  17  18
ATOM     18  C   UNL     1      28.993  -6.533 -27.858  1.00  0.00     0.041 C 
ATOM     19  O   UNL     1      28.931  -6.664 -26.607  1.00  0.00    -0.550 OA
ATOM     20  O   UNL     1      30.203  -6.206 -28.458  1.00  0.00    -0.550 OA
ENDBRANCH  17  18
ENDBRANCH  16  17
ENDBRANCH  15  16
ENDBRANCH  14  15
ENDBRANCH  13  14
ENDBRANCH  12  13
ENDBRANCH  11  12
ENDBRANCH   1  11
TORSDOF 15
ENDMDL
MODEL 4
REMARK VINA RESULT:    -3.940      2.406      3.177
REMARK INTER + INTRA:          -8.217
REMARK INTER:                  -7.092
REMARK INTRA:                  -1.125
REMARK UNBOUND:                -0.821
REMARK SMILES O=C([O-])CCCCCCCCCCCCCCC(=O)[O-]
REMARK SMILES IDX 10 1 9 2 8 3 7 4 6 5 5 6 4 7 2 8 1 9 3 10 11 11 12 12 13 13
REMARK SMILES IDX 14 14 15 15 16 16 17 17 18 18 19 19 20 20
REMARK H PARENT
REMARK Flexibility Score: inf
ROOT
ATOM      1  C   UNL     1      31.667   1.265 -34.762  1.00  0.00     0.000 C 
ENDROOT
BRANCH   1   2
ATOM      2  C   UNL     1      31.413   0.118 -35.751  1.00  0.00     0.000 C 
BRANCH   2   3
ATOM      3  C   UNL     1      30.728   0.586 -37.047  1.00  0.00     0.000 C 
BRANCH   3   4
ATOM      4  C   UNL     1      31.631   0.591 -38.296  1.00  0.00     0.000 C 
BRANCH   4   5
ATOM      5  C   UNL     1      32.840  -0.364 -38.233  1.00  0.00     0.000 C 
BRANCH   5   6
ATOM      6  C   UNL     1      32.575  -1.788 -38.762  1.00  0.00     0.006 C 
BRANCH   6   7
ATOM      7  C   UNL     1      32.842  -2.904 -37.741  1.00  0.00     0.053 C 
BRANCH   7   8
ATOM      8  C   UNL     1      31.583  -3.610 -37.339  1.00  0.00     0.041 C 
ATOM      9  O   UNL     1      30.505  -2.968 -37.228  1.00  0.00    -0.550 OA
ATOM     10  O   UNL     1      31.607  -4.970 -37.053  1.00  0.00    -0.550 OA
ENDBRANCH   7   8
ENDBRANCH   6   7
ENDBRANCH   5   6
ENDBRANCH   4   5
ENDBRANCH   3   4
ENDBRANCH   2   3
ENDBRANCH   1   2
BRANCH   1  11
ATOM     11  C   UNL     1      33.090   1.189 -34.188  1.00  0.00     0.000 C 
BRANCH  11  12
ATOM     12  C   UNL     1      33.334   2.212 -33.066  1.00  0.00     0.000 C 
BRANCH  12  13
ATOM     13  C   UNL     1      32.228   3.279 -32.990  1.00  0.00     0.000 C 
BRANCH  13  14
ATOM     14  C   UNL     1      32.793   4.707 -32.921  1.00  0.00     0.000 C 
BRANCH  14  15
ATOM     15  C   UNL     1      34.331   4.739 -32.944  1.00  0.00     0.000 C 
BRANCH  15  16
ATOM     16  C   UNL     1      34.940   5.042 -31.562  1.00  0.00     0.006 C 
BRANCH  16  17
ATOM     17  C   UNL     1      35.320   6.516 -31.350  1.00  0.00     0.053 C 
BRANCH  17  18
ATOM     18  C   UNL     1      34.184   7.313 -30.784  1.00  0.00     0.041 C 
ATOM     19  O   UNL     1      33.526   6.871 -29.805  1.00  0.00    -0.550 OA
ATOM     20  O   UNL     1      33.876   8.559 -31.316  1.00  0.00    -0.550 OA
ENDBRANCH  17  18
ENDBRANCH  16  17
ENDBRANCH  15  16
ENDBRANCH  14  15
ENDBRANCH  13  14
ENDBRANCH  12  13
ENDBRANCH  11  12
ENDBRANCH   1  11
TORSDOF 15
ENDMDL
MODEL 5
REMARK VINA RESULT:    -3.929      2.172      9.582
REMARK INTER + INTRA:          -8.196
REMARK INTER:                  -6.990
REMARK INTRA:                  -1.206
REMARK UNBOUND:                -0.821
REMARK SMILES O=C([O-])CCCCCCCCCCCCCCC(=O)[O-]
REMARK SMILES IDX 10 1 9 2 8 3 7 4 6 5 5 6 4 7 2 8 1 9 3 10 11 11 12 12 13 13
REMARK SMILES IDX 14 14 15 15 16 16 17 17 18 18 19 19 20 20
REMARK H PARENT
REMARK Flexibility Score: inf
ROOT
ATOM      1  C   UNL     1      32.376   3.957 -33.033  1.00  0.00     0.000 C 
ENDROOT
BRANCH   1   2
ATOM      2  C   UNL     1      33.908   3.851 -33.023  1.00  0.00     0.000 C 
BRANCH   2   3
ATOM      3  C   UNL     1      34.603   5.200 -33.279  1.00  0.00     0.000 C 
BRANCH   3   4
ATOM      4  C   UNL     1      35.382   5.769 -32.077  1.00  0.00     0.000 C 
BRANCH   4   5
ATOM      5  C   UNL     1      35.012   5.160 -30.710  1.00  0.00     0.000 C 
BRANCH   5   6
ATOM      6  C   UNL     1      34.291   6.121 -29.742  1.00  0.00     0.006 C 
BRANCH   6   7
ATOM      7  C   UNL     1      33.023   6.770 -30.321  1.00  0.00     0.053 C 
BRANCH   7   8
ATOM      8  C   UNL     1      33.105   8.265 -30.311  1.00  0.00     0.041 C 
ATOM      9  O   UNL     1      33.678   8.875 -31.252  1.00  0.00    -0.550 OA
ATOM     10  O   UNL     1      32.579   8.985 -29.245  1.00  0.00    -0.550 OA
ENDBRANCH   7   8
ENDBRANCH   6   7
ENDBRANCH   5   6
ENDBRANCH   4   5
ENDBRANCH   3   4
ENDBRANCH   2   3
ENDBRANCH   1   2
BRANCH   1  11
ATOM     11  C   UNL     1      31.749   2.763 -33.769  1.00  0.00     0.000 C 
BRANCH  11  12
ATOM     12  C   UNL     1      32.691   1.549 -33.843  1.00  0.00     0.000 C 
BRANCH  12  13
ATOM     13  C   UNL     1      32.259   0.532 -34.913  1.00  0.00     0.000 C 
BRANCH  13  14
ATOM     14  C   UNL     1      31.245   1.120 -35.908  1.00  0.00     0.000 C 
BRANCH  14  15
ATOM     15  C   UNL     1      31.367   0.505 -37.313  1.00  0.00     0.000 C 
BRANCH  15  16
ATOM     16  C   UNL     1      32.775  -0.049 -37.600  1.00  0.00     0.006 C 
BRANCH  16  17
ATOM     17  C   UNL     1      32.785  -1.423 -38.289  1.00  0.00     0.053 C 
BRANCH  17  18
ATOM     18  C   UNL     1      32.809  -2.548 -37.300  1.00  0.00     0.041 C 
ATOM     19  O   UNL     1      33.873  -3.192 -37.100  1.00  0.00    -0.550 OA
ATOM     20  O   UNL     1      31.667  -2.861 -36.574  1.00  0.00    -0.550 OA
ENDBRANCH  17  18
ENDBRANCH  16  17
ENDBRANCH  15  16
ENDBRANCH  14  15
ENDBRANCH  13  14
ENDBRANCH  12  13
ENDBRANCH  11  12
ENDBRANCH   1  11
TORSDOF 15
ENDMDL
MODEL 6
REMARK VINA RESULT:    -3.911      2.633      9.830
REMARK INTER + INTRA:          -8.163
REMARK INTER:                  -6.805
REMARK INTRA:                  -1.358
REMARK UNBOUND:                -0.821
REMARK SMILES O=C([O-])CCCCCCCCCCCCCCC(=O)[O-]
REMARK SMILES IDX 10 1 9 2 8 3 7 4 6 5 5 6 4 7 2 8 1 9 3 10 11 11 12 12 13 13
REMARK SMILES IDX 14 14 15 15 16 16 17 17 18 18 19 19 20 20
REMARK H PARENT
REMARK Flexibility Score: inf
ROOT
ATOM      1  C   UNL     1      32.272  -0.278 -34.253  1.00  0.00     0.000 C 
ENDROOT
BRANCH   1   2
ATOM      2  C   UNL     1      31.076   0.650 -34.516  1.00  0.00     0.000 C 
BRANCH   2   3
ATOM      3  C   UNL     1      31.403   2.132 -34.264  1.00  0.00     0.000 C 
BRANCH   3   4
ATOM      4  C   UNL     1      32.500   2.387 -33.212  1.00  0.00     0.000 C 
BRANCH   4   5
ATOM      5  C   UNL     1      32.809   3.872 -32.935  1.00  0.00     0.000 C 
BRANCH   5   6
ATOM      6  C   UNL     1      34.301   4.253 -33.015  1.00  0.00     0.006 C 
BRANCH   6   7
ATOM      7  C   UNL     1      34.603   5.714 -32.648  1.00  0.00     0.053 C 
BRANCH   7   8
ATOM      8  C   UNL     1      35.285   5.830 -31.320  1.00  0.00     0.041 C 
ATOM      9  O   UNL     1      36.125   6.746 -31.117  1.00  0.00    -0.550 OA
ATOM     10  O   UNL     1      35.020   4.905 -30.318  1.00  0.00    -0.550 OA
ENDBRANCH   7   8
ENDBRANCH   6   7
ENDBRANCH   5   6
ENDBRANCH   4   5
ENDBRANCH   3   4
ENDBRANCH   2   3
ENDBRANCH   1   2
BRANCH   1  11
ATOM     11  C   UNL     1      32.644  -1.065 -35.519  1.00  0.00     0.000 C 
BRANCH  11  12
ATOM     12  C   UNL     1      33.563  -0.271 -36.463  1.00  0.00     0.000 C 
BRANCH  12  13
ATOM     13  C   UNL     1      33.078  -0.304 -37.923  1.00  0.00     0.000 C 
BRANCH  13  14
ATOM     14  C   UNL     1      31.846   0.586 -38.154  1.00  0.00     0.000 C 
BRANCH  14  15
ATOM     15  C   UNL     1      30.667  -0.183 -38.776  1.00  0.00     0.000 C 
BRANCH  15  16
ATOM     16  C   UNL     1      30.880  -1.708 -38.766  1.00  0.00     0.006 C 
BRANCH  16  17
ATOM     17  C   UNL     1      30.010  -2.459 -37.746  1.00  0.00     0.053 C 
BRANCH  17  18
ATOM     18  C   UNL     1      28.946  -3.279 -38.410  1.00  0.00     0.041 C 
ATOM     19  O   UNL     1      28.245  -2.781 -39.330  1.00  0.00    -0.550 OA
ATOM     20  O   UNL     1      28.754  -4.604 -38.037  1.00  0.00    -0.550 OA
ENDBRANCH  17  18
ENDBRANCH  16  17
ENDBRANCH  15  16
ENDBRANCH  14  15
ENDBRANCH  13  14
ENDBRANCH  12  13
ENDBRANCH  11  12
ENDBRANCH   1  11
TORSDOF 15
ENDMDL
MODEL 7
REMARK VINA RESULT:    -3.889     11.217     13.982
REMARK INTER + INTRA:          -8.120
REMARK INTER:                  -5.682
REMARK INTRA:                  -2.438
REMARK UNBOUND:                -0.821
REMARK SMILES O=C([O-])CCCCCCCCCCCCCCC(=O)[O-]
REMARK SMILES IDX 10 1 9 2 8 3 7 4 6 5 5 6 4 7 2 8 1 9 3 10 11 11 12 12 13 13
REMARK SMILES IDX 14 14 15 15 16 16 17 17 18 18 19 19 20 20
REMARK H PARENT
REMARK Flexibility Score: inf
ROOT
ATOM      1  C   UNL     1      24.108  -6.011 -26.248  1.00  0.00     0.000 C 
ENDROOT
BRANCH   1   2
ATOM      2  C   UNL     1      24.497  -7.455 -26.599  1.00  0.00     0.000 C 
BRANCH   2   3
ATOM      3  C   UNL     1      24.526  -7.714 -28.116  1.00  0.00     0.000 C 
BRANCH   3   4
ATOM      4  C   UNL     1      25.912  -8.068 -28.689  1.00  0.00     0.000 C 
BRANCH   4   5
ATOM      5  C   UNL     1      26.921  -6.903 -28.728  1.00  0.00     0.000 C 
BRANCH   5   6
ATOM      6  C   UNL     1      28.135  -7.060 -27.790  1.00  0.00     0.006 C 
BRANCH   6   7
ATOM      7  C   UNL     1      28.868  -5.746 -27.476  1.00  0.00     0.053 C 
BRANCH   7   8
ATOM      8  C   UNL     1      29.980  -5.479 -28.443  1.00  0.00     0.041 C 
ATOM      9  O   UNL     1      30.358  -6.380 -29.238  1.00  0.00    -0.550 OA
ATOM     10  O   UNL     1      30.624  -4.248 -28.442  1.00  0.00    -0.550 OA
ENDBRANCH   7   8
ENDBRANCH   6   7
ENDBRANCH   5   6
ENDBRANCH   4   5
ENDBRANCH   3   4
ENDBRANCH   2   3
ENDBRANCH   1   2
BRANCH   1  11
ATOM     11  C   UNL     1      25.346  -5.190 -25.856  1.00  0.00     0.000 C 
BRANCH  11  12
ATOM     12  C   UNL     1      25.573  -3.980 -26.777  1.00  0.00     0.000 C 
BRANCH  12  13
ATOM     13  C   UNL     1      24.413  -3.764 -27.764  1.00  0.00     0.000 C 
BRANCH  13  14
ATOM     14  C   UNL     1      24.846  -3.939 -29.229  1.00  0.00     0.000 C 
BRANCH  14  15
ATOM     15  C   UNL     1      23.745  -4.565 -30.103  1.00  0.00     0.000 C 
BRANCH  15  16
ATOM     16  C   UNL     1      24.299  -5.567 -31.131  1.00  0.00     0.006 C 
BRANCH  16  17
ATOM     17  C   UNL     1      24.183  -5.103 -32.591  1.00  0.00     0.053 C 
BRANCH  17  18
ATOM     18  C   UNL     1      25.516  -4.753 -33.178  1.00  0.00     0.041 C 
ATOM     19  O   UNL     1      25.990  -5.437 -34.124  1.00  0.00    -0.550 OA
ATOM     20  O   UNL     1      26.218  -3.652 -32.705  1.00  0.00    -0.550 OA
ENDBRANCH  17  18
ENDBRANCH  16  17
ENDBRANCH  15  16
ENDBRANCH  14  15
ENDBRANCH  13  14
ENDBRANCH  12  13
ENDBRANCH  11  12
ENDBRANCH   1  11
TORSDOF 15
ENDMDL
MODEL 8
REMARK VINA RESULT:    -3.880      7.699      9.535
REMARK INTER + INTRA:          -8.104
REMARK INTER:                  -6.040
REMARK INTRA:                  -2.064
REMARK UNBOUND:                -0.821
REMARK SMILES O=C([O-])CCCCCCCCCCCCCCC(=O)[O-]
REMARK SMILES IDX 10 1 9 2 8 3 7 4 6 5 5 6 4 7 2 8 1 9 3 10 11 11 12 12 13 13
REMARK SMILES IDX 14 14 15 15 16 16 17 17 18 18 19 19 20 20
REMARK H PARENT
REMARK Flexibility Score: inf
ROOT
ATOM      1  C   UNL     1      28.719   0.114 -37.941  1.00  0.00     0.000 C 
ENDROOT
BRANCH   1   2
ATOM      2  C   UNL     1      28.803  -0.535 -39.330  1.00  0.00     0.000 C 
BRANCH   2   3
ATOM      3  C   UNL     1      28.364  -2.010 -39.329  1.00  0.00     0.000 C 
BRANCH   3   4
ATOM      4  C   UNL     1      27.799  -2.520 -37.988  1.00  0.00     0.000 C 
BRANCH   4   5
ATOM      5  C   UNL     1      28.098  -3.999 -37.672  1.00  0.00     0.000 C 
BRANCH   5   6
ATOM      6  C   UNL     1      27.088  -4.680 -36.727  1.00  0.00     0.006 C 
BRANCH   6   7
ATOM      7  C   UNL     1      25.864  -3.818 -36.379  1.00  0.00     0.053 C 
BRANCH   7   8
ATOM      8  C   UNL     1      25.706  -3.639 -34.900  1.00  0.00     0.041 C 
ATOM      9  O   UNL     1      25.969  -2.530 -34.365  1.00  0.00    -0.550 OA
ATOM     10  O   UNL     1      25.303  -4.707 -34.108  1.00  0.00    -0.550 OA
ENDBRANCH   7   8
ENDBRANCH   6   7
ENDBRANCH   5   6
ENDBRANCH   4   5
ENDBRANCH   3   4
ENDBRANCH   2   3
ENDBRANCH   1   2
BRANCH   1  11
ATOM     11  C   UNL     1      30.049   0.790 -37.572  1.00  0.00     0.000 C 
BRANCH  11  12
ATOM     12  C   UNL     1      31.155   0.533 -38.609  1.00  0.00     0.000 C 
BRANCH  12  13
ATOM     13  C   UNL     1      32.518   0.245 -37.958  1.00  0.00     0.000 C 
BRANCH  13  14
ATOM     14  C   UNL     1      33.106  -1.105 -38.398  1.00  0.00     0.000 C 
BRANCH  14  15
ATOM     15  C   UNL     1      32.048  -2.045 -39.002  1.00  0.00     0.000 C 
BRANCH  15  16
ATOM     16  C   UNL     1      31.783  -3.284 -38.126  1.00  0.00     0.006 C 
BRANCH  16  17
ATOM     17  C   UNL     1      31.361  -2.958 -36.684  1.00  0.00     0.053 C 
BRANCH  17  18
ATOM     18  C   UNL     1      31.778  -4.028 -35.721  1.00  0.00     0.041 C 
ATOM     19  O   UNL     1      32.575  -4.933 -36.086  1.00  0.00    -0.550 OA
ATOM     20  O   UNL     1      31.316  -4.004 -34.412  1.00  0.00    -0.550 OA
ENDBRANCH  17  18
ENDBRANCH  16  17
ENDBRANCH  15  16
ENDBRANCH  14  15
ENDBRANCH  13  14
ENDBRANCH  12  13
ENDBRANCH  11  12
ENDBRANCH   1  11
TORSDOF 15
ENDMDL
MODEL 9
REMARK VINA RESULT:    -3.839      6.576      9.737
REMARK INTER + INTRA:          -8.027
REMARK INTER:                  -5.670
REMARK INTRA:                  -2.357
REMARK UNBOUND:                -0.821
REMARK SMILES O=C([O-])CCCCCCCCCCCCCCC(=O)[O-]
REMARK SMILES IDX 10 1 9 2 8 3 7 4 6 5 5 6 4 7 2 8 1 9 3 10 11 11 12 12 13 13
REMARK SMILES IDX 14 14 15 15 16 16 17 17 18 18 19 19 20 20
REMARK H PARENT
REMARK Flexibility Score: inf
ROOT
ATOM      1  C   UNL     1      32.451  -2.859 -36.820  1.00  0.00     0.000 C 
ENDROOT
BRANCH   1   2
ATOM      2  C   UNL     1      32.463  -1.344 -36.564  1.00  0.00     0.000 C 
BRANCH   2   3
ATOM      3  C   UNL     1      31.083  -0.795 -36.159  1.00  0.00     0.000 C 
BRANCH   3   4
ATOM      4  C   UNL     1      30.624   0.451 -36.941  1.00  0.00     0.000 C 
BRANCH   4   5
ATOM      5  C   UNL     1      31.170   0.560 -38.378  1.00  0.00     0.000 C 
BRANCH   5   6
ATOM      6  C   UNL     1      30.230   1.259 -39.381  1.00  0.00     0.006 C 
BRANCH   6   7
ATOM      7  C   UNL     1      28.814   1.522 -38.846  1.00  0.00     0.053 C 
BRANCH   7   8
ATOM      8  C   UNL     1      28.419   2.961 -38.986  1.00  0.00     0.041 C 
ATOM      9  O   UNL     1      28.383   3.500 -40.123  1.00  0.00    -0.550 OA
ATOM     10  O   UNL     1      28.126   3.715 -37.857  1.00  0.00    -0.550 OA
ENDBRANCH   7   8
ENDBRANCH   6   7
ENDBRANCH   5   6
ENDBRANCH   4   5
ENDBRANCH   3   4
ENDBRANCH   2   3
ENDBRANCH   1   2
BRANCH   1  11
ATOM     11  C   UNL     1      32.777  -3.168 -38.290  1.00  0.00     0.000 C 
BRANCH  11  12
ATOM     12  C   UNL     1      31.646  -3.929 -39.001  1.00  0.00     0.000 C 
BRANCH  12  13
ATOM     13  C   UNL     1      30.667  -2.989 -39.727  1.00  0.00     0.000 C 
BRANCH  13  14
ATOM     14  C   UNL     1      29.197  -3.332 -39.436  1.00  0.00     0.000 C 
BRANCH  14  15
ATOM     15  C   UNL     1      28.329  -2.082 -39.211  1.00  0.00     0.000 C 
BRANCH  15  16
ATOM     16  C   UNL     1      27.839  -1.952 -37.757  1.00  0.00     0.006 C 
BRANCH  16  17
ATOM     17  C   UNL     1      28.068  -3.206 -36.900  1.00  0.00     0.053 C 
BRANCH  17  18
ATOM     18  C   UNL     1      26.800  -3.972 -36.673  1.00  0.00     0.041 C 
ATOM     19  O   UNL     1      26.805  -5.231 -36.710  1.00  0.00    -0.550 OA
ATOM     20  O   UNL     1      25.620  -3.295 -36.387  1.00  0.00    -0.550 OA
ENDBRANCH  17  18
ENDBRANCH  16  17
ENDBRANCH  15  16
ENDBRANCH  14  15
ENDBRANCH  13  14
ENDBRANCH  12  13
ENDBRANCH  11  12
ENDBRANCH   1  11
TORSDOF 15
ENDMDL
