MODEL 1
REMARK VINA RESULT:    -2.760      0.000      0.000
REMARK INTER + INTRA:          -3.083
REMARK INTER:                  -2.921
REMARK INTRA:                  -0.162
REMARK UNBOUND:                -0.162
REMARK SMILES CC(C)[C@@H]1CC[C@H](C)CC1=O
REMARK SMILES IDX 8 1 7 2 6 3 5 4 4 5 10 6 11 7 9 8 2 9 1 10 3 11
REMARK H PARENT
REMARK Flexibility Score: inf
ROOT
ATOM      1  C   UNL     1     124.314 119.996 109.560  1.00  0.00     0.008 C 
ATOM      2  C   UNL     1     123.448 119.841 108.300  1.00  0.00    -0.007 C 
ATOM      3  C   UNL     1     124.091 118.881 107.273  1.00  0.00     0.004 C 
ATOM      4  C   UNL     1     124.038 117.402 107.712  1.00  0.00     0.012 C 
ATOM      5  C   UNL     1     122.594 116.945 108.033  1.00  0.00     0.058 C 
ATOM      6  C   UNL     1     122.009 117.940 109.021  1.00  0.00     0.136 C 
ATOM      7  O   UNL     1     121.623 117.599 110.130  1.00  0.00    -0.299 OA
ATOM      8  C   UNL     1     122.017 119.394 108.650  1.00  0.00     0.079 C 
ENDROOT
BRANCH   5   9
ATOM      9  C   UNL     1     122.511 115.467 108.534  1.00  0.00    -0.007 C 
ATOM     10  C   UNL     1     121.425 114.688 107.768  1.00  0.00     0.008 C 
ATOM     11  C   UNL     1     123.845 114.713 108.390  1.00  0.00     0.008 C 
ENDBRANCH   5   9
TORSDOF 1
ENDMDL
MODEL 2
REMARK VINA RESULT:    -2.740      8.662     10.469
REMARK INTER + INTRA:          -3.062
REMARK INTER:                  -2.904
REMARK INTRA:                  -0.158
REMARK UNBOUND:                -0.162
REMARK SMILES CC(C)[C@@H]1CC[C@H](C)CC1=O
REMARK SMILES IDX 8 1 7 2 6 3 5 4 4 5 10 6 11 7 9 8 2 9 1 10 3 11
REMARK H PARENT
REMARK Flexibility Score: inf
ROOT
ATOM      1  C   UNL     1     111.958 124.220 109.641  1.00  0.00     0.008 C 
ATOM      2  C   UNL     1     112.137 123.429 108.336  1.00  0.00    -0.007 C 
ATOM      3  C   UNL     1     113.072 124.158 107.344  1.00  0.00     0.004 C 
ATOM      4  C   UNL     1     114.553 124.130 107.776  1.00  0.00     0.012 C 
ATOM      5  C   UNL     1     115.059 122.688 108.019  1.00  0.00     0.058 C 
ATOM      6  C   UNL     1     114.088 122.018 108.976  1.00  0.00     0.136 C 
ATOM      7  O   UNL     1     114.446 121.585 110.062  1.00  0.00    -0.299 OA
ATOM      8  C   UNL     1     112.633 121.996 108.607  1.00  0.00     0.079 C 
ENDROOT
BRANCH   5   9
ATOM      9  C   UNL     1     116.541 122.628 108.513  1.00  0.00    -0.007 C 
ATOM     10  C   UNL     1     117.312 121.501 107.799  1.00  0.00     0.008 C 
ATOM     11  C   UNL     1     117.296 123.951 108.293  1.00  0.00     0.008 C 
ENDBRANCH   5   9
TORSDOF 1
ENDMDL
MODEL 3
REMARK VINA RESULT:    -2.731     12.647     14.775
REMARK INTER + INTRA:          -3.053
REMARK INTER:                  -2.896
REMARK INTRA:                  -0.157
REMARK UNBOUND:                -0.162
REMARK SMILES CC(C)[C@@H]1CC[C@H](C)CC1=O
REMARK SMILES IDX 8 1 7 2 6 3 5 4 4 5 10 6 11 7 9 8 2 9 1 10 3 11
REMARK H PARENT
REMARK Flexibility Score: inf
ROOT
ATOM      1  C   UNL     1     107.817 111.921 109.588  1.00  0.00     0.008 C 
ATOM      2  C   UNL     1     108.637 112.126 108.304  1.00  0.00    -0.007 C 
ATOM      3  C   UNL     1     107.915 113.055 107.302  1.00  0.00     0.004 C 
ATOM      4  C   UNL     1     107.903 114.533 107.747  1.00  0.00     0.012 C 
ATOM      5  C   UNL     1     109.329 115.064 108.029  1.00  0.00     0.058 C 
ATOM      6  C   UNL     1     109.993 114.098 108.995  1.00  0.00     0.136 C 
ATOM      7  O   UNL     1     110.393 114.454 110.095  1.00  0.00    -0.299 OA
ATOM      8  C   UNL     1     110.052 112.646 108.615  1.00  0.00     0.079 C 
ENDROOT
BRANCH   5   9
ATOM      9  C   UNL     1     109.348 116.543 108.537  1.00  0.00    -0.007 C 
ATOM     10  C   UNL     1     110.500 117.332 107.885  1.00  0.00     0.008 C 
ATOM     11  C   UNL     1     108.029 117.285 108.257  1.00  0.00     0.008 C 
ENDBRANCH   5   9
TORSDOF 1
ENDMDL
MODEL 4
REMARK VINA RESULT:    -2.723      8.620     10.435
REMARK INTER + INTRA:          -3.045
REMARK INTER:                  -2.887
REMARK INTRA:                  -0.158
REMARK UNBOUND:                -0.162
REMARK SMILES CC(C)[C@@H]1CC[C@H](C)CC1=O
REMARK SMILES IDX 8 1 7 2 6 3 5 4 4 5 10 6 11 7 9 8 2 9 1 10 3 11
REMARK H PARENT
REMARK Flexibility Score: inf
ROOT
ATOM      1  C   UNL     1     120.044 107.788 109.596  1.00  0.00     0.008 C 
ATOM      2  C   UNL     1     119.870 108.596 108.300  1.00  0.00    -0.007 C 
ATOM      3  C   UNL     1     118.943 107.878 107.293  1.00  0.00     0.004 C 
ATOM      4  C   UNL     1     117.460 107.895 107.717  1.00  0.00     0.012 C 
ATOM      5  C   UNL     1     116.948 109.333 107.976  1.00  0.00     0.058 C 
ATOM      6  C   UNL     1     117.911 109.992 108.949  1.00  0.00     0.136 C 
ATOM      7  O   UNL     1     117.546 110.409 110.039  1.00  0.00    -0.299 OA
ATOM      8  C   UNL     1     119.368 110.023 108.589  1.00  0.00     0.079 C 
ENDROOT
BRANCH   5   9
ATOM      9  C   UNL     1     115.462 109.381 108.463  1.00  0.00    -0.007 C 
ATOM     10  C   UNL     1     114.691 110.514 107.759  1.00  0.00     0.008 C 
ATOM     11  C   UNL     1     114.713 108.059 108.222  1.00  0.00     0.008 C 
ENDBRANCH   5   9
TORSDOF 1
ENDMDL
MODEL 5
REMARK VINA RESULT:    -2.516      8.902     10.707
REMARK INTER + INTRA:          -2.825
REMARK INTER:                  -2.664
REMARK INTRA:                  -0.161
REMARK UNBOUND:                -0.162
REMARK SMILES CC(C)[C@@H]1CC[C@H](C)CC1=O
REMARK SMILES IDX 8 1 7 2 6 3 5 4 4 5 10 6 11 7 9 8 2 9 1 10 3 11
REMARK H PARENT
REMARK Flexibility Score: inf
ROOT
ATOM      1  C   UNL     1     112.607 122.776 109.553  1.00  0.00     0.008 C 
ATOM      2  C   UNL     1     112.864 122.652 108.043  1.00  0.00    -0.007 C 
ATOM      3  C   UNL     1     112.971 124.036 107.361  1.00  0.00     0.004 C 
ATOM      4  C   UNL     1     114.278 124.780 107.706  1.00  0.00     0.012 C 
ATOM      5  C   UNL     1     115.531 123.931 107.381  1.00  0.00     0.058 C 
ATOM      6  C   UNL     1     115.354 122.580 108.054  1.00  0.00     0.136 C 
ATOM      7  O   UNL     1     116.143 122.166 108.891  1.00  0.00    -0.299 OA
ATOM      8  C   UNL     1     114.110 121.796 107.750  1.00  0.00     0.079 C 
ENDROOT
BRANCH   5   9
ATOM      9  C   UNL     1     116.872 124.634 107.771  1.00  0.00    -0.007 C 
ATOM     10  C   UNL     1     117.890 124.551 106.618  1.00  0.00     0.008 C 
ATOM     11  C   UNL     1     116.680 126.115 108.147  1.00  0.00     0.008 C 
ENDBRANCH   5   9
TORSDOF 1
ENDMDL
MODEL 6
REMARK VINA RESULT:    -2.473      9.256     11.129
REMARK INTER + INTRA:          -2.779
REMARK INTER:                  -2.619
REMARK INTRA:                  -0.160
REMARK UNBOUND:                -0.162
REMARK SMILES CC(C)[C@@H]1CC[C@H](C)CC1=O
REMARK SMILES IDX 8 1 7 2 6 3 5 4 4 5 10 6 11 7 9 8 2 9 1 10 3 11
REMARK H PARENT
REMARK Flexibility Score: inf
ROOT
ATOM      1  C   UNL     1     119.546 108.878 109.610  1.00  0.00     0.008 C 
ATOM      2  C   UNL     1     119.329 109.047 108.098  1.00  0.00    -0.007 C 
ATOM      3  C   UNL     1     119.098 107.691 107.393  1.00  0.00     0.004 C 
ATOM      4  C   UNL     1     117.719 107.073 107.706  1.00  0.00     0.012 C 
ATOM      5  C   UNL     1     116.561 108.046 107.374  1.00  0.00     0.058 C 
ATOM      6  C   UNL     1     116.858 109.363 108.070  1.00  0.00     0.136 C 
ATOM      7  O   UNL     1     116.098 109.842 108.901  1.00  0.00    -0.299 OA
ATOM      8  C   UNL     1     118.178 110.025 107.798  1.00  0.00     0.079 C 
ENDROOT
BRANCH   5   9
ATOM      9  C   UNL     1     115.151 107.472 107.732  1.00  0.00    -0.007 C 
ATOM     10  C   UNL     1     114.156 107.704 106.579  1.00  0.00     0.008 C 
ATOM     11  C   UNL     1     115.185 105.967 108.052  1.00  0.00     0.008 C 
ENDBRANCH   5   9
TORSDOF 1
ENDMDL
MODEL 7
REMARK VINA RESULT:    -2.422     12.459     13.993
REMARK INTER + INTRA:          -2.726
REMARK INTER:                  -2.572
REMARK INTRA:                  -0.154
REMARK UNBOUND:                -0.162
REMARK SMILES CC(C)[C@@H]1CC[C@H](C)CC1=O
REMARK SMILES IDX 8 1 7 2 6 3 5 4 4 5 10 6 11 7 9 8 2 9 1 10 3 11
REMARK H PARENT
REMARK Flexibility Score: inf
ROOT
ATOM      1  C   UNL     1     107.113 116.964 108.062  1.00  0.00     0.008 C 
ATOM      2  C   UNL     1     108.469 117.159 107.366  1.00  0.00    -0.007 C 
ATOM      3  C   UNL     1     109.644 117.115 108.370  1.00  0.00     0.004 C 
ATOM      4  C   UNL     1     109.922 115.699 108.914  1.00  0.00     0.012 C 
ATOM      5  C   UNL     1     110.161 114.678 107.775  1.00  0.00     0.058 C 
ATOM      6  C   UNL     1     108.991 114.787 106.812  1.00  0.00     0.136 C 
ATOM      7  O   UNL     1     108.260 113.837 106.572  1.00  0.00    -0.299 OA
ATOM      8  C   UNL     1     108.675 116.136 106.234  1.00  0.00     0.079 C 
ENDROOT
BRANCH   5   9
ATOM      9  C   UNL     1     110.390 113.219 108.291  1.00  0.00    -0.007 C 
ATOM     10  C   UNL     1     111.888 112.955 108.541  1.00  0.00     0.008 C 
ATOM     11  C   UNL     1     109.620 112.919 109.589  1.00  0.00     0.008 C 
ENDBRANCH   5   9
TORSDOF 1
ENDMDL
MODEL 8
REMARK VINA RESULT:    -2.416     10.417     12.314
REMARK INTER + INTRA:          -2.719
REMARK INTER:                  -2.564
REMARK INTRA:                  -0.156
REMARK UNBOUND:                -0.162
REMARK SMILES CC(C)[C@@H]1CC[C@H](C)CC1=O
REMARK SMILES IDX 8 1 7 2 6 3 5 4 4 5 10 6 11 7 9 8 2 9 1 10 3 11
REMARK H PARENT
REMARK Flexibility Score: inf
ROOT
ATOM      1  C   UNL     1     115.379 121.979 108.743  1.00  0.00     0.008 C 
ATOM      2  C   UNL     1     114.024 121.309 108.464  1.00  0.00    -0.007 C 
ATOM      3  C   UNL     1     113.028 121.515 109.628  1.00  0.00     0.004 C 
ATOM      4  C   UNL     1     112.499 122.961 109.722  1.00  0.00     0.012 C 
ATOM      5  C   UNL     1     111.863 123.433 108.392  1.00  0.00     0.058 C 
ATOM      6  C   UNL     1     112.875 123.180 107.288  1.00  0.00     0.136 C 
ATOM      7  O   UNL     1     113.316 124.086 106.594  1.00  0.00    -0.299 OA
ATOM      8  C   UNL     1     113.419 121.790 107.132  1.00  0.00     0.079 C 
ENDROOT
BRANCH   5   9
ATOM      9  C   UNL     1     111.366 124.915 108.436  1.00  0.00    -0.007 C 
ATOM     10  C   UNL     1     109.898 124.987 108.896  1.00  0.00     0.008 C 
ATOM     11  C   UNL     1     112.214 125.799 109.367  1.00  0.00     0.008 C 
ENDBRANCH   5   9
TORSDOF 1
ENDMDL
