MODEL 1
REMARK VINA RESULT:    -5.725      0.000      0.000
REMARK INTER + INTRA:         -12.892
REMARK INTER:                 -11.080
REMARK INTRA:                  -1.812
REMARK UNBOUND:                -1.812
REMARK SMILES CCCCCCCCCCCCCCCCCC(=O)[O-]
REMARK SMILES IDX 10 1 11 2 12 3 13 4 14 5 15 6 16 7 17 8 18 9 19 10 20 11
REMARK SMILES IDX 9 12 8 13 7 14 6 15 5 16 4 17 3 18 2 19 1 20
REMARK H PARENT
REMARK Flexibility Score: inf
ROOT
ATOM      1  C   UNL     1     -10.370  -1.906  -8.800  1.00  0.00     0.000 C 
ENDROOT
BRANCH   1   2
ATOM      2  C   UNL     1     -10.595  -0.562  -9.513  1.00  0.00     0.000 C 
BRANCH   2   3
ATOM      3  C   UNL     1     -11.533  -0.687 -10.724  1.00  0.00     0.000 C 
BRANCH   3   4
ATOM      4  C   UNL     1     -12.921  -1.234 -10.345  1.00  0.00     0.000 C 
BRANCH   4   5
ATOM      5  C   UNL     1     -14.052  -0.232 -10.634  1.00  0.00     0.000 C 
BRANCH   5   6
ATOM      6  C   UNL     1     -14.399   0.633  -9.411  1.00  0.00     0.000 C 
BRANCH   6   7
ATOM      7  C   UNL     1     -14.058   2.123  -9.615  1.00  0.00     0.006 C 
BRANCH   7   8
ATOM      8  C   UNL     1     -12.581   2.466  -9.357  1.00  0.00     0.053 C 
BRANCH   8   9
ATOM      9  C   UNL     1     -12.409   3.753  -8.611  1.00  0.00     0.041 C 
ATOM     10  O   UNL     1     -11.298   4.345  -8.614  1.00  0.00    -0.550 OA
ATOM     11  O   UNL     1     -13.482   4.308  -7.922  1.00  0.00    -0.550 OA
ENDBRANCH   8   9
ENDBRANCH   7   8
ENDBRANCH   6   7
ENDBRANCH   5   6
ENDBRANCH   4   5
ENDBRANCH   3   4
ENDBRANCH   2   3
ENDBRANCH   1   2
BRANCH   1  12
ATOM     12  C   UNL     1      -9.544  -2.900  -9.637  1.00  0.00     0.000 C 
BRANCH  12  13
ATOM     13  C   UNL     1      -9.929  -4.380  -9.464  1.00  0.00    -0.000 C 
BRANCH  13  14
ATOM     14  C   UNL     1     -11.423  -4.583  -9.174  1.00  0.00    -0.000 C 
BRANCH  14  15
ATOM     15  C   UNL     1     -11.802  -6.066  -9.252  1.00  0.00    -0.000 C 
BRANCH  15  16
ATOM     16  C   UNL     1     -10.621  -6.958  -8.839  1.00  0.00    -0.000 C 
BRANCH  16  17
ATOM     17  C   UNL     1     -10.689  -7.401  -7.366  1.00  0.00    -0.000 C 
BRANCH  17  18
ATOM     18  C   UNL     1      -9.828  -6.569  -6.397  1.00  0.00    -0.000 C 
BRANCH  18  19
ATOM     19  C   UNL     1     -10.628  -5.475  -5.676  1.00  0.00    -0.003 C 
ATOM     20  C   UNL     1     -12.067  -5.917  -5.430  1.00  0.00     0.004 C 
ENDBRANCH  18  19
ENDBRANCH  17  18
ENDBRANCH  16  17
ENDBRANCH  15  16
ENDBRANCH  14  15
ENDBRANCH  13  14
ENDBRANCH  12  13
ENDBRANCH   1  12
TORSDOF 16
ENDMDL
MODEL 2
REMARK VINA RESULT:    -5.606      3.490      8.239
REMARK INTER + INTRA:         -12.662
REMARK INTER:                 -11.548
REMARK INTRA:                  -1.114
REMARK UNBOUND:                -1.812
REMARK SMILES CCCCCCCCCCCCCCCCCC(=O)[O-]
REMARK SMILES IDX 10 1 11 2 12 3 13 4 14 5 15 6 16 7 17 8 18 9 19 10 20 11
REMARK SMILES IDX 9 12 8 13 7 14 6 15 5 16 4 17 3 18 2 19 1 20
REMARK H PARENT
REMARK Flexibility Score: inf
ROOT
ATOM      1  C   UNL     1     -10.150  -2.203  -9.260  1.00  0.00     0.000 C 
ENDROOT
BRANCH   1   2
ATOM      2  C   UNL     1      -9.721  -2.595  -7.836  1.00  0.00     0.000 C 
BRANCH   2   3
ATOM      3  C   UNL     1      -9.529  -4.111  -7.675  1.00  0.00     0.000 C 
BRANCH   3   4
ATOM      4  C   UNL     1     -10.672  -4.924  -8.310  1.00  0.00     0.000 C 
BRANCH   4   5
ATOM      5  C   UNL     1     -10.206  -6.293  -8.833  1.00  0.00     0.000 C 
BRANCH   5   6
ATOM      6  C   UNL     1     -10.883  -7.465  -8.102  1.00  0.00     0.000 C 
BRANCH   6   7
ATOM      7  C   UNL     1     -10.203  -7.807  -6.762  1.00  0.00     0.006 C 
BRANCH   7   8
ATOM      8  C   UNL     1     -11.157  -7.787  -5.555  1.00  0.00     0.053 C 
BRANCH   8   9
ATOM      9  C   UNL     1     -11.894  -6.490  -5.422  1.00  0.00     0.041 C 
ATOM     10  O   UNL     1     -11.335  -5.493  -4.895  1.00  0.00    -0.550 OA
ATOM     11  O   UNL     1     -13.197  -6.378  -5.895  1.00  0.00    -0.550 OA
ENDBRANCH   8   9
ENDBRANCH   7   8
ENDBRANCH   6   7
ENDBRANCH   5   6
ENDBRANCH   4   5
ENDBRANCH   3   4
ENDBRANCH   2   3
ENDBRANCH   1   2
BRANCH   1  12
ATOM     12  C   UNL     1     -10.666  -0.755  -9.355  1.00  0.00     0.000 C 
BRANCH  12  13
ATOM     13  C   UNL     1     -11.530  -0.448 -10.591  1.00  0.00    -0.000 C 
BRANCH  13  14
ATOM     14  C   UNL     1     -12.885  -1.172 -10.573  1.00  0.00    -0.000 C 
BRANCH  14  15
ATOM     15  C   UNL     1     -14.044  -0.172 -10.653  1.00  0.00    -0.000 C 
BRANCH  15  16
ATOM     16  C   UNL     1     -14.110   0.696  -9.388  1.00  0.00    -0.000 C 
BRANCH  16  17
ATOM     17  C   UNL     1     -13.849   2.187  -9.669  1.00  0.00    -0.000 C 
BRANCH  17  18
ATOM     18  C   UNL     1     -12.391   2.641  -9.465  1.00  0.00    -0.000 C 
BRANCH  18  19
ATOM     19  C   UNL     1     -12.280   4.084  -8.954  1.00  0.00    -0.003 C 
ATOM     20  C   UNL     1     -13.304   4.360  -7.857  1.00  0.00     0.004 C 
ENDBRANCH  18  19
ENDBRANCH  17  18
ENDBRANCH  16  17
ENDBRANCH  15  16
ENDBRANCH  14  15
ENDBRANCH  13  14
ENDBRANCH  12  13
ENDBRANCH   1  12
TORSDOF 16
ENDMDL
MODEL 3
REMARK VINA RESULT:    -5.528      0.903      2.126
REMARK INTER + INTRA:         -12.511
REMARK INTER:                 -10.751
REMARK INTRA:                  -1.760
REMARK UNBOUND:                -1.812
REMARK SMILES CCCCCCCCCCCCCCCCCC(=O)[O-]
REMARK SMILES IDX 10 1 11 2 12 3 13 4 14 5 15 6 16 7 17 8 18 9 19 10 20 11
REMARK SMILES IDX 9 12 8 13 7 14 6 15 5 16 4 17 3 18 2 19 1 20
REMARK H PARENT
REMARK Flexibility Score: inf
ROOT
ATOM      1  C   UNL     1     -10.634  -1.094  -9.399  1.00  0.00     0.000 C 
ENDROOT
BRANCH   1   2
ATOM      2  C   UNL     1     -11.590  -0.860 -10.581  1.00  0.00     0.000 C 
BRANCH   2   3
ATOM      3  C   UNL     1     -12.672  -1.947 -10.688  1.00  0.00     0.000 C 
BRANCH   3   4
ATOM      4  C   UNL     1     -14.048  -1.464 -10.193  1.00  0.00     0.000 C 
BRANCH   4   5
ATOM      5  C   UNL     1     -14.329   0.002 -10.564  1.00  0.00     0.000 C 
BRANCH   5   6
ATOM      6  C   UNL     1     -14.476   0.905  -9.328  1.00  0.00     0.000 C 
BRANCH   6   7
ATOM      7  C   UNL     1     -14.005   2.350  -9.582  1.00  0.00     0.006 C 
BRANCH   7   8
ATOM      8  C   UNL     1     -12.500   2.567  -9.348  1.00  0.00     0.053 C 
BRANCH   8   9
ATOM      9  C   UNL     1     -12.207   3.834  -8.607  1.00  0.00     0.041 C 
ATOM     10  O   UNL     1     -13.139   4.626  -8.309  1.00  0.00    -0.550 OA
ATOM     11  O   UNL     1     -10.903   4.135  -8.231  1.00  0.00    -0.550 OA
ENDBRANCH   8   9
ENDBRANCH   7   8
ENDBRANCH   6   7
ENDBRANCH   5   6
ENDBRANCH   4   5
ENDBRANCH   3   4
ENDBRANCH   2   3
ENDBRANCH   1   2
BRANCH   1  12
ATOM     12  C   UNL     1     -10.398  -2.586  -9.103  1.00  0.00     0.000 C 
BRANCH  12  13
ATOM     13  C   UNL     1      -9.345  -2.879  -8.019  1.00  0.00    -0.000 C 
BRANCH  13  14
ATOM     14  C   UNL     1      -9.311  -4.355  -7.596  1.00  0.00    -0.000 C 
BRANCH  14  15
ATOM     15  C   UNL     1     -10.224  -4.603  -6.390  1.00  0.00    -0.000 C 
BRANCH  15  16
ATOM     16  C   UNL     1     -10.690  -6.066  -6.344  1.00  0.00    -0.000 C 
BRANCH  16  17
ATOM     17  C   UNL     1     -10.175  -6.898  -7.532  1.00  0.00    -0.000 C 
BRANCH  17  18
ATOM     18  C   UNL     1     -11.264  -7.378  -8.509  1.00  0.00    -0.000 C 
BRANCH  18  19
ATOM     19  C   UNL     1     -11.610  -6.334  -9.580  1.00  0.00    -0.003 C 
ATOM     20  C   UNL     1     -12.851  -5.536  -9.190  1.00  0.00     0.004 C 
ENDBRANCH  18  19
ENDBRANCH  17  18
ENDBRANCH  16  17
ENDBRANCH  15  16
ENDBRANCH  14  15
ENDBRANCH  13  14
ENDBRANCH  12  13
ENDBRANCH   1  12
TORSDOF 16
ENDMDL
MODEL 4
REMARK VINA RESULT:    -5.384      1.204      2.565
REMARK INTER + INTRA:         -12.233
REMARK INTER:                 -10.466
REMARK INTRA:                  -1.766
REMARK UNBOUND:                -1.812
REMARK SMILES CCCCCCCCCCCCCCCCCC(=O)[O-]
REMARK SMILES IDX 10 1 11 2 12 3 13 4 14 5 15 6 16 7 17 8 18 9 19 10 20 11
REMARK SMILES IDX 9 12 8 13 7 14 6 15 5 16 4 17 3 18 2 19 1 20
REMARK H PARENT
REMARK Flexibility Score: inf
ROOT
ATOM      1  C   UNL     1      -9.743  -3.315  -8.986  1.00  0.00     0.000 C 
ENDROOT
BRANCH   1   2
ATOM      2  C   UNL     1     -10.865  -2.485  -9.633  1.00  0.00     0.000 C 
BRANCH   2   3
ATOM      3  C   UNL     1     -10.501  -0.997  -9.755  1.00  0.00     0.000 C 
BRANCH   3   4
ATOM      4  C   UNL     1     -11.689  -0.134 -10.222  1.00  0.00     0.000 C 
BRANCH   4   5
ATOM      5  C   UNL     1     -12.995  -0.938 -10.337  1.00  0.00     0.000 C 
BRANCH   5   6
ATOM      6  C   UNL     1     -14.237  -0.097  -9.994  1.00  0.00     0.000 C 
BRANCH   6   7
ATOM      7  C   UNL     1     -14.023   1.411 -10.236  1.00  0.00     0.006 C 
BRANCH   7   8
ATOM      8  C   UNL     1     -14.293   2.285  -8.999  1.00  0.00     0.053 C 
BRANCH   8   9
ATOM      9  C   UNL     1     -13.235   3.322  -8.782  1.00  0.00     0.041 C 
ATOM     10  O   UNL     1     -12.217   3.356  -9.522  1.00  0.00    -0.550 OA
ATOM     11  O   UNL     1     -13.381   4.264  -7.770  1.00  0.00    -0.550 OA
ENDBRANCH   8   9
ENDBRANCH   7   8
ENDBRANCH   6   7
ENDBRANCH   5   6
ENDBRANCH   4   5
ENDBRANCH   3   4
ENDBRANCH   2   3
ENDBRANCH   1   2
BRANCH   1  12
ATOM     12  C   UNL     1      -9.907  -3.462  -7.462  1.00  0.00     0.000 C 
BRANCH  12  13
ATOM     13  C   UNL     1      -9.836  -4.906  -6.933  1.00  0.00    -0.000 C 
BRANCH  13  14
ATOM     14  C   UNL     1     -10.918  -5.219  -5.889  1.00  0.00    -0.000 C 
BRANCH  14  15
ATOM     15  C   UNL     1     -11.006  -6.726  -5.622  1.00  0.00    -0.000 C 
BRANCH  15  16
ATOM     16  C   UNL     1     -12.430  -7.245  -5.867  1.00  0.00    -0.000 C 
BRANCH  16  17
ATOM     17  C   UNL     1     -13.344  -6.202  -6.535  1.00  0.00    -0.000 C 
BRANCH  17  18
ATOM     18  C   UNL     1     -13.676  -6.481  -8.013  1.00  0.00    -0.000 C 
BRANCH  18  19
ATOM     19  C   UNL     1     -12.769  -5.714  -8.985  1.00  0.00    -0.003 C 
ATOM     20  C   UNL     1     -11.766  -6.649  -9.655  1.00  0.00     0.004 C 
ENDBRANCH  18  19
ENDBRANCH  17  18
ENDBRANCH  16  17
ENDBRANCH  15  16
ENDBRANCH  14  15
ENDBRANCH  13  14
ENDBRANCH  12  13
ENDBRANCH   1  12
TORSDOF 16
ENDMDL
MODEL 5
REMARK VINA RESULT:    -5.343      3.767      7.960
REMARK INTER + INTRA:         -12.152
REMARK INTER:                 -10.712
REMARK INTRA:                  -1.440
REMARK UNBOUND:                -1.812
REMARK SMILES CCCCCCCCCCCCCCCCCC(=O)[O-]
REMARK SMILES IDX 10 1 11 2 12 3 13 4 14 5 15 6 16 7 17 8 18 9 19 10 20 11
REMARK SMILES IDX 9 12 8 13 7 14 6 15 5 16 4 17 3 18 2 19 1 20
REMARK H PARENT
REMARK Flexibility Score: inf
ROOT
ATOM      1  C   UNL     1      -9.862  -2.575  -7.848  1.00  0.00     0.000 C 
ENDROOT
BRANCH   1   2
ATOM      2  C   UNL     1      -9.743  -4.105  -7.752  1.00  0.00     0.000 C 
BRANCH   2   3
ATOM      3  C   UNL     1     -10.232  -4.814  -9.026  1.00  0.00     0.000 C 
BRANCH   3   4
ATOM      4  C   UNL     1     -10.452  -6.324  -8.815  1.00  0.00     0.000 C 
BRANCH   4   5
ATOM      5  C   UNL     1     -11.743  -6.832  -9.480  1.00  0.00     0.000 C 
BRANCH   5   6
ATOM      6  C   UNL     1     -12.781  -7.322  -8.456  1.00  0.00     0.000 C 
BRANCH   6   7
ATOM      7  C   UNL     1     -13.233  -6.214  -7.486  1.00  0.00     0.006 C 
BRANCH   7   8
ATOM      8  C   UNL     1     -13.180  -6.621  -6.004  1.00  0.00     0.053 C 
BRANCH   8   9
ATOM      9  C   UNL     1     -11.800  -6.537  -5.429  1.00  0.00     0.041 C 
ATOM     10  O   UNL     1     -11.374  -5.451  -4.956  1.00  0.00    -0.550 OA
ATOM     11  O   UNL     1     -10.988  -7.665  -5.401  1.00  0.00    -0.550 OA
ENDBRANCH   8   9
ENDBRANCH   7   8
ENDBRANCH   6   7
ENDBRANCH   5   6
ENDBRANCH   4   5
ENDBRANCH   3   4
ENDBRANCH   2   3
ENDBRANCH   1   2
BRANCH   1  12
ATOM     12  C   UNL     1     -10.319  -2.093  -9.237  1.00  0.00     0.000 C 
BRANCH  12  13
ATOM     13  C   UNL     1     -10.635  -0.589  -9.336  1.00  0.00    -0.000 C 
BRANCH  13  14
ATOM     14  C   UNL     1     -11.513  -0.238 -10.546  1.00  0.00    -0.000 C 
BRANCH  14  15
ATOM     15  C   UNL     1     -12.854  -0.979 -10.487  1.00  0.00    -0.000 C 
BRANCH  15  16
ATOM     16  C   UNL     1     -13.897  -0.167  -9.706  1.00  0.00    -0.000 C 
BRANCH  16  17
ATOM     17  C   UNL     1     -14.051   1.274 -10.228  1.00  0.00    -0.000 C 
BRANCH  17  18
ATOM     18  C   UNL     1     -13.858   2.373  -9.167  1.00  0.00    -0.000 C 
BRANCH  18  19
ATOM     19  C   UNL     1     -12.492   3.067  -9.267  1.00  0.00    -0.003 C 
ATOM     20  C   UNL     1     -12.462   4.344  -8.432  1.00  0.00     0.004 C 
ENDBRANCH  18  19
ENDBRANCH  17  18
ENDBRANCH  16  17
ENDBRANCH  15  16
ENDBRANCH  14  15
ENDBRANCH  13  14
ENDBRANCH  12  13
ENDBRANCH   1  12
TORSDOF 16
ENDMDL
MODEL 6
REMARK VINA RESULT:    -5.316      1.506      3.032
REMARK INTER + INTRA:         -12.100
REMARK INTER:                 -10.374
REMARK INTRA:                  -1.726
REMARK UNBOUND:                -1.812
REMARK SMILES CCCCCCCCCCCCCCCCCC(=O)[O-]
REMARK SMILES IDX 10 1 11 2 12 3 13 4 14 5 15 6 16 7 17 8 18 9 19 10 20 11
REMARK SMILES IDX 9 12 8 13 7 14 6 15 5 16 4 17 3 18 2 19 1 20
REMARK H PARENT
REMARK Flexibility Score: inf
ROOT
ATOM      1  C   UNL     1     -13.877  -4.013  -9.634  1.00  0.00     0.000 C 
ENDROOT
BRANCH   1   2
ATOM      2  C   UNL     1     -14.992  -2.959  -9.736  1.00  0.00     0.000 C 
BRANCH   2   3
ATOM      3  C   UNL     1     -14.698  -1.890 -10.801  1.00  0.00     0.000 C 
BRANCH   3   4
ATOM      4  C   UNL     1     -13.207  -1.508 -10.861  1.00  0.00     0.000 C 
BRANCH   4   5
ATOM      5  C   UNL     1     -12.920  -0.143 -10.212  1.00  0.00     0.000 C 
BRANCH   5   6
ATOM      6  C   UNL     1     -14.195   0.693 -10.011  1.00  0.00     0.000 C 
BRANCH   6   7
ATOM      7  C   UNL     1     -13.919   2.051  -9.336  1.00  0.00     0.006 C 
BRANCH   7   8
ATOM      8  C   UNL     1     -12.465   2.533  -9.474  1.00  0.00     0.053 C 
BRANCH   8   9
ATOM      9  C   UNL     1     -12.176   3.746  -8.645  1.00  0.00     0.041 C 
ATOM     10  O   UNL     1     -11.053   3.886  -8.094  1.00  0.00    -0.550 OA
ATOM     11  O   UNL     1     -13.144   4.732  -8.493  1.00  0.00    -0.550 OA
ENDBRANCH   8   9
ENDBRANCH   7   8
ENDBRANCH   6   7
ENDBRANCH   5   6
ENDBRANCH   4   5
ENDBRANCH   3   4
ENDBRANCH   2   3
ENDBRANCH   1   2
BRANCH   1  12
ATOM     12  C   UNL     1     -14.142  -5.063  -8.539  1.00  0.00     0.000 C 
BRANCH  12  13
ATOM     13  C   UNL     1     -12.950  -5.981  -8.212  1.00  0.00    -0.000 C 
BRANCH  13  14
ATOM     14  C   UNL     1     -12.737  -6.177  -6.704  1.00  0.00    -0.000 C 
BRANCH  14  15
ATOM     15  C   UNL     1     -11.273  -5.937  -6.319  1.00  0.00    -0.000 C 
BRANCH  15  16
ATOM     16  C   UNL     1     -10.348  -6.128  -7.531  1.00  0.00    -0.000 C 
BRANCH  16  17
ATOM     17  C   UNL     1      -9.358  -4.964  -7.720  1.00  0.00    -0.000 C 
BRANCH  17  18
ATOM     18  C   UNL     1      -9.934  -3.567  -7.422  1.00  0.00    -0.000 C 
BRANCH  18  19
ATOM     19  C   UNL     1     -10.042  -2.685  -8.673  1.00  0.00    -0.003 C 
ATOM     20  C   UNL     1     -10.275  -3.529  -9.923  1.00  0.00     0.004 C 
ENDBRANCH  18  19
ENDBRANCH  17  18
ENDBRANCH  16  17
ENDBRANCH  15  16
ENDBRANCH  14  15
ENDBRANCH  13  14
ENDBRANCH  12  13
ENDBRANCH   1  12
TORSDOF 16
ENDMDL
MODEL 7
REMARK VINA RESULT:    -5.245      1.230      2.117
REMARK INTER + INTRA:         -11.963
REMARK INTER:                 -10.083
REMARK INTRA:                  -1.880
REMARK UNBOUND:                -1.812
REMARK SMILES CCCCCCCCCCCCCCCCCC(=O)[O-]
REMARK SMILES IDX 10 1 11 2 12 3 13 4 14 5 15 6 16 7 17 8 18 9 19 10 20 11
REMARK SMILES IDX 9 12 8 13 7 14 6 15 5 16 4 17 3 18 2 19 1 20
REMARK H PARENT
REMARK Flexibility Score: inf
ROOT
ATOM      1  C   UNL     1     -10.465  -3.676  -8.811  1.00  0.00     0.000 C 
ENDROOT
BRANCH   1   2
ATOM      2  C   UNL     1     -10.389  -2.586  -9.893  1.00  0.00     0.000 C 
BRANCH   2   3
ATOM      3  C   UNL     1     -10.603  -1.174  -9.323  1.00  0.00     0.000 C 
BRANCH   3   4
ATOM      4  C   UNL     1     -11.301  -0.232 -10.323  1.00  0.00     0.000 C 
BRANCH   4   5
ATOM      5  C   UNL     1     -12.702  -0.725 -10.721  1.00  0.00     0.000 C 
BRANCH   5   6
ATOM      6  C   UNL     1     -13.812  -0.110  -9.852  1.00  0.00     0.000 C 
BRANCH   6   7
ATOM      7  C   UNL     1     -14.137   1.347 -10.238  1.00  0.00     0.006 C 
BRANCH   7   8
ATOM      8  C   UNL     1     -14.350   2.280  -9.033  1.00  0.00     0.053 C 
BRANCH   8   9
ATOM      9  C   UNL     1     -13.217   3.238  -8.837  1.00  0.00     0.041 C 
ATOM     10  O   UNL     1     -12.203   3.185  -9.582  1.00  0.00    -0.550 OA
ATOM     11  O   UNL     1     -13.286   4.204  -7.840  1.00  0.00    -0.550 OA
ENDBRANCH   8   9
ENDBRANCH   7   8
ENDBRANCH   6   7
ENDBRANCH   5   6
ENDBRANCH   4   5
ENDBRANCH   3   4
ENDBRANCH   2   3
ENDBRANCH   1   2
BRANCH   1  12
ATOM     12  C   UNL     1     -11.524  -4.751  -9.114  1.00  0.00     0.000 C 
BRANCH  12  13
ATOM     13  C   UNL     1     -12.931  -4.212  -9.430  1.00  0.00    -0.000 C 
BRANCH  13  14
ATOM     14  C   UNL     1     -14.052  -5.037  -8.780  1.00  0.00    -0.000 C 
BRANCH  14  15
ATOM     15  C   UNL     1     -13.487  -6.283  -8.088  1.00  0.00    -0.000 C 
BRANCH  15  16
ATOM     16  C   UNL     1     -13.843  -6.291  -6.593  1.00  0.00    -0.000 C 
BRANCH  16  17
ATOM     17  C   UNL     1     -12.692  -6.795  -5.704  1.00  0.00    -0.000 C 
BRANCH  17  18
ATOM     18  C   UNL     1     -11.589  -5.759  -5.421  1.00  0.00    -0.000 C 
BRANCH  18  19
ATOM     19  C   UNL     1     -10.237  -6.141  -6.038  1.00  0.00    -0.003 C 
ATOM     20  C   UNL     1     -10.248  -7.582  -6.540  1.00  0.00     0.004 C 
ENDBRANCH  18  19
ENDBRANCH  17  18
ENDBRANCH  16  17
ENDBRANCH  15  16
ENDBRANCH  14  15
ENDBRANCH  13  14
ENDBRANCH  12  13
ENDBRANCH   1  12
TORSDOF 16
ENDMDL
MODEL 8
REMARK VINA RESULT:    -5.234      2.999      7.619
REMARK INTER + INTRA:         -11.942
REMARK INTER:                 -10.522
REMARK INTRA:                  -1.420
REMARK UNBOUND:                -1.812
REMARK SMILES CCCCCCCCCCCCCCCCCC(=O)[O-]
REMARK SMILES IDX 10 1 11 2 12 3 13 4 14 5 15 6 16 7 17 8 18 9 19 10 20 11
REMARK SMILES IDX 9 12 8 13 7 14 6 15 5 16 4 17 3 18 2 19 1 20
REMARK H PARENT
REMARK Flexibility Score: inf
ROOT
ATOM      1  C   UNL     1     -13.100  -4.916  -9.140  1.00  0.00     0.000 C 
ENDROOT
BRANCH   1   2
ATOM      2  C   UNL     1     -14.454  -5.345  -8.552  1.00  0.00     0.000 C 
BRANCH   2   3
ATOM      3  C   UNL     1     -14.311  -6.039  -7.188  1.00  0.00     0.000 C 
BRANCH   3   4
ATOM      4  C   UNL     1     -12.873  -6.515  -6.913  1.00  0.00     0.000 C 
BRANCH   4   5
ATOM      5  C   UNL     1     -12.393  -6.159  -5.496  1.00  0.00     0.000 C 
BRANCH   5   6
ATOM      6  C   UNL     1     -10.990  -5.528  -5.490  1.00  0.00     0.000 C 
BRANCH   6   7
ATOM      7  C   UNL     1     -10.476  -5.198  -6.905  1.00  0.00     0.006 C 
BRANCH   7   8
ATOM      8  C   UNL     1      -9.843  -3.801  -7.030  1.00  0.00     0.053 C 
BRANCH   8   9
ATOM      9  C   UNL     1      -9.305  -3.530  -8.400  1.00  0.00     0.041 C 
ATOM     10  O   UNL     1      -8.293  -4.151  -8.819  1.00  0.00    -0.550 OA
ATOM     11  O   UNL     1      -9.932  -2.602  -9.223  1.00  0.00    -0.550 OA
ENDBRANCH   8   9
ENDBRANCH   7   8
ENDBRANCH   6   7
ENDBRANCH   5   6
ENDBRANCH   4   5
ENDBRANCH   3   4
ENDBRANCH   2   3
ENDBRANCH   1   2
BRANCH   1  12
ATOM     12  C   UNL     1     -13.177  -3.591  -9.921  1.00  0.00     0.000 C 
BRANCH  12  13
ATOM     13  C   UNL     1     -14.589  -2.995 -10.060  1.00  0.00    -0.000 C 
BRANCH  13  14
ATOM     14  C   UNL     1     -14.585  -1.468 -10.224  1.00  0.00    -0.000 C 
BRANCH  14  15
ATOM     15  C   UNL     1     -13.199  -0.963 -10.640  1.00  0.00    -0.000 C 
BRANCH  15  16
ATOM     16  C   UNL     1     -12.920   0.428 -10.050  1.00  0.00    -0.000 C 
BRANCH  16  17
ATOM     17  C   UNL     1     -14.205   1.210  -9.723  1.00  0.00    -0.000 C 
BRANCH  17  18
ATOM     18  C   UNL     1     -13.978   2.603  -9.106  1.00  0.00    -0.000 C 
BRANCH  18  19
ATOM     19  C   UNL     1     -12.530   3.092  -9.250  1.00  0.00    -0.003 C 
ATOM     20  C   UNL     1     -12.308   4.388  -8.477  1.00  0.00     0.004 C 
ENDBRANCH  18  19
ENDBRANCH  17  18
ENDBRANCH  16  17
ENDBRANCH  15  16
ENDBRANCH  14  15
ENDBRANCH  13  14
ENDBRANCH  12  13
ENDBRANCH   1  12
TORSDOF 16
ENDMDL
MODEL 9
REMARK VINA RESULT:    -5.180      3.690      8.227
REMARK INTER + INTRA:         -11.838
REMARK INTER:                 -10.546
REMARK INTRA:                  -1.292
REMARK UNBOUND:                -1.812
REMARK SMILES CCCCCCCCCCCCCCCCCC(=O)[O-]
REMARK SMILES IDX 10 1 11 2 12 3 13 4 14 5 15 6 16 7 17 8 18 9 19 10 20 11
REMARK SMILES IDX 9 12 8 13 7 14 6 15 5 16 4 17 3 18 2 19 1 20
REMARK H PARENT
REMARK Flexibility Score: inf
ROOT
ATOM      1  C   UNL     1     -10.357  -4.175  -7.686  1.00  0.00     0.000 C 
ENDROOT
BRANCH   1   2
ATOM      2  C   UNL     1      -9.473  -5.406  -7.950  1.00  0.00     0.000 C 
BRANCH   2   3
ATOM      3  C   UNL     1     -10.260  -6.575  -8.566  1.00  0.00     0.000 C 
BRANCH   3   4
ATOM      4  C   UNL     1     -10.423  -7.757  -7.592  1.00  0.00     0.000 C 
BRANCH   4   5
ATOM      5  C   UNL     1     -10.106  -7.373  -6.137  1.00  0.00     0.000 C 
BRANCH   5   6
ATOM      6  C   UNL     1     -11.355  -7.378  -5.241  1.00  0.00     0.000 C 
BRANCH   6   7
ATOM      7  C   UNL     1     -12.314  -6.210  -5.543  1.00  0.00     0.006 C 
BRANCH   7   8
ATOM      8  C   UNL     1     -13.698  -6.653  -6.047  1.00  0.00     0.053 C 
BRANCH   8   9
ATOM      9  C   UNL     1     -13.818  -6.592  -7.539  1.00  0.00     0.041 C 
ATOM     10  O   UNL     1     -13.714  -5.490  -8.140  1.00  0.00    -0.550 OA
ATOM     11  O   UNL     1     -14.029  -7.756  -8.269  1.00  0.00    -0.550 OA
ENDBRANCH   8   9
ENDBRANCH   7   8
ENDBRANCH   6   7
ENDBRANCH   5   6
ENDBRANCH   4   5
ENDBRANCH   3   4
ENDBRANCH   2   3
ENDBRANCH   1   2
BRANCH   1  12
ATOM     12  C   UNL     1      -9.725  -2.864  -8.189  1.00  0.00     0.000 C 
BRANCH  12  13
ATOM     13  C   UNL     1      -9.908  -2.584  -9.692  1.00  0.00    -0.000 C 
BRANCH  13  14
ATOM     14  C   UNL     1     -10.222  -1.111  -9.996  1.00  0.00    -0.000 C 
BRANCH  14  15
ATOM     15  C   UNL     1     -11.735  -0.872 -10.052  1.00  0.00    -0.000 C 
BRANCH  15  16
ATOM     16  C   UNL     1     -12.068   0.606  -9.796  1.00  0.00    -0.000 C 
BRANCH  16  17
ATOM     17  C   UNL     1     -13.581   0.876  -9.718  1.00  0.00    -0.000 C 
BRANCH  17  18
ATOM     18  C   UNL     1     -13.965   2.336  -9.413  1.00  0.00    -0.000 C 
BRANCH  18  19
ATOM     19  C   UNL     1     -12.748   3.267  -9.314  1.00  0.00    -0.003 C 
ATOM     20  C   UNL     1     -12.925   4.285  -8.191  1.00  0.00     0.004 C 
ENDBRANCH  18  19
ENDBRANCH  17  18
ENDBRANCH  16  17
ENDBRANCH  15  16
ENDBRANCH  14  15
ENDBRANCH  13  14
ENDBRANCH  12  13
ENDBRANCH   1  12
TORSDOF 16
ENDMDL
