MODEL 1
REMARK VINA RESULT:    -3.979      0.000      0.000
REMARK INTER + INTRA:          -4.795
REMARK INTER:                  -4.676
REMARK INTRA:                  -0.119
REMARK UNBOUND:                -0.119
REMARK SMILES CCCCC(=O)[O-]
REMARK SMILES IDX 4 1 5 2 6 3 7 4 3 5 2 6 1 7
REMARK H PARENT
REMARK Flexibility Score: inf
ROOT
ATOM      1  C   UNL     1     -23.500  37.714   7.768  1.00  0.00     0.053 C 
ENDROOT
BRANCH   1   2
ATOM      2  C   UNL     1     -22.704  38.653   6.913  1.00  0.00     0.041 C 
ATOM      3  O   UNL     1     -22.032  39.577   7.441  1.00  0.00    -0.550 OA
ATOM      4  O   UNL     1     -22.680  38.485   5.534  1.00  0.00    -0.550 OA
ENDBRANCH   1   2
BRANCH   1   5
ATOM      5  C   UNL     1     -23.227  36.248   7.408  1.00  0.00     0.006 C 
BRANCH   5   6
ATOM      6  C   UNL     1     -21.782  35.832   7.722  1.00  0.00    -0.003 C 
ATOM      7  C   UNL     1     -21.491  35.935   9.216  1.00  0.00     0.004 C 
ENDBRANCH   5   6
ENDBRANCH   1   5
TORSDOF 3
ENDMDL
MODEL 2
REMARK VINA RESULT:    -3.964      1.473      1.900
REMARK INTER + INTRA:          -4.778
REMARK INTER:                  -4.704
REMARK INTRA:                  -0.075
REMARK UNBOUND:                -0.119
REMARK SMILES CCCCC(=O)[O-]
REMARK SMILES IDX 4 1 5 2 6 3 7 4 3 5 2 6 1 7
REMARK H PARENT
REMARK Flexibility Score: inf
ROOT
ATOM      1  C   UNL     1     -23.151  36.425   6.871  1.00  0.00     0.053 C 
ENDROOT
BRANCH   1   2
ATOM      2  C   UNL     1     -23.453  37.619   7.724  1.00  0.00     0.041 C 
ATOM      3  O   UNL     1     -24.304  37.541   8.648  1.00  0.00    -0.550 OA
ATOM      4  O   UNL     1     -22.767  38.811   7.518  1.00  0.00    -0.550 OA
ENDBRANCH   1   2
BRANCH   1   5
ATOM      5  C   UNL     1     -21.744  35.876   7.138  1.00  0.00     0.006 C 
BRANCH   5   6
ATOM      6  C   UNL     1     -21.458  35.717   8.639  1.00  0.00    -0.003 C 
ATOM      7  C   UNL     1     -20.038  36.162   8.978  1.00  0.00     0.004 C 
ENDBRANCH   5   6
ENDBRANCH   1   5
TORSDOF 3
ENDMDL
MODEL 3
REMARK VINA RESULT:    -3.959     13.852     14.348
REMARK INTER + INTRA:          -4.772
REMARK INTER:                  -4.671
REMARK INTRA:                  -0.100
REMARK UNBOUND:                -0.119
REMARK SMILES CCCCC(=O)[O-]
REMARK SMILES IDX 4 1 5 2 6 3 7 4 3 5 2 6 1 7
REMARK H PARENT
REMARK Flexibility Score: inf
ROOT
ATOM      1  C   UNL     1     -17.793  42.981  -4.249  1.00  0.00     0.053 C 
ENDROOT
BRANCH   1   2
ATOM      2  C   UNL     1     -18.088  43.368  -5.666  1.00  0.00     0.041 C 
ATOM      3  O   UNL     1     -18.030  42.509  -6.584  1.00  0.00    -0.550 OA
ATOM      4  O   UNL     1     -18.461  44.673  -5.967  1.00  0.00    -0.550 OA
ENDBRANCH   1   2
BRANCH   1   5
ATOM      5  C   UNL     1     -16.311  42.642  -4.049  1.00  0.00     0.006 C 
BRANCH   5   6
ATOM      6  C   UNL     1     -16.113  41.278  -3.372  1.00  0.00    -0.003 C 
ATOM      7  C   UNL     1     -16.748  40.159  -4.192  1.00  0.00     0.004 C 
ENDBRANCH   5   6
ENDBRANCH   1   5
TORSDOF 3
ENDMDL
MODEL 4
REMARK VINA RESULT:    -3.906     13.907     14.361
REMARK INTER + INTRA:          -4.710
REMARK INTER:                  -4.592
REMARK INTRA:                  -0.119
REMARK UNBOUND:                -0.119
REMARK SMILES CCCCC(=O)[O-]
REMARK SMILES IDX 4 1 5 2 6 3 7 4 3 5 2 6 1 7
REMARK H PARENT
REMARK Flexibility Score: inf
ROOT
ATOM      1  C   UNL     1     -18.119  40.398  -4.960  1.00  0.00     0.053 C 
ENDROOT
BRANCH   1   2
ATOM      2  C   UNL     1     -17.796  40.639  -6.403  1.00  0.00     0.041 C 
ATOM      3  O   UNL     1     -17.897  41.795  -6.892  1.00  0.00    -0.550 OA
ATOM      4  O   UNL     1     -17.350  39.591  -7.200  1.00  0.00    -0.550 OA
ENDBRANCH   1   2
BRANCH   1   5
ATOM      5  C   UNL     1     -16.863  40.064  -4.145  1.00  0.00     0.006 C 
BRANCH   5   6
ATOM      6  C   UNL     1     -15.857  41.225  -4.126  1.00  0.00    -0.003 C 
ATOM      7  C   UNL     1     -16.445  42.451  -3.433  1.00  0.00     0.004 C 
ENDBRANCH   5   6
ENDBRANCH   1   5
TORSDOF 3
ENDMDL
MODEL 5
REMARK VINA RESULT:    -3.873      2.614      3.251
REMARK INTER + INTRA:          -4.671
REMARK INTER:                  -4.587
REMARK INTRA:                  -0.084
REMARK UNBOUND:                -0.119
REMARK SMILES CCCCC(=O)[O-]
REMARK SMILES IDX 4 1 5 2 6 3 7 4 3 5 2 6 1 7
REMARK H PARENT
REMARK Flexibility Score: inf
ROOT
ATOM      1  C   UNL     1     -21.140  35.662   6.320  1.00  0.00     0.053 C 
ENDROOT
BRANCH   1   2
ATOM      2  C   UNL     1     -20.025  36.215   7.155  1.00  0.00     0.041 C 
ATOM      3  O   UNL     1     -20.027  36.052   8.404  1.00  0.00    -0.550 OA
ATOM      4  O   UNL     1     -18.967  36.881   6.549  1.00  0.00    -0.550 OA
ENDBRANCH   1   2
BRANCH   1   5
ATOM      5  C   UNL     1     -22.335  36.622   6.259  1.00  0.00     0.006 C 
BRANCH   5   6
ATOM      6  C   UNL     1     -23.402  36.289   7.311  1.00  0.00    -0.003 C 
ATOM      7  C   UNL     1     -23.773  37.522   8.129  1.00  0.00     0.004 C 
ENDBRANCH   5   6
ENDBRANCH   1   5
TORSDOF 3
ENDMDL
MODEL 6
REMARK VINA RESULT:    -3.870      2.398      3.292
REMARK INTER + INTRA:          -4.668
REMARK INTER:                  -4.545
REMARK INTRA:                  -0.123
REMARK UNBOUND:                -0.119
REMARK SMILES CCCCC(=O)[O-]
REMARK SMILES IDX 4 1 5 2 6 3 7 4 3 5 2 6 1 7
REMARK H PARENT
REMARK Flexibility Score: inf
ROOT
ATOM      1  C   UNL     1     -20.124  36.152   8.654  1.00  0.00     0.053 C 
ENDROOT
BRANCH   1   2
ATOM      2  C   UNL     1     -19.939  36.163   7.167  1.00  0.00     0.041 C 
ATOM      3  O   UNL     1     -19.037  36.871   6.645  1.00  0.00    -0.550 OA
ATOM      4  O   UNL     1     -20.741  35.365   6.361  1.00  0.00    -0.550 OA
ENDBRANCH   1   2
BRANCH   1   5
ATOM      5  C   UNL     1     -21.585  35.894   9.043  1.00  0.00     0.006 C 
BRANCH   5   6
ATOM      6  C   UNL     1     -22.449  37.158   8.924  1.00  0.00    -0.003 C 
ATOM      7  C   UNL     1     -23.564  36.968   7.899  1.00  0.00     0.004 C 
ENDBRANCH   5   6
ENDBRANCH   1   5
TORSDOF 3
ENDMDL
MODEL 7
REMARK VINA RESULT:    -3.866      1.524      2.131
REMARK INTER + INTRA:          -4.663
REMARK INTER:                  -4.529
REMARK INTRA:                  -0.133
REMARK UNBOUND:                -0.119
REMARK SMILES CCCCC(=O)[O-]
REMARK SMILES IDX 4 1 5 2 6 3 7 4 3 5 2 6 1 7
REMARK H PARENT
REMARK Flexibility Score: inf
ROOT
ATOM      1  C   UNL     1     -21.717  37.274   9.179  1.00  0.00     0.053 C 
ENDROOT
BRANCH   1   2
ATOM      2  C   UNL     1     -22.531  38.090   8.222  1.00  0.00     0.041 C 
ATOM      3  O   UNL     1     -22.110  39.207   7.822  1.00  0.00    -0.550 OA
ATOM      4  O   UNL     1     -23.741  37.599   7.745  1.00  0.00    -0.550 OA
ENDBRANCH   1   2
BRANCH   1   5
ATOM      5  C   UNL     1     -21.342  35.909   8.589  1.00  0.00     0.006 C 
BRANCH   5   6
ATOM      6  C   UNL     1     -20.343  36.033   7.429  1.00  0.00    -0.003 C 
ATOM      7  C   UNL     1     -20.898  35.402   6.155  1.00  0.00     0.004 C 
ENDBRANCH   5   6
ENDBRANCH   1   5
TORSDOF 3
ENDMDL
MODEL 8
REMARK VINA RESULT:    -3.862     13.116     13.813
REMARK INTER + INTRA:          -4.658
REMARK INTER:                  -4.546
REMARK INTRA:                  -0.112
REMARK UNBOUND:                -0.119
REMARK SMILES CCCCC(=O)[O-]
REMARK SMILES IDX 4 1 5 2 6 3 7 4 3 5 2 6 1 7
REMARK H PARENT
REMARK Flexibility Score: inf
ROOT
ATOM      1  C   UNL     1     -16.263  41.874  -3.415  1.00  0.00     0.053 C 
ENDROOT
BRANCH   1   2
ATOM      2  C   UNL     1     -17.444  42.729  -3.759  1.00  0.00     0.041 C 
ATOM      3  O   UNL     1     -18.441  42.772  -2.992  1.00  0.00    -0.550 OA
ATOM      4  O   UNL     1     -17.428  43.505  -4.911  1.00  0.00    -0.550 OA
ENDBRANCH   1   2
BRANCH   1   5
ATOM      5  C   UNL     1     -15.994  40.815  -4.492  1.00  0.00     0.006 C 
BRANCH   5   6
ATOM      6  C   UNL     1     -17.267  40.050  -4.885  1.00  0.00    -0.003 C 
ATOM      7  C   UNL     1     -17.510  40.122  -6.389  1.00  0.00     0.004 C 
ENDBRANCH   5   6
ENDBRANCH   1   5
TORSDOF 3
ENDMDL
MODEL 9
REMARK VINA RESULT:    -3.817     13.319     13.952
REMARK INTER + INTRA:          -4.605
REMARK INTER:                  -4.515
REMARK INTRA:                  -0.090
REMARK UNBOUND:                -0.119
REMARK SMILES CCCCC(=O)[O-]
REMARK SMILES IDX 4 1 5 2 6 3 7 4 3 5 2 6 1 7
REMARK H PARENT
REMARK Flexibility Score: inf
ROOT
ATOM      1  C   UNL     1     -17.440  40.743  -5.706  1.00  0.00     0.053 C 
ENDROOT
BRANCH   1   2
ATOM      2  C   UNL     1     -18.939  40.747  -5.719  1.00  0.00     0.041 C 
ATOM      3  O   UNL     1     -19.583  40.796  -4.638  1.00  0.00    -0.550 OA
ATOM      4  O   UNL     1     -19.623  40.731  -6.928  1.00  0.00    -0.550 OA
ENDBRANCH   1   2
BRANCH   1   5
ATOM      5  C   UNL     1     -16.885  40.218  -4.376  1.00  0.00     0.006 C 
BRANCH   5   6
ATOM      6  C   UNL     1     -15.879  41.190  -3.742  1.00  0.00    -0.003 C 
ATOM      7  C   UNL     1     -16.325  42.638  -3.922  1.00  0.00     0.004 C 
ENDBRANCH   5   6
ENDBRANCH   1   5
TORSDOF 3
ENDMDL
