MODEL 1
REMARK VINA RESULT:    -7.463      0.000      0.000
REMARK INTER + INTRA:         -14.606
REMARK INTER:                 -13.571
REMARK INTRA:                  -1.035
REMARK UNBOUND:                -1.035
REMARK SMILES CCCCCC=CCC=CCCCCCCCC(=O)[O-]
REMARK SMILES IDX 11 1 12 2 13 3 14 4 15 5 16 6 17 7 18 8 19 9 20 10 10 11
REMARK SMILES IDX 9 12 8 13 7 14 6 15 5 16 4 17 3 18 2 19 1 20
REMARK H PARENT
REMARK Flexibility Score: inf
ROOT
ATOM      1  C   UNL     1     101.086 102.873 104.933  1.00  0.00     0.027 C 
ENDROOT
BRANCH   1   2
ATOM      2  C   UNL     1     101.835 103.278 106.212  1.00  0.00     0.004 C 
BRANCH   2   3
ATOM      3  C   UNL     1     100.991 104.185 107.118  1.00  0.00     0.000 C 
BRANCH   3   4
ATOM      4  C   UNL     1     100.972 103.657 108.560  1.00  0.00     0.000 C 
BRANCH   4   5
ATOM      5  C   UNL     1     101.819 104.511 109.515  1.00  0.00     0.000 C 
BRANCH   5   6
ATOM      6  C   UNL     1     102.879 103.687 110.266  1.00  0.00     0.006 C 
BRANCH   6   7
ATOM      7  C   UNL     1     104.243 104.390 110.302  1.00  0.00     0.053 C 
BRANCH   7   8
ATOM      8  C   UNL     1     104.922 104.352 108.968  1.00  0.00     0.041 C 
ATOM      9  O   UNL     1     104.943 103.286 108.299  1.00  0.00    -0.550 OA
ATOM     10  O   UNL     1     105.497 105.503 108.445  1.00  0.00    -0.550 OA
ENDBRANCH   7   8
ENDBRANCH   6   7
ENDBRANCH   5   6
ENDBRANCH   4   5
ENDBRANCH   3   4
ENDBRANCH   2   3
ENDBRANCH   1   2
BRANCH   1  11
ATOM     11  C   UNL     1     101.973 102.156 103.951  1.00  0.00    -0.031 C 
ATOM     12  C   UNL     1     102.190 100.835 104.031  1.00  0.00    -0.027 C 
BRANCH  12  13
ATOM     13  C   UNL     1     103.083 100.146 103.034  1.00  0.00     0.054 C 
BRANCH  13  14
ATOM     14  C   UNL     1     102.333  99.764 101.781  1.00  0.00    -0.027 C 
ATOM     15  C   UNL     1     102.727 100.117 100.543  1.00  0.00    -0.031 C 
BRANCH  15  16
ATOM     16  C   UNL     1     103.989 100.887 100.236  1.00  0.00     0.027 C 
BRANCH  16  17
ATOM     17  C   UNL     1     104.353 100.841  98.741  1.00  0.00     0.004 C 
BRANCH  17  18
ATOM     18  C   UNL     1     104.739  99.443  98.225  1.00  0.00     0.000 C 
BRANCH  18  19
ATOM     19  C   UNL     1     103.838  98.962  97.078  1.00  0.00    -0.003 C 
ATOM     20  C   UNL     1     103.242  97.591  97.386  1.00  0.00     0.004 C 
ENDBRANCH  18  19
ENDBRANCH  17  18
ENDBRANCH  16  17
ENDBRANCH  15  16
ENDBRANCH  13  14
ENDBRANCH  12  13
ENDBRANCH   1  11
TORSDOF 14
ENDMDL
MODEL 2
REMARK VINA RESULT:    -7.461      4.643      8.017
REMARK INTER + INTRA:         -14.602
REMARK INTER:                 -12.129
REMARK INTRA:                  -2.473
REMARK UNBOUND:                -1.035
REMARK SMILES CCCCCC=CCC=CCCCCCCCC(=O)[O-]
REMARK SMILES IDX 11 1 12 2 13 3 14 4 15 5 16 6 17 7 18 8 19 9 20 10 10 11
REMARK SMILES IDX 9 12 8 13 7 14 6 15 5 16 4 17 3 18 2 19 1 20
REMARK H PARENT
REMARK Flexibility Score: inf
ROOT
ATOM      1  C   UNL     1     106.426 105.507 109.909  1.00  0.00     0.027 C 
ENDROOT
BRANCH   1   2
ATOM      2  C   UNL     1     107.248 104.429 109.187  1.00  0.00     0.004 C 
BRANCH   2   3
ATOM      3  C   UNL     1     108.142 105.019 108.087  1.00  0.00     0.000 C 
BRANCH   3   4
ATOM      4  C   UNL     1     107.547 104.756 106.695  1.00  0.00     0.000 C 
BRANCH   4   5
ATOM      5  C   UNL     1     106.324 103.828 106.740  1.00  0.00     0.000 C 
BRANCH   5   6
ATOM      6  C   UNL     1     106.216 102.928 105.497  1.00  0.00     0.006 C 
BRANCH   6   7
ATOM      7  C   UNL     1     105.348 101.689 105.752  1.00  0.00     0.053 C 
BRANCH   7   8
ATOM      8  C   UNL     1     105.898 100.476 105.066  1.00  0.00     0.041 C 
ATOM      9  O   UNL     1     105.315  99.366 105.180  1.00  0.00    -0.550 OA
ATOM     10  O   UNL     1     107.032 100.579 104.271  1.00  0.00    -0.550 OA
ENDBRANCH   7   8
ENDBRANCH   6   7
ENDBRANCH   5   6
ENDBRANCH   4   5
ENDBRANCH   3   4
ENDBRANCH   2   3
ENDBRANCH   1   2
BRANCH   1  11
ATOM     11  C   UNL     1     105.089 104.994 110.375  1.00  0.00    -0.031 C 
ATOM     12  C   UNL     1     104.460 103.992 109.743  1.00  0.00    -0.027 C 
BRANCH  12  13
ATOM     13  C   UNL     1     103.124 103.502 110.232  1.00  0.00     0.054 C 
BRANCH  13  14
ATOM     14  C   UNL     1     102.039 104.532 110.026  1.00  0.00    -0.027 C 
ATOM     15  C   UNL     1     101.210 104.537 108.966  1.00  0.00    -0.031 C 
BRANCH  15  16
ATOM     16  C   UNL     1     101.211 103.492 107.877  1.00  0.00     0.027 C 
BRANCH  16  17
ATOM     17  C   UNL     1     101.303 104.113 106.471  1.00  0.00     0.004 C 
BRANCH  17  18
ATOM     18  C   UNL     1     102.740 104.398 105.997  1.00  0.00     0.000 C 
BRANCH  18  19
ATOM     19  C   UNL     1     103.034 105.899 105.858  1.00  0.00    -0.003 C 
ATOM     20  C   UNL     1     103.837 106.413 107.050  1.00  0.00     0.004 C 
ENDBRANCH  18  19
ENDBRANCH  17  18
ENDBRANCH  16  17
ENDBRANCH  15  16
ENDBRANCH  13  14
ENDBRANCH  12  13
ENDBRANCH   1  11
TORSDOF 14
ENDMDL
MODEL 3
REMARK VINA RESULT:    -7.376      3.891      7.551
REMARK INTER + INTRA:         -14.448
REMARK INTER:                 -12.227
REMARK INTRA:                  -2.222
REMARK UNBOUND:                -1.035
REMARK SMILES CCCCCC=CCC=CCCCCCCCC(=O)[O-]
REMARK SMILES IDX 11 1 12 2 13 3 14 4 15 5 16 6 17 7 18 8 19 9 20 10 10 11
REMARK SMILES IDX 9 12 8 13 7 14 6 15 5 16 4 17 3 18 2 19 1 20
REMARK H PARENT
REMARK Flexibility Score: inf
ROOT
ATOM      1  C   UNL     1     102.604 103.672 110.133  1.00  0.00     0.027 C 
ENDROOT
BRANCH   1   2
ATOM      2  C   UNL     1     101.735 104.673 109.355  1.00  0.00     0.004 C 
BRANCH   2   3
ATOM      3  C   UNL     1     100.796 103.977 108.360  1.00  0.00     0.000 C 
BRANCH   3   4
ATOM      4  C   UNL     1     101.536 103.623 107.061  1.00  0.00     0.000 C 
BRANCH   4   5
ATOM      5  C   UNL     1     100.862 104.218 105.815  1.00  0.00     0.000 C 
BRANCH   5   6
ATOM      6  C   UNL     1     100.907 103.268 104.606  1.00  0.00     0.006 C 
BRANCH   6   7
ATOM      7  C   UNL     1     101.597 101.938 104.938  1.00  0.00     0.053 C 
BRANCH   7   8
ATOM      8  C   UNL     1     102.639 101.586 103.922  1.00  0.00     0.041 C 
ATOM      9  O   UNL     1     102.959 100.383 103.734  1.00  0.00    -0.550 OA
ATOM     10  O   UNL     1     103.231 102.582 103.155  1.00  0.00    -0.550 OA
ENDBRANCH   7   8
ENDBRANCH   6   7
ENDBRANCH   5   6
ENDBRANCH   4   5
ENDBRANCH   3   4
ENDBRANCH   2   3
ENDBRANCH   1   2
BRANCH   1  11
ATOM     11  C   UNL     1     103.971 104.220 110.446  1.00  0.00    -0.031 C 
ATOM     12  C   UNL     1     104.635 104.997 109.578  1.00  0.00    -0.027 C 
BRANCH  12  13
ATOM     13  C   UNL     1     106.001 105.528 109.919  1.00  0.00     0.054 C 
BRANCH  13  14
ATOM     14  C   UNL     1     107.079 104.501 109.675  1.00  0.00    -0.027 C 
ATOM     15  C   UNL     1     107.893 104.519 108.603  1.00  0.00    -0.031 C 
BRANCH  15  16
ATOM     16  C   UNL     1     107.879 105.589 107.538  1.00  0.00     0.027 C 
BRANCH  16  17
ATOM     17  C   UNL     1     107.432 105.046 106.169  1.00  0.00     0.004 C 
BRANCH  17  18
ATOM     18  C   UNL     1     105.978 104.542 106.133  1.00  0.00     0.000 C 
BRANCH  18  19
ATOM     19  C   UNL     1     105.880 103.020 105.944  1.00  0.00    -0.003 C 
ATOM     20  C   UNL     1     104.992 102.391 107.014  1.00  0.00     0.004 C 
ENDBRANCH  18  19
ENDBRANCH  17  18
ENDBRANCH  16  17
ENDBRANCH  15  16
ENDBRANCH  13  14
ENDBRANCH  12  13
ENDBRANCH   1  11
TORSDOF 14
ENDMDL
MODEL 4
REMARK VINA RESULT:    -7.334      5.589      8.095
REMARK INTER + INTRA:         -14.371
REMARK INTER:                 -11.778
REMARK INTRA:                  -2.593
REMARK UNBOUND:                -1.035
REMARK SMILES CCCCCC=CCC=CCCCCCCCC(=O)[O-]
REMARK SMILES IDX 11 1 12 2 13 3 14 4 15 5 16 6 17 7 18 8 19 9 20 10 10 11
REMARK SMILES IDX 9 12 8 13 7 14 6 15 5 16 4 17 3 18 2 19 1 20
REMARK H PARENT
REMARK Flexibility Score: inf
ROOT
ATOM      1  C   UNL     1     106.185 105.727 109.363  1.00  0.00     0.027 C 
ENDROOT
BRANCH   1   2
ATOM      2  C   UNL     1     107.243 104.613 109.333  1.00  0.00     0.004 C 
BRANCH   2   3
ATOM      3  C   UNL     1     108.310 104.853 108.255  1.00  0.00     0.000 C 
BRANCH   3   4
ATOM      4  C   UNL     1     107.688 105.478 106.997  1.00  0.00     0.000 C 
BRANCH   4   5
ATOM      5  C   UNL     1     108.229 104.860 105.700  1.00  0.00     0.000 C 
BRANCH   5   6
ATOM      6  C   UNL     1     107.744 105.601 104.442  1.00  0.00     0.006 C 
BRANCH   6   7
ATOM      7  C   UNL     1     107.230 107.011 104.761  1.00  0.00     0.053 C 
BRANCH   7   8
ATOM      8  C   UNL     1     106.293 107.511 103.705  1.00  0.00     0.041 C 
ATOM      9  O   UNL     1     105.720 106.700 102.932  1.00  0.00    -0.550 OA
ATOM     10  O   UNL     1     106.023 108.870 103.599  1.00  0.00    -0.550 OA
ENDBRANCH   7   8
ENDBRANCH   6   7
ENDBRANCH   5   6
ENDBRANCH   4   5
ENDBRANCH   3   4
ENDBRANCH   2   3
ENDBRANCH   1   2
BRANCH   1  11
ATOM     11  C   UNL     1     104.782 105.184 109.415  1.00  0.00    -0.031 C 
ATOM     12  C   UNL     1     104.448 104.170 110.227  1.00  0.00    -0.027 C 
BRANCH  12  13
ATOM     13  C   UNL     1     103.037 103.648 110.256  1.00  0.00     0.054 C 
BRANCH  13  14
ATOM     14  C   UNL     1     102.038 104.712 109.870  1.00  0.00    -0.027 C 
ATOM     15  C   UNL     1     101.271 104.645 108.766  1.00  0.00    -0.031 C 
BRANCH  15  16
ATOM     16  C   UNL     1     101.262 103.484 107.802  1.00  0.00     0.027 C 
BRANCH  16  17
ATOM     17  C   UNL     1     101.905 103.840 106.449  1.00  0.00     0.004 C 
BRANCH  17  18
ATOM     18  C   UNL     1     103.411 103.533 106.364  1.00  0.00     0.000 C 
BRANCH  18  19
ATOM     19  C   UNL     1     104.219 104.682 105.744  1.00  0.00    -0.003 C 
ATOM     20  C   UNL     1     103.556 106.030 106.018  1.00  0.00     0.004 C 
ENDBRANCH  18  19
ENDBRANCH  17  18
ENDBRANCH  16  17
ENDBRANCH  15  16
ENDBRANCH  13  14
ENDBRANCH  12  13
ENDBRANCH   1  11
TORSDOF 14
ENDMDL
MODEL 5
REMARK VINA RESULT:    -7.326      6.313      7.833
REMARK INTER + INTRA:         -14.357
REMARK INTER:                 -13.382
REMARK INTRA:                  -0.975
REMARK UNBOUND:                -1.035
REMARK SMILES CCCCCC=CCC=CCCCCCCCC(=O)[O-]
REMARK SMILES IDX 11 1 12 2 13 3 14 4 15 5 16 6 17 7 18 8 19 9 20 10 10 11
REMARK SMILES IDX 9 12 8 13 7 14 6 15 5 16 4 17 3 18 2 19 1 20
REMARK H PARENT
REMARK Flexibility Score: inf
ROOT
ATOM      1  C   UNL     1     107.687 106.679 105.197  1.00  0.00     0.027 C 
ENDROOT
BRANCH   1   2
ATOM      2  C   UNL     1     107.772 105.147 105.122  1.00  0.00     0.004 C 
BRANCH   2   3
ATOM      3  C   UNL     1     107.411 104.479 106.456  1.00  0.00     0.000 C 
BRANCH   3   4
ATOM      4  C   UNL     1     107.977 105.276 107.641  1.00  0.00     0.000 C 
BRANCH   4   5
ATOM      5  C   UNL     1     107.526 104.718 108.999  1.00  0.00     0.000 C 
BRANCH   5   6
ATOM      6  C   UNL     1     106.504 105.626 109.704  1.00  0.00     0.006 C 
BRANCH   6   7
ATOM      7  C   UNL     1     105.665 104.862 110.737  1.00  0.00     0.053 C 
BRANCH   7   8
ATOM      8  C   UNL     1     104.302 104.534 110.210  1.00  0.00     0.041 C 
ATOM      9  O   UNL     1     103.469 103.935 110.939  1.00  0.00    -0.550 OA
ATOM     10  O   UNL     1     103.938 104.922 108.927  1.00  0.00    -0.550 OA
ENDBRANCH   7   8
ENDBRANCH   6   7
ENDBRANCH   5   6
ENDBRANCH   4   5
ENDBRANCH   3   4
ENDBRANCH   2   3
ENDBRANCH   1   2
BRANCH   1  11
ATOM     11  C   UNL     1     106.924 107.269 104.040  1.00  0.00    -0.031 C 
ATOM     12  C   UNL     1     106.651 108.580 103.971  1.00  0.00    -0.027 C 
BRANCH  12  13
ATOM     13  C   UNL     1     105.886 109.140 102.803  1.00  0.00     0.054 C 
BRANCH  13  14
ATOM     14  C   UNL     1     106.763 109.305 101.586  1.00  0.00    -0.027 C 
ATOM     15  C   UNL     1     106.458 108.798 100.377  1.00  0.00    -0.031 C 
BRANCH  15  16
ATOM     16  C   UNL     1     105.185 108.051 100.060  1.00  0.00     0.027 C 
BRANCH  16  17
ATOM     17  C   UNL     1     104.538 108.529  98.748  1.00  0.00     0.004 C 
BRANCH  17  18
ATOM     18  C   UNL     1     105.513 109.212  97.773  1.00  0.00     0.000 C 
BRANCH  18  19
ATOM     19  C   UNL     1     104.947 110.510  97.176  1.00  0.00    -0.003 C 
ATOM     20  C   UNL     1     105.906 111.677  97.393  1.00  0.00     0.004 C 
ENDBRANCH  18  19
ENDBRANCH  17  18
ENDBRANCH  16  17
ENDBRANCH  15  16
ENDBRANCH  13  14
ENDBRANCH  12  13
ENDBRANCH   1  11
TORSDOF 14
ENDMDL
MODEL 6
REMARK VINA RESULT:    -7.221      5.112      7.247
REMARK INTER + INTRA:         -14.167
REMARK INTER:                 -11.645
REMARK INTRA:                  -2.522
REMARK UNBOUND:                -1.035
REMARK SMILES CCCCCC=CCC=CCCCCCCCC(=O)[O-]
REMARK SMILES IDX 11 1 12 2 13 3 14 4 15 5 16 6 17 7 18 8 19 9 20 10 10 11
REMARK SMILES IDX 9 12 8 13 7 14 6 15 5 16 4 17 3 18 2 19 1 20
REMARK H PARENT
REMARK Flexibility Score: inf
ROOT
ATOM      1  C   UNL     1     103.299 104.098 110.381  1.00  0.00     0.027 C 
ENDROOT
BRANCH   1   2
ATOM      2  C   UNL     1     101.928 104.560 109.865  1.00  0.00     0.004 C 
BRANCH   2   3
ATOM      3  C   UNL     1     101.285 103.534 108.922  1.00  0.00     0.000 C 
BRANCH   3   4
ATOM      4  C   UNL     1     100.815 104.201 107.621  1.00  0.00     0.000 C 
BRANCH   4   5
ATOM      5  C   UNL     1     101.842 104.072 106.485  1.00  0.00     0.000 C 
BRANCH   5   6
ATOM      6  C   UNL     1     102.716 105.329 106.330  1.00  0.00     0.006 C 
BRANCH   6   7
ATOM      7  C   UNL     1     102.751 105.837 104.883  1.00  0.00     0.053 C 
BRANCH   7   8
ATOM      8  C   UNL     1     103.473 107.144 104.771  1.00  0.00     0.041 C 
ATOM      9  O   UNL     1     104.064 107.451 103.704  1.00  0.00    -0.550 OA
ATOM     10  O   UNL     1     103.462 108.040 105.834  1.00  0.00    -0.550 OA
ENDBRANCH   7   8
ENDBRANCH   6   7
ENDBRANCH   5   6
ENDBRANCH   4   5
ENDBRANCH   3   4
ENDBRANCH   2   3
ENDBRANCH   1   2
BRANCH   1  11
ATOM     11  C   UNL     1     104.439 104.781 109.674  1.00  0.00    -0.031 C 
ATOM     12  C   UNL     1     105.593 105.056 110.299  1.00  0.00    -0.027 C 
BRANCH  12  13
ATOM     13  C   UNL     1     106.714 105.742 109.566  1.00  0.00     0.054 C 
BRANCH  13  14
ATOM     14  C   UNL     1     107.721 104.753 109.030  1.00  0.00    -0.027 C 
ATOM     15  C   UNL     1     108.123 104.725 107.746  1.00  0.00    -0.031 C 
BRANCH  15  16
ATOM     16  C   UNL     1     107.673 105.704 106.689  1.00  0.00     0.027 C 
BRANCH  16  17
ATOM     17  C   UNL     1     106.484 105.174 105.868  1.00  0.00     0.004 C 
BRANCH  17  18
ATOM     18  C   UNL     1     106.620 103.703 105.435  1.00  0.00     0.000 C 
BRANCH  18  19
ATOM     19  C   UNL     1     105.326 102.900 105.637  1.00  0.00    -0.003 C 
ATOM     20  C   UNL     1     105.187 102.439 107.085  1.00  0.00     0.004 C 
ENDBRANCH  18  19
ENDBRANCH  17  18
ENDBRANCH  16  17
ENDBRANCH  15  16
ENDBRANCH  13  14
ENDBRANCH  12  13
ENDBRANCH   1  11
TORSDOF 14
ENDMDL
MODEL 7
REMARK VINA RESULT:    -7.211      3.710      7.063
REMARK INTER + INTRA:         -14.148
REMARK INTER:                 -11.750
REMARK INTRA:                  -2.398
REMARK UNBOUND:                -1.035
REMARK SMILES CCCCCC=CCC=CCCCCCCCC(=O)[O-]
REMARK SMILES IDX 11 1 12 2 13 3 14 4 15 5 16 6 17 7 18 8 19 9 20 10 10 11
REMARK SMILES IDX 9 12 8 13 7 14 6 15 5 16 4 17 3 18 2 19 1 20
REMARK H PARENT
REMARK Flexibility Score: inf
ROOT
ATOM      1  C   UNL     1     106.312 105.118 110.314  1.00  0.00     0.027 C 
ENDROOT
BRANCH   1   2
ATOM      2  C   UNL     1     107.083 104.255 109.304  1.00  0.00     0.004 C 
BRANCH   2   3
ATOM      3  C   UNL     1     107.926 105.101 108.339  1.00  0.00     0.000 C 
BRANCH   3   4
ATOM      4  C   UNL     1     107.409 104.971 106.899  1.00  0.00     0.000 C 
BRANCH   4   5
ATOM      5  C   UNL     1     106.348 103.871 106.748  1.00  0.00     0.000 C 
BRANCH   5   6
ATOM      6  C   UNL     1     105.143 104.320 105.903  1.00  0.00     0.006 C 
BRANCH   6   7
ATOM      7  C   UNL     1     104.411 105.516 106.526  1.00  0.00     0.053 C 
BRANCH   7   8
ATOM      8  C   UNL     1     104.149 106.593 105.518  1.00  0.00     0.041 C 
ATOM      9  O   UNL     1     102.972 106.983 105.300  1.00  0.00    -0.550 OA
ATOM     10  O   UNL     1     105.207 107.191 104.845  1.00  0.00    -0.550 OA
ENDBRANCH   7   8
ENDBRANCH   6   7
ENDBRANCH   5   6
ENDBRANCH   4   5
ENDBRANCH   3   4
ENDBRANCH   2   3
ENDBRANCH   1   2
BRANCH   1  11
ATOM     11  C   UNL     1     104.890 104.657 110.496  1.00  0.00    -0.031 C 
ATOM     12  C   UNL     1     104.323 103.776 109.660  1.00  0.00    -0.027 C 
BRANCH  12  13
ATOM     13  C   UNL     1     102.899 103.335 109.867  1.00  0.00     0.054 C 
BRANCH  13  14
ATOM     14  C   UNL     1     101.921 104.453 109.600  1.00  0.00    -0.027 C 
ATOM     15  C   UNL     1     101.226 104.574 108.454  1.00  0.00    -0.031 C 
BRANCH  15  16
ATOM     16  C   UNL     1     101.282 103.588 107.313  1.00  0.00     0.027 C 
BRANCH  16  17
ATOM     17  C   UNL     1     100.896 104.228 105.967  1.00  0.00     0.004 C 
BRANCH  17  18
ATOM     18  C   UNL     1     101.244 103.372 104.736  1.00  0.00     0.000 C 
BRANCH  18  19
ATOM     19  C   UNL     1     101.486 101.896 105.086  1.00  0.00    -0.003 C 
ATOM     20  C   UNL     1     102.261 101.189 103.978  1.00  0.00     0.004 C 
ENDBRANCH  18  19
ENDBRANCH  17  18
ENDBRANCH  16  17
ENDBRANCH  15  16
ENDBRANCH  13  14
ENDBRANCH  12  13
ENDBRANCH   1  11
TORSDOF 14
ENDMDL
MODEL 8
REMARK VINA RESULT:    -7.147      3.895      7.308
REMARK INTER + INTRA:         -14.032
REMARK INTER:                 -11.534
REMARK INTRA:                  -2.499
REMARK UNBOUND:                -1.035
REMARK SMILES CCCCCC=CCC=CCCCCCCCC(=O)[O-]
REMARK SMILES IDX 11 1 12 2 13 3 14 4 15 5 16 6 17 7 18 8 19 9 20 10 10 11
REMARK SMILES IDX 9 12 8 13 7 14 6 15 5 16 4 17 3 18 2 19 1 20
REMARK H PARENT
REMARK Flexibility Score: inf
ROOT
ATOM      1  C   UNL     1     103.331 103.890 110.657  1.00  0.00     0.027 C 
ENDROOT
BRANCH   1   2
ATOM      2  C   UNL     1     102.391 103.352 109.568  1.00  0.00     0.004 C 
BRANCH   2   3
ATOM      3  C   UNL     1     101.832 104.470 108.678  1.00  0.00     0.000 C 
BRANCH   3   4
ATOM      4  C   UNL     1     100.907 103.899 107.592  1.00  0.00     0.000 C 
BRANCH   4   5
ATOM      5  C   UNL     1     101.338 104.303 106.175  1.00  0.00     0.000 C 
BRANCH   5   6
ATOM      6  C   UNL     1     101.236 103.142 105.170  1.00  0.00     0.006 C 
BRANCH   6   7
ATOM      7  C   UNL     1     102.357 103.181 104.123  1.00  0.00     0.053 C 
BRANCH   7   8
ATOM      8  C   UNL     1     102.589 101.834 103.509  1.00  0.00     0.041 C 
ATOM      9  O   UNL     1     103.325 101.719 102.495  1.00  0.00    -0.550 OA
ATOM     10  O   UNL     1     102.022 100.701 104.080  1.00  0.00    -0.550 OA
ENDBRANCH   7   8
ENDBRANCH   6   7
ENDBRANCH   5   6
ENDBRANCH   4   5
ENDBRANCH   3   4
ENDBRANCH   2   3
ENDBRANCH   1   2
BRANCH   1  11
ATOM     11  C   UNL     1     104.390 104.806 110.102  1.00  0.00    -0.031 C 
ATOM     12  C   UNL     1     105.694 104.599 110.335  1.00  0.00    -0.027 C 
BRANCH  12  13
ATOM     13  C   UNL     1     106.728 105.533 109.768  1.00  0.00     0.054 C 
BRANCH  13  14
ATOM     14  C   UNL     1     107.651 104.828 108.804  1.00  0.00    -0.027 C 
ATOM     15  C   UNL     1     107.409 104.726 107.484  1.00  0.00    -0.031 C 
BRANCH  15  16
ATOM     16  C   UNL     1     106.223 105.344 106.783  1.00  0.00     0.027 C 
BRANCH  16  17
ATOM     17  C   UNL     1     105.320 104.290 106.118  1.00  0.00     0.004 C 
BRANCH  17  18
ATOM     18  C   UNL     1     105.187 102.978 106.914  1.00  0.00     0.000 C 
BRANCH  18  19
ATOM     19  C   UNL     1     105.368 101.729 106.037  1.00  0.00    -0.003 C 
ATOM     20  C   UNL     1     106.145 102.059 104.766  1.00  0.00     0.004 C 
ENDBRANCH  18  19
ENDBRANCH  17  18
ENDBRANCH  16  17
ENDBRANCH  15  16
ENDBRANCH  13  14
ENDBRANCH  12  13
ENDBRANCH   1  11
TORSDOF 14
ENDMDL
MODEL 9
REMARK VINA RESULT:    -7.143      5.106      7.248
REMARK INTER + INTRA:         -14.025
REMARK INTER:                 -11.365
REMARK INTRA:                  -2.660
REMARK UNBOUND:                -1.035
REMARK SMILES CCCCCC=CCC=CCCCCCCCC(=O)[O-]
REMARK SMILES IDX 11 1 12 2 13 3 14 4 15 5 16 6 17 7 18 8 19 9 20 10 10 11
REMARK SMILES IDX 9 12 8 13 7 14 6 15 5 16 4 17 3 18 2 19 1 20
REMARK H PARENT
REMARK Flexibility Score: inf
ROOT
ATOM      1  C   UNL     1     104.782 104.880 110.598  1.00  0.00     0.027 C 
ENDROOT
BRANCH   1   2
ATOM      2  C   UNL     1     105.911 105.338 109.662  1.00  0.00     0.004 C 
BRANCH   2   3
ATOM      3  C   UNL     1     107.113 104.383 109.690  1.00  0.00     0.000 C 
BRANCH   3   4
ATOM      4  C   UNL     1     108.036 104.626 108.487  1.00  0.00     0.000 C 
BRANCH   4   5
ATOM      5  C   UNL     1     107.336 105.377 107.345  1.00  0.00     0.000 C 
BRANCH   5   6
ATOM      6  C   UNL     1     107.999 105.132 105.979  1.00  0.00     0.006 C 
BRANCH   6   7
ATOM      7  C   UNL     1     107.796 106.309 105.016  1.00  0.00     0.053 C 
BRANCH   7   8
ATOM      8  C   UNL     1     106.584 106.121 104.157  1.00  0.00     0.041 C 
ATOM      9  O   UNL     1     106.401 105.032 103.552  1.00  0.00    -0.550 OA
ATOM     10  O   UNL     1     105.637 107.132 104.054  1.00  0.00    -0.550 OA
ENDBRANCH   7   8
ENDBRANCH   6   7
ENDBRANCH   5   6
ENDBRANCH   4   5
ENDBRANCH   3   4
ENDBRANCH   2   3
ENDBRANCH   1   2
BRANCH   1  11
ATOM     11  C   UNL     1     103.791 103.982 109.907  1.00  0.00    -0.031 C 
ATOM     12  C   UNL     1     102.561 104.406 109.585  1.00  0.00    -0.027 C 
BRANCH  12  13
ATOM     13  C   UNL     1     101.591 103.484 108.896  1.00  0.00     0.054 C 
BRANCH  13  14
ATOM     14  C   UNL     1     100.543 104.249 108.125  1.00  0.00    -0.027 C 
ATOM     15  C   UNL     1     100.528 104.343 106.783  1.00  0.00    -0.031 C 
BRANCH  15  16
ATOM     16  C   UNL     1     101.514 103.657 105.868  1.00  0.00     0.027 C 
BRANCH  16  17
ATOM     17  C   UNL     1     102.655 104.593 105.430  1.00  0.00     0.004 C 
BRANCH  17  18
ATOM     18  C   UNL     1     103.990 104.348 106.156  1.00  0.00     0.000 C 
BRANCH  18  19
ATOM     19  C   UNL     1     104.602 102.977 105.830  1.00  0.00    -0.003 C 
ATOM     20  C   UNL     1     105.325 102.397 107.042  1.00  0.00     0.004 C 
ENDBRANCH  18  19
ENDBRANCH  17  18
ENDBRANCH  16  17
ENDBRANCH  15  16
ENDBRANCH  13  14
ENDBRANCH  12  13
ENDBRANCH   1  11
TORSDOF 14
ENDMDL
