MODEL 1
REMARK VINA RESULT:     2.568      0.000      0.000
REMARK INTER + INTRA:           2.408
REMARK INTER:                   2.718
REMARK INTRA:                  -0.310
REMARK UNBOUND:                -0.310
REMARK SMILES C=C(C)[C@H]1CC[C@@H](C)[C@@]12CC=C(C)CC2
REMARK SMILES IDX 8 1 7 2 6 3 5 4 4 5 9 6 15 7 14 8 12 9 11 10 10 11 13 12
REMARK SMILES IDX 2 13 1 14 3 15
REMARK H PARENT
REMARK Flexibility Score: inf
ROOT
ATOM      1  C   UNL     1     155.125 136.402 161.757  1.00  0.00     0.008 C 
ATOM      2  C   UNL     1     153.885 136.201 162.651  1.00  0.00    -0.007 C 
ATOM      3  C   UNL     1     153.206 134.875 162.307  1.00  0.00     0.004 C 
ATOM      4  C   UNL     1     152.193 135.206 161.231  1.00  0.00     0.009 C 
ATOM      5  C   UNL     1     151.683 136.612 161.570  1.00  0.00     0.021 C 
ATOM      6  C   UNL     1     152.759 137.288 162.504  1.00  0.00    -0.017 C 
ATOM      7  C   UNL     1     152.101 137.563 163.892  1.00  0.00     0.012 C 
ATOM      8  C   UNL     1     153.043 138.239 164.907  1.00  0.00     0.031 C 
ATOM      9  C   UNL     1     153.999 139.244 164.299  1.00  0.00    -0.077 C 
ATOM     10  C   UNL     1     154.138 139.384 162.969  1.00  0.00    -0.027 C 
ATOM     11  C   UNL     1     153.255 138.669 161.982  1.00  0.00     0.035 C 
ATOM     12  C   UNL     1     154.889 140.037 165.214  1.00  0.00     0.039 C 
ENDROOT
BRANCH   5  13
ATOM     13  C   UNL     1     151.240 137.403 160.335  1.00  0.00    -0.077 C 
ATOM     14  C   UNL     1     151.760 137.101 159.133  1.00  0.00     0.008 C 
ATOM     15  C   UNL     1     150.189 138.485 160.398  1.00  0.00     0.039 C 
ENDBRANCH   5  13
TORSDOF 1
ENDMDL
MODEL 2
REMARK VINA RESULT:     4.192     20.256     22.124
REMARK INTER + INTRA:           4.127
REMARK INTER:                   4.392
REMARK INTRA:                  -0.265
REMARK UNBOUND:                -0.310
REMARK SMILES C=C(C)[C@H]1CC[C@@H](C)[C@@]12CC=C(C)CC2
REMARK SMILES IDX 8 1 7 2 6 3 5 4 4 5 9 6 15 7 14 8 12 9 11 10 10 11 13 12
REMARK SMILES IDX 2 13 1 14 3 15
REMARK H PARENT
REMARK Flexibility Score: inf
ROOT
ATOM      1  C   UNL     1     134.875 152.925 162.256  1.00  0.00     0.008 C 
ATOM      2  C   UNL     1     135.988 153.705 162.984  1.00  0.00    -0.007 C 
ATOM      3  C   UNL     1     136.079 155.125 162.424  1.00  0.00     0.004 C 
ATOM      4  C   UNL     1     137.079 155.049 161.289  1.00  0.00     0.009 C 
ATOM      5  C   UNL     1     138.113 154.005 161.727  1.00  0.00     0.021 C 
ATOM      6  C   UNL     1     137.438 153.115 162.840  1.00  0.00    -0.017 C 
ATOM      7  C   UNL     1     138.227 153.311 164.171  1.00  0.00     0.012 C 
ATOM      8  C   UNL     1     137.679 152.484 165.350  1.00  0.00     0.031 C 
ATOM      9  C   UNL     1     137.156 151.116 164.964  1.00  0.00    -0.077 C 
ATOM     10  C   UNL     1     137.009 150.743 163.680  1.00  0.00    -0.027 C 
ATOM     11  C   UNL     1     137.488 151.588 162.531  1.00  0.00     0.035 C 
ATOM     12  C   UNL     1     136.695 150.186 166.051  1.00  0.00     0.039 C 
ENDROOT
BRANCH   5  13
ATOM     13  C   UNL     1     138.758 153.269 160.547  1.00  0.00    -0.077 C 
ATOM     14  C   UNL     1     137.997 152.884 159.509  1.00  0.00     0.008 C 
ATOM     15  C   UNL     1     140.243 153.004 160.471  1.00  0.00     0.039 C 
ENDBRANCH   5  13
TORSDOF 1
ENDMDL
MODEL 3
REMARK VINA RESULT:     4.394     20.815     22.151
REMARK INTER + INTRA:           4.341
REMARK INTER:                   3.428
REMARK INTRA:                   0.913
REMARK UNBOUND:                -0.310
REMARK SMILES C=C(C)[C@H]1CC[C@@H](C)[C@@]12CC=C(C)CC2
REMARK SMILES IDX 8 1 7 2 6 3 5 4 4 5 9 6 15 7 14 8 12 9 11 10 10 11 13 12
REMARK SMILES IDX 2 13 1 14 3 15
REMARK H PARENT
REMARK Flexibility Score: inf
ROOT
ATOM      1  C   UNL     1     136.290 155.125 162.656  1.00  0.00     0.008 C 
ATOM      2  C   UNL     1     136.198 153.719 162.029  1.00  0.00    -0.007 C 
ATOM      3  C   UNL     1     134.881 153.056 162.431  1.00  0.00     0.004 C 
ATOM      4  C   UNL     1     135.180 152.304 163.712  1.00  0.00     0.009 C 
ATOM      5  C   UNL     1     136.624 151.810 163.566  1.00  0.00     0.021 C 
ATOM      6  C   UNL     1     137.316 152.705 162.468  1.00  0.00    -0.017 C 
ATOM      7  C   UNL     1     137.709 151.792 161.265  1.00  0.00     0.012 C 
ATOM      8  C   UNL     1     138.412 152.540 160.116  1.00  0.00     0.031 C 
ATOM      9  C   UNL     1     139.336 153.652 160.567  1.00  0.00    -0.077 C 
ATOM     10  C   UNL     1     139.383 154.068 161.846  1.00  0.00    -0.027 C 
ATOM     11  C   UNL     1     138.640 153.370 162.953  1.00  0.00     0.035 C 
ATOM     12  C   UNL     1     140.152 154.377 159.534  1.00  0.00     0.039 C 
ENDROOT
BRANCH   5  13
ATOM     13  C   UNL     1     137.349 151.673 164.908  1.00  0.00    -0.077 C 
ATOM     14  C   UNL     1     138.174 152.650 165.320  1.00  0.00     0.008 C 
ATOM     15  C   UNL     1     137.132 150.498 165.832  1.00  0.00     0.039 C 
ENDBRANCH   5  13
TORSDOF 1
ENDMDL
MODEL 4
REMARK VINA RESULT:     4.945     20.513     22.186
REMARK INTER + INTRA:           4.923
REMARK INTER:                   5.041
REMARK INTRA:                  -0.117
REMARK UNBOUND:                -0.310
REMARK SMILES C=C(C)[C@H]1CC[C@@H](C)[C@@]12CC=C(C)CC2
REMARK SMILES IDX 8 1 7 2 6 3 5 4 4 5 9 6 15 7 14 8 12 9 11 10 10 11 13 12
REMARK SMILES IDX 2 13 1 14 3 15
REMARK H PARENT
REMARK Flexibility Score: inf
ROOT
ATOM      1  C   UNL     1     138.876 155.116 163.007  1.00  0.00     0.008 C 
ATOM      2  C   UNL     1     137.686 154.857 162.060  1.00  0.00    -0.007 C 
ATOM      3  C   UNL     1     136.372 155.124 162.794  1.00  0.00     0.004 C 
ATOM      4  C   UNL     1     135.977 153.800 163.413  1.00  0.00     0.009 C 
ATOM      5  C   UNL     1     136.448 152.730 162.422  1.00  0.00     0.021 C 
ATOM      6  C   UNL     1     137.559 153.387 161.516  1.00  0.00    -0.017 C 
ATOM      7  C   UNL     1     137.044 153.408 160.044  1.00  0.00     0.012 C 
ATOM      8  C   UNL     1     138.042 154.018 159.041  1.00  0.00     0.031 C 
ATOM      9  C   UNL     1     139.495 153.710 159.340  1.00  0.00    -0.077 C 
ATOM     10  C   UNL     1     139.879 153.121 160.487  1.00  0.00    -0.027 C 
ATOM     11  C   UNL     1     138.896 152.587 161.493  1.00  0.00     0.035 C 
ATOM     12  C   UNL     1     140.545 154.168 158.366  1.00  0.00     0.039 C 
ENDROOT
BRANCH   5  13
ATOM     13  C   UNL     1     136.801 151.401 163.098  1.00  0.00    -0.077 C 
ATOM     14  C   UNL     1     136.886 150.282 162.358  1.00  0.00     0.008 C 
ATOM     15  C   UNL     1     137.119 151.299 164.570  1.00  0.00     0.039 C 
ENDBRANCH   5  13
TORSDOF 1
ENDMDL
MODEL 5
REMARK VINA RESULT:     5.354     20.112     22.056
REMARK INTER + INTRA:           5.357
REMARK INTER:                   5.183
REMARK INTRA:                   0.173
REMARK UNBOUND:                -0.310
REMARK SMILES C=C(C)[C@H]1CC[C@@H](C)[C@@]12CC=C(C)CC2
REMARK SMILES IDX 8 1 7 2 6 3 5 4 4 5 9 6 15 7 14 8 12 9 11 10 10 11 13 12
REMARK SMILES IDX 2 13 1 14 3 15
REMARK H PARENT
REMARK Flexibility Score: inf
ROOT
ATOM      1  C   UNL     1     137.238 150.773 160.764  1.00  0.00     0.008 C 
ATOM      2  C   UNL     1     138.230 151.530 161.670  1.00  0.00    -0.007 C 
ATOM      3  C   UNL     1     138.182 150.956 163.085  1.00  0.00     0.004 C 
ATOM      4  C   UNL     1     137.128 151.763 163.815  1.00  0.00     0.009 C 
ATOM      5  C   UNL     1     137.231 153.181 163.240  1.00  0.00     0.021 C 
ATOM      6  C   UNL     1     137.953 153.068 161.843  1.00  0.00    -0.017 C 
ATOM      7  C   UNL     1     139.304 153.845 161.924  1.00  0.00     0.012 C 
ATOM      8  C   UNL     1     140.114 153.829 160.614  1.00  0.00     0.031 C 
ATOM      9  C   UNL     1     139.271 153.887 159.357  1.00  0.00    -0.077 C 
ATOM     10  C   UNL     1     137.932 153.767 159.388  1.00  0.00    -0.027 C 
ATOM     11  C   UNL     1     137.152 153.718 160.675  1.00  0.00     0.035 C 
ATOM     12  C   UNL     1     139.964 153.982 158.027  1.00  0.00     0.039 C 
ENDROOT
BRANCH   5  13
ATOM     13  C   UNL     1     135.900 153.939 163.274  1.00  0.00    -0.077 C 
ATOM     14  C   UNL     1     134.876 153.515 162.514  1.00  0.00     0.008 C 
ATOM     15  C   UNL     1     135.664 155.124 164.179  1.00  0.00     0.039 C 
ENDBRANCH   5  13
TORSDOF 1
ENDMDL
