MODEL 1
REMARK VINA RESULT:    -3.717      0.000      0.000
REMARK INTER + INTRA:          -9.191
REMARK INTER:                  -6.977
REMARK INTRA:                  -2.213
REMARK UNBOUND:                -2.213
REMARK SMILES CCCCCCCCC=CCCCCCCCC(=O)[O-]
REMARK SMILES IDX 10 1 9 2 11 3 12 4 13 5 14 6 15 7 16 8 17 9 18 10 19 11
REMARK SMILES IDX 20 12 8 13 7 14 6 15 5 16 4 17 3 18 2 19 1 20
REMARK H PARENT
REMARK Flexibility Score: inf
ROOT
ATOM      1  C   UNL     1      -3.713  -4.089  32.998  1.00  0.00    -0.031 C 
ATOM      2  C   UNL     1      -2.378  -4.135  32.868  1.00  0.00    -0.031 C 
ENDROOT
BRANCH   1   3
ATOM      3  C   UNL     1      -4.463  -2.784  32.963  1.00  0.00     0.027 C 
BRANCH   3   4
ATOM      4  C   UNL     1      -3.542  -1.591  32.664  1.00  0.00     0.004 C 
BRANCH   4   5
ATOM      5  C   UNL     1      -3.752  -0.434  33.655  1.00  0.00     0.000 C 
BRANCH   5   6
ATOM      6  C   UNL     1      -2.495  -0.155  34.505  1.00  0.00     0.000 C 
BRANCH   6   7
ATOM      7  C   UNL     1      -2.803   0.357  35.921  1.00  0.00     0.000 C 
BRANCH   7   8
ATOM      8  C   UNL     1      -4.291   0.257  36.285  1.00  0.00     0.006 C 
BRANCH   8   9
ATOM      9  C   UNL     1      -4.474   0.013  37.786  1.00  0.00     0.053 C 
BRANCH   9  10
ATOM     10  C   UNL     1      -5.652  -0.874  38.034  1.00  0.00     0.041 C 
ATOM     11  O   UNL     1      -5.925  -1.256  39.203  1.00  0.00    -0.550 OA
ATOM     12  O   UNL     1      -6.477  -1.245  36.976  1.00  0.00    -0.550 OA
ENDBRANCH   9  10
ENDBRANCH   8   9
ENDBRANCH   7   8
ENDBRANCH   6   7
ENDBRANCH   5   6
ENDBRANCH   4   5
ENDBRANCH   3   4
ENDBRANCH   1   3
BRANCH   2  13
ATOM     13  C   UNL     1      -1.624  -5.435  32.920  1.00  0.00     0.027 C 
BRANCH  13  14
ATOM     14  C   UNL     1      -1.278  -5.969  31.522  1.00  0.00     0.004 C 
BRANCH  14  15
ATOM     15  C   UNL     1      -2.058  -7.250  31.180  1.00  0.00     0.000 C 
BRANCH  15  16
ATOM     16  C   UNL     1      -3.401  -6.944  30.483  1.00  0.00     0.000 C 
BRANCH  16  17
ATOM     17  C   UNL     1      -3.292  -5.864  29.393  1.00  0.00    -0.000 C 
BRANCH  17  18
ATOM     18  C   UNL     1      -4.377  -4.784  29.514  1.00  0.00    -0.000 C 
BRANCH  18  19
ATOM     19  C   UNL     1      -3.789  -3.387  29.285  1.00  0.00    -0.003 C 
ATOM     20  C   UNL     1      -2.271  -3.446  29.137  1.00  0.00     0.004 C 
ENDBRANCH  18  19
ENDBRANCH  17  18
ENDBRANCH  16  17
ENDBRANCH  15  16
ENDBRANCH  14  15
ENDBRANCH  13  14
ENDBRANCH   2  13
TORSDOF 15
ENDMDL
MODEL 2
REMARK VINA RESULT:    -3.580      6.769     10.107
REMARK INTER + INTRA:          -8.933
REMARK INTER:                  -6.128
REMARK INTRA:                  -2.805
REMARK UNBOUND:                -2.213
REMARK SMILES CCCCCCCCC=CCCCCCCCC(=O)[O-]
REMARK SMILES IDX 10 1 9 2 11 3 12 4 13 5 14 6 15 7 16 8 17 9 18 10 19 11
REMARK SMILES IDX 20 12 8 13 7 14 6 15 5 16 4 17 3 18 2 19 1 20
REMARK H PARENT
REMARK Flexibility Score: inf
ROOT
ATOM      1  C   UNL     1      -8.336   4.419  36.633  1.00  0.00    -0.031 C 
ATOM      2  C   UNL     1      -9.619   4.786  36.773  1.00  0.00    -0.031 C 
ENDROOT
BRANCH   1   3
ATOM      3  C   UNL     1      -7.265   4.931  37.558  1.00  0.00     0.027 C 
BRANCH   3   4
ATOM      4  C   UNL     1      -7.764   5.072  39.004  1.00  0.00     0.004 C 
BRANCH   4   5
ATOM      5  C   UNL     1      -6.969   4.190  39.981  1.00  0.00     0.000 C 
BRANCH   5   6
ATOM      6  C   UNL     1      -5.548   3.880  39.467  1.00  0.00     0.000 C 
BRANCH   6   7
ATOM      7  C   UNL     1      -5.299   2.389  39.186  1.00  0.00     0.000 C 
BRANCH   7   8
ATOM      8  C   UNL     1      -4.085   2.144  38.279  1.00  0.00     0.006 C 
BRANCH   8   9
ATOM      9  C   UNL     1      -3.666   0.672  38.308  1.00  0.00     0.053 C 
BRANCH   9  10
ATOM     10  C   UNL     1      -4.781  -0.201  37.825  1.00  0.00     0.041 C 
ATOM     11  O   UNL     1      -5.081  -0.230  36.602  1.00  0.00    -0.550 OA
ATOM     12  O   UNL     1      -5.463  -1.017  38.723  1.00  0.00    -0.550 OA
ENDBRANCH   9  10
ENDBRANCH   8   9
ENDBRANCH   7   8
ENDBRANCH   6   7
ENDBRANCH   5   6
ENDBRANCH   4   5
ENDBRANCH   3   4
ENDBRANCH   1   3
BRANCH   2  13
ATOM     13  C   UNL     1     -10.689   4.290  35.840  1.00  0.00     0.027 C 
BRANCH  13  14
ATOM     14  C   UNL     1     -11.401   3.039  36.377  1.00  0.00     0.004 C 
BRANCH  14  15
ATOM     15  C   UNL     1     -11.823   3.197  37.848  1.00  0.00     0.000 C 
BRANCH  15  16
ATOM     16  C   UNL     1     -11.404   1.985  38.706  1.00  0.00     0.000 C 
BRANCH  16  17
ATOM     17  C   UNL     1     -10.011   2.136  39.341  1.00  0.00    -0.000 C 
BRANCH  17  18
ATOM     18  C   UNL     1      -9.090   0.942  39.049  1.00  0.00    -0.000 C 
BRANCH  18  19
ATOM     19  C   UNL     1      -8.310   1.156  37.746  1.00  0.00    -0.003 C 
ATOM     20  C   UNL     1      -8.812   0.226  36.644  1.00  0.00     0.004 C 
ENDBRANCH  18  19
ENDBRANCH  17  18
ENDBRANCH  16  17
ENDBRANCH  15  16
ENDBRANCH  14  15
ENDBRANCH  13  14
ENDBRANCH   2  13
TORSDOF 15
ENDMDL
MODEL 3
REMARK VINA RESULT:    -3.548      4.821      6.993
REMARK INTER + INTRA:          -8.872
REMARK INTER:                  -6.243
REMARK INTRA:                  -2.630
REMARK UNBOUND:                -2.213
REMARK SMILES CCCCCCCCC=CCCCCCCCC(=O)[O-]
REMARK SMILES IDX 10 1 9 2 11 3 12 4 13 5 14 6 15 7 16 8 17 9 18 10 19 11
REMARK SMILES IDX 20 12 8 13 7 14 6 15 5 16 4 17 3 18 2 19 1 20
REMARK H PARENT
REMARK Flexibility Score: inf
ROOT
ATOM      1  C   UNL     1      -4.132  -3.928  30.913  1.00  0.00    -0.031 C 
ATOM      2  C   UNL     1      -3.252  -3.220  30.189  1.00  0.00    -0.031 C 
ENDROOT
BRANCH   1   3
ATOM      3  C   UNL     1      -4.031  -4.012  32.413  1.00  0.00     0.027 C 
BRANCH   3   4
ATOM      4  C   UNL     1      -2.573  -3.996  32.900  1.00  0.00     0.004 C 
BRANCH   4   5
ATOM      5  C   UNL     1      -2.000  -5.414  33.062  1.00  0.00     0.000 C 
BRANCH   5   6
ATOM      6  C   UNL     1      -0.957  -5.751  31.977  1.00  0.00     0.000 C 
BRANCH   6   7
ATOM      7  C   UNL     1      -1.534  -6.517  30.776  1.00  0.00     0.000 C 
BRANCH   7   8
ATOM      8  C   UNL     1      -2.693  -7.448  31.158  1.00  0.00     0.006 C 
BRANCH   8   9
ATOM      9  C   UNL     1      -3.570  -7.762  29.943  1.00  0.00     0.053 C 
BRANCH   9  10
ATOM     10  C   UNL     1      -4.052  -9.177  29.994  1.00  0.00     0.041 C 
ATOM     11  O   UNL     1      -3.760  -9.913  30.973  1.00  0.00    -0.550 OA
ATOM     12  O   UNL     1      -4.862  -9.671  28.976  1.00  0.00    -0.550 OA
ENDBRANCH   9  10
ENDBRANCH   8   9
ENDBRANCH   7   8
ENDBRANCH   6   7
ENDBRANCH   5   6
ENDBRANCH   4   5
ENDBRANCH   3   4
ENDBRANCH   1   3
BRANCH   2  13
ATOM     13  C   UNL     1      -3.340  -3.147  28.689  1.00  0.00     0.027 C 
BRANCH  13  14
ATOM     14  C   UNL     1      -3.998  -4.393  28.079  1.00  0.00     0.004 C 
BRANCH  14  15
ATOM     15  C   UNL     1      -3.060  -5.129  27.107  1.00  0.00     0.000 C 
BRANCH  15  16
ATOM     16  C   UNL     1      -1.582  -4.738  27.318  1.00  0.00     0.000 C 
BRANCH  16  17
ATOM     17  C   UNL     1      -0.890  -4.242  26.037  1.00  0.00    -0.000 C 
BRANCH  17  18
ATOM     18  C   UNL     1      -1.886  -3.803  24.954  1.00  0.00    -0.000 C 
BRANCH  18  19
ATOM     19  C   UNL     1      -1.874  -2.279  24.783  1.00  0.00    -0.003 C 
ATOM     20  C   UNL     1      -3.197  -1.664  25.230  1.00  0.00     0.004 C 
ENDBRANCH  18  19
ENDBRANCH  17  18
ENDBRANCH  16  17
ENDBRANCH  15  16
ENDBRANCH  14  15
ENDBRANCH  13  14
ENDBRANCH   2  13
TORSDOF 15
ENDMDL
MODEL 4
REMARK VINA RESULT:    -3.508      6.966      9.919
REMARK INTER + INTRA:          -8.798
REMARK INTER:                  -6.128
REMARK INTRA:                  -2.670
REMARK UNBOUND:                -2.213
REMARK SMILES CCCCCCCCC=CCCCCCCCC(=O)[O-]
REMARK SMILES IDX 10 1 9 2 11 3 12 4 13 5 14 6 15 7 16 8 17 9 18 10 19 11
REMARK SMILES IDX 20 12 8 13 7 14 6 15 5 16 4 17 3 18 2 19 1 20
REMARK H PARENT
REMARK Flexibility Score: inf
ROOT
ATOM      1  C   UNL     1      -7.520   0.649  38.472  1.00  0.00    -0.031 C 
ATOM      2  C   UNL     1      -7.332   1.154  39.701  1.00  0.00    -0.031 C 
ENDROOT
BRANCH   1   3
ATOM      3  C   UNL     1      -6.878  -0.645  38.046  1.00  0.00     0.027 C 
BRANCH   3   4
ATOM      4  C   UNL     1      -5.458  -0.804  38.611  1.00  0.00     0.004 C 
BRANCH   4   5
ATOM      5  C   UNL     1      -4.406  -0.091  37.744  1.00  0.00     0.000 C 
BRANCH   5   6
ATOM      6  C   UNL     1      -3.574   0.926  38.551  1.00  0.00     0.000 C 
BRANCH   6   7
ATOM      7  C   UNL     1      -4.013   2.386  38.352  1.00  0.00     0.000 C 
BRANCH   7   8
ATOM      8  C   UNL     1      -4.764   2.611  37.033  1.00  0.00     0.006 C 
BRANCH   8   9
ATOM      9  C   UNL     1      -4.352   3.936  36.385  1.00  0.00     0.053 C 
BRANCH   9  10
ATOM     10  C   UNL     1      -3.828   3.705  35.003  1.00  0.00     0.041 C 
ATOM     11  O   UNL     1      -2.895   2.882  34.807  1.00  0.00    -0.550 OA
ATOM     12  O   UNL     1      -4.402   4.369  33.923  1.00  0.00    -0.550 OA
ENDBRANCH   9  10
ENDBRANCH   8   9
ENDBRANCH   7   8
ENDBRANCH   6   7
ENDBRANCH   5   6
ENDBRANCH   4   5
ENDBRANCH   3   4
ENDBRANCH   1   3
BRANCH   2  13
ATOM     13  C   UNL     1      -7.959   2.454  40.124  1.00  0.00     0.027 C 
BRANCH  13  14
ATOM     14  C   UNL     1      -6.959   3.618  40.112  1.00  0.00     0.004 C 
BRANCH  14  15
ATOM     15  C   UNL     1      -7.601   4.931  39.632  1.00  0.00     0.000 C 
BRANCH  15  16
ATOM     16  C   UNL     1      -7.467   5.120  38.106  1.00  0.00     0.000 C 
BRANCH  16  17
ATOM     17  C   UNL     1      -8.808   5.032  37.357  1.00  0.00    -0.000 C 
BRANCH  17  18
ATOM     18  C   UNL     1      -9.129   3.611  36.872  1.00  0.00    -0.000 C 
BRANCH  18  19
ATOM     19  C   UNL     1     -10.475   3.132  37.429  1.00  0.00    -0.003 C 
ATOM     20  C   UNL     1     -11.637   3.672  36.601  1.00  0.00     0.004 C 
ENDBRANCH  18  19
ENDBRANCH  17  18
ENDBRANCH  16  17
ENDBRANCH  15  16
ENDBRANCH  14  15
ENDBRANCH  13  14
ENDBRANCH   2  13
TORSDOF 15
ENDMDL
MODEL 5
REMARK VINA RESULT:    -3.502      6.383      9.246
REMARK INTER + INTRA:          -8.786
REMARK INTER:                  -6.020
REMARK INTRA:                  -2.766
REMARK UNBOUND:                -2.213
REMARK SMILES CCCCCCCCC=CCCCCCCCC(=O)[O-]
REMARK SMILES IDX 10 1 9 2 11 3 12 4 13 5 14 6 15 7 16 8 17 9 18 10 19 11
REMARK SMILES IDX 20 12 8 13 7 14 6 15 5 16 4 17 3 18 2 19 1 20
REMARK H PARENT
REMARK Flexibility Score: inf
ROOT
ATOM      1  C   UNL     1      -5.450   2.701  39.071  1.00  0.00    -0.031 C 
ATOM      2  C   UNL     1      -4.117   2.574  38.983  1.00  0.00    -0.031 C 
ENDROOT
BRANCH   1   3
ATOM      3  C   UNL     1      -6.084   3.814  39.863  1.00  0.00     0.027 C 
BRANCH   3   4
ATOM      4  C   UNL     1      -7.212   4.510  39.086  1.00  0.00     0.004 C 
BRANCH   4   5
ATOM      5  C   UNL     1      -8.404   3.573  38.829  1.00  0.00     0.000 C 
BRANCH   5   6
ATOM      6  C   UNL     1      -9.030   3.790  37.437  1.00  0.00     0.000 C 
BRANCH   6   7
ATOM      7  C   UNL     1      -9.073   5.262  36.997  1.00  0.00     0.000 C 
BRANCH   7   8
ATOM      8  C   UNL     1     -10.081   5.522  35.869  1.00  0.00     0.006 C 
BRANCH   8   9
ATOM      9  C   UNL     1     -10.171   4.320  34.925  1.00  0.00     0.053 C 
BRANCH   9  10
ATOM     10  C   UNL     1     -11.599   3.946  34.685  1.00  0.00     0.041 C 
ATOM     11  O   UNL     1     -12.266   4.525  33.787  1.00  0.00    -0.550 OA
ATOM     12  O   UNL     1     -12.184   2.923  35.427  1.00  0.00    -0.550 OA
ENDBRANCH   9  10
ENDBRANCH   8   9
ENDBRANCH   7   8
ENDBRANCH   6   7
ENDBRANCH   5   6
ENDBRANCH   4   5
ENDBRANCH   3   4
ENDBRANCH   1   3
BRANCH   2  13
ATOM     13  C   UNL     1      -3.481   1.454  38.207  1.00  0.00     0.027 C 
BRANCH  13  14
ATOM     14  C   UNL     1      -4.514   0.466  37.647  1.00  0.00     0.004 C 
BRANCH  14  15
ATOM     15  C   UNL     1      -4.376   0.280  36.126  1.00  0.00     0.000 C 
BRANCH  15  16
ATOM     16  C   UNL     1      -4.491   1.619  35.365  1.00  0.00     0.000 C 
BRANCH  16  17
ATOM     17  C   UNL     1      -5.927   2.167  35.303  1.00  0.00    -0.000 C 
BRANCH  17  18
ATOM     18  C   UNL     1      -5.997   3.684  35.529  1.00  0.00    -0.000 C 
BRANCH  18  19
ATOM     19  C   UNL     1      -4.592   4.285  35.659  1.00  0.00    -0.003 C 
ATOM     20  C   UNL     1      -4.582   5.455  36.638  1.00  0.00     0.004 C 
ENDBRANCH  18  19
ENDBRANCH  17  18
ENDBRANCH  16  17
ENDBRANCH  15  16
ENDBRANCH  14  15
ENDBRANCH  13  14
ENDBRANCH   2  13
TORSDOF 15
ENDMDL
MODEL 6
REMARK VINA RESULT:    -3.485      7.391     10.428
REMARK INTER + INTRA:          -8.754
REMARK INTER:                  -6.670
REMARK INTRA:                  -2.084
REMARK UNBOUND:                -2.213
REMARK SMILES CCCCCCCCC=CCCCCCCCC(=O)[O-]
REMARK SMILES IDX 10 1 9 2 11 3 12 4 13 5 14 6 15 7 16 8 17 9 18 10 19 11
REMARK SMILES IDX 20 12 8 13 7 14 6 15 5 16 4 17 3 18 2 19 1 20
REMARK H PARENT
REMARK Flexibility Score: inf
ROOT
ATOM      1  C   UNL     1      -9.262   3.858  37.136  1.00  0.00    -0.031 C 
ATOM      2  C   UNL     1      -9.361   5.137  36.742  1.00  0.00    -0.031 C 
ENDROOT
BRANCH   1   3
ATOM      3  C   UNL     1      -8.351   3.449  38.262  1.00  0.00     0.027 C 
BRANCH   3   4
ATOM      4  C   UNL     1      -7.720   4.659  38.969  1.00  0.00     0.004 C 
BRANCH   4   5
ATOM      5  C   UNL     1      -6.418   4.290  39.699  1.00  0.00     0.000 C 
BRANCH   5   6
ATOM      6  C   UNL     1      -5.279   3.933  38.722  1.00  0.00     0.000 C 
BRANCH   6   7
ATOM      7  C   UNL     1      -4.164   3.082  39.351  1.00  0.00     0.000 C 
BRANCH   7   8
ATOM      8  C   UNL     1      -3.872   1.799  38.560  1.00  0.00     0.006 C 
BRANCH   8   9
ATOM      9  C   UNL     1      -5.086   1.378  37.727  1.00  0.00     0.053 C 
BRANCH   9  10
ATOM     10  C   UNL     1      -5.729   0.162  38.314  1.00  0.00     0.041 C 
ATOM     11  O   UNL     1      -5.047  -0.873  38.536  1.00  0.00    -0.550 OA
ATOM     12  O   UNL     1      -7.078   0.187  38.657  1.00  0.00    -0.550 OA
ENDBRANCH   9  10
ENDBRANCH   8   9
ENDBRANCH   7   8
ENDBRANCH   6   7
ENDBRANCH   5   6
ENDBRANCH   4   5
ENDBRANCH   3   4
ENDBRANCH   1   3
BRANCH   2  13
ATOM     13  C   UNL     1     -10.258   5.547  35.606  1.00  0.00     0.027 C 
BRANCH  13  14
ATOM     14  C   UNL     1      -9.935   4.800  34.304  1.00  0.00     0.004 C 
BRANCH  14  15
ATOM     15  C   UNL     1     -11.173   4.637  33.406  1.00  0.00     0.000 C 
BRANCH  15  16
ATOM     16  C   UNL     1     -12.369   4.027  34.169  1.00  0.00     0.000 C 
BRANCH  16  17
ATOM     17  C   UNL     1     -12.223   2.517  34.428  1.00  0.00    -0.000 C 
BRANCH  17  18
ATOM     18  C   UNL     1     -12.239   2.165  35.923  1.00  0.00    -0.000 C 
BRANCH  18  19
ATOM     19  C   UNL     1     -12.971   3.241  36.733  1.00  0.00    -0.003 C 
ATOM     20  C   UNL     1     -12.657   3.119  38.222  1.00  0.00     0.004 C 
ENDBRANCH  18  19
ENDBRANCH  17  18
ENDBRANCH  16  17
ENDBRANCH  15  16
ENDBRANCH  14  15
ENDBRANCH  13  14
ENDBRANCH   2  13
TORSDOF 15
ENDMDL
MODEL 7
REMARK VINA RESULT:    -3.481      6.449      9.563
REMARK INTER + INTRA:          -8.746
REMARK INTER:                  -6.639
REMARK INTRA:                  -2.107
REMARK UNBOUND:                -2.213
REMARK SMILES CCCCCCCCC=CCCCCCCCC(=O)[O-]
REMARK SMILES IDX 10 1 9 2 11 3 12 4 13 5 14 6 15 7 16 8 17 9 18 10 19 11
REMARK SMILES IDX 20 12 8 13 7 14 6 15 5 16 4 17 3 18 2 19 1 20
REMARK H PARENT
REMARK Flexibility Score: inf
ROOT
ATOM      1  C   UNL     1      -6.682   2.874  36.681  1.00  0.00    -0.031 C 
ATOM      2  C   UNL     1      -5.934   3.143  35.601  1.00  0.00    -0.031 C 
ENDROOT
BRANCH   1   3
ATOM      3  C   UNL     1      -8.089   2.352  36.556  1.00  0.00     0.027 C 
BRANCH   3   4
ATOM      4  C   UNL     1      -9.094   3.189  37.361  1.00  0.00     0.004 C 
BRANCH   4   5
ATOM      5  C   UNL     1      -8.735   4.685  37.361  1.00  0.00     0.000 C 
BRANCH   5   6
ATOM      6  C   UNL     1      -9.738   5.528  36.549  1.00  0.00     0.000 C 
BRANCH   6   7
ATOM      7  C   UNL     1     -10.617   4.702  35.595  1.00  0.00     0.000 C 
BRANCH   7   8
ATOM      8  C   UNL     1     -10.460   5.116  34.126  1.00  0.00     0.006 C 
BRANCH   8   9
ATOM      9  C   UNL     1     -11.180   4.133  33.198  1.00  0.00     0.053 C 
BRANCH   9  10
ATOM     10  C   UNL     1     -12.451   4.731  32.684  1.00  0.00     0.041 C 
ATOM     11  O   UNL     1     -13.564   4.281  33.065  1.00  0.00    -0.550 OA
ATOM     12  O   UNL     1     -12.406   5.817  31.815  1.00  0.00    -0.550 OA
ENDBRANCH   9  10
ENDBRANCH   8   9
ENDBRANCH   7   8
ENDBRANCH   6   7
ENDBRANCH   5   6
ENDBRANCH   4   5
ENDBRANCH   3   4
ENDBRANCH   1   3
BRANCH   2  13
ATOM     13  C   UNL     1      -4.535   3.680  35.722  1.00  0.00     0.027 C 
BRANCH  13  14
ATOM     14  C   UNL     1      -3.538   2.617  36.208  1.00  0.00     0.004 C 
BRANCH  14  15
ATOM     15  C   UNL     1      -3.129   2.833  37.676  1.00  0.00     0.000 C 
BRANCH  15  16
ATOM     16  C   UNL     1      -3.649   1.707  38.595  1.00  0.00     0.000 C 
BRANCH  16  17
ATOM     17  C   UNL     1      -3.921   0.387  37.853  1.00  0.00    -0.000 C 
BRANCH  17  18
ATOM     18  C   UNL     1      -5.226  -0.289  38.298  1.00  0.00    -0.000 C 
BRANCH  18  19
ATOM     19  C   UNL     1      -6.007  -0.823  37.092  1.00  0.00    -0.003 C 
ATOM     20  C   UNL     1      -5.271  -0.532  35.787  1.00  0.00     0.004 C 
ENDBRANCH  18  19
ENDBRANCH  17  18
ENDBRANCH  16  17
ENDBRANCH  15  16
ENDBRANCH  14  15
ENDBRANCH  13  14
ENDBRANCH   2  13
TORSDOF 15
ENDMDL
MODEL 8
REMARK VINA RESULT:    -3.468      4.538      7.845
REMARK INTER + INTRA:          -8.722
REMARK INTER:                  -6.036
REMARK INTRA:                  -2.686
REMARK UNBOUND:                -2.213
REMARK SMILES CCCCCCCCC=CCCCCCCCC(=O)[O-]
REMARK SMILES IDX 10 1 9 2 11 3 12 4 13 5 14 6 15 7 16 8 17 9 18 10 19 11
REMARK SMILES IDX 20 12 8 13 7 14 6 15 5 16 4 17 3 18 2 19 1 20
REMARK H PARENT
REMARK Flexibility Score: inf
ROOT
ATOM      1  C   UNL     1      -4.487   3.329  39.382  1.00  0.00    -0.031 C 
ATOM      2  C   UNL     1      -4.637   2.058  38.981  1.00  0.00    -0.031 C 
ENDROOT
BRANCH   1   3
ATOM      3  C   UNL     1      -5.658   4.150  39.853  1.00  0.00     0.027 C 
BRANCH   3   4
ATOM      4  C   UNL     1      -6.989   3.395  39.719  1.00  0.00     0.004 C 
BRANCH   4   5
ATOM      5  C   UNL     1      -8.035   4.199  38.930  1.00  0.00     0.000 C 
BRANCH   5   6
ATOM      6  C   UNL     1      -7.581   4.494  37.486  1.00  0.00     0.000 C 
BRANCH   6   7
ATOM      7  C   UNL     1      -7.199   3.238  36.686  1.00  0.00     0.000 C 
BRANCH   7   8
ATOM      8  C   UNL     1      -6.436   3.559  35.393  1.00  0.00     0.006 C 
BRANCH   8   9
ATOM      9  C   UNL     1      -4.923   3.464  35.610  1.00  0.00     0.053 C 
BRANCH   9  10
ATOM     10  C   UNL     1      -4.290   4.814  35.495  1.00  0.00     0.041 C 
ATOM     11  O   UNL     1      -3.607   5.111  34.479  1.00  0.00    -0.550 OA
ATOM     12  O   UNL     1      -4.492   5.764  36.493  1.00  0.00    -0.550 OA
ENDBRANCH   9  10
ENDBRANCH   8   9
ENDBRANCH   7   8
ENDBRANCH   6   7
ENDBRANCH   5   6
ENDBRANCH   4   5
ENDBRANCH   3   4
ENDBRANCH   1   3
BRANCH   2  13
ATOM     13  C   UNL     1      -3.472   1.240  38.495  1.00  0.00     0.027 C 
BRANCH  13  14
ATOM     14  C   UNL     1      -3.907  -0.110  37.906  1.00  0.00     0.004 C 
BRANCH  14  15
ATOM     15  C   UNL     1      -5.434  -0.296  37.948  1.00  0.00     0.000 C 
BRANCH  15  16
ATOM     16  C   UNL     1      -6.015  -0.640  36.559  1.00  0.00     0.000 C 
BRANCH  16  17
ATOM     17  C   UNL     1      -5.144  -0.145  35.392  1.00  0.00    -0.000 C 
BRANCH  17  18
ATOM     18  C   UNL     1      -4.954  -1.206  34.298  1.00  0.00    -0.000 C 
BRANCH  18  19
ATOM     19  C   UNL     1      -3.498  -1.246  33.819  1.00  0.00    -0.003 C 
ATOM     20  C   UNL     1      -2.692  -0.093  34.410  1.00  0.00     0.004 C 
ENDBRANCH  18  19
ENDBRANCH  17  18
ENDBRANCH  16  17
ENDBRANCH  15  16
ENDBRANCH  14  15
ENDBRANCH  13  14
ENDBRANCH   2  13
TORSDOF 15
ENDMDL
MODEL 9
REMARK VINA RESULT:    -3.427      5.994      9.286
REMARK INTER + INTRA:          -8.645
REMARK INTER:                  -6.032
REMARK INTRA:                  -2.613
REMARK UNBOUND:                -2.213
REMARK SMILES CCCCCCCCC=CCCCCCCCC(=O)[O-]
REMARK SMILES IDX 10 1 9 2 11 3 12 4 13 5 14 6 15 7 16 8 17 9 18 10 19 11
REMARK SMILES IDX 20 12 8 13 7 14 6 15 5 16 4 17 3 18 2 19 1 20
REMARK H PARENT
REMARK Flexibility Score: inf
ROOT
ATOM      1  C   UNL     1      -4.936   2.734  37.685  1.00  0.00    -0.031 C 
ATOM      2  C   UNL     1      -5.072   2.779  39.019  1.00  0.00    -0.031 C 
ENDROOT
BRANCH   1   3
ATOM      3  C   UNL     1      -3.742   2.086  37.037  1.00  0.00     0.027 C 
BRANCH   3   4
ATOM      4  C   UNL     1      -3.777   0.554  37.151  1.00  0.00     0.004 C 
BRANCH   4   5
ATOM      5  C   UNL     1      -4.874  -0.068  36.270  1.00  0.00     0.000 C 
BRANCH   5   6
ATOM      6  C   UNL     1      -5.951  -0.795  37.102  1.00  0.00     0.000 C 
BRANCH   6   7
ATOM      7  C   UNL     1      -5.624  -0.884  38.601  1.00  0.00     0.000 C 
BRANCH   7   8
ATOM      8  C   UNL     1      -6.866  -1.113  39.473  1.00  0.00     0.006 C 
BRANCH   8   9
ATOM      9  C   UNL     1      -8.058  -1.563  38.623  1.00  0.00     0.053 C 
BRANCH   9  10
ATOM     10  C   UNL     1      -8.728  -2.748  39.243  1.00  0.00     0.041 C 
ATOM     11  O   UNL     1      -9.935  -3.001  38.988  1.00  0.00    -0.550 OA
ATOM     12  O   UNL     1      -8.004  -3.600  40.072  1.00  0.00    -0.550 OA
ENDBRANCH   9  10
ENDBRANCH   8   9
ENDBRANCH   7   8
ENDBRANCH   6   7
ENDBRANCH   5   6
ENDBRANCH   4   5
ENDBRANCH   3   4
ENDBRANCH   1   3
BRANCH   2  13
ATOM     13  C   UNL     1      -6.256   3.440  39.670  1.00  0.00     0.027 C 
BRANCH  13  14
ATOM     14  C   UNL     1      -7.377   2.443  40.000  1.00  0.00     0.004 C 
BRANCH  14  15
ATOM     15  C   UNL     1      -8.619   2.653  39.117  1.00  0.00     0.000 C 
BRANCH  15  16
ATOM     16  C   UNL     1      -8.464   1.995  37.729  1.00  0.00     0.000 C 
BRANCH  16  17
ATOM     17  C   UNL     1      -8.589   2.990  36.563  1.00  0.00    -0.000 C 
BRANCH  17  18
ATOM     18  C   UNL     1      -9.291   4.295  36.964  1.00  0.00    -0.000 C 
BRANCH  18  19
ATOM     19  C   UNL     1     -10.653   4.421  36.271  1.00  0.00    -0.003 C 
ATOM     20  C   UNL     1     -11.727   3.637  37.019  1.00  0.00     0.004 C 
ENDBRANCH  18  19
ENDBRANCH  17  18
ENDBRANCH  16  17
ENDBRANCH  15  16
ENDBRANCH  14  15
ENDBRANCH  13  14
ENDBRANCH   2  13
TORSDOF 15
ENDMDL
