MODEL 1
REMARK VINA RESULT:    -2.630      0.000      0.000
REMARK INTER + INTRA:          -3.068
REMARK INTER:                  -3.015
REMARK INTRA:                  -0.054
REMARK UNBOUND:                -0.054
REMARK SMILES COc1cc(C=O)ccc1O
REMARK SMILES IDX 3 1 10 2 9 3 8 4 5 5 4 6 2 7 1 8 11 9 6 11 7 12
REMARK H PARENT 11 10
REMARK Flexibility Score: inf
ROOT
ATOM      1  C   UNL     1     144.364 144.396 139.753  1.00  0.00     0.161 A 
ATOM      2  C   UNL     1     144.977 145.611 139.399  1.00  0.00     0.157 A 
ATOM      3  C   UNL     1     144.328 146.497 138.533  1.00  0.00     0.051 A 
ATOM      4  C   UNL     1     143.071 146.184 138.013  1.00  0.00     0.015 A 
ATOM      5  C   UNL     1     142.443 144.979 138.355  1.00  0.00     0.018 A 
ATOM      6  C   UNL     1     143.093 144.087 139.225  1.00  0.00     0.062 A 
ENDROOT
BRANCH   1   7
ATOM      7  O   UNL     1     145.038 143.526 140.624  1.00  0.00    -0.493 OA
ATOM      8  C   UNL     1     144.939 142.106 140.586  1.00  0.00     0.278 C 
ENDBRANCH   1   7
BRANCH   2   9
ATOM      9  O   UNL     1     146.232 145.957 139.898  1.00  0.00    -0.504 OA
ATOM     10  H   UNL     1     147.059 145.401 139.713  1.00  0.00     0.293 HD
ENDBRANCH   2   9
BRANCH   5  11
ATOM     11  C   UNL     1     141.114 144.668 137.795  1.00  0.00     0.260 C 
ATOM     12  O   UNL     1     140.990 144.209 136.629  1.00  0.00    -0.298 OA
ENDBRANCH   5  11
TORSDOF 3
ENDMDL
MODEL 2
REMARK VINA RESULT:    -2.577      9.802     11.123
REMARK INTER + INTRA:          -3.007
REMARK INTER:                  -2.934
REMARK INTRA:                  -0.073
REMARK UNBOUND:                -0.054
REMARK SMILES COc1cc(C=O)ccc1O
REMARK SMILES IDX 3 1 10 2 9 3 8 4 5 5 4 6 2 7 1 8 11 9 6 11 7 12
REMARK H PARENT 11 10
REMARK Flexibility Score: inf
ROOT
ATOM      1  C   UNL     1     133.527 145.835 139.728  1.00  0.00     0.161 A 
ATOM      2  C   UNL     1     132.610 146.874 139.484  1.00  0.00     0.157 A 
ATOM      3  C   UNL     1     131.522 146.662 138.632  1.00  0.00     0.051 A 
ATOM      4  C   UNL     1     131.335 145.423 138.017  1.00  0.00     0.015 A 
ATOM      5  C   UNL     1     132.236 144.375 138.248  1.00  0.00     0.018 A 
ATOM      6  C   UNL     1     133.332 144.585 139.104  1.00  0.00     0.062 A 
ENDROOT
BRANCH   1   7
ATOM      7  O   UNL     1     134.609 146.076 140.587  1.00  0.00    -0.493 OA
ATOM      8  C   UNL     1     134.637 145.734 141.970  1.00  0.00     0.278 C 
ENDBRANCH   1   7
BRANCH   2   9
ATOM      9  O   UNL     1     132.764 148.125 140.080  1.00  0.00    -0.504 OA
ATOM     10  H   UNL     1     133.579 148.704 139.916  1.00  0.00     0.293 HD
ENDBRANCH   2   9
BRANCH   5  11
ATOM     11  C   UNL     1     132.021 143.073 137.589  1.00  0.00     0.260 C 
ATOM     12  O   UNL     1     132.344 142.891 136.386  1.00  0.00    -0.298 OA
ENDBRANCH   5  11
TORSDOF 3
ENDMDL
MODEL 3
REMARK VINA RESULT:    -2.568      8.852     11.095
REMARK INTER + INTRA:          -2.997
REMARK INTER:                  -2.934
REMARK INTRA:                  -0.063
REMARK UNBOUND:                -0.054
REMARK SMILES COc1cc(C=O)ccc1O
REMARK SMILES IDX 3 1 10 2 9 3 8 4 5 5 4 6 2 7 1 8 11 9 6 11 7 12
REMARK H PARENT 11 10
REMARK Flexibility Score: inf
ROOT
ATOM      1  C   UNL     1     145.946 133.491 140.026  1.00  0.00     0.161 A 
ATOM      2  C   UNL     1     147.301 133.276 139.716  1.00  0.00     0.157 A 
ATOM      3  C   UNL     1     147.960 134.129 138.824  1.00  0.00     0.051 A 
ATOM      4  C   UNL     1     147.282 135.198 138.237  1.00  0.00     0.015 A 
ATOM      5  C   UNL     1     145.932 135.429 138.534  1.00  0.00     0.018 A 
ATOM      6  C   UNL     1     145.267 134.574 139.429  1.00  0.00     0.062 A 
ENDROOT
BRANCH   1   7
ATOM      7  O   UNL     1     145.311 132.619 140.924  1.00  0.00    -0.493 OA
ATOM      8  C   UNL     1     144.069 131.967 140.677  1.00  0.00     0.278 C 
ENDBRANCH   1   7
BRANCH   2   9
ATOM      9  O   UNL     1     148.011 132.219 140.284  1.00  0.00    -0.504 OA
ATOM     10  H   UNL     1     147.763 131.251 140.118  1.00  0.00     0.293 HD
ENDBRANCH   2   9
BRANCH   5  11
ATOM     11  C   UNL     1     145.234 136.565 137.901  1.00  0.00     0.260 C 
ATOM     12  O   UNL     1     145.253 136.727 136.652  1.00  0.00    -0.298 OA
ENDBRANCH   5  11
TORSDOF 3
ENDMDL
MODEL 4
REMARK VINA RESULT:    -2.537     10.259     12.031
REMARK INTER + INTRA:          -2.961
REMARK INTER:                  -2.889
REMARK INTRA:                  -0.072
REMARK UNBOUND:                -0.054
REMARK SMILES COc1cc(C=O)ccc1O
REMARK SMILES IDX 3 1 10 2 9 3 8 4 5 5 4 6 2 7 1 8 11 9 6 11 7 12
REMARK H PARENT 11 10
REMARK Flexibility Score: inf
ROOT
ATOM      1  C   UNL     1     131.507 145.856 138.240  1.00  0.00     0.161 A 
ATOM      2  C   UNL     1     132.325 146.549 139.150  1.00  0.00     0.157 A 
ATOM      3  C   UNL     1     133.455 145.928 139.690  1.00  0.00     0.051 A 
ATOM      4  C   UNL     1     133.781 144.618 139.333  1.00  0.00     0.015 A 
ATOM      5  C   UNL     1     132.979 143.911 138.427  1.00  0.00     0.018 A 
ATOM      6  C   UNL     1     131.842 144.533 137.883  1.00  0.00     0.062 A 
ENDROOT
BRANCH   1   7
ATOM      7  O   UNL     1     130.379 146.505 137.714  1.00  0.00    -0.493 OA
ATOM      8  C   UNL     1     129.035 146.232 138.099  1.00  0.00     0.278 C 
ENDBRANCH   1   7
BRANCH   2   9
ATOM      9  O   UNL     1     132.031 147.858 139.530  1.00  0.00    -0.504 OA
ATOM     10  H   UNL     1     131.193 148.335 139.221  1.00  0.00     0.293 HD
ENDBRANCH   2   9
BRANCH   5  11
ATOM     11  C   UNL     1     133.340 142.528 138.063  1.00  0.00     0.260 C 
ATOM     12  O   UNL     1     133.985 142.279 137.010  1.00  0.00    -0.298 OA
ENDBRANCH   5  11
TORSDOF 3
ENDMDL
MODEL 5
REMARK VINA RESULT:    -2.506      1.524      3.037
REMARK INTER + INTRA:          -2.926
REMARK INTER:                  -2.858
REMARK INTRA:                  -0.068
REMARK UNBOUND:                -0.054
REMARK SMILES COc1cc(C=O)ccc1O
REMARK SMILES IDX 3 1 10 2 9 3 8 4 5 5 4 6 2 7 1 8 11 9 6 11 7 12
REMARK H PARENT 11 10
REMARK Flexibility Score: inf
ROOT
ATOM      1  C   UNL     1     143.966 145.631 138.862  1.00  0.00     0.161 A 
ATOM      2  C   UNL     1     145.049 145.144 139.617  1.00  0.00     0.157 A 
ATOM      3  C   UNL     1     144.969 143.889 140.229  1.00  0.00     0.051 A 
ATOM      4  C   UNL     1     143.818 143.111 140.098  1.00  0.00     0.015 A 
ATOM      5  C   UNL     1     142.729 143.577 139.349  1.00  0.00     0.018 A 
ATOM      6  C   UNL     1     142.807 144.838 138.733  1.00  0.00     0.062 A 
ENDROOT
BRANCH   1   7
ATOM      7  O   UNL     1     144.075 146.893 138.259  1.00  0.00    -0.493 OA
ATOM      8  C   UNL     1     143.231 148.003 138.548  1.00  0.00     0.278 C 
ENDBRANCH   1   7
BRANCH   2   9
ATOM      9  O   UNL     1     146.215 145.894 139.771  1.00  0.00    -0.504 OA
ATOM     10  H   UNL     1     146.538 146.211 140.677  1.00  0.00     0.293 HD
ENDBRANCH   2   9
BRANCH   5  11
ATOM     11  C   UNL     1     141.522 142.739 139.222  1.00  0.00     0.260 C 
ATOM     12  O   UNL     1     140.608 143.032 138.407  1.00  0.00    -0.298 OA
ENDBRANCH   5  11
TORSDOF 3
ENDMDL
MODEL 6
REMARK VINA RESULT:    -2.467      1.467      3.862
REMARK INTER + INTRA:          -2.882
REMARK INTER:                  -2.813
REMARK INTRA:                  -0.068
REMARK UNBOUND:                -0.054
REMARK SMILES COc1cc(C=O)ccc1O
REMARK SMILES IDX 3 1 10 2 9 3 8 4 5 5 4 6 2 7 1 8 11 9 6 11 7 12
REMARK H PARENT 11 10
REMARK Flexibility Score: inf
ROOT
ATOM      1  C   UNL     1     142.613 145.170 138.445  1.00  0.00     0.161 A 
ATOM      2  C   UNL     1     143.502 146.252 138.315  1.00  0.00     0.157 A 
ATOM      3  C   UNL     1     144.729 146.236 138.985  1.00  0.00     0.051 A 
ATOM      4  C   UNL     1     145.082 145.148 139.786  1.00  0.00     0.015 A 
ATOM      5  C   UNL     1     144.211 144.060 139.928  1.00  0.00     0.018 A 
ATOM      6  C   UNL     1     142.976 144.074 139.256  1.00  0.00     0.062 A 
ENDROOT
BRANCH   1   7
ATOM      7  O   UNL     1     141.388 145.214 137.761  1.00  0.00    -0.493 OA
ATOM      8  C   UNL     1     141.009 144.317 136.721  1.00  0.00     0.278 C 
ENDBRANCH   1   7
BRANCH   2   9
ATOM      9  O   UNL     1     143.183 147.355 137.524  1.00  0.00    -0.504 OA
ATOM     10  H   UNL     1     142.755 148.189 137.907  1.00  0.00     0.293 HD
ENDBRANCH   2   9
BRANCH   5  11
ATOM     11  C   UNL     1     144.603 142.921 140.780  1.00  0.00     0.260 C 
ATOM     12  O   UNL     1     145.504 142.118 140.418  1.00  0.00    -0.298 OA
ENDBRANCH   5  11
TORSDOF 3
ENDMDL
MODEL 7
REMARK VINA RESULT:    -2.432      1.710      4.404
REMARK INTER + INTRA:          -2.841
REMARK INTER:                  -2.763
REMARK INTRA:                  -0.078
REMARK UNBOUND:                -0.054
REMARK SMILES COc1cc(C=O)ccc1O
REMARK SMILES IDX 3 1 10 2 9 3 8 4 5 5 4 6 2 7 1 8 11 9 6 11 7 12
REMARK H PARENT 11 10
REMARK Flexibility Score: inf
ROOT
ATOM      1  C   UNL     1     141.758 145.670 138.410  1.00  0.00     0.161 A 
ATOM      2  C   UNL     1     141.501 147.040 138.594  1.00  0.00     0.157 A 
ATOM      3  C   UNL     1     142.490 147.874 139.124  1.00  0.00     0.051 A 
ATOM      4  C   UNL     1     143.738 147.356 139.475  1.00  0.00     0.015 A 
ATOM      5  C   UNL     1     144.014 145.994 139.299  1.00  0.00     0.018 A 
ATOM      6  C   UNL     1     143.022 145.153 138.766  1.00  0.00     0.062 A 
ENDROOT
BRANCH   1   7
ATOM      7  O   UNL     1     140.747 144.857 137.876  1.00  0.00    -0.493 OA
ATOM      8  C   UNL     1     140.753 144.319 136.557  1.00  0.00     0.278 C 
ENDBRANCH   1   7
BRANCH   2   9
ATOM      9  O   UNL     1     140.267 147.593 138.255  1.00  0.00    -0.504 OA
ATOM     10  H   UNL     1     140.027 148.553 138.472  1.00  0.00     0.293 HD
ENDBRANCH   2   9
BRANCH   5  11
ATOM     11  C   UNL     1     145.339 145.466 139.676  1.00  0.00     0.260 C 
ATOM     12  O   UNL     1     146.264 146.235 140.050  1.00  0.00    -0.298 OA
ENDBRANCH   5  11
TORSDOF 3
ENDMDL
MODEL 8
REMARK VINA RESULT:    -2.431      9.350     11.699
REMARK INTER + INTRA:          -2.840
REMARK INTER:                  -2.776
REMARK INTRA:                  -0.064
REMARK UNBOUND:                -0.054
REMARK SMILES COc1cc(C=O)ccc1O
REMARK SMILES IDX 3 1 10 2 9 3 8 4 5 5 4 6 2 7 1 8 11 9 6 11 7 12
REMARK H PARENT 11 10
REMARK Flexibility Score: inf
ROOT
ATOM      1  C   UNL     1     132.178 144.603 138.383  1.00  0.00     0.161 A 
ATOM      2  C   UNL     1     131.369 145.752 138.316  1.00  0.00     0.157 A 
ATOM      3  C   UNL     1     131.740 146.911 139.005  1.00  0.00     0.051 A 
ATOM      4  C   UNL     1     132.912 146.939 139.762  1.00  0.00     0.015 A 
ATOM      5  C   UNL     1     133.732 145.805 139.840  1.00  0.00     0.018 A 
ATOM      6  C   UNL     1     133.361 144.638 139.149  1.00  0.00     0.062 A 
ENDROOT
BRANCH   1   7
ATOM      7  O   UNL     1     131.780 143.454 137.681  1.00  0.00    -0.493 OA
ATOM      8  C   UNL     1     132.608 142.734 136.773  1.00  0.00     0.278 C 
ENDBRANCH   1   7
BRANCH   2   9
ATOM      9  O   UNL     1     130.191 145.762 137.570  1.00  0.00    -0.504 OA
ATOM     10  H   UNL     1     129.763 144.911 137.225  1.00  0.00     0.293 HD
ENDBRANCH   2   9
BRANCH   5  11
ATOM     11  C   UNL     1     134.967 145.855 140.646  1.00  0.00     0.260 C 
ATOM     12  O   UNL     1     134.956 146.293 141.827  1.00  0.00    -0.298 OA
ENDBRANCH   5  11
TORSDOF 3
ENDMDL
MODEL 9
REMARK VINA RESULT:    -2.414      8.963     11.752
REMARK INTER + INTRA:          -2.820
REMARK INTER:                  -2.770
REMARK INTRA:                  -0.050
REMARK UNBOUND:                -0.054
REMARK SMILES COc1cc(C=O)ccc1O
REMARK SMILES IDX 3 1 10 2 9 3 8 4 5 5 4 6 2 7 1 8 11 9 6 11 7 12
REMARK H PARENT 11 10
REMARK Flexibility Score: inf
ROOT
ATOM      1  C   UNL     1     132.148 146.083 139.042  1.00  0.00     0.161 A 
ATOM      2  C   UNL     1     131.512 145.306 138.056  1.00  0.00     0.157 A 
ATOM      3  C   UNL     1     132.066 144.084 137.661  1.00  0.00     0.051 A 
ATOM      4  C   UNL     1     133.251 143.626 138.239  1.00  0.00     0.015 A 
ATOM      5  C   UNL     1     133.899 144.384 139.223  1.00  0.00     0.018 A 
ATOM      6  C   UNL     1     133.345 145.613 139.621  1.00  0.00     0.062 A 
ENDROOT
BRANCH   1   7
ATOM      7  O   UNL     1     131.570 147.305 139.418  1.00  0.00    -0.493 OA
ATOM      8  C   UNL     1     132.032 148.123 140.488  1.00  0.00     0.278 C 
ENDBRANCH   1   7
BRANCH   2   9
ATOM      9  O   UNL     1     130.327 145.732 137.457  1.00  0.00    -0.504 OA
ATOM     10  H   UNL     1     129.820 145.157 136.795  1.00  0.00     0.293 HD
ENDBRANCH   2   9
BRANCH   5  11
ATOM     11  C   UNL     1     135.151 143.882 139.821  1.00  0.00     0.260 C 
ATOM     12  O   UNL     1     135.266 143.739 141.067  1.00  0.00    -0.298 OA
ENDBRANCH   5  11
TORSDOF 3
ENDMDL
