MODEL 1
REMARK VINA RESULT:    -6.763      0.000      0.000
REMARK INTER + INTRA:          -8.410
REMARK INTER:                  -8.147
REMARK INTRA:                  -0.263
REMARK UNBOUND:                -0.263
REMARK SMILES Oc1cc(O)c2c(c1)O[C@H](c1ccc(O)c(O)c1)[C@H](O)C2
REMARK SMILES IDX 21 1 19 2 10 3 9 4 7 5 8 6 2 7 3 8 4 9 6 10 20 11 11 13
REMARK SMILES IDX 18 14 12 15 16 16 13 17 14 18 17 19 15 21 5 23 1 25
REMARK H PARENT 20 12 17 20 15 22 5 24 1 26
REMARK Flexibility Score: inf
ROOT
ATOM      1  C   UNL     1      -8.309 -66.213 -25.425  1.00  0.00     0.079 C 
ATOM      2  C   UNL     1      -9.525 -65.717 -24.620  1.00  0.00     0.164 C 
ATOM      3  C   UNL     1     -10.448 -66.906 -24.302  1.00  0.00     0.232 C 
ATOM      4  O   UNL     1     -10.851 -67.545 -25.513  1.00  0.00    -0.482 OA
ATOM      5  C   UNL     1      -9.970 -67.729 -26.584  1.00  0.00     0.131 A 
ATOM      6  C   UNL     1     -10.365 -68.528 -27.659  1.00  0.00     0.093 A 
ATOM      7  C   UNL     1      -9.498 -68.741 -28.736  1.00  0.00     0.122 A 
ATOM      8  C   UNL     1      -8.229 -68.159 -28.731  1.00  0.00     0.092 A 
ATOM      9  C   UNL     1      -7.816 -67.355 -27.661  1.00  0.00     0.126 A 
ATOM     10  C   UNL     1      -8.705 -67.100 -26.590  1.00  0.00     0.039 A 
ENDROOT
BRANCH   2  11
ATOM     11  O   UNL     1     -10.227 -64.751 -25.362  1.00  0.00    -0.389 OA
ATOM     12  H   UNL     1     -10.042 -63.873 -24.936  1.00  0.00     0.211 HD
ENDBRANCH   2  11
BRANCH   3  13
ATOM     13  C   UNL     1     -11.656 -66.471 -23.502  1.00  0.00    -0.001 A 
ATOM     14  C   UNL     1     -12.870 -66.206 -24.158  1.00  0.00     0.057 A 
ATOM     15  C   UNL     1     -11.603 -66.387 -22.100  1.00  0.00     0.012 A 
ATOM     16  C   UNL     1     -14.007 -65.837 -23.431  1.00  0.00     0.157 A 
ATOM     17  C   UNL     1     -12.736 -66.017 -21.372  1.00  0.00     0.050 A 
ATOM     18  C   UNL     1     -13.941 -65.738 -22.031  1.00  0.00     0.157 A 
BRANCH  16  19
ATOM     19  O   UNL     1     -15.192 -65.573 -24.116  1.00  0.00    -0.504 OA
ATOM     20  H   UNL     1     -15.349 -64.699 -24.604  1.00  0.00     0.293 HD
ENDBRANCH  16  19
BRANCH  18  21
ATOM     21  O   UNL     1     -15.069 -65.369 -21.302  1.00  0.00    -0.504 OA
ATOM     22  H   UNL     1     -16.003 -65.611 -21.612  1.00  0.00     0.293 HD
ENDBRANCH  18  21
ENDBRANCH   3  13
BRANCH   9  23
ATOM     23  O   UNL     1      -6.517 -66.839 -27.691  1.00  0.00    -0.507 OA
ATOM     24  H   UNL     1      -5.714 -67.336 -27.332  1.00  0.00     0.293 HD
ENDBRANCH   9  23
BRANCH   7  25
ATOM     25  O   UNL     1      -9.885 -69.536 -29.813  1.00  0.00    -0.508 OA
ATOM     26  H   UNL     1      -9.415 -70.409 -30.022  1.00  0.00     0.293 HD
ENDBRANCH   7  25
TORSDOF 6
ENDMDL
MODEL 2
REMARK VINA RESULT:    -6.758      2.509      4.077
REMARK INTER + INTRA:          -8.403
REMARK INTER:                  -8.008
REMARK INTRA:                  -0.395
REMARK UNBOUND:                -0.263
REMARK SMILES Oc1cc(O)c2c(c1)O[C@H](c1ccc(O)c(O)c1)[C@H](O)C2
REMARK SMILES IDX 21 1 19 2 10 3 9 4 7 5 8 6 2 7 3 8 4 9 6 10 20 11 11 13
REMARK SMILES IDX 18 14 12 15 16 16 13 17 14 18 17 19 15 21 5 23 1 25
REMARK H PARENT 20 12 17 20 15 22 5 24 1 26
REMARK Flexibility Score: inf
ROOT
ATOM      1  C   UNL     1      -7.912 -67.237 -26.254  1.00  0.00     0.079 C 
ATOM      2  C   UNL     1      -9.357 -67.163 -25.726  1.00  0.00     0.164 C 
ATOM      3  C   UNL     1      -9.469 -66.027 -24.696  1.00  0.00     0.232 C 
ATOM      4  O   UNL     1      -8.538 -66.240 -23.635  1.00  0.00    -0.482 OA
ATOM      5  C   UNL     1      -7.247 -66.727 -23.867  1.00  0.00     0.131 A 
ATOM      6  C   UNL     1      -6.323 -66.730 -22.819  1.00  0.00     0.093 A 
ATOM      7  C   UNL     1      -5.022 -67.196 -23.027  1.00  0.00     0.122 A 
ATOM      8  C   UNL     1      -4.641 -67.650 -24.292  1.00  0.00     0.092 A 
ATOM      9  C   UNL     1      -5.553 -67.653 -25.354  1.00  0.00     0.126 A 
ATOM     10  C   UNL     1      -6.884 -67.225 -25.138  1.00  0.00     0.039 A 
ENDROOT
BRANCH   2  11
ATOM     11  O   UNL     1      -9.712 -68.386 -25.130  1.00  0.00    -0.389 OA
ATOM     12  H   UNL     1     -10.243 -68.889 -25.801  1.00  0.00     0.211 HD
ENDBRANCH   2  11
BRANCH   3  13
ATOM     13  C   UNL     1     -10.876 -65.907 -24.153  1.00  0.00    -0.001 A 
ATOM     14  C   UNL     1     -11.116 -66.103 -22.783  1.00  0.00     0.057 A 
ATOM     15  C   UNL     1     -11.944 -65.539 -24.989  1.00  0.00     0.012 A 
ATOM     16  C   UNL     1     -12.405 -65.962 -22.257  1.00  0.00     0.157 A 
ATOM     17  C   UNL     1     -13.232 -65.399 -24.468  1.00  0.00     0.050 A 
ATOM     18  C   UNL     1     -13.471 -65.611 -23.103  1.00  0.00     0.157 A 
BRANCH  16  19
ATOM     19  O   UNL     1     -12.607 -66.173 -20.894  1.00  0.00    -0.504 OA
ATOM     20  H   UNL     1     -13.434 -66.638 -20.538  1.00  0.00     0.293 HD
ENDBRANCH  16  19
BRANCH  18  21
ATOM     21  O   UNL     1     -14.757 -65.471 -22.586  1.00  0.00    -0.504 OA
ATOM     22  H   UNL     1     -14.927 -65.449 -21.587  1.00  0.00     0.293 HD
ENDBRANCH  18  21
ENDBRANCH   3  13
BRANCH   9  23
ATOM     23  O   UNL     1      -5.100 -68.076 -26.607  1.00  0.00    -0.507 OA
ATOM     24  H   UNL     1      -4.373 -67.600 -27.124  1.00  0.00     0.293 HD
ENDBRANCH   9  23
BRANCH   7  25
ATOM     25  O   UNL     1      -4.095 -67.204 -21.987  1.00  0.00    -0.508 OA
ATOM     26  H   UNL     1      -4.381 -67.076 -21.022  1.00  0.00     0.293 HD
ENDBRANCH   7  25
TORSDOF 6
ENDMDL
MODEL 3
REMARK VINA RESULT:    -6.615      5.746     10.035
REMARK INTER + INTRA:          -8.231
REMARK INTER:                  -8.513
REMARK INTRA:                   0.282
REMARK UNBOUND:                -0.263
REMARK SMILES Oc1cc(O)c2c(c1)O[C@H](c1ccc(O)c(O)c1)[C@H](O)C2
REMARK SMILES IDX 21 1 19 2 10 3 9 4 7 5 8 6 2 7 3 8 4 9 6 10 20 11 11 13
REMARK SMILES IDX 18 14 12 15 16 16 13 17 14 18 17 19 15 21 5 23 1 25
REMARK H PARENT 20 12 17 20 15 22 5 24 1 26
REMARK Flexibility Score: inf
ROOT
ATOM      1  C   UNL     1      -6.231 -65.634 -30.066  1.00  0.00     0.079 C 
ATOM      2  C   UNL     1      -5.845 -65.338 -31.528  1.00  0.00     0.164 C 
ATOM      3  C   UNL     1      -7.092 -64.878 -32.303  1.00  0.00     0.232 C 
ATOM      4  O   UNL     1      -8.108 -65.879 -32.226  1.00  0.00    -0.482 OA
ATOM      5  C   UNL     1      -8.353 -66.599 -31.052  1.00  0.00     0.131 A 
ATOM      6  C   UNL     1      -9.480 -67.421 -30.981  1.00  0.00     0.093 A 
ATOM      7  C   UNL     1      -9.757 -68.138 -29.813  1.00  0.00     0.122 A 
ATOM      8  C   UNL     1      -8.908 -68.025 -28.710  1.00  0.00     0.092 A 
ATOM      9  C   UNL     1      -7.774 -67.205 -28.763  1.00  0.00     0.126 A 
ATOM     10  C   UNL     1      -7.464 -66.511 -29.956  1.00  0.00     0.039 A 
ENDROOT
BRANCH   2  11
ATOM     11  O   UNL     1      -5.309 -66.492 -32.124  1.00  0.00    -0.389 OA
ATOM     12  H   UNL     1      -5.507 -66.432 -33.095  1.00  0.00     0.211 HD
ENDBRANCH   2  11
BRANCH   3  13
ATOM     13  C   UNL     1      -6.762 -64.566 -33.746  1.00  0.00    -0.001 A 
ATOM     14  C   UNL     1      -7.744 -64.010 -34.583  1.00  0.00     0.057 A 
ATOM     15  C   UNL     1      -5.465 -64.764 -34.250  1.00  0.00     0.012 A 
ATOM     16  C   UNL     1      -7.447 -63.682 -35.911  1.00  0.00     0.157 A 
ATOM     17  C   UNL     1      -5.166 -64.438 -35.575  1.00  0.00     0.050 A 
ATOM     18  C   UNL     1      -6.152 -63.899 -36.412  1.00  0.00     0.157 A 
BRANCH  16  19
ATOM     19  O   UNL     1      -8.449 -63.141 -36.715  1.00  0.00    -0.504 OA
ATOM     20  H   UNL     1      -8.253 -62.744 -37.626  1.00  0.00     0.293 HD
ENDBRANCH  16  19
BRANCH  18  21
ATOM     21  O   UNL     1      -5.851 -63.576 -37.733  1.00  0.00    -0.504 OA
ATOM     22  H   UNL     1      -6.227 -62.745 -38.175  1.00  0.00     0.293 HD
ENDBRANCH  18  21
ENDBRANCH   3  13
BRANCH   9  23
ATOM     23  O   UNL     1      -6.989 -67.097 -27.612  1.00  0.00    -0.507 OA
ATOM     24  H   UNL     1      -6.021 -66.804 -27.625  1.00  0.00     0.293 HD
ENDBRANCH   9  23
BRANCH   7  25
ATOM     25  O   UNL     1     -10.878 -68.962 -29.735  1.00  0.00    -0.508 OA
ATOM     26  H   UNL     1     -11.723 -68.757 -30.257  1.00  0.00     0.293 HD
ENDBRANCH   7  25
TORSDOF 6
ENDMDL
MODEL 4
REMARK VINA RESULT:    -6.537      4.320      7.929
REMARK INTER + INTRA:          -8.138
REMARK INTER:                  -8.386
REMARK INTRA:                   0.248
REMARK UNBOUND:                -0.263
REMARK SMILES Oc1cc(O)c2c(c1)O[C@H](c1ccc(O)c(O)c1)[C@H](O)C2
REMARK SMILES IDX 21 1 19 2 10 3 9 4 7 5 8 6 2 7 3 8 4 9 6 10 20 11 11 13
REMARK SMILES IDX 18 14 12 15 16 16 13 17 14 18 17 19 15 21 5 23 1 25
REMARK H PARENT 20 12 17 20 15 22 5 24 1 26
REMARK Flexibility Score: inf
ROOT
ATOM      1  C   UNL     1      -9.227 -69.560 -28.813  1.00  0.00     0.079 C 
ATOM      2  C   UNL     1      -9.625 -68.665 -30.002  1.00  0.00     0.164 C 
ATOM      3  C   UNL     1      -8.512 -67.638 -30.266  1.00  0.00     0.232 C 
ATOM      4  O   UNL     1      -8.275 -66.865 -29.090  1.00  0.00    -0.482 OA
ATOM      5  C   UNL     1      -8.286 -67.435 -27.812  1.00  0.00     0.131 A 
ATOM      6  C   UNL     1      -7.859 -66.671 -26.723  1.00  0.00     0.093 A 
ATOM      7  C   UNL     1      -7.845 -67.222 -25.438  1.00  0.00     0.122 A 
ATOM      8  C   UNL     1      -8.250 -68.544 -25.244  1.00  0.00     0.092 A 
ATOM      9  C   UNL     1      -8.681 -69.324 -26.324  1.00  0.00     0.126 A 
ATOM     10  C   UNL     1      -8.740 -68.759 -27.620  1.00  0.00     0.039 A 
ENDROOT
BRANCH   2  11
ATOM     11  O   UNL     1     -10.831 -68.001 -29.717  1.00  0.00    -0.389 OA
ATOM     12  H   UNL     1     -11.556 -68.675 -29.799  1.00  0.00     0.211 HD
ENDBRANCH   2  11
BRANCH   3  13
ATOM     13  C   UNL     1      -8.853 -66.739 -31.434  1.00  0.00    -0.001 A 
ATOM     14  C   UNL     1      -7.930 -65.772 -31.865  1.00  0.00     0.057 A 
ATOM     15  C   UNL     1     -10.059 -66.897 -32.139  1.00  0.00     0.012 A 
ATOM     16  C   UNL     1      -8.215 -64.955 -32.966  1.00  0.00     0.157 A 
ATOM     17  C   UNL     1     -10.346 -66.082 -33.237  1.00  0.00     0.050 A 
ATOM     18  C   UNL     1      -9.430 -65.107 -33.654  1.00  0.00     0.157 A 
BRANCH  16  19
ATOM     19  O   UNL     1      -7.279 -64.000 -33.359  1.00  0.00    -0.504 OA
ATOM     20  H   UNL     1      -7.506 -63.014 -33.415  1.00  0.00     0.293 HD
ENDBRANCH  16  19
BRANCH  18  21
ATOM     21  O   UNL     1      -9.720 -64.296 -34.749  1.00  0.00    -0.504 OA
ATOM     22  H   UNL     1     -10.323 -63.486 -34.664  1.00  0.00     0.293 HD
ENDBRANCH  18  21
ENDBRANCH   3  13
BRANCH   9  23
ATOM     23  O   UNL     1      -9.031 -70.654 -26.074  1.00  0.00    -0.507 OA
ATOM     24  H   UNL     1      -8.968 -71.385 -26.770  1.00  0.00     0.293 HD
ENDBRANCH   9  23
BRANCH   7  25
ATOM     25  O   UNL     1      -7.421 -66.466 -24.346  1.00  0.00    -0.508 OA
ATOM     26  H   UNL     1      -7.977 -66.400 -23.501  1.00  0.00     0.293 HD
ENDBRANCH   7  25
TORSDOF 6
ENDMDL
MODEL 5
REMARK VINA RESULT:    -6.531      2.297      3.398
REMARK INTER + INTRA:          -8.130
REMARK INTER:                  -7.749
REMARK INTRA:                  -0.381
REMARK UNBOUND:                -0.263
REMARK SMILES Oc1cc(O)c2c(c1)O[C@H](c1ccc(O)c(O)c1)[C@H](O)C2
REMARK SMILES IDX 21 1 19 2 10 3 9 4 7 5 8 6 2 7 3 8 4 9 6 10 20 11 11 13
REMARK SMILES IDX 18 14 12 15 16 16 13 17 14 18 17 19 15 21 5 23 1 25
REMARK H PARENT 20 12 17 20 15 22 5 24 1 26
REMARK Flexibility Score: inf
ROOT
ATOM      1  C   UNL     1      -7.158 -68.152 -25.522  1.00  0.00     0.079 C 
ATOM      2  C   UNL     1      -8.458 -67.711 -24.823  1.00  0.00     0.164 C 
ATOM      3  C   UNL     1      -9.412 -67.093 -25.859  1.00  0.00     0.232 C 
ATOM      4  O   UNL     1      -8.774 -65.995 -26.512  1.00  0.00    -0.482 OA
ATOM      5  C   UNL     1      -7.423 -66.030 -26.874  1.00  0.00     0.131 A 
ATOM      6  C   UNL     1      -6.908 -65.010 -27.678  1.00  0.00     0.093 A 
ATOM      7  C   UNL     1      -5.565 -65.030 -28.067  1.00  0.00     0.122 A 
ATOM      8  C   UNL     1      -4.738 -66.078 -27.658  1.00  0.00     0.092 A 
ATOM      9  C   UNL     1      -5.237 -67.109 -26.852  1.00  0.00     0.126 A 
ATOM     10  C   UNL     1      -6.584 -67.072 -26.418  1.00  0.00     0.039 A 
ENDROOT
BRANCH   2  11
ATOM     11  O   UNL     1      -8.166 -66.771 -23.820  1.00  0.00    -0.389 OA
ATOM     12  H   UNL     1      -8.600 -67.095 -22.988  1.00  0.00     0.211 HD
ENDBRANCH   2  11
BRANCH   3  13
ATOM     13  C   UNL     1     -10.711 -66.650 -25.222  1.00  0.00    -0.001 A 
ATOM     14  C   UNL     1     -11.022 -65.282 -25.145  1.00  0.00     0.057 A 
ATOM     15  C   UNL     1     -11.646 -67.592 -24.759  1.00  0.00     0.012 A 
ATOM     16  C   UNL     1     -12.234 -64.857 -24.590  1.00  0.00     0.157 A 
ATOM     17  C   UNL     1     -12.857 -67.170 -24.204  1.00  0.00     0.050 A 
ATOM     18  C   UNL     1     -13.156 -65.804 -24.114  1.00  0.00     0.157 A 
BRANCH  16  19
ATOM     19  O   UNL     1     -12.505 -63.491 -24.522  1.00  0.00    -0.504 OA
ATOM     20  H   UNL     1     -12.801 -62.960 -25.332  1.00  0.00     0.293 HD
ENDBRANCH  16  19
BRANCH  18  21
ATOM     21  O   UNL     1     -14.364 -65.386 -23.559  1.00  0.00    -0.504 OA
ATOM     22  H   UNL     1     -14.469 -65.244 -22.562  1.00  0.00     0.293 HD
ENDBRANCH  18  21
ENDBRANCH   3  13
BRANCH   9  23
ATOM     23  O   UNL     1      -4.374 -68.154 -26.513  1.00  0.00    -0.507 OA
ATOM     24  H   UNL     1      -4.380 -68.609 -25.611  1.00  0.00     0.293 HD
ENDBRANCH   9  23
BRANCH   7  25
ATOM     25  O   UNL     1      -5.043 -64.016 -28.868  1.00  0.00    -0.508 OA
ATOM     26  H   UNL     1      -5.107 -64.054 -29.879  1.00  0.00     0.293 HD
ENDBRANCH   7  25
TORSDOF 6
ENDMDL
MODEL 6
REMARK VINA RESULT:    -6.512      5.093      7.664
REMARK INTER + INTRA:          -8.107
REMARK INTER:                  -8.364
REMARK INTRA:                   0.257
REMARK UNBOUND:                -0.263
REMARK SMILES Oc1cc(O)c2c(c1)O[C@H](c1ccc(O)c(O)c1)[C@H](O)C2
REMARK SMILES IDX 21 1 19 2 10 3 9 4 7 5 8 6 2 7 3 8 4 9 6 10 20 11 11 13
REMARK SMILES IDX 18 14 12 15 16 16 13 17 14 18 17 19 15 21 5 23 1 25
REMARK H PARENT 20 12 17 20 15 22 5 24 1 26
REMARK Flexibility Score: inf
ROOT
ATOM      1  C   UNL     1      -5.294 -65.195 -32.528  1.00  0.00     0.079 C 
ATOM      2  C   UNL     1      -5.780 -65.464 -31.091  1.00  0.00     0.164 C 
ATOM      3  C   UNL     1      -7.039 -66.347 -31.134  1.00  0.00     0.232 C 
ATOM      4  O   UNL     1      -8.051 -65.712 -31.915  1.00  0.00    -0.482 OA
ATOM      5  C   UNL     1      -7.753 -65.019 -33.094  1.00  0.00     0.131 A 
ATOM      6  C   UNL     1      -8.800 -64.588 -33.912  1.00  0.00     0.093 A 
ATOM      7  C   UNL     1      -8.530 -63.908 -35.104  1.00  0.00     0.122 A 
ATOM      8  C   UNL     1      -7.207 -63.668 -35.482  1.00  0.00     0.092 A 
ATOM      9  C   UNL     1      -6.145 -64.093 -34.675  1.00  0.00     0.126 A 
ATOM     10  C   UNL     1      -6.413 -64.743 -33.446  1.00  0.00     0.039 A 
ENDROOT
BRANCH   2  11
ATOM     11  O   UNL     1      -6.070 -64.248 -30.449  1.00  0.00    -0.389 OA
ATOM     12  H   UNL     1      -6.578 -63.694 -31.099  1.00  0.00     0.211 HD
ENDBRANCH   2  11
BRANCH   3  13
ATOM     13  C   UNL     1      -7.552 -66.647 -29.743  1.00  0.00    -0.001 A 
ATOM     14  C   UNL     1      -8.655 -67.500 -29.573  1.00  0.00     0.057 A 
ATOM     15  C   UNL     1      -6.902 -66.135 -28.607  1.00  0.00     0.012 A 
ATOM     16  C   UNL     1      -9.122 -67.817 -28.292  1.00  0.00     0.157 A 
ATOM     17  C   UNL     1      -7.365 -66.449 -27.327  1.00  0.00     0.050 A 
ATOM     18  C   UNL     1      -8.476 -67.287 -27.162  1.00  0.00     0.157 A 
BRANCH  16  19
ATOM     19  O   UNL     1     -10.225 -68.659 -28.163  1.00  0.00    -0.504 OA
ATOM     20  H   UNL     1     -10.215 -69.471 -27.557  1.00  0.00     0.293 HD
ENDBRANCH  16  19
BRANCH  18  21
ATOM     21  O   UNL     1      -8.937 -67.598 -25.884  1.00  0.00    -0.504 OA
ATOM     22  H   UNL     1      -8.298 -67.808 -25.127  1.00  0.00     0.293 HD
ENDBRANCH  18  21
ENDBRANCH   3  13
BRANCH   9  23
ATOM     23  O   UNL     1      -4.843 -63.865 -35.129  1.00  0.00    -0.507 OA
ATOM     24  H   UNL     1      -4.612 -63.171 -35.826  1.00  0.00     0.293 HD
ENDBRANCH   9  23
BRANCH   7  25
ATOM     25  O   UNL     1      -9.568 -63.474 -35.925  1.00  0.00    -0.508 OA
ATOM     26  H   UNL     1      -9.388 -62.958 -36.779  1.00  0.00     0.293 HD
ENDBRANCH   7  25
TORSDOF 6
ENDMDL
MODEL 7
REMARK VINA RESULT:    -6.453      4.356      5.916
REMARK INTER + INTRA:          -8.036
REMARK INTER:                  -7.803
REMARK INTRA:                  -0.234
REMARK UNBOUND:                -0.263
REMARK SMILES Oc1cc(O)c2c(c1)O[C@H](c1ccc(O)c(O)c1)[C@H](O)C2
REMARK SMILES IDX 21 1 19 2 10 3 9 4 7 5 8 6 2 7 3 8 4 9 6 10 20 11 11 13
REMARK SMILES IDX 18 14 12 15 16 16 13 17 14 18 17 19 15 21 5 23 1 25
REMARK H PARENT 20 12 17 20 15 22 5 24 1 26
REMARK Flexibility Score: inf
ROOT
ATOM      1  C   UNL     1      -9.407 -68.233 -27.515  1.00  0.00     0.079 C 
ATOM      2  C   UNL     1      -8.418 -68.348 -26.340  1.00  0.00     0.164 C 
ATOM      3  C   UNL     1      -7.716 -66.996 -26.128  1.00  0.00     0.232 C 
ATOM      4  O   UNL     1      -7.053 -66.600 -27.328  1.00  0.00    -0.482 OA
ATOM      5  C   UNL     1      -7.622 -66.798 -28.591  1.00  0.00     0.131 A 
ATOM      6  C   UNL     1      -7.017 -66.218 -29.708  1.00  0.00     0.093 A 
ATOM      7  C   UNL     1      -7.575 -66.387 -30.979  1.00  0.00     0.122 A 
ATOM      8  C   UNL     1      -8.747 -67.131 -31.130  1.00  0.00     0.092 A 
ATOM      9  C   UNL     1      -9.368 -67.719 -30.021  1.00  0.00     0.126 A 
ATOM     10  C   UNL     1      -8.784 -67.589 -28.739  1.00  0.00     0.039 A 
ENDROOT
BRANCH   2  11
ATOM     11  O   UNL     1      -7.466 -69.345 -26.612  1.00  0.00    -0.389 OA
ATOM     12  H   UNL     1      -6.793 -68.941 -27.221  1.00  0.00     0.211 HD
ENDBRANCH   2  11
BRANCH   3  13
ATOM     13  C   UNL     1      -6.737 -67.055 -24.975  1.00  0.00    -0.001 A 
ATOM     14  C   UNL     1      -7.195 -66.875 -23.659  1.00  0.00     0.057 A 
ATOM     15  C   UNL     1      -5.381 -67.352 -25.193  1.00  0.00     0.012 A 
ATOM     16  C   UNL     1      -6.310 -66.961 -22.578  1.00  0.00     0.157 A 
ATOM     17  C   UNL     1      -4.495 -67.438 -24.117  1.00  0.00     0.050 A 
ATOM     18  C   UNL     1      -4.952 -67.240 -22.807  1.00  0.00     0.157 A 
BRANCH  16  19
ATOM     19  O   UNL     1      -6.798 -66.766 -21.287  1.00  0.00    -0.504 OA
ATOM     20  H   UNL     1      -7.224 -67.515 -20.754  1.00  0.00     0.293 HD
ENDBRANCH  16  19
BRANCH  18  21
ATOM     21  O   UNL     1      -4.066 -67.326 -21.735  1.00  0.00    -0.504 OA
ATOM     22  H   UNL     1      -3.458 -68.127 -21.612  1.00  0.00     0.293 HD
ENDBRANCH  18  21
ENDBRANCH   3  13
BRANCH   9  23
ATOM     23  O   UNL     1     -10.563 -68.412 -30.230  1.00  0.00    -0.507 OA
ATOM     24  H   UNL     1     -10.696 -69.380 -29.971  1.00  0.00     0.293 HD
ENDBRANCH   9  23
BRANCH   7  25
ATOM     25  O   UNL     1      -6.977 -65.813 -32.099  1.00  0.00    -0.508 OA
ATOM     26  H   UNL     1      -6.811 -64.814 -32.157  1.00  0.00     0.293 HD
ENDBRANCH   7  25
TORSDOF 6
ENDMDL
MODEL 8
REMARK VINA RESULT:    -6.383      2.262      6.858
REMARK INTER + INTRA:          -7.952
REMARK INTER:                  -7.595
REMARK INTRA:                  -0.356
REMARK UNBOUND:                -0.263
REMARK SMILES Oc1cc(O)c2c(c1)O[C@H](c1ccc(O)c(O)c1)[C@H](O)C2
REMARK SMILES IDX 21 1 19 2 10 3 9 4 7 5 8 6 2 7 3 8 4 9 6 10 20 11 11 13
REMARK SMILES IDX 18 14 12 15 16 16 13 17 14 18 17 19 15 21 5 23 1 25
REMARK H PARENT 20 12 17 20 15 22 5 24 1 26
REMARK Flexibility Score: inf
ROOT
ATOM      1  C   UNL     1     -11.403 -67.804 -24.697  1.00  0.00     0.079 C 
ATOM      2  C   UNL     1     -10.035 -67.829 -25.404  1.00  0.00     0.164 C 
ATOM      3  C   UNL     1      -9.254 -66.551 -25.054  1.00  0.00     0.232 C 
ATOM      4  O   UNL     1     -10.013 -65.401 -25.430  1.00  0.00    -0.482 OA
ATOM      5  C   UNL     1     -11.399 -65.335 -25.251  1.00  0.00     0.131 A 
ATOM      6  C   UNL     1     -12.054 -64.119 -25.456  1.00  0.00     0.093 A 
ATOM      7  C   UNL     1     -13.437 -64.022 -25.269  1.00  0.00     0.122 A 
ATOM      8  C   UNL     1     -14.163 -65.145 -24.866  1.00  0.00     0.092 A 
ATOM      9  C   UNL     1     -13.523 -66.372 -24.655  1.00  0.00     0.126 A 
ATOM     10  C   UNL     1     -12.132 -66.487 -24.886  1.00  0.00     0.039 A 
ENDROOT
BRANCH   2  11
ATOM     11  O   UNL     1     -10.217 -67.913 -26.795  1.00  0.00    -0.389 OA
ATOM     12  H   UNL     1      -9.660 -67.199 -27.202  1.00  0.00     0.211 HD
ENDBRANCH   2  11
BRANCH   3  13
ATOM     13  C   UNL     1      -7.896 -66.531 -25.720  1.00  0.00    -0.001 A 
ATOM     14  C   UNL     1      -7.656 -65.659 -26.795  1.00  0.00     0.057 A 
ATOM     15  C   UNL     1      -6.844 -67.330 -25.238  1.00  0.00     0.012 A 
ATOM     16  C   UNL     1      -6.395 -65.603 -27.400  1.00  0.00     0.157 A 
ATOM     17  C   UNL     1      -5.585 -67.276 -25.840  1.00  0.00     0.050 A 
ATOM     18  C   UNL     1      -5.354 -66.417 -26.923  1.00  0.00     0.157 A 
BRANCH  16  19
ATOM     19  O   UNL     1      -6.197 -64.732 -28.470  1.00  0.00    -0.504 OA
ATOM     20  H   UNL     1      -5.396 -64.811 -29.087  1.00  0.00     0.293 HD
ENDBRANCH  16  19
BRANCH  18  21
ATOM     21  O   UNL     1      -4.097 -66.367 -27.522  1.00  0.00    -0.504 OA
ATOM     22  H   UNL     1      -3.524 -67.196 -27.624  1.00  0.00     0.293 HD
ENDBRANCH  18  21
ENDBRANCH   3  13
BRANCH   9  23
ATOM     23  O   UNL     1     -14.296 -67.447 -24.208  1.00  0.00    -0.507 OA
ATOM     24  H   UNL     1     -14.522 -67.602 -23.235  1.00  0.00     0.293 HD
ENDBRANCH   9  23
BRANCH   7  25
ATOM     25  O   UNL     1     -14.098 -62.813 -25.473  1.00  0.00    -0.508 OA
ATOM     26  H   UNL     1     -14.125 -62.097 -24.755  1.00  0.00     0.293 HD
ENDBRANCH   7  25
TORSDOF 6
ENDMDL
MODEL 9
REMARK VINA RESULT:    -6.288     15.179     17.142
REMARK INTER + INTRA:          -7.837
REMARK INTER:                  -7.481
REMARK INTRA:                  -0.356
REMARK UNBOUND:                -0.263
REMARK SMILES Oc1cc(O)c2c(c1)O[C@H](c1ccc(O)c(O)c1)[C@H](O)C2
REMARK SMILES IDX 21 1 19 2 10 3 9 4 7 5 8 6 2 7 3 8 4 9 6 10 20 11 11 13
REMARK SMILES IDX 18 14 12 15 16 16 13 17 14 18 17 19 15 21 5 23 1 25
REMARK H PARENT 20 12 17 20 15 22 5 24 1 26
REMARK Flexibility Score: inf
ROOT
ATOM      1  C   UNL     1      -3.927 -54.350 -38.762  1.00  0.00     0.079 C 
ATOM      2  C   UNL     1      -5.047 -54.523 -37.719  1.00  0.00     0.164 C 
ATOM      3  C   UNL     1      -4.489 -55.253 -36.485  1.00  0.00     0.232 C 
ATOM      4  O   UNL     1      -3.940 -56.513 -36.873  1.00  0.00    -0.482 OA
ATOM      5  C   UNL     1      -3.210 -56.671 -38.056  1.00  0.00     0.131 A 
ATOM      6  C   UNL     1      -2.538 -57.874 -38.284  1.00  0.00     0.093 A 
ATOM      7  C   UNL     1      -1.787 -58.053 -39.450  1.00  0.00     0.122 A 
ATOM      8  C   UNL     1      -1.702 -57.021 -40.386  1.00  0.00     0.092 A 
ATOM      9  C   UNL     1      -2.369 -55.807 -40.174  1.00  0.00     0.126 A 
ATOM     10  C   UNL     1      -3.166 -55.637 -39.018  1.00  0.00     0.039 A 
ENDROOT
BRANCH   2  11
ATOM     11  O   UNL     1      -6.107 -55.262 -38.274  1.00  0.00    -0.389 OA
ATOM     12  H   UNL     1      -6.944 -54.902 -37.879  1.00  0.00     0.211 HD
ENDBRANCH   2  11
BRANCH   3  13
ATOM     13  C   UNL     1      -5.552 -55.441 -35.425  1.00  0.00    -0.001 A 
ATOM     14  C   UNL     1      -6.087 -56.718 -35.188  1.00  0.00     0.057 A 
ATOM     15  C   UNL     1      -5.971 -54.364 -34.624  1.00  0.00     0.012 A 
ATOM     16  C   UNL     1      -7.045 -56.916 -34.188  1.00  0.00     0.157 A 
ATOM     17  C   UNL     1      -6.928 -54.559 -33.625  1.00  0.00     0.050 A 
ATOM     18  C   UNL     1      -7.471 -55.831 -33.403  1.00  0.00     0.157 A 
BRANCH  16  19
ATOM     19  O   UNL     1      -7.560 -58.196 -33.988  1.00  0.00    -0.504 OA
ATOM     20  H   UNL     1      -7.133 -58.854 -33.347  1.00  0.00     0.293 HD
ENDBRANCH  16  19
BRANCH  18  21
ATOM     21  O   UNL     1      -8.426 -56.022 -32.406  1.00  0.00    -0.504 OA
ATOM     22  H   UNL     1      -8.346 -55.571 -31.502  1.00  0.00     0.293 HD
ENDBRANCH  18  21
ENDBRANCH   3  13
BRANCH   9  23
ATOM     23  O   UNL     1      -2.208 -54.796 -41.125  1.00  0.00    -0.507 OA
ATOM     24  H   UNL     1      -2.574 -54.853 -42.065  1.00  0.00     0.293 HD
ENDBRANCH   9  23
BRANCH   7  25
ATOM     25  O   UNL     1      -1.115 -59.251 -39.685  1.00  0.00    -0.508 OA
ATOM     26  H   UNL     1      -0.943 -59.916 -38.940  1.00  0.00     0.293 HD
ENDBRANCH   7  25
TORSDOF 6
ENDMDL
