MODEL 1
REMARK VINA RESULT:    35.978      0.000      0.000
REMARK INTER + INTRA:          39.065
REMARK INTER:                  39.133
REMARK INTRA:                  -0.068
REMARK UNBOUND:                -0.068
REMARK SMILES CC(C)c1cc2c(cc1O)[C@]1(C)CCCC(C)(C)[C@@H]1CC2=O
REMARK SMILES IDX 4 1 9 2 8 3 7 4 6 5 5 6 21 7 22 8 20 9 19 10 11 11 13 12
REMARK SMILES IDX 14 13 15 14 16 15 17 16 18 17 12 18 2 19 1 20 3 21 10 22
REMARK H PARENT 10 23
REMARK Flexibility Score: inf
ROOT
ATOM      1  C   UNL     1      18.547  14.952 -12.875  1.00  0.00    -0.003 A 
ATOM      2  C   UNL     1      17.335  15.673 -12.867  1.00  0.00     0.119 A 
ATOM      3  C   UNL     1      17.323  17.017 -12.480  1.00  0.00     0.051 A 
ATOM      4  C   UNL     1      18.506  17.692 -12.111  1.00  0.00    -0.027 A 
ATOM      5  C   UNL     1      19.710  16.951 -12.062  1.00  0.00     0.022 A 
ATOM      6  C   UNL     1      19.721  15.602 -12.461  1.00  0.00     0.020 A 
ATOM      7  C   UNL     1      20.957  17.579 -11.583  1.00  0.00     0.163 C 
ATOM      8  O   UNL     1      22.053  16.958 -11.639  1.00  0.00    -0.294 OA
ATOM      9  C   UNL     1      20.923  18.934 -10.967  1.00  0.00     0.086 C 
ATOM     10  C   UNL     1      19.875  19.854 -11.638  1.00  0.00     0.013 C 
ATOM     11  C   UNL     1      18.443  19.175 -11.690  1.00  0.00    -0.003 C 
ATOM     12  C   UNL     1      17.502  19.960 -12.668  1.00  0.00     0.012 C 
ATOM     13  C   UNL     1      17.881  21.431 -12.802  1.00  0.00     0.001 C 
ATOM     14  C   UNL     1      19.263  21.589 -13.452  1.00  0.00     0.007 C 
ATOM     15  C   UNL     1      20.327  20.522 -13.002  1.00  0.00    -0.031 C 
ATOM     16  C   UNL     1      21.678  21.264 -12.832  1.00  0.00     0.011 C 
ATOM     17  C   UNL     1      20.520  19.479 -14.132  1.00  0.00     0.011 C 
ATOM     18  C   UNL     1      17.815  19.219 -10.273  1.00  0.00     0.017 C 
ENDROOT
BRANCH   1  19
ATOM     19  C   UNL     1      18.624  13.489 -13.292  1.00  0.00     0.017 C 
ATOM     20  C   UNL     1      18.245  13.298 -14.766  1.00  0.00     0.012 C 
ATOM     21  C   UNL     1      19.994  12.875 -12.978  1.00  0.00     0.012 C 
ENDBRANCH   1  19
BRANCH   2  22
ATOM     22  O   UNL     1      16.141  15.058 -13.238  1.00  0.00    -0.508 OA
ATOM     23  H   UNL     1      15.667  15.289 -14.104  1.00  0.00     0.293 HD
ENDBRANCH   2  22
TORSDOF 2
ENDMDL
