MODEL 1
REMARK VINA RESULT:    -3.687      0.000      0.000
REMARK INTER + INTRA:          -4.360
REMARK INTER:                  -4.334
REMARK INTRA:                  -0.026
REMARK UNBOUND:                -0.026
REMARK SMILES CCCCC(=O)[O-]
REMARK SMILES IDX 4 1 5 2 6 3 7 4 3 5 2 6 1 7
REMARK H PARENT
REMARK Flexibility Score: inf
ROOT
ATOM      1  C   UNL     1       3.127 -37.148  17.472  1.00  0.00     0.053 C 
ENDROOT
BRANCH   1   2
ATOM      2  C   UNL     1       2.482 -37.448  18.792  1.00  0.00     0.041 C 
ATOM      3  O   UNL     1       3.148 -37.360  19.857  1.00  0.00    -0.550 OA
ATOM      4  O   UNL     1       1.139 -37.794  18.845  1.00  0.00    -0.550 OA
ENDBRANCH   1   2
BRANCH   1   5
ATOM      5  C   UNL     1       2.089 -36.781  16.404  1.00  0.00     0.006 C 
BRANCH   5   6
ATOM      6  C   UNL     1       2.740 -36.405  15.066  1.00  0.00    -0.003 C 
ATOM      7  C   UNL     1       3.734 -37.472  14.618  1.00  0.00     0.004 C 
ENDBRANCH   5   6
ENDBRANCH   1   5
TORSDOF 3
ENDMDL
MODEL 2
REMARK VINA RESULT:    -3.682      0.852      1.491
REMARK INTER + INTRA:          -4.353
REMARK INTER:                  -4.300
REMARK INTRA:                  -0.054
REMARK UNBOUND:                -0.026
REMARK SMILES CCCCC(=O)[O-]
REMARK SMILES IDX 4 1 5 2 6 3 7 4 3 5 2 6 1 7
REMARK H PARENT
REMARK Flexibility Score: inf
ROOT
ATOM      1  C   UNL     1       3.453 -36.372  17.042  1.00  0.00     0.053 C 
ENDROOT
BRANCH   1   2
ATOM      2  C   UNL     1       3.246 -37.207  18.269  1.00  0.00     0.041 C 
ATOM      3  O   UNL     1       2.110 -37.685  18.526  1.00  0.00    -0.550 OA
ATOM      4  O   UNL     1       4.315 -37.480  19.112  1.00  0.00    -0.550 OA
ENDBRANCH   1   2
BRANCH   1   5
ATOM      5  C   UNL     1       2.276 -36.496  16.066  1.00  0.00     0.006 C 
BRANCH   5   6
ATOM      6  C   UNL     1       2.733 -36.506  14.601  1.00  0.00    -0.003 C 
ATOM      7  C   UNL     1       3.890 -37.478  14.392  1.00  0.00     0.004 C 
ENDBRANCH   5   6
ENDBRANCH   1   5
TORSDOF 3
ENDMDL
MODEL 3
REMARK VINA RESULT:    -3.441      1.807      2.092
REMARK INTER + INTRA:          -4.071
REMARK INTER:                  -4.054
REMARK INTRA:                  -0.016
REMARK UNBOUND:                -0.026
REMARK SMILES CCCCC(=O)[O-]
REMARK SMILES IDX 4 1 5 2 6 3 7 4 3 5 2 6 1 7
REMARK H PARENT
REMARK Flexibility Score: inf
ROOT
ATOM      1  C   UNL     1       3.394 -37.337  18.389  1.00  0.00     0.053 C 
ENDROOT
BRANCH   1   2
ATOM      2  C   UNL     1       4.346 -36.957  19.483  1.00  0.00     0.041 C 
ATOM      3  O   UNL     1       5.279 -37.737  19.810  1.00  0.00    -0.550 OA
ATOM      4  O   UNL     1       4.219 -35.730  20.120  1.00  0.00    -0.550 OA
ENDBRANCH   1   2
BRANCH   1   5
ATOM      5  C   UNL     1       3.420 -36.323  17.238  1.00  0.00     0.006 C 
BRANCH   5   6
ATOM      6  C   UNL     1       2.397 -36.659  16.144  1.00  0.00    -0.003 C 
ATOM      7  C   UNL     1       3.014 -36.532  14.755  1.00  0.00     0.004 C 
ENDBRANCH   5   6
ENDBRANCH   1   5
TORSDOF 3
ENDMDL
MODEL 4
REMARK VINA RESULT:    -3.368      2.688      4.069
REMARK INTER + INTRA:          -3.984
REMARK INTER:                  -3.967
REMARK INTRA:                  -0.017
REMARK UNBOUND:                -0.026
REMARK SMILES CCCCC(=O)[O-]
REMARK SMILES IDX 4 1 5 2 6 3 7 4 3 5 2 6 1 7
REMARK H PARENT
REMARK Flexibility Score: inf
ROOT
ATOM      1  C   UNL     1       2.909 -37.433  17.872  1.00  0.00     0.053 C 
ENDROOT
BRANCH   1   2
ATOM      2  C   UNL     1       2.815 -36.971  16.449  1.00  0.00     0.041 C 
ATOM      3  O   UNL     1       2.102 -35.977  16.151  1.00  0.00    -0.550 OA
ATOM      4  O   UNL     1       3.538 -37.621  15.458  1.00  0.00    -0.550 OA
ENDBRANCH   1   2
BRANCH   1   5
ATOM      5  C   UNL     1       3.877 -36.565  18.686  1.00  0.00     0.006 C 
BRANCH   5   6
ATOM      6  C   UNL     1       4.620 -37.374  19.759  1.00  0.00    -0.003 C 
ATOM      7  C   UNL     1       5.390 -36.457  20.705  1.00  0.00     0.004 C 
ENDBRANCH   5   6
ENDBRANCH   1   5
TORSDOF 3
ENDMDL
MODEL 5
REMARK VINA RESULT:    -3.332      4.128      5.806
REMARK INTER + INTRA:          -3.941
REMARK INTER:                  -3.892
REMARK INTRA:                  -0.049
REMARK UNBOUND:                -0.026
REMARK SMILES CCCCC(=O)[O-]
REMARK SMILES IDX 4 1 5 2 6 3 7 4 3 5 2 6 1 7
REMARK H PARENT
REMARK Flexibility Score: inf
ROOT
ATOM      1  C   UNL     1       4.642 -35.681  20.659  1.00  0.00     0.053 C 
ENDROOT
BRANCH   1   2
ATOM      2  C   UNL     1       4.445 -36.985  19.947  1.00  0.00     0.041 C 
ATOM      3  O   UNL     1       5.373 -37.836  19.916  1.00  0.00    -0.550 OA
ATOM      4  O   UNL     1       3.227 -37.272  19.346  1.00  0.00    -0.550 OA
ENDBRANCH   1   2
BRANCH   1   5
ATOM      5  C   UNL     1       6.030 -35.592  21.306  1.00  0.00     0.006 C 
BRANCH   5   6
ATOM      6  C   UNL     1       5.975 -35.784  22.828  1.00  0.00    -0.003 C 
ATOM      7  C   UNL     1       5.926 -34.442  23.552  1.00  0.00     0.004 C 
ENDBRANCH   5   6
ENDBRANCH   1   5
TORSDOF 3
ENDMDL
MODEL 6
REMARK VINA RESULT:    -3.286      3.377      4.992
REMARK INTER + INTRA:          -3.888
REMARK INTER:                  -3.848
REMARK INTRA:                  -0.040
REMARK UNBOUND:                -0.026
REMARK SMILES CCCCC(=O)[O-]
REMARK SMILES IDX 4 1 5 2 6 3 7 4 3 5 2 6 1 7
REMARK H PARENT
REMARK Flexibility Score: inf
ROOT
ATOM      1  C   UNL     1       4.622 -36.058  19.384  1.00  0.00     0.053 C 
ENDROOT
BRANCH   1   2
ATOM      2  C   UNL     1       3.547 -37.023  18.985  1.00  0.00     0.041 C 
ATOM      3  O   UNL     1       2.730 -37.452  19.841  1.00  0.00    -0.550 OA
ATOM      4  O   UNL     1       3.431 -37.424  17.660  1.00  0.00    -0.550 OA
ENDBRANCH   1   2
BRANCH   1   5
ATOM      5  C   UNL     1       4.469 -35.612  20.844  1.00  0.00     0.006 C 
BRANCH   5   6
ATOM      6  C   UNL     1       5.741 -35.866  21.665  1.00  0.00    -0.003 C 
ATOM      7  C   UNL     1       5.726 -35.069  22.966  1.00  0.00     0.004 C 
ENDBRANCH   5   6
ENDBRANCH   1   5
TORSDOF 3
ENDMDL
MODEL 7
REMARK VINA RESULT:    -3.283      2.385      3.828
REMARK INTER + INTRA:          -3.884
REMARK INTER:                  -3.795
REMARK INTRA:                  -0.089
REMARK UNBOUND:                -0.026
REMARK SMILES CCCCC(=O)[O-]
REMARK SMILES IDX 4 1 5 2 6 3 7 4 3 5 2 6 1 7
REMARK H PARENT
REMARK Flexibility Score: inf
ROOT
ATOM      1  C   UNL     1       3.123 -37.507  16.759  1.00  0.00     0.053 C 
ENDROOT
BRANCH   1   2
ATOM      2  C   UNL     1       2.515 -36.585  15.746  1.00  0.00     0.041 C 
ATOM      3  O   UNL     1       1.631 -35.758  16.092  1.00  0.00    -0.550 OA
ATOM      4  O   UNL     1       2.948 -36.619  14.427  1.00  0.00    -0.550 OA
ENDBRANCH   1   2
BRANCH   1   5
ATOM      5  C   UNL     1       3.412 -36.786  18.081  1.00  0.00     0.006 C 
BRANCH   5   6
ATOM      6  C   UNL     1       2.740 -37.474  19.278  1.00  0.00    -0.003 C 
ATOM      7  C   UNL     1       1.273 -37.774  18.987  1.00  0.00     0.004 C 
ENDBRANCH   5   6
ENDBRANCH   1   5
TORSDOF 3
ENDMDL
MODEL 8
REMARK VINA RESULT:    -3.155      3.439      4.161
REMARK INTER + INTRA:          -3.734
REMARK INTER:                  -3.676
REMARK INTRA:                  -0.058
REMARK UNBOUND:                -0.026
REMARK SMILES CCCCC(=O)[O-]
REMARK SMILES IDX 4 1 5 2 6 3 7 4 3 5 2 6 1 7
REMARK H PARENT
REMARK Flexibility Score: inf
ROOT
ATOM      1  C   UNL     1       4.995 -37.468  19.814  1.00  0.00     0.053 C 
ENDROOT
BRANCH   1   2
ATOM      2  C   UNL     1       5.432 -36.110  20.272  1.00  0.00     0.041 C 
ATOM      3  O   UNL     1       5.459 -35.146  19.463  1.00  0.00    -0.550 OA
ATOM      4  O   UNL     1       5.779 -35.904  21.601  1.00  0.00    -0.550 OA
ENDBRANCH   1   2
BRANCH   1   5
ATOM      5  C   UNL     1       3.754 -37.391  18.915  1.00  0.00     0.006 C 
BRANCH   5   6
ATOM      6  C   UNL     1       2.450 -37.355  19.726  1.00  0.00    -0.003 C 
ATOM      7  C   UNL     1       1.252 -37.724  18.858  1.00  0.00     0.004 C 
ENDBRANCH   5   6
ENDBRANCH   1   5
TORSDOF 3
ENDMDL
MODEL 9
REMARK VINA RESULT:    -3.059      4.858      6.617
REMARK INTER + INTRA:          -3.621
REMARK INTER:                  -3.583
REMARK INTRA:                  -0.038
REMARK UNBOUND:                -0.026
REMARK SMILES CCCCC(=O)[O-]
REMARK SMILES IDX 4 1 5 2 6 3 7 4 3 5 2 6 1 7
REMARK H PARENT
REMARK Flexibility Score: inf
ROOT
ATOM      1  C   UNL     1       5.740 -36.295  21.767  1.00  0.00     0.053 C 
ENDROOT
BRANCH   1   2
ATOM      2  C   UNL     1       5.316 -36.323  20.329  1.00  0.00     0.041 C 
ATOM      3  O   UNL     1       5.458 -35.302  19.607  1.00  0.00    -0.550 OA
ATOM      4  O   UNL     1       4.792 -37.487  19.782  1.00  0.00    -0.550 OA
ENDBRANCH   1   2
BRANCH   1   5
ATOM      5  C   UNL     1       6.122 -34.880  22.217  1.00  0.00     0.006 C 
BRANCH   5   6
ATOM      6  C   UNL     1       5.714 -34.603  23.671  1.00  0.00    -0.003 C 
ATOM      7  C   UNL     1       5.818 -35.864  24.523  1.00  0.00     0.004 C 
ENDBRANCH   5   6
ENDBRANCH   1   5
TORSDOF 3
ENDMDL
