MODEL 1
REMARK VINA RESULT:    -4.645      0.000      0.000
REMARK INTER + INTRA:          -4.781
REMARK INTER:                  -4.781
REMARK INTRA:                   0.000
REMARK UNBOUND:                 0.000
REMARK SMILES Cc1ccccc1O
REMARK SMILES IDX 1 1 2 2 3 3 4 4 5 5 6 6 7 7 8 8
REMARK H PARENT 8 9
REMARK Flexibility Score: inf
ROOT
ATOM      1  C   UNL     1      13.613  -2.637  36.304  1.00  0.00     0.048 C 
ATOM      2  C   UNL     1      14.651  -2.745  35.222  1.00  0.00    -0.009 A 
ATOM      3  C   UNL     1      14.724  -1.752  34.228  1.00  0.00     0.007 A 
ATOM      4  C   UNL     1      15.682  -1.833  33.214  1.00  0.00     0.001 A 
ATOM      5  C   UNL     1      16.574  -2.904  33.180  1.00  0.00     0.004 A 
ATOM      6  C   UNL     1      16.514  -3.898  34.160  1.00  0.00     0.046 A 
ATOM      7  C   UNL     1      15.559  -3.829  35.183  1.00  0.00     0.118 A 
ENDROOT
BRANCH   7   8
ATOM      8  O   UNL     1      15.538  -4.846  36.139  1.00  0.00    -0.508 OA
ATOM      9  H   UNL     1      15.808  -5.799  35.935  1.00  0.00     0.293 HD
ENDBRANCH   7   8
TORSDOF 1
ENDMDL
MODEL 2
REMARK VINA RESULT:    -4.622      0.788      2.547
REMARK INTER + INTRA:          -4.757
REMARK INTER:                  -4.757
REMARK INTRA:                   0.000
REMARK UNBOUND:                 0.000
REMARK SMILES Cc1ccccc1O
REMARK SMILES IDX 1 1 2 2 3 3 4 4 5 5 6 6 7 7 8 8
REMARK H PARENT 8 9
REMARK Flexibility Score: inf
ROOT
ATOM      1  C   UNL     1      17.294  -5.394  33.700  1.00  0.00     0.048 C 
ATOM      2  C   UNL     1      16.611  -4.093  34.016  1.00  0.00    -0.009 A 
ATOM      3  C   UNL     1      16.656  -3.041  33.082  1.00  0.00     0.007 A 
ATOM      4  C   UNL     1      16.026  -1.824  33.355  1.00  0.00     0.001 A 
ATOM      5  C   UNL     1      15.348  -1.642  34.561  1.00  0.00     0.004 A 
ATOM      6  C   UNL     1      15.295  -2.677  35.497  1.00  0.00     0.046 A 
ATOM      7  C   UNL     1      15.921  -3.903  35.236  1.00  0.00     0.118 A 
ENDROOT
BRANCH   7   8
ATOM      8  O   UNL     1      15.841  -4.907  36.203  1.00  0.00    -0.508 OA
ATOM      9  H   UNL     1      15.512  -4.739  37.145  1.00  0.00     0.293 HD
ENDBRANCH   7   8
TORSDOF 1
ENDMDL
MODEL 3
REMARK VINA RESULT:    -4.504     13.455     14.966
REMARK INTER + INTRA:          -4.636
REMARK INTER:                  -4.636
REMARK INTRA:                   0.000
REMARK UNBOUND:                 0.000
REMARK SMILES Cc1ccccc1O
REMARK SMILES IDX 1 1 2 2 3 3 4 4 5 5 6 6 7 7 8 8
REMARK H PARENT 8 9
REMARK Flexibility Score: inf
ROOT
ATOM      1  C   UNL     1      23.714  -1.835  24.639  1.00  0.00     0.048 C 
ATOM      2  C   UNL     1      24.937  -1.047  24.259  1.00  0.00    -0.009 A 
ATOM      3  C   UNL     1      25.152  -0.706  22.911  1.00  0.00     0.007 A 
ATOM      4  C   UNL     1      26.282   0.027  22.537  1.00  0.00     0.001 A 
ATOM      5  C   UNL     1      27.207   0.426  23.502  1.00  0.00     0.004 A 
ATOM      6  C   UNL     1      27.006   0.095  24.843  1.00  0.00     0.046 A 
ATOM      7  C   UNL     1      25.878  -0.638  25.233  1.00  0.00     0.118 A 
ENDROOT
BRANCH   7   8
ATOM      8  O   UNL     1      25.722  -0.945  26.586  1.00  0.00    -0.508 OA
ATOM      9  H   UNL     1      25.184  -1.737  26.913  1.00  0.00     0.293 HD
ENDBRANCH   7   8
TORSDOF 1
ENDMDL
MODEL 4
REMARK VINA RESULT:    -4.452     13.895     15.380
REMARK INTER + INTRA:          -4.582
REMARK INTER:                  -4.582
REMARK INTRA:                   0.000
REMARK UNBOUND:                 0.000
REMARK SMILES Cc1ccccc1O
REMARK SMILES IDX 1 1 2 2 3 3 4 4 5 5 6 6 7 7 8 8
REMARK H PARENT 8 9
REMARK Flexibility Score: inf
ROOT
ATOM      1  C   UNL     1      27.091   0.757  22.646  1.00  0.00     0.048 C 
ATOM      2  C   UNL     1      26.390  -0.069  23.688  1.00  0.00    -0.009 A 
ATOM      3  C   UNL     1      25.193  -0.732  23.358  1.00  0.00     0.007 A 
ATOM      4  C   UNL     1      24.526  -1.506  24.311  1.00  0.00     0.001 A 
ATOM      5  C   UNL     1      25.044  -1.627  25.600  1.00  0.00     0.004 A 
ATOM      6  C   UNL     1      26.231  -0.976  25.942  1.00  0.00     0.046 A 
ATOM      7  C   UNL     1      26.911  -0.197  24.996  1.00  0.00     0.118 A 
ENDROOT
BRANCH   7   8
ATOM      8  O   UNL     1      28.094   0.435  25.386  1.00  0.00    -0.508 OA
ATOM      9  H   UNL     1      28.469   1.244  24.908  1.00  0.00     0.293 HD
ENDBRANCH   7   8
TORSDOF 1
ENDMDL
MODEL 5
REMARK VINA RESULT:    -4.411     12.530     13.388
REMARK INTER + INTRA:          -4.540
REMARK INTER:                  -4.540
REMARK INTRA:                   0.000
REMARK UNBOUND:                 0.000
REMARK SMILES Cc1ccccc1O
REMARK SMILES IDX 1 1 2 2 3 3 4 4 5 5 6 6 7 7 8 8
REMARK H PARENT 8 9
REMARK Flexibility Score: inf
ROOT
ATOM      1  C   UNL     1      23.517   6.292  30.672  1.00  0.00     0.048 C 
ATOM      2  C   UNL     1      24.211   5.140  30.000  1.00  0.00    -0.009 A 
ATOM      3  C   UNL     1      23.453   4.053  29.528  1.00  0.00     0.007 A 
ATOM      4  C   UNL     1      24.078   2.973  28.899  1.00  0.00     0.001 A 
ATOM      5  C   UNL     1      25.463   2.965  28.736  1.00  0.00     0.004 A 
ATOM      6  C   UNL     1      26.228   4.037  29.200  1.00  0.00     0.046 A 
ATOM      7  C   UNL     1      25.615   5.127  29.831  1.00  0.00     0.118 A 
ENDROOT
BRANCH   7   8
ATOM      8  O   UNL     1      26.423   6.175  30.278  1.00  0.00    -0.508 OA
ATOM      9  H   UNL     1      26.058   7.085  30.526  1.00  0.00     0.293 HD
ENDBRANCH   7   8
TORSDOF 1
ENDMDL
MODEL 6
REMARK VINA RESULT:    -4.409     13.779     15.105
REMARK INTER + INTRA:          -4.538
REMARK INTER:                  -4.538
REMARK INTRA:                   0.000
REMARK UNBOUND:                 0.000
REMARK SMILES Cc1ccccc1O
REMARK SMILES IDX 1 1 2 2 3 3 4 4 5 5 6 6 7 7 8 8
REMARK H PARENT 8 9
REMARK Flexibility Score: inf
ROOT
ATOM      1  C   UNL     1      25.937  -0.363  27.223  1.00  0.00     0.048 C 
ATOM      2  C   UNL     1      25.975  -0.335  25.720  1.00  0.00    -0.009 A 
ATOM      3  C   UNL     1      24.895  -0.862  24.988  1.00  0.00     0.007 A 
ATOM      4  C   UNL     1      24.910  -0.846  23.591  1.00  0.00     0.001 A 
ATOM      5  C   UNL     1      26.001  -0.306  22.911  1.00  0.00     0.004 A 
ATOM      6  C   UNL     1      27.080   0.221  23.624  1.00  0.00     0.046 A 
ATOM      7  C   UNL     1      27.078   0.212  25.025  1.00  0.00     0.118 A 
ENDROOT
BRANCH   7   8
ATOM      8  O   UNL     1      28.180   0.749  25.692  1.00  0.00    -0.508 OA
ATOM      9  H   UNL     1      28.185   0.937  26.686  1.00  0.00     0.293 HD
ENDBRANCH   7   8
TORSDOF 1
ENDMDL
MODEL 7
REMARK VINA RESULT:    -4.390      8.765      9.922
REMARK INTER + INTRA:          -4.519
REMARK INTER:                  -4.519
REMARK INTRA:                   0.000
REMARK UNBOUND:                 0.000
REMARK SMILES Cc1ccccc1O
REMARK SMILES IDX 1 1 2 2 3 3 4 4 5 5 6 6 7 7 8 8
REMARK H PARENT 8 9
REMARK Flexibility Score: inf
ROOT
ATOM      1  C   UNL     1      18.411  -9.229  26.184  1.00  0.00     0.048 C 
ATOM      2  C   UNL     1      17.858  -7.846  26.388  1.00  0.00    -0.009 A 
ATOM      3  C   UNL     1      18.532  -6.946  27.235  1.00  0.00     0.007 A 
ATOM      4  C   UNL     1      18.035  -5.656  27.437  1.00  0.00     0.001 A 
ATOM      5  C   UNL     1      16.863  -5.250  26.799  1.00  0.00     0.004 A 
ATOM      6  C   UNL     1      16.184  -6.131  25.955  1.00  0.00     0.046 A 
ATOM      7  C   UNL     1      16.671  -7.428  25.743  1.00  0.00     0.118 A 
ENDROOT
BRANCH   7   8
ATOM      8  O   UNL     1      15.956  -8.272  24.891  1.00  0.00    -0.508 OA
ATOM      9  H   UNL     1      15.344  -9.005  25.227  1.00  0.00     0.293 HD
ENDBRANCH   7   8
TORSDOF 1
ENDMDL
MODEL 8
REMARK VINA RESULT:    -4.375      9.148      9.948
REMARK INTER + INTRA:          -4.503
REMARK INTER:                  -4.503
REMARK INTRA:                   0.000
REMARK UNBOUND:                 0.000
REMARK SMILES Cc1ccccc1O
REMARK SMILES IDX 1 1 2 2 3 3 4 4 5 5 6 6 7 7 8 8
REMARK H PARENT 8 9
REMARK Flexibility Score: inf
ROOT
ATOM      1  C   UNL     1      16.360  -5.593  25.982  1.00  0.00     0.048 C 
ATOM      2  C   UNL     1      17.320  -6.675  26.391  1.00  0.00    -0.009 A 
ATOM      3  C   UNL     1      18.317  -6.395  27.344  1.00  0.00     0.007 A 
ATOM      4  C   UNL     1      19.219  -7.387  27.739  1.00  0.00     0.001 A 
ATOM      5  C   UNL     1      19.135  -8.666  27.189  1.00  0.00     0.004 A 
ATOM      6  C   UNL     1      18.150  -8.959  26.244  1.00  0.00     0.046 A 
ATOM      7  C   UNL     1      17.240  -7.975  25.839  1.00  0.00     0.118 A 
ENDROOT
BRANCH   7   8
ATOM      8  O   UNL     1      16.274  -8.316  24.890  1.00  0.00    -0.508 OA
ATOM      9  H   UNL     1      15.530  -8.977  25.074  1.00  0.00     0.293 HD
ENDBRANCH   7   8
TORSDOF 1
ENDMDL
MODEL 9
REMARK VINA RESULT:    -4.332      1.693      3.028
REMARK INTER + INTRA:          -4.458
REMARK INTER:                  -4.458
REMARK INTRA:                   0.000
REMARK UNBOUND:                 0.000
REMARK SMILES Cc1ccccc1O
REMARK SMILES IDX 1 1 2 2 3 3 4 4 5 5 6 6 7 7 8 8
REMARK H PARENT 8 9
REMARK Flexibility Score: inf
ROOT
ATOM      1  C   UNL     1      16.624  -4.495  35.525  1.00  0.00     0.048 C 
ATOM      2  C   UNL     1      15.518  -3.525  35.217  1.00  0.00    -0.009 A 
ATOM      3  C   UNL     1      14.278  -3.654  35.871  1.00  0.00     0.007 A 
ATOM      4  C   UNL     1      13.238  -2.762  35.599  1.00  0.00     0.001 A 
ATOM      5  C   UNL     1      13.422  -1.734  34.674  1.00  0.00     0.004 A 
ATOM      6  C   UNL     1      14.646  -1.593  34.018  1.00  0.00     0.046 A 
ATOM      7  C   UNL     1      15.699  -2.480  34.281  1.00  0.00     0.118 A 
ENDROOT
BRANCH   7   8
ATOM      8  O   UNL     1      16.903  -2.299  33.599  1.00  0.00    -0.508 OA
ATOM      9  H   UNL     1      17.618  -1.652  33.906  1.00  0.00     0.293 HD
ENDBRANCH   7   8
TORSDOF 1
ENDMDL
