MODEL 1
REMARK VINA RESULT:    -2.417      0.000      0.000
REMARK INTER + INTRA:          -2.875
REMARK INTER:                  -2.841
REMARK INTRA:                  -0.035
REMARK UNBOUND:                -0.035
REMARK SMILES O=C([O-])CCC(=O)[O-]
REMARK SMILES IDX 4 1 2 2 1 3 3 4 5 5 6 6 7 7 8 8
REMARK H PARENT
REMARK Flexibility Score: inf
ROOT
ATOM      1  C   UNL     1      20.177  22.782  45.545  1.00  0.00     0.059 C 
ENDROOT
BRANCH   1   2
ATOM      2  C   UNL     1      21.345  22.168  46.249  1.00  0.00     0.042 C 
ATOM      3  O   UNL     1      21.163  21.282  47.125  1.00  0.00    -0.550 OA
ATOM      4  O   UNL     1      22.634  22.608  45.973  1.00  0.00    -0.550 OA
ENDBRANCH   1   2
BRANCH   1   5
ATOM      5  C   UNL     1      19.183  23.355  46.557  1.00  0.00     0.059 C 
BRANCH   5   6
ATOM      6  C   UNL     1      17.951  23.839  45.862  1.00  0.00     0.042 C 
ATOM      7  O   UNL     1      16.918  24.119  46.526  1.00  0.00    -0.550 OA
ATOM      8  O   UNL     1      17.926  23.936  44.477  1.00  0.00    -0.550 OA
ENDBRANCH   5   6
ENDBRANCH   1   5
TORSDOF 3
ENDMDL
MODEL 2
REMARK VINA RESULT:    -2.375      0.372      4.167
REMARK INTER + INTRA:          -2.826
REMARK INTER:                  -2.789
REMARK INTRA:                  -0.037
REMARK UNBOUND:                -0.035
REMARK SMILES O=C([O-])CCC(=O)[O-]
REMARK SMILES IDX 4 1 2 2 1 3 3 4 5 5 6 6 7 7 8 8
REMARK H PARENT
REMARK Flexibility Score: inf
ROOT
ATOM      1  C   UNL     1      19.176  23.010  46.832  1.00  0.00     0.059 C 
ENDROOT
BRANCH   1   2
ATOM      2  C   UNL     1      17.986  23.750  46.308  1.00  0.00     0.042 C 
ATOM      3  O   UNL     1      17.076  24.125  47.093  1.00  0.00    -0.550 OA
ATOM      4  O   UNL     1      17.857  23.983  44.944  1.00  0.00    -0.550 OA
ENDBRANCH   1   2
BRANCH   1   5
ATOM      5  C   UNL     1      20.231  22.850  45.736  1.00  0.00     0.059 C 
BRANCH   5   6
ATOM      6  C   UNL     1      21.414  22.096  46.255  1.00  0.00     0.042 C 
ATOM      7  O   UNL     1      21.259  21.192  47.119  1.00  0.00    -0.550 OA
ATOM      8  O   UNL     1      22.693  22.423  45.822  1.00  0.00    -0.550 OA
ENDBRANCH   5   6
ENDBRANCH   1   5
TORSDOF 3
ENDMDL
MODEL 3
REMARK VINA RESULT:    -2.264     19.897     21.129
REMARK INTER + INTRA:          -2.696
REMARK INTER:                  -2.634
REMARK INTRA:                  -0.062
REMARK UNBOUND:                -0.035
REMARK SMILES O=C([O-])CCC(=O)[O-]
REMARK SMILES IDX 4 1 2 2 1 3 3 4 5 5 6 6 7 7 8 8
REMARK H PARENT
REMARK Flexibility Score: inf
ROOT
ATOM      1  C   UNL     1      31.237  23.099  27.522  1.00  0.00     0.059 C 
ENDROOT
BRANCH   1   2
ATOM      2  C   UNL     1      30.991  21.671  27.150  1.00  0.00     0.042 C 
ATOM      3  O   UNL     1      31.958  20.912  26.875  1.00  0.00    -0.550 OA
ATOM      4  O   UNL     1      29.691  21.190  27.059  1.00  0.00    -0.550 OA
ENDBRANCH   1   2
BRANCH   1   5
ATOM      5  C   UNL     1      30.321  23.518  28.673  1.00  0.00     0.059 C 
BRANCH   5   6
ATOM      6  C   UNL     1      31.128  23.899  29.873  1.00  0.00     0.042 C 
ATOM      7  O   UNL     1      32.364  24.114  29.762  1.00  0.00    -0.550 OA
ATOM      8  O   UNL     1      30.526  23.969  31.123  1.00  0.00    -0.550 OA
ENDBRANCH   5   6
ENDBRANCH   1   5
TORSDOF 3
ENDMDL
MODEL 4
REMARK VINA RESULT:    -2.243     21.176     22.151
REMARK INTER + INTRA:          -2.671
REMARK INTER:                  -2.548
REMARK INTRA:                  -0.123
REMARK UNBOUND:                -0.035
REMARK SMILES O=C([O-])CCC(=O)[O-]
REMARK SMILES IDX 4 1 2 2 1 3 3 4 5 5 6 6 7 7 8 8
REMARK H PARENT
REMARK Flexibility Score: inf
ROOT
ATOM      1  C   UNL     1      32.291  23.091  26.878  1.00  0.00     0.059 C 
ENDROOT
BRANCH   1   2
ATOM      2  C   UNL     1      33.304  23.326  27.953  1.00  0.00     0.042 C 
ATOM      3  O   UNL     1      32.944  23.411  29.157  1.00  0.00    -0.550 OA
ATOM      4  O   UNL     1      34.642  23.500  27.622  1.00  0.00    -0.550 OA
ENDBRANCH   1   2
BRANCH   1   5
ATOM      5  C   UNL     1      31.695  21.688  27.002  1.00  0.00     0.059 C 
BRANCH   5   6
ATOM      6  C   UNL     1      30.238  21.765  27.331  1.00  0.00     0.042 C 
ATOM      7  O   UNL     1      29.439  20.906  26.875  1.00  0.00    -0.550 OA
ATOM      8  O   UNL     1      29.754  22.815  28.103  1.00  0.00    -0.550 OA
ENDBRANCH   5   6
ENDBRANCH   1   5
TORSDOF 3
ENDMDL
MODEL 5
REMARK VINA RESULT:    -2.194     21.021     22.276
REMARK INTER + INTRA:          -2.613
REMARK INTER:                  -2.490
REMARK INTRA:                  -0.123
REMARK UNBOUND:                -0.035
REMARK SMILES O=C([O-])CCC(=O)[O-]
REMARK SMILES IDX 4 1 2 2 1 3 3 4 5 5 6 6 7 7 8 8
REMARK H PARENT
REMARK Flexibility Score: inf
ROOT
ATOM      1  C   UNL     1      31.594  21.706  27.225  1.00  0.00     0.059 C 
ENDROOT
BRANCH   1   2
ATOM      2  C   UNL     1      30.144  21.916  27.527  1.00  0.00     0.042 C 
ATOM      3  O   UNL     1      29.289  21.073  27.147  1.00  0.00    -0.550 OA
ATOM      4  O   UNL     1      29.730  23.067  28.184  1.00  0.00    -0.550 OA
ENDBRANCH   1   2
BRANCH   1   5
ATOM      5  C   UNL     1      32.266  23.035  26.878  1.00  0.00     0.059 C 
BRANCH   5   6
ATOM      6  C   UNL     1      33.291  23.388  27.909  1.00  0.00     0.042 C 
ATOM      7  O   UNL     1      32.978  23.421  29.128  1.00  0.00    -0.550 OA
ATOM      8  O   UNL     1      34.580  23.729  27.520  1.00  0.00    -0.550 OA
ENDBRANCH   5   6
ENDBRANCH   1   5
TORSDOF 3
ENDMDL
MODEL 6
REMARK VINA RESULT:    -1.741     20.694     21.872
REMARK INTER + INTRA:          -2.081
REMARK INTER:                  -2.038
REMARK INTRA:                  -0.043
REMARK UNBOUND:                -0.035
REMARK SMILES O=C([O-])CCC(=O)[O-]
REMARK SMILES IDX 4 1 2 2 1 3 3 4 5 5 6 6 7 7 8 8
REMARK H PARENT
REMARK Flexibility Score: inf
ROOT
ATOM      1  C   UNL     1      33.279  23.840  29.059  1.00  0.00     0.059 C 
ENDROOT
BRANCH   1   2
ATOM      2  C   UNL     1      34.519  23.647  28.244  1.00  0.00     0.042 C 
ATOM      3  O   UNL     1      34.437  23.291  27.039  1.00  0.00    -0.550 OA
ATOM      4  O   UNL     1      35.769  23.811  28.829  1.00  0.00    -0.550 OA
ENDBRANCH   1   2
BRANCH   1   5
ATOM      5  C   UNL     1      32.054  23.948  28.149  1.00  0.00     0.059 C 
BRANCH   5   6
ATOM      6  C   UNL     1      30.830  23.469  28.863  1.00  0.00     0.042 C 
ATOM      7  O   UNL     1      29.888  22.938  28.218  1.00  0.00    -0.550 OA
ATOM      8  O   UNL     1      30.707  23.653  30.234  1.00  0.00    -0.550 OA
ENDBRANCH   5   6
ENDBRANCH   1   5
TORSDOF 3
ENDMDL
MODEL 7
REMARK VINA RESULT:    -1.731     20.558     22.012
REMARK INTER + INTRA:          -2.070
REMARK INTER:                  -1.959
REMARK INTRA:                  -0.110
REMARK UNBOUND:                -0.035
REMARK SMILES O=C([O-])CCC(=O)[O-]
REMARK SMILES IDX 4 1 2 2 1 3 3 4 5 5 6 6 7 7 8 8
REMARK H PARENT
REMARK Flexibility Score: inf
ROOT
ATOM      1  C   UNL     1      31.824  22.603  28.496  1.00  0.00     0.059 C 
ENDROOT
BRANCH   1   2
ATOM      2  C   UNL     1      30.821  23.483  29.172  1.00  0.00     0.042 C 
ATOM      3  O   UNL     1      31.002  23.854  30.362  1.00  0.00    -0.550 OA
ATOM      4  O   UNL     1      29.660  23.855  28.505  1.00  0.00    -0.550 OA
ENDBRANCH   1   2
BRANCH   1   5
ATOM      5  C   UNL     1      32.643  23.405  27.484  1.00  0.00     0.059 C 
BRANCH   5   6
ATOM      6  C   UNL     1      34.053  23.563  27.959  1.00  0.00     0.042 C 
ATOM      7  O   UNL     1      35.010  23.152  27.251  1.00  0.00    -0.550 OA
ATOM      8  O   UNL     1      34.308  24.119  29.206  1.00  0.00    -0.550 OA
ENDBRANCH   5   6
ENDBRANCH   1   5
TORSDOF 3
ENDMDL
