MODEL 1
REMARK VINA RESULT:    -4.220      0.000      0.000
REMARK INTER + INTRA:          -6.283
REMARK INTER:                  -5.701
REMARK INTRA:                  -0.582
REMARK UNBOUND:                -0.582
REMARK SMILES CCCCCCC=CC(=O)[O-]
REMARK SMILES IDX 5 1 6 2 7 3 8 4 9 5 10 6 11 7 4 8 3 9 2 10 1 11
REMARK H PARENT
REMARK Flexibility Score: inf
ROOT
ATOM      1  C   UNL     1      -8.332   3.607  -3.172  1.00  0.00     0.004 C 
ENDROOT
BRANCH   1   2
ATOM      2  C   UNL     1      -7.993   2.312  -3.927  1.00  0.00     0.027 C 
BRANCH   2   3
ATOM      3  C   UNL     1      -7.706   2.587  -5.379  1.00  0.00    -0.025 C 
ATOM      4  C   UNL     1      -6.508   2.482  -5.979  1.00  0.00     0.020 C 
BRANCH   4   5
ATOM      5  C   UNL     1      -5.242   2.046  -5.354  1.00  0.00     0.064 C 
ATOM      6  O   UNL     1      -4.209   2.764  -5.363  1.00  0.00    -0.545 OA
ATOM      7  O   UNL     1      -5.197   0.812  -4.720  1.00  0.00    -0.545 OA
ENDBRANCH   4   5
ENDBRANCH   2   3
ENDBRANCH   1   2
BRANCH   1   8
ATOM      8  C   UNL     1      -7.080   4.393  -2.749  1.00  0.00     0.000 C 
BRANCH   8   9
ATOM      9  C   UNL     1      -7.290   5.911  -2.606  1.00  0.00    -0.000 C 
BRANCH   9  10
ATOM     10  C   UNL     1      -6.640   6.738  -3.737  1.00  0.00    -0.003 C 
ATOM     11  C   UNL     1      -5.753   5.890  -4.648  1.00  0.00     0.004 C 
ENDBRANCH   9  10
ENDBRANCH   8   9
ENDBRANCH   1   8
TORSDOF 6
ENDMDL
MODEL 2
REMARK VINA RESULT:    -4.075      2.511      3.962
REMARK INTER + INTRA:          -6.087
REMARK INTER:                  -5.380
REMARK INTRA:                  -0.707
REMARK UNBOUND:                -0.582
REMARK SMILES CCCCCCC=CC(=O)[O-]
REMARK SMILES IDX 5 1 6 2 7 3 8 4 9 5 10 6 11 7 4 8 3 9 2 10 1 11
REMARK H PARENT
REMARK Flexibility Score: inf
ROOT
ATOM      1  C   UNL     1      -8.409   1.769  -3.826  1.00  0.00     0.004 C 
ENDROOT
BRANCH   1   2
ATOM      2  C   UNL     1      -9.366   2.942  -3.562  1.00  0.00     0.027 C 
BRANCH   2   3
ATOM      3  C   UNL     1      -8.904   4.190  -4.265  1.00  0.00    -0.025 C 
ATOM      4  C   UNL     1      -8.098   5.134  -3.749  1.00  0.00     0.020 C 
BRANCH   4   5
ATOM      5  C   UNL     1      -7.475   5.126  -2.408  1.00  0.00     0.064 C 
ATOM      6  O   UNL     1      -7.872   5.879  -1.481  1.00  0.00    -0.545 OA
ATOM      7  O   UNL     1      -6.430   4.247  -2.160  1.00  0.00    -0.545 OA
ENDBRANCH   4   5
ENDBRANCH   2   3
ENDBRANCH   1   2
BRANCH   1   8
ATOM      8  C   UNL     1      -7.638   1.918  -5.148  1.00  0.00     0.000 C 
BRANCH   8   9
ATOM      9  C   UNL     1      -6.110   1.782  -5.022  1.00  0.00    -0.000 C 
BRANCH   9  10
ATOM     10  C   UNL     1      -5.324   2.602  -6.069  1.00  0.00    -0.003 C 
ATOM     11  C   UNL     1      -5.220   4.081  -5.697  1.00  0.00     0.004 C 
ENDBRANCH   9  10
ENDBRANCH   8   9
ENDBRANCH   1   8
TORSDOF 6
ENDMDL
MODEL 3
REMARK VINA RESULT:    -4.038      1.137      2.148
REMARK INTER + INTRA:          -6.036
REMARK INTER:                  -5.600
REMARK INTRA:                  -0.437
REMARK UNBOUND:                -0.582
REMARK SMILES CCCCCCC=CC(=O)[O-]
REMARK SMILES IDX 5 1 6 2 7 3 8 4 9 5 10 6 11 7 4 8 3 9 2 10 1 11
REMARK H PARENT
REMARK Flexibility Score: inf
ROOT
ATOM      1  C   UNL     1      -8.410   3.781  -3.154  1.00  0.00     0.004 C 
ENDROOT
BRANCH   1   2
ATOM      2  C   UNL     1      -8.223   2.365  -3.722  1.00  0.00     0.027 C 
BRANCH   2   3
ATOM      3  C   UNL     1      -7.989   2.400  -5.208  1.00  0.00    -0.025 C 
ATOM      4  C   UNL     1      -6.807   2.230  -5.824  1.00  0.00     0.020 C 
BRANCH   4   5
ATOM      5  C   UNL     1      -5.508   1.943  -5.180  1.00  0.00     0.064 C 
ATOM      6  O   UNL     1      -5.212   0.798  -4.750  1.00  0.00    -0.545 OA
ATOM      7  O   UNL     1      -4.578   2.967  -5.062  1.00  0.00    -0.545 OA
ENDBRANCH   4   5
ENDBRANCH   2   3
ENDBRANCH   1   2
BRANCH   1   8
ATOM      8  C   UNL     1      -7.119   4.352  -2.546  1.00  0.00     0.000 C 
BRANCH   8   9
ATOM      9  C   UNL     1      -7.243   5.785  -1.998  1.00  0.00    -0.000 C 
BRANCH   9  10
ATOM     10  C   UNL     1      -8.693   6.203  -1.672  1.00  0.00    -0.003 C 
ATOM     11  C   UNL     1      -9.012   6.100  -0.181  1.00  0.00     0.004 C 
ENDBRANCH   9  10
ENDBRANCH   8   9
ENDBRANCH   1   8
TORSDOF 6
ENDMDL
MODEL 4
REMARK VINA RESULT:    -3.947      1.625      3.387
REMARK INTER + INTRA:          -5.913
REMARK INTER:                  -5.373
REMARK INTRA:                  -0.540
REMARK UNBOUND:                -0.582
REMARK SMILES CCCCCCC=CC(=O)[O-]
REMARK SMILES IDX 5 1 6 2 7 3 8 4 9 5 10 6 11 7 4 8 3 9 2 10 1 11
REMARK H PARENT
REMARK Flexibility Score: inf
ROOT
ATOM      1  C   UNL     1      -8.178   4.312  -3.168  1.00  0.00     0.004 C 
ENDROOT
BRANCH   1   2
ATOM      2  C   UNL     1      -6.663   4.067  -3.260  1.00  0.00     0.027 C 
BRANCH   2   3
ATOM      3  C   UNL     1      -6.052   4.853  -4.389  1.00  0.00    -0.025 C 
ATOM      4  C   UNL     1      -5.420   4.338  -5.457  1.00  0.00     0.020 C 
BRANCH   4   5
ATOM      5  C   UNL     1      -5.225   2.904  -5.761  1.00  0.00     0.064 C 
ATOM      6  O   UNL     1      -6.177   2.158  -6.107  1.00  0.00    -0.545 OA
ATOM      7  O   UNL     1      -3.947   2.370  -5.680  1.00  0.00    -0.545 OA
ENDBRANCH   4   5
ENDBRANCH   2   3
ENDBRANCH   1   2
BRANCH   1   8
ATOM      8  C   UNL     1      -9.000   3.194  -3.831  1.00  0.00     0.000 C 
BRANCH   8   9
ATOM      9  C   UNL     1      -9.799   3.632  -5.073  1.00  0.00    -0.000 C 
BRANCH   9  10
ATOM     10  C   UNL     1      -9.961   2.519  -6.131  1.00  0.00    -0.003 C 
ATOM     11  C   UNL     1      -9.516   1.151  -5.616  1.00  0.00     0.004 C 
ENDBRANCH   9  10
ENDBRANCH   8   9
ENDBRANCH   1   8
TORSDOF 6
ENDMDL
MODEL 5
REMARK VINA RESULT:    -3.915     17.215     17.982
REMARK INTER + INTRA:          -5.871
REMARK INTER:                  -5.550
REMARK INTRA:                  -0.321
REMARK UNBOUND:                -0.582
REMARK SMILES CCCCCCC=CC(=O)[O-]
REMARK SMILES IDX 5 1 6 2 7 3 8 4 9 5 10 6 11 7 4 8 3 9 2 10 1 11
REMARK H PARENT
REMARK Flexibility Score: inf
ROOT
ATOM      1  C   UNL     1       8.672   4.463   5.096  1.00  0.00     0.004 C 
ENDROOT
BRANCH   1   2
ATOM      2  C   UNL     1       8.263   3.437   6.165  1.00  0.00     0.027 C 
BRANCH   2   3
ATOM      3  C   UNL     1       7.568   4.104   7.322  1.00  0.00    -0.025 C 
ATOM      4  C   UNL     1       6.691   3.521   8.157  1.00  0.00     0.020 C 
BRANCH   4   5
ATOM      5  C   UNL     1       6.256   2.108   8.136  1.00  0.00     0.064 C 
ATOM      6  O   UNL     1       5.373   1.692   7.343  1.00  0.00    -0.545 OA
ATOM      7  O   UNL     1       6.855   1.210   9.008  1.00  0.00    -0.545 OA
ENDBRANCH   4   5
ENDBRANCH   2   3
ENDBRANCH   1   2
BRANCH   1   8
ATOM      8  C   UNL     1       8.171   5.881   5.412  1.00  0.00     0.000 C 
BRANCH   8   9
ATOM      9  C   UNL     1       8.847   7.000   4.599  1.00  0.00    -0.000 C 
BRANCH   9  10
ATOM     10  C   UNL     1       8.187   7.258   3.227  1.00  0.00    -0.003 C 
ATOM     11  C   UNL     1       9.187   7.739   2.176  1.00  0.00     0.004 C 
ENDBRANCH   9  10
ENDBRANCH   8   9
ENDBRANCH   1   8
TORSDOF 6
ENDMDL
MODEL 6
REMARK VINA RESULT:    -3.883     17.542     18.225
REMARK INTER + INTRA:          -5.828
REMARK INTER:                  -5.402
REMARK INTRA:                  -0.425
REMARK UNBOUND:                -0.582
REMARK SMILES CCCCCCC=CC(=O)[O-]
REMARK SMILES IDX 5 1 6 2 7 3 8 4 9 5 10 6 11 7 4 8 3 9 2 10 1 11
REMARK H PARENT
REMARK Flexibility Score: inf
ROOT
ATOM      1  C   UNL     1       8.259   4.269   7.539  1.00  0.00     0.004 C 
ENDROOT
BRANCH   1   2
ATOM      2  C   UNL     1       6.913   3.573   7.797  1.00  0.00     0.027 C 
BRANCH   2   3
ATOM      3  C   UNL     1       6.924   2.159   7.281  1.00  0.00    -0.025 C 
ATOM      4  C   UNL     1       6.284   1.114   7.833  1.00  0.00     0.020 C 
BRANCH   4   5
ATOM      5  C   UNL     1       5.418   1.141   9.031  1.00  0.00     0.064 C 
ATOM      6  O   UNL     1       5.853   0.865  10.178  1.00  0.00    -0.545 OA
ATOM      7  O   UNL     1       4.085   1.500   8.885  1.00  0.00    -0.545 OA
ENDBRANCH   4   5
ENDBRANCH   2   3
ENDBRANCH   1   2
BRANCH   1   8
ATOM      8  C   UNL     1       8.945   3.777   6.254  1.00  0.00     0.000 C 
BRANCH   8   9
ATOM      9  C   UNL     1       8.706   4.660   5.016  1.00  0.00    -0.000 C 
BRANCH   9  10
ATOM     10  C   UNL     1       8.240   6.093   5.355  1.00  0.00    -0.003 C 
ATOM     11  C   UNL     1       8.219   7.007   4.130  1.00  0.00     0.004 C 
ENDBRANCH   9  10
ENDBRANCH   8   9
ENDBRANCH   1   8
TORSDOF 6
ENDMDL
MODEL 7
REMARK VINA RESULT:    -3.814     11.775     13.416
REMARK INTER + INTRA:          -5.734
REMARK INTER:                  -4.781
REMARK INTRA:                  -0.954
REMARK UNBOUND:                -0.582
REMARK SMILES CCCCCCC=CC(=O)[O-]
REMARK SMILES IDX 5 1 6 2 7 3 8 4 9 5 10 6 11 7 4 8 3 9 2 10 1 11
REMARK H PARENT
REMARK Flexibility Score: inf
ROOT
ATOM      1  C   UNL     1       6.202   2.453  -6.132  1.00  0.00     0.004 C 
ENDROOT
BRANCH   1   2
ATOM      2  C   UNL     1       5.037   3.339  -6.601  1.00  0.00     0.027 C 
BRANCH   2   3
ATOM      3  C   UNL     1       5.537   4.635  -7.182  1.00  0.00    -0.025 C 
ATOM      4  C   UNL     1       5.490   5.837  -6.582  1.00  0.00     0.020 C 
BRANCH   4   5
ATOM      5  C   UNL     1       4.973   6.130  -5.229  1.00  0.00     0.064 C 
ATOM      6  O   UNL     1       3.753   6.348  -5.011  1.00  0.00    -0.545 OA
ATOM      7  O   UNL     1       5.861   6.148  -4.162  1.00  0.00    -0.545 OA
ENDBRANCH   4   5
ENDBRANCH   2   3
ENDBRANCH   1   2
BRANCH   1   8
ATOM      8  C   UNL     1       6.445   2.547  -4.617  1.00  0.00     0.000 C 
BRANCH   8   9
ATOM      9  C   UNL     1       7.817   3.123  -4.219  1.00  0.00    -0.000 C 
BRANCH   9  10
ATOM     10  C   UNL     1       8.671   3.581  -5.420  1.00  0.00    -0.003 C 
ATOM     11  C   UNL     1       8.973   5.079  -5.387  1.00  0.00     0.004 C 
ENDBRANCH   9  10
ENDBRANCH   8   9
ENDBRANCH   1   8
TORSDOF 6
ENDMDL
MODEL 8
REMARK VINA RESULT:    -3.814      3.097      5.178
REMARK INTER + INTRA:          -5.734
REMARK INTER:                  -5.124
REMARK INTRA:                  -0.609
REMARK UNBOUND:                -0.582
REMARK SMILES CCCCCCC=CC(=O)[O-]
REMARK SMILES IDX 5 1 6 2 7 3 8 4 9 5 10 6 11 7 4 8 3 9 2 10 1 11
REMARK H PARENT
REMARK Flexibility Score: inf
ROOT
ATOM      1  C   UNL     1      -5.614   4.438  -5.022  1.00  0.00     0.004 C 
ENDROOT
BRANCH   1   2
ATOM      2  C   UNL     1      -6.369   5.529  -4.245  1.00  0.00     0.027 C 
BRANCH   2   3
ATOM      3  C   UNL     1      -7.081   4.952  -3.051  1.00  0.00    -0.025 C 
ATOM      4  C   UNL     1      -7.322   5.590  -1.892  1.00  0.00     0.020 C 
BRANCH   4   5
ATOM      5  C   UNL     1      -6.970   6.988  -1.564  1.00  0.00     0.064 C 
ATOM      6  O   UNL     1      -7.796   7.930  -1.677  1.00  0.00    -0.545 OA
ATOM      7  O   UNL     1      -5.692   7.266  -1.099  1.00  0.00    -0.545 OA
ENDBRANCH   4   5
ENDBRANCH   2   3
ENDBRANCH   1   2
BRANCH   1   8
ATOM      8  C   UNL     1      -5.632   3.078  -4.305  1.00  0.00     0.000 C 
BRANCH   8   9
ATOM      9  C   UNL     1      -6.123   1.901  -5.167  1.00  0.00    -0.000 C 
BRANCH   9  10
ATOM     10  C   UNL     1      -7.653   1.878  -5.373  1.00  0.00    -0.003 C 
ATOM     11  C   UNL     1      -8.421   1.773  -4.056  1.00  0.00     0.004 C 
ENDBRANCH   9  10
ENDBRANCH   8   9
ENDBRANCH   1   8
TORSDOF 6
ENDMDL
MODEL 9
REMARK VINA RESULT:    -3.723      2.963      4.734
REMARK INTER + INTRA:          -5.611
REMARK INTER:                  -4.981
REMARK INTRA:                  -0.630
REMARK UNBOUND:                -0.582
REMARK SMILES CCCCCCC=CC(=O)[O-]
REMARK SMILES IDX 5 1 6 2 7 3 8 4 9 5 10 6 11 7 4 8 3 9 2 10 1 11
REMARK H PARENT
REMARK Flexibility Score: inf
ROOT
ATOM      1  C   UNL     1      -7.992   3.043  -3.453  1.00  0.00     0.004 C 
ENDROOT
BRANCH   1   2
ATOM      2  C   UNL     1      -7.501   4.360  -2.832  1.00  0.00     0.027 C 
BRANCH   2   3
ATOM      3  C   UNL     1      -6.774   5.203  -3.847  1.00  0.00    -0.025 C 
ATOM      4  C   UNL     1      -6.348   6.464  -3.663  1.00  0.00     0.020 C 
BRANCH   4   5
ATOM      5  C   UNL     1      -6.472   7.268  -2.429  1.00  0.00     0.064 C 
ATOM      6  O   UNL     1      -5.548   7.334  -1.578  1.00  0.00    -0.545 OA
ATOM      7  O   UNL     1      -7.639   7.987  -2.212  1.00  0.00    -0.545 OA
ENDBRANCH   4   5
ENDBRANCH   2   3
ENDBRANCH   1   2
BRANCH   1   8
ATOM      8  C   UNL     1      -7.897   3.039  -4.988  1.00  0.00     0.000 C 
BRANCH   8   9
ATOM      9  C   UNL     1      -7.117   1.851  -5.582  1.00  0.00    -0.000 C 
BRANCH   9  10
ATOM     10  C   UNL     1      -5.593   1.930  -5.349  1.00  0.00    -0.003 C 
ATOM     11  C   UNL     1      -4.927   3.020  -6.190  1.00  0.00     0.004 C 
ENDBRANCH   9  10
ENDBRANCH   8   9
ENDBRANCH   1   8
TORSDOF 6
ENDMDL
