MODEL 1
REMARK VINA RESULT:    -5.495      0.000      0.000
REMARK INTER + INTRA:          -5.655
REMARK INTER:                  -5.655
REMARK INTRA:                   0.000
REMARK UNBOUND:                 0.000
REMARK SMILES Cc1cccc(O)c1C
REMARK SMILES IDX 1 1 2 2 8 3 6 4 5 5 4 6 3 7 9 8 7 9
REMARK H PARENT 7 10
REMARK Flexibility Score: inf
ROOT
ATOM      1  C   UNL     1     -29.837  17.951  55.844  1.00  0.00     0.045 C 
ATOM      2  C   UNL     1     -28.804  17.960  56.941  1.00  0.00    -0.045 A 
ATOM      3  C   UNL     1     -28.997  18.676  58.156  1.00  0.00    -0.006 A 
ATOM      4  C   UNL     1     -27.981  18.640  59.145  1.00  0.00     0.118 A 
ATOM      5  C   UNL     1     -26.812  17.907  58.921  1.00  0.00     0.046 A 
ATOM      6  C   UNL     1     -26.630  17.210  57.730  1.00  0.00     0.004 A 
ATOM      7  C   UNL     1     -27.616  17.235  56.747  1.00  0.00     0.004 A 
ATOM      8  C   UNL     1     -30.254  19.473  58.419  1.00  0.00     0.048 C 
ENDROOT
BRANCH   4   9
ATOM      9  O   UNL     1     -28.103  19.317  60.361  1.00  0.00    -0.508 OA
ATOM     10  H   UNL     1     -28.839  19.136  61.030  1.00  0.00     0.293 HD
ENDBRANCH   4   9
TORSDOF 1
ENDMDL
MODEL 2
REMARK VINA RESULT:    -5.464      2.817      4.138
REMARK INTER + INTRA:          -5.624
REMARK INTER:                  -5.624
REMARK INTRA:                   0.000
REMARK UNBOUND:                 0.000
REMARK SMILES Cc1cccc(O)c1C
REMARK SMILES IDX 1 1 2 2 8 3 6 4 5 5 4 6 3 7 9 8 7 9
REMARK H PARENT 7 10
REMARK Flexibility Score: inf
ROOT
ATOM      1  C   UNL     1     -29.559  20.823  57.660  1.00  0.00     0.045 C 
ATOM      2  C   UNL     1     -29.109  20.145  56.391  1.00  0.00    -0.045 A 
ATOM      3  C   UNL     1     -28.045  19.200  56.376  1.00  0.00    -0.006 A 
ATOM      4  C   UNL     1     -27.675  18.601  55.144  1.00  0.00     0.118 A 
ATOM      5  C   UNL     1     -28.352  18.939  53.970  1.00  0.00     0.046 A 
ATOM      6  C   UNL     1     -29.392  19.865  53.993  1.00  0.00     0.004 A 
ATOM      7  C   UNL     1     -29.769  20.464  55.192  1.00  0.00     0.004 A 
ATOM      8  C   UNL     1     -27.300  18.819  57.634  1.00  0.00     0.048 C 
ENDROOT
BRANCH   4   9
ATOM      9  O   UNL     1     -26.641  17.666  55.054  1.00  0.00    -0.508 OA
ATOM     10  H   UNL     1     -26.795  16.673  54.938  1.00  0.00     0.293 HD
ENDBRANCH   4   9
TORSDOF 1
ENDMDL
MODEL 3
REMARK VINA RESULT:    -5.438      2.357      3.126
REMARK INTER + INTRA:          -5.597
REMARK INTER:                  -5.597
REMARK INTRA:                   0.000
REMARK UNBOUND:                 0.000
REMARK SMILES Cc1cccc(O)c1C
REMARK SMILES IDX 1 1 2 2 8 3 6 4 5 5 4 6 3 7 9 8 7 9
REMARK H PARENT 7 10
REMARK Flexibility Score: inf
ROOT
ATOM      1  C   UNL     1     -30.314  20.058  57.092  1.00  0.00     0.045 C 
ATOM      2  C   UNL     1     -29.126  19.130  57.070  1.00  0.00    -0.045 A 
ATOM      3  C   UNL     1     -28.392  18.871  55.879  1.00  0.00    -0.006 A 
ATOM      4  C   UNL     1     -27.284  17.987  55.932  1.00  0.00     0.118 A 
ATOM      5  C   UNL     1     -26.926  17.386  57.142  1.00  0.00     0.046 A 
ATOM      6  C   UNL     1     -27.649  17.644  58.303  1.00  0.00     0.004 A 
ATOM      7  C   UNL     1     -28.740  18.509  58.270  1.00  0.00     0.004 A 
ATOM      8  C   UNL     1     -28.761  19.511  54.560  1.00  0.00     0.048 C 
ENDROOT
BRANCH   4   9
ATOM      9  O   UNL     1     -26.518  17.686  54.804  1.00  0.00    -0.508 OA
ATOM     10  H   UNL     1     -26.872  17.739  53.858  1.00  0.00     0.293 HD
ENDBRANCH   4   9
TORSDOF 1
ENDMDL
MODEL 4
REMARK VINA RESULT:    -5.376      2.738      3.788
REMARK INTER + INTRA:          -5.533
REMARK INTER:                  -5.533
REMARK INTRA:                   0.000
REMARK UNBOUND:                 0.000
REMARK SMILES Cc1cccc(O)c1C
REMARK SMILES IDX 1 1 2 2 8 3 6 4 5 5 4 6 3 7 9 8 7 9
REMARK H PARENT 7 10
REMARK Flexibility Score: inf
ROOT
ATOM      1  C   UNL     1     -27.738  18.609  58.047  1.00  0.00     0.045 C 
ATOM      2  C   UNL     1     -28.377  19.119  56.781  1.00  0.00    -0.045 A 
ATOM      3  C   UNL     1     -29.260  20.235  56.777  1.00  0.00    -0.006 A 
ATOM      4  C   UNL     1     -29.826  20.661  55.548  1.00  0.00     0.118 A 
ATOM      5  C   UNL     1     -29.512  19.989  54.364  1.00  0.00     0.046 A 
ATOM      6  C   UNL     1     -28.647  18.898  54.375  1.00  0.00     0.004 A 
ATOM      7  C   UNL     1     -28.084  18.466  55.572  1.00  0.00     0.004 A 
ATOM      8  C   UNL     1     -29.612  20.977  58.046  1.00  0.00     0.048 C 
ENDROOT
BRANCH   4   9
ATOM      9  O   UNL     1     -30.700  21.748  55.468  1.00  0.00    -0.508 OA
ATOM     10  H   UNL     1     -30.518  22.571  54.908  1.00  0.00     0.293 HD
ENDBRANCH   4   9
TORSDOF 1
ENDMDL
MODEL 5
REMARK VINA RESULT:    -5.342      2.751      3.801
REMARK INTER + INTRA:          -5.498
REMARK INTER:                  -5.498
REMARK INTRA:                   0.000
REMARK UNBOUND:                 0.000
REMARK SMILES Cc1cccc(O)c1C
REMARK SMILES IDX 1 1 2 2 8 3 6 4 5 5 4 6 3 7 9 8 7 9
REMARK H PARENT 7 10
REMARK Flexibility Score: inf
ROOT
ATOM      1  C   UNL     1     -27.330  18.002  55.351  1.00  0.00     0.045 C 
ATOM      2  C   UNL     1     -28.147  19.047  56.067  1.00  0.00    -0.045 A 
ATOM      3  C   UNL     1     -29.059  19.895  55.378  1.00  0.00    -0.006 A 
ATOM      4  C   UNL     1     -29.796  20.857  56.116  1.00  0.00     0.118 A 
ATOM      5  C   UNL     1     -29.622  20.960  57.499  1.00  0.00     0.046 A 
ATOM      6  C   UNL     1     -28.729  20.127  58.166  1.00  0.00     0.004 A 
ATOM      7  C   UNL     1     -27.996  19.178  57.458  1.00  0.00     0.004 A 
ATOM      8  C   UNL     1     -29.263  19.800  53.883  1.00  0.00     0.048 C 
ENDROOT
BRANCH   4   9
ATOM      9  O   UNL     1     -30.708  21.722  55.508  1.00  0.00    -0.508 OA
ATOM     10  H   UNL     1     -30.534  22.187  54.626  1.00  0.00     0.293 HD
ENDBRANCH   4   9
TORSDOF 1
ENDMDL
MODEL 6
REMARK VINA RESULT:    -5.332      7.613      8.858
REMARK INTER + INTRA:          -5.487
REMARK INTER:                  -5.487
REMARK INTRA:                   0.000
REMARK UNBOUND:                 0.000
REMARK SMILES Cc1cccc(O)c1C
REMARK SMILES IDX 1 1 2 2 8 3 6 4 5 5 4 6 3 7 9 8 7 9
REMARK H PARENT 7 10
REMARK Flexibility Score: inf
ROOT
ATOM      1  C   UNL     1     -33.123  15.322  58.068  1.00  0.00     0.045 C 
ATOM      2  C   UNL     1     -34.447  14.628  57.878  1.00  0.00    -0.045 A 
ATOM      3  C   UNL     1     -35.131  14.635  56.629  1.00  0.00    -0.006 A 
ATOM      4  C   UNL     1     -36.374  13.959  56.522  1.00  0.00     0.118 A 
ATOM      5  C   UNL     1     -36.910  13.300  57.631  1.00  0.00     0.046 A 
ATOM      6  C   UNL     1     -36.236  13.297  58.849  1.00  0.00     0.004 A 
ATOM      7  C   UNL     1     -35.015  13.956  58.973  1.00  0.00     0.004 A 
ATOM      8  C   UNL     1     -34.569  15.341  55.417  1.00  0.00     0.048 C 
ENDROOT
BRANCH   4   9
ATOM      9  O   UNL     1     -37.100  13.924  55.329  1.00  0.00    -0.508 OA
ATOM     10  H   UNL     1     -36.980  13.208  54.623  1.00  0.00     0.293 HD
ENDBRANCH   4   9
TORSDOF 1
ENDMDL
MODEL 7
REMARK VINA RESULT:    -5.310      2.563      4.138
REMARK INTER + INTRA:          -5.465
REMARK INTER:                  -5.465
REMARK INTRA:                   0.000
REMARK UNBOUND:                 0.000
REMARK SMILES Cc1cccc(O)c1C
REMARK SMILES IDX 1 1 2 2 8 3 6 4 5 5 4 6 3 7 9 8 7 9
REMARK H PARENT 7 10
REMARK Flexibility Score: inf
ROOT
ATOM      1  C   UNL     1     -27.176  18.740  58.262  1.00  0.00     0.045 C 
ATOM      2  C   UNL     1     -28.386  19.622  58.093  1.00  0.00    -0.045 A 
ATOM      3  C   UNL     1     -28.741  20.185  56.834  1.00  0.00    -0.006 A 
ATOM      4  C   UNL     1     -29.894  21.007  56.748  1.00  0.00     0.118 A 
ATOM      5  C   UNL     1     -30.665  21.252  57.888  1.00  0.00     0.046 A 
ATOM      6  C   UNL     1     -30.311  20.698  59.116  1.00  0.00     0.004 A 
ATOM      7  C   UNL     1     -29.182  19.890  59.219  1.00  0.00     0.004 A 
ATOM      8  C   UNL     1     -27.922  19.932  55.589  1.00  0.00     0.048 C 
ENDROOT
BRANCH   4   9
ATOM      9  O   UNL     1     -30.302  21.592  55.548  1.00  0.00    -0.508 OA
ATOM     10  H   UNL     1     -30.336  21.095  54.667  1.00  0.00     0.293 HD
ENDBRANCH   4   9
TORSDOF 1
ENDMDL
MODEL 8
REMARK VINA RESULT:    -5.297      1.250      2.874
REMARK INTER + INTRA:          -5.452
REMARK INTER:                  -5.452
REMARK INTRA:                   0.000
REMARK UNBOUND:                 0.000
REMARK SMILES Cc1cccc(O)c1C
REMARK SMILES IDX 1 1 2 2 8 3 6 4 5 5 4 6 3 7 9 8 7 9
REMARK H PARENT 7 10
REMARK Flexibility Score: inf
ROOT
ATOM      1  C   UNL     1     -28.359  18.670  55.403  1.00  0.00     0.045 C 
ATOM      2  C   UNL     1     -28.832  19.241  56.716  1.00  0.00    -0.045 A 
ATOM      3  C   UNL     1     -28.194  18.927  57.949  1.00  0.00    -0.006 A 
ATOM      4  C   UNL     1     -28.693  19.502  59.147  1.00  0.00     0.118 A 
ATOM      5  C   UNL     1     -29.793  20.362  59.105  1.00  0.00     0.046 A 
ATOM      6  C   UNL     1     -30.412  20.664  57.895  1.00  0.00     0.004 A 
ATOM      7  C   UNL     1     -29.937  20.109  56.709  1.00  0.00     0.004 A 
ATOM      8  C   UNL     1     -27.002  18.000  58.017  1.00  0.00     0.048 C 
ENDROOT
BRANCH   4   9
ATOM      9  O   UNL     1     -28.117  19.240  60.392  1.00  0.00    -0.508 OA
ATOM     10  H   UNL     1     -28.630  18.854  61.174  1.00  0.00     0.293 HD
ENDBRANCH   4   9
TORSDOF 1
ENDMDL
MODEL 9
REMARK VINA RESULT:    -5.241      7.466      8.649
REMARK INTER + INTRA:          -5.395
REMARK INTER:                  -5.395
REMARK INTRA:                   0.000
REMARK UNBOUND:                 0.000
REMARK SMILES Cc1cccc(O)c1C
REMARK SMILES IDX 1 1 2 2 8 3 6 4 5 5 4 6 3 7 9 8 7 9
REMARK H PARENT 7 10
REMARK Flexibility Score: inf
ROOT
ATOM      1  C   UNL     1     -33.909  14.954  59.778  1.00  0.00     0.045 C 
ATOM      2  C   UNL     1     -34.493  14.728  58.408  1.00  0.00    -0.045 A 
ATOM      3  C   UNL     1     -35.565  13.819  58.184  1.00  0.00    -0.006 A 
ATOM      4  C   UNL     1     -36.066  13.657  56.867  1.00  0.00     0.118 A 
ATOM      5  C   UNL     1     -35.508  14.383  55.811  1.00  0.00     0.046 A 
ATOM      6  C   UNL     1     -34.458  15.269  56.038  1.00  0.00     0.004 A 
ATOM      7  C   UNL     1     -33.954  15.442  57.324  1.00  0.00     0.004 A 
ATOM      8  C   UNL     1     -36.185  13.025  59.311  1.00  0.00     0.048 C 
ENDROOT
BRANCH   4   9
ATOM      9  O   UNL     1     -37.116  12.784  56.573  1.00  0.00    -0.508 OA
ATOM     10  H   UNL     1     -37.831  12.981  55.884  1.00  0.00     0.293 HD
ENDBRANCH   4   9
TORSDOF 1
ENDMDL
