MODEL 1
REMARK VINA RESULT:    -4.941      0.000      0.000
REMARK INTER + INTRA:          -6.021
REMARK INTER:                  -5.663
REMARK INTRA:                  -0.358
REMARK UNBOUND:                -0.358
REMARK SMILES COC(=O)c1ccccc1O
REMARK SMILES IDX 5 1 6 2 7 3 8 4 9 5 10 6 3 7 4 8 2 9 1 10 11 11
REMARK H PARENT 11 12
REMARK Flexibility Score: inf
ROOT
ATOM      1  C   UNL     1       1.192 -20.492  -5.583  1.00  0.00     0.101 A 
ATOM      2  C   UNL     1       0.540 -21.736  -5.684  1.00  0.00     0.019 A 
ATOM      3  C   UNL     1       0.529 -22.440  -6.890  1.00  0.00     0.001 A 
ATOM      4  C   UNL     1       1.166 -21.915  -8.013  1.00  0.00     0.004 A 
ATOM      5  C   UNL     1       1.818 -20.684  -7.934  1.00  0.00     0.047 A 
ATOM      6  C   UNL     1       1.837 -19.965  -6.728  1.00  0.00     0.130 A 
ENDROOT
BRANCH   1   7
ATOM      7  C   UNL     1       1.183 -19.771  -4.284  1.00  0.00     0.341 C 
ATOM      8  O   UNL     1       0.108 -19.607  -3.647  1.00  0.00    -0.246 OA
BRANCH   7   9
ATOM      9  O   UNL     1       2.382 -19.270  -3.762  1.00  0.00    -0.465 OA
ATOM     10  C   UNL     1       3.432 -20.114  -3.303  1.00  0.00     0.282 C 
ENDBRANCH   7   9
ENDBRANCH   1   7
BRANCH   6  11
ATOM     11  O   UNL     1       2.496 -18.737  -6.676  1.00  0.00    -0.507 OA
ATOM     12  H   UNL     1       2.592 -18.220  -5.811  1.00  0.00     0.293 HD
ENDBRANCH   6  11
TORSDOF 3
ENDMDL
MODEL 2
REMARK VINA RESULT:    -4.597      1.229      2.341
REMARK INTER + INTRA:          -5.627
REMARK INTER:                  -5.297
REMARK INTRA:                  -0.330
REMARK UNBOUND:                -0.358
REMARK SMILES COC(=O)c1ccccc1O
REMARK SMILES IDX 5 1 6 2 7 3 8 4 9 5 10 6 3 7 4 8 2 9 1 10 11 11
REMARK H PARENT 11 12
REMARK Flexibility Score: inf
ROOT
ATOM      1  C   UNL     1       1.558 -20.042  -6.115  1.00  0.00     0.101 A 
ATOM      2  C   UNL     1       2.011 -20.200  -7.439  1.00  0.00     0.019 A 
ATOM      3  C   UNL     1       1.690 -21.345  -8.171  1.00  0.00     0.001 A 
ATOM      4  C   UNL     1       0.912 -22.349  -7.595  1.00  0.00     0.004 A 
ATOM      5  C   UNL     1       0.454 -22.211  -6.285  1.00  0.00     0.047 A 
ATOM      6  C   UNL     1       0.769 -21.065  -5.537  1.00  0.00     0.130 A 
ENDROOT
BRANCH   1   7
ATOM      7  C   UNL     1       1.920 -18.809  -5.367  1.00  0.00     0.341 C 
ATOM      8  O   UNL     1       1.800 -17.674  -5.902  1.00  0.00    -0.246 OA
BRANCH   7   9
ATOM      9  O   UNL     1       2.399 -18.912  -4.056  1.00  0.00    -0.465 OA
ATOM     10  C   UNL     1       1.975 -18.041  -3.013  1.00  0.00     0.282 C 
ENDBRANCH   7   9
ENDBRANCH   1   7
BRANCH   6  11
ATOM     11  O   UNL     1       0.298 -20.952  -4.229  1.00  0.00    -0.507 OA
ATOM     12  H   UNL     1      -0.629 -20.597  -4.026  1.00  0.00     0.293 HD
ENDBRANCH   6  11
TORSDOF 3
ENDMDL
MODEL 3
REMARK VINA RESULT:    -4.504     11.684     13.195
REMARK INTER + INTRA:          -5.521
REMARK INTER:                  -5.194
REMARK INTRA:                  -0.327
REMARK UNBOUND:                -0.358
REMARK SMILES COC(=O)c1ccccc1O
REMARK SMILES IDX 5 1 6 2 7 3 8 4 9 5 10 6 3 7 4 8 2 9 1 10 11 11
REMARK H PARENT 11 12
REMARK Flexibility Score: inf
ROOT
ATOM      1  C   UNL     1      -6.793 -29.454  -2.115  1.00  0.00     0.101 A 
ATOM      2  C   UNL     1      -6.539 -28.435  -1.177  1.00  0.00     0.019 A 
ATOM      3  C   UNL     1      -5.718 -27.353  -1.504  1.00  0.00     0.001 A 
ATOM      4  C   UNL     1      -5.138 -27.272  -2.769  1.00  0.00     0.004 A 
ATOM      5  C   UNL     1      -5.376 -28.271  -3.712  1.00  0.00     0.047 A 
ATOM      6  C   UNL     1      -6.200 -29.364  -3.398  1.00  0.00     0.130 A 
ENDROOT
BRANCH   1   7
ATOM      7  C   UNL     1      -7.672 -30.590  -1.733  1.00  0.00     0.341 C 
ATOM      8  O   UNL     1      -7.393 -31.312  -0.737  1.00  0.00    -0.246 OA
BRANCH   7   9
ATOM      9  O   UNL     1      -8.820 -30.860  -2.486  1.00  0.00    -0.465 OA
ATOM     10  C   UNL     1      -9.991 -30.053  -2.418  1.00  0.00     0.282 C 
ENDBRANCH   7   9
ENDBRANCH   1   7
BRANCH   6  11
ATOM     11  O   UNL     1      -6.423 -30.349  -4.360  1.00  0.00    -0.507 OA
ATOM     12  H   UNL     1      -6.641 -30.116  -5.321  1.00  0.00     0.293 HD
ENDBRANCH   6  11
TORSDOF 3
ENDMDL
MODEL 4
REMARK VINA RESULT:    -4.459      1.664      2.255
REMARK INTER + INTRA:          -5.469
REMARK INTER:                  -5.111
REMARK INTRA:                  -0.358
REMARK UNBOUND:                -0.358
REMARK SMILES COC(=O)c1ccccc1O
REMARK SMILES IDX 5 1 6 2 7 3 8 4 9 5 10 6 3 7 4 8 2 9 1 10 11 11
REMARK H PARENT 11 12
REMARK Flexibility Score: inf
ROOT
ATOM      1  C   UNL     1       1.632 -20.156  -6.366  1.00  0.00     0.101 A 
ATOM      2  C   UNL     1       0.912 -20.664  -5.268  1.00  0.00     0.019 A 
ATOM      3  C   UNL     1       0.238 -21.884  -5.359  1.00  0.00     0.001 A 
ATOM      4  C   UNL     1       0.272 -22.615  -6.545  1.00  0.00     0.004 A 
ATOM      5  C   UNL     1       0.980 -22.130  -7.645  1.00  0.00     0.047 A 
ATOM      6  C   UNL     1       1.662 -20.905  -7.568  1.00  0.00     0.130 A 
ENDROOT
BRANCH   1   7
ATOM      7  C   UNL     1       2.337 -18.855  -6.232  1.00  0.00     0.341 C 
ATOM      8  O   UNL     1       1.750 -17.854  -5.740  1.00  0.00    -0.246 OA
BRANCH   7   9
ATOM      9  O   UNL     1       3.666 -18.740  -6.658  1.00  0.00    -0.465 OA
ATOM     10  C   UNL     1       4.742 -19.397  -5.998  1.00  0.00     0.282 C 
ENDBRANCH   7   9
ENDBRANCH   1   7
BRANCH   6  11
ATOM     11  O   UNL     1       2.363 -20.443  -8.681  1.00  0.00    -0.507 OA
ATOM     12  H   UNL     1       2.990 -19.650  -8.625  1.00  0.00     0.293 HD
ENDBRANCH   6  11
TORSDOF 3
ENDMDL
MODEL 5
REMARK VINA RESULT:    -4.441     10.149     11.271
REMARK INTER + INTRA:          -5.448
REMARK INTER:                  -5.169
REMARK INTRA:                  -0.279
REMARK UNBOUND:                -0.358
REMARK SMILES COC(=O)c1ccccc1O
REMARK SMILES IDX 5 1 6 2 7 3 8 4 9 5 10 6 3 7 4 8 2 9 1 10 11 11
REMARK H PARENT 11 12
REMARK Flexibility Score: inf
ROOT
ATOM      1  C   UNL     1      -7.181 -26.553  -3.020  1.00  0.00     0.101 A 
ATOM      2  C   UNL     1      -5.824 -26.783  -2.722  1.00  0.00     0.019 A 
ATOM      3  C   UNL     1      -5.191 -27.957  -3.137  1.00  0.00     0.001 A 
ATOM      4  C   UNL     1      -5.901 -28.917  -3.856  1.00  0.00     0.004 A 
ATOM      5  C   UNL     1      -7.246 -28.709  -4.162  1.00  0.00     0.047 A 
ATOM      6  C   UNL     1      -7.895 -27.534  -3.751  1.00  0.00     0.130 A 
ENDROOT
BRANCH   1   7
ATOM      7  C   UNL     1      -7.822 -25.293  -2.562  1.00  0.00     0.341 C 
ATOM      8  O   UNL     1      -9.004 -25.295  -2.123  1.00  0.00    -0.246 OA
BRANCH   7   9
ATOM      9  O   UNL     1      -7.105 -24.092  -2.618  1.00  0.00    -0.465 OA
ATOM     10  C   UNL     1      -7.456 -22.951  -1.844  1.00  0.00     0.282 C 
ENDBRANCH   7   9
ENDBRANCH   1   7
BRANCH   6  11
ATOM     11  O   UNL     1      -9.240 -27.350  -4.070  1.00  0.00    -0.507 OA
ATOM     12  H   UNL     1      -9.709 -27.928  -4.756  1.00  0.00     0.293 HD
ENDBRANCH   6  11
TORSDOF 3
ENDMDL
MODEL 6
REMARK VINA RESULT:    -4.396     12.229     14.867
REMARK INTER + INTRA:          -5.397
REMARK INTER:                  -5.055
REMARK INTRA:                  -0.342
REMARK UNBOUND:                -0.358
REMARK SMILES COC(=O)c1ccccc1O
REMARK SMILES IDX 5 1 6 2 7 3 8 4 9 5 10 6 3 7 4 8 2 9 1 10 11 11
REMARK H PARENT 11 12
REMARK Flexibility Score: inf
ROOT
ATOM      1  C   UNL     1       6.021 -24.285   7.345  1.00  0.00     0.101 A 
ATOM      2  C   UNL     1       5.664 -23.151   8.100  1.00  0.00     0.019 A 
ATOM      3  C   UNL     1       5.169 -23.285   9.399  1.00  0.00     0.001 A 
ATOM      4  C   UNL     1       5.023 -24.551   9.964  1.00  0.00     0.004 A 
ATOM      5  C   UNL     1       5.370 -25.687   9.234  1.00  0.00     0.047 A 
ATOM      6  C   UNL     1       5.869 -25.567   7.926  1.00  0.00     0.130 A 
ENDROOT
BRANCH   1   7
ATOM      7  C   UNL     1       6.544 -24.104   5.966  1.00  0.00     0.341 C 
ATOM      8  O   UNL     1       7.321 -23.149   5.693  1.00  0.00    -0.246 OA
BRANCH   7   9
ATOM      9  O   UNL     1       6.171 -25.003   4.960  1.00  0.00    -0.465 OA
ATOM     10  C   UNL     1       4.932 -24.908   4.266  1.00  0.00     0.282 C 
ENDBRANCH   7   9
ENDBRANCH   1   7
BRANCH   6  11
ATOM     11  O   UNL     1       6.210 -26.719   7.218  1.00  0.00    -0.507 OA
ATOM     12  H   UNL     1       6.932 -26.714   6.508  1.00  0.00     0.293 HD
ENDBRANCH   6  11
TORSDOF 3
ENDMDL
MODEL 7
REMARK VINA RESULT:    -4.393      1.345      2.662
REMARK INTER + INTRA:          -5.394
REMARK INTER:                  -5.069
REMARK INTRA:                  -0.325
REMARK UNBOUND:                -0.358
REMARK SMILES COC(=O)c1ccccc1O
REMARK SMILES IDX 5 1 6 2 7 3 8 4 9 5 10 6 3 7 4 8 2 9 1 10 11 11
REMARK H PARENT 11 12
REMARK Flexibility Score: inf
ROOT
ATOM      1  C   UNL     1       2.009 -19.992  -6.588  1.00  0.00     0.101 A 
ATOM      2  C   UNL     1       2.004 -20.643  -7.837  1.00  0.00     0.019 A 
ATOM      3  C   UNL     1       1.255 -21.805  -8.032  1.00  0.00     0.001 A 
ATOM      4  C   UNL     1       0.500 -22.335  -6.987  1.00  0.00     0.004 A 
ATOM      5  C   UNL     1       0.491 -21.705  -5.742  1.00  0.00     0.047 A 
ATOM      6  C   UNL     1       1.240 -20.536  -5.531  1.00  0.00     0.130 A 
ENDROOT
BRANCH   1   7
ATOM      7  C   UNL     1       2.818 -18.757  -6.417  1.00  0.00     0.341 C 
ATOM      8  O   UNL     1       2.299 -17.708  -5.949  1.00  0.00    -0.246 OA
BRANCH   7   9
ATOM      9  O   UNL     1       4.171 -18.760  -6.779  1.00  0.00    -0.465 OA
ATOM     10  C   UNL     1       5.147 -19.536  -6.095  1.00  0.00     0.282 C 
ENDBRANCH   7   9
ENDBRANCH   1   7
BRANCH   6  11
ATOM     11  O   UNL     1       1.213 -19.925  -4.278  1.00  0.00    -0.507 OA
ATOM     12  H   UNL     1       0.350 -19.802  -3.763  1.00  0.00     0.293 HD
ENDBRANCH   6  11
TORSDOF 3
ENDMDL
MODEL 8
REMARK VINA RESULT:    -4.329     10.509     12.092
REMARK INTER + INTRA:          -5.320
REMARK INTER:                  -5.024
REMARK INTRA:                  -0.296
REMARK UNBOUND:                -0.358
REMARK SMILES COC(=O)c1ccccc1O
REMARK SMILES IDX 5 1 6 2 7 3 8 4 9 5 10 6 3 7 4 8 2 9 1 10 11 11
REMARK H PARENT 11 12
REMARK Flexibility Score: inf
ROOT
ATOM      1  C   UNL     1      -7.753 -27.427  -2.996  1.00  0.00     0.101 A 
ATOM      2  C   UNL     1      -7.564 -28.668  -3.634  1.00  0.00     0.019 A 
ATOM      3  C   UNL     1      -6.278 -29.147  -3.894  1.00  0.00     0.001 A 
ATOM      4  C   UNL     1      -5.163 -28.398  -3.521  1.00  0.00     0.004 A 
ATOM      5  C   UNL     1      -5.329 -27.166  -2.888  1.00  0.00     0.047 A 
ATOM      6  C   UNL     1      -6.615 -26.671  -2.621  1.00  0.00     0.130 A 
ENDROOT
BRANCH   1   7
ATOM      7  C   UNL     1      -9.136 -26.948  -2.736  1.00  0.00     0.341 C 
ATOM      8  O   UNL     1      -9.449 -26.467  -1.613  1.00  0.00    -0.246 OA
BRANCH   7   9
ATOM      9  O   UNL     1     -10.099 -27.032  -3.748  1.00  0.00    -0.465 OA
ATOM     10  C   UNL     1     -10.538 -25.897  -4.487  1.00  0.00     0.282 C 
ENDBRANCH   7   9
ENDBRANCH   1   7
BRANCH   6  11
ATOM     11  O   UNL     1      -6.753 -25.438  -1.986  1.00  0.00    -0.507 OA
ATOM     12  H   UNL     1      -6.153 -25.163  -1.218  1.00  0.00     0.293 HD
ENDBRANCH   6  11
TORSDOF 3
ENDMDL
MODEL 9
REMARK VINA RESULT:    -4.200     13.824     15.445
REMARK INTER + INTRA:          -5.172
REMARK INTER:                  -4.828
REMARK INTRA:                  -0.343
REMARK UNBOUND:                -0.358
REMARK SMILES COC(=O)c1ccccc1O
REMARK SMILES IDX 5 1 6 2 7 3 8 4 9 5 10 6 3 7 4 8 2 9 1 10 11 11
REMARK H PARENT 11 12
REMARK Flexibility Score: inf
ROOT
ATOM      1  C   UNL     1       4.905 -25.240   7.726  1.00  0.00     0.101 A 
ATOM      2  C   UNL     1       5.011 -23.875   7.397  1.00  0.00     0.019 A 
ATOM      3  C   UNL     1       5.199 -22.914   8.392  1.00  0.00     0.001 A 
ATOM      4  C   UNL     1       5.283 -23.298   9.730  1.00  0.00     0.004 A 
ATOM      5  C   UNL     1       5.181 -24.645  10.077  1.00  0.00     0.047 A 
ATOM      6  C   UNL     1       4.992 -25.623   9.087  1.00  0.00     0.130 A 
ENDROOT
BRANCH   1   7
ATOM      7  C   UNL     1       4.706 -26.235   6.640  1.00  0.00     0.341 C 
ATOM      8  O   UNL     1       5.536 -26.331   5.696  1.00  0.00    -0.246 OA
BRANCH   7   9
ATOM      9  O   UNL     1       3.586 -27.074   6.667  1.00  0.00    -0.465 OA
ATOM     10  C   UNL     1       2.253 -26.577   6.622  1.00  0.00     0.282 C 
ENDBRANCH   7   9
ENDBRANCH   1   7
BRANCH   6  11
ATOM     11  O   UNL     1       4.894 -26.963   9.460  1.00  0.00    -0.507 OA
ATOM     12  H   UNL     1       4.382 -27.250  10.286  1.00  0.00     0.293 HD
ENDBRANCH   6  11
TORSDOF 3
ENDMDL
