MODEL 1
REMARK VINA RESULT:    -3.471      0.000      0.000
REMARK INTER + INTRA:          -4.517
REMARK INTER:                  -4.181
REMARK INTRA:                  -0.336
REMARK UNBOUND:                -0.336
REMARK SMILES NC(=O)C[C@H]([NH3+])C(=O)[O-]
REMARK SMILES IDX 4 1 5 2 6 3 7 7 8 8 9 9 2 10 3 11 1 12
REMARK H PARENT 6 4 6 5 6 6 1 13 1 14
REMARK Flexibility Score: inf
ROOT
ATOM      1  C   UNL     1       7.077  19.549  12.247  1.00  0.00     0.171 C 
ENDROOT
BRANCH   1   2
ATOM      2  C   UNL     1       7.720  18.779  11.076  1.00  0.00     0.237 C 
BRANCH   2   3
ATOM      3  N   UNL     1       6.808  18.737   9.927  1.00  0.00    -0.350 N 
ATOM      4  H   UNL     1       7.348  18.549   9.051  1.00  0.00     0.345 HD
ATOM      5  H   UNL     1       6.328  19.661   9.822  1.00  0.00     0.345 HD
ATOM      6  H   UNL     1       6.086  17.990  10.054  1.00  0.00     0.345 HD
ENDBRANCH   2   3
BRANCH   2   7
ATOM      7  C   UNL     1       8.099  17.380  11.490  1.00  0.00     0.100 C 
ATOM      8  O   UNL     1       8.248  17.090  12.707  1.00  0.00    -0.544 OA
ATOM      9  O   UNL     1       8.302  16.402  10.524  1.00  0.00    -0.544 OA
ENDBRANCH   2   7
ENDBRANCH   1   2
BRANCH   1  10
ATOM     10  C   UNL     1       5.581  19.581  12.133  1.00  0.00     0.223 C 
ATOM     11  O   UNL     1       4.919  18.516  12.253  1.00  0.00    -0.275 OA
ATOM     12  N   UNL     1       4.899  20.818  11.925  1.00  0.00    -0.369 N 
ATOM     13  H   UNL     1       3.857  20.841  11.859  1.00  0.00     0.159 HD
ATOM     14  H   UNL     1       5.432  21.711  11.839  1.00  0.00     0.159 HD
ENDBRANCH   1  10
TORSDOF 4
ENDMDL
MODEL 2
REMARK VINA RESULT:    -3.409      7.924      8.608
REMARK INTER + INTRA:          -4.443
REMARK INTER:                  -4.114
REMARK INTRA:                  -0.329
REMARK UNBOUND:                -0.336
REMARK SMILES NC(=O)C[C@H]([NH3+])C(=O)[O-]
REMARK SMILES IDX 4 1 5 2 6 3 7 7 8 8 9 9 2 10 3 11 1 12
REMARK H PARENT 6 4 6 5 6 6 1 13 1 14
REMARK Flexibility Score: inf
ROOT
ATOM      1  C   UNL     1       5.924  11.120  15.858  1.00  0.00     0.171 C 
ENDROOT
BRANCH   1   2
ATOM      2  C   UNL     1       5.907  11.976  17.141  1.00  0.00     0.237 C 
BRANCH   2   3
ATOM      3  N   UNL     1       4.528  12.264  17.549  1.00  0.00    -0.350 N 
ATOM      4  H   UNL     1       4.475  12.346  18.591  1.00  0.00     0.345 HD
ATOM      5  H   UNL     1       3.900  11.481  17.252  1.00  0.00     0.345 HD
ATOM      6  H   UNL     1       4.191  13.155  17.116  1.00  0.00     0.345 HD
ENDBRANCH   2   3
BRANCH   2   7
ATOM      7  C   UNL     1       6.670  13.261  16.944  1.00  0.00     0.100 C 
ATOM      8  O   UNL     1       7.626  13.320  16.125  1.00  0.00    -0.544 OA
ATOM      9  O   UNL     1       6.331  14.389  17.682  1.00  0.00    -0.544 OA
ENDBRANCH   2   7
ENDBRANCH   1   2
BRANCH   1  10
ATOM     10  C   UNL     1       4.597  11.150  15.157  1.00  0.00     0.223 C 
ATOM     11  O   UNL     1       4.178  12.226  14.651  1.00  0.00    -0.275 OA
ATOM     12  N   UNL     1       3.821   9.958  15.028  1.00  0.00    -0.369 N 
ATOM     13  H   UNL     1       2.904   9.978  14.528  1.00  0.00     0.159 HD
ATOM     14  H   UNL     1       4.161   9.056  15.428  1.00  0.00     0.159 HD
ENDBRANCH   1  10
TORSDOF 4
ENDMDL
MODEL 3
REMARK VINA RESULT:    -3.194      8.868      9.288
REMARK INTER + INTRA:          -4.183
REMARK INTER:                  -3.687
REMARK INTRA:                  -0.496
REMARK UNBOUND:                -0.336
REMARK SMILES NC(=O)C[C@H]([NH3+])C(=O)[O-]
REMARK SMILES IDX 4 1 5 2 6 3 7 7 8 8 9 9 2 10 3 11 1 12
REMARK H PARENT 6 4 6 5 6 6 1 13 1 14
REMARK Flexibility Score: inf
ROOT
ATOM      1  C   UNL     1       5.053  14.090  20.480  1.00  0.00     0.171 C 
ENDROOT
BRANCH   1   2
ATOM      2  C   UNL     1       5.123  15.478  19.812  1.00  0.00     0.237 C 
BRANCH   2   3
ATOM      3  N   UNL     1       3.838  15.811  19.185  1.00  0.00    -0.350 N 
ATOM      4  H   UNL     1       3.076  15.789  19.902  1.00  0.00     0.345 HD
ATOM      5  H   UNL     1       3.611  15.106  18.446  1.00  0.00     0.345 HD
ATOM      6  H   UNL     1       3.874  16.762  18.750  1.00  0.00     0.345 HD
ENDBRANCH   2   3
BRANCH   2   7
ATOM      7  C   UNL     1       6.229  15.532  18.790  1.00  0.00     0.100 C 
ATOM      8  O   UNL     1       7.029  16.505  18.764  1.00  0.00    -0.544 OA
ATOM      9  O   UNL     1       6.363  14.511  17.857  1.00  0.00    -0.544 OA
ENDBRANCH   2   7
ENDBRANCH   1   2
BRANCH   1  10
ATOM     10  C   UNL     1       3.980  13.236  19.871  1.00  0.00     0.223 C 
ATOM     11  O   UNL     1       2.800  13.302  20.309  1.00  0.00    -0.275 OA
ATOM     12  N   UNL     1       4.280  12.373  18.773  1.00  0.00    -0.369 N 
ATOM     13  H   UNL     1       3.530  11.790  18.341  1.00  0.00     0.159 HD
ATOM     14  H   UNL     1       5.249  12.319  18.389  1.00  0.00     0.159 HD
ENDBRANCH   1  10
TORSDOF 4
ENDMDL
MODEL 4
REMARK VINA RESULT:    -3.155      8.383      8.731
REMARK INTER + INTRA:          -4.137
REMARK INTER:                  -3.893
REMARK INTRA:                  -0.244
REMARK UNBOUND:                -0.336
REMARK SMILES NC(=O)C[C@H]([NH3+])C(=O)[O-]
REMARK SMILES IDX 4 1 5 2 6 3 7 7 8 8 9 9 2 10 3 11 1 12
REMARK H PARENT 6 4 6 5 6 6 1 13 1 14
REMARK Flexibility Score: inf
ROOT
ATOM      1  C   UNL     1       5.920  12.203  17.592  1.00  0.00     0.171 C 
ENDROOT
BRANCH   1   2
ATOM      2  C   UNL     1       5.618  12.287  16.083  1.00  0.00     0.237 C 
BRANCH   2   3
ATOM      3  N   UNL     1       4.417  13.096  15.843  1.00  0.00    -0.350 N 
ATOM      4  H   UNL     1       3.563  12.496  15.916  1.00  0.00     0.345 HD
ATOM      5  H   UNL     1       4.449  13.501  14.879  1.00  0.00     0.345 HD
ATOM      6  H   UNL     1       4.351  13.875  16.539  1.00  0.00     0.345 HD
ENDBRANCH   2   3
BRANCH   2   7
ATOM      7  C   UNL     1       5.446  10.913  15.487  1.00  0.00     0.100 C 
ATOM      8  O   UNL     1       4.475  10.662  14.724  1.00  0.00    -0.544 OA
ATOM      9  O   UNL     1       6.355   9.907  15.791  1.00  0.00    -0.544 OA
ENDBRANCH   2   7
ENDBRANCH   1   2
BRANCH   1  10
ATOM     10  C   UNL     1       4.986  13.065  18.392  1.00  0.00     0.223 C 
ATOM     11  O   UNL     1       5.066  14.320  18.310  1.00  0.00    -0.275 OA
ATOM     12  N   UNL     1       3.984  12.472  19.217  1.00  0.00    -0.369 N 
ATOM     13  H   UNL     1       3.327  13.073  19.762  1.00  0.00     0.159 HD
ATOM     14  H   UNL     1       3.895  11.434  19.283  1.00  0.00     0.159 HD
ENDBRANCH   1  10
TORSDOF 4
ENDMDL
MODEL 5
REMARK VINA RESULT:    -3.145      1.912      3.622
REMARK INTER + INTRA:          -4.125
REMARK INTER:                  -3.878
REMARK INTRA:                  -0.247
REMARK UNBOUND:                -0.336
REMARK SMILES NC(=O)C[C@H]([NH3+])C(=O)[O-]
REMARK SMILES IDX 4 1 5 2 6 3 7 7 8 8 9 9 2 10 3 11 1 12
REMARK H PARENT 6 4 6 5 6 6 1 13 1 14
REMARK Flexibility Score: inf
ROOT
ATOM      1  C   UNL     1       7.970  18.822  11.085  1.00  0.00     0.171 C 
ENDROOT
BRANCH   1   2
ATOM      2  C   UNL     1       6.873  19.010  12.152  1.00  0.00     0.237 C 
BRANCH   2   3
ATOM      3  N   UNL     1       5.602  18.441  11.688  1.00  0.00    -0.350 N 
ATOM      4  H   UNL     1       5.688  17.403  11.600  1.00  0.00     0.345 HD
ATOM      5  H   UNL     1       5.363  18.830  10.747  1.00  0.00     0.345 HD
ATOM      6  H   UNL     1       4.830  18.667  12.357  1.00  0.00     0.345 HD
ENDBRANCH   2   3
BRANCH   2   7
ATOM      7  C   UNL     1       6.697  20.466  12.497  1.00  0.00     0.100 C 
ATOM      8  O   UNL     1       7.696  21.227  12.596  1.00  0.00    -0.544 OA
ATOM      9  O   UNL     1       5.424  20.975  12.725  1.00  0.00    -0.544 OA
ENDBRANCH   2   7
ENDBRANCH   1   2
BRANCH   1  10
ATOM     10  C   UNL     1       7.474  18.019   9.918  1.00  0.00     0.223 C 
ATOM     11  O   UNL     1       7.288  16.779  10.043  1.00  0.00    -0.275 OA
ATOM     12  N   UNL     1       7.177  18.657   8.675  1.00  0.00    -0.369 N 
ATOM     13  H   UNL     1       6.820  18.099   7.869  1.00  0.00     0.159 HD
ATOM     14  H   UNL     1       7.311  19.686   8.561  1.00  0.00     0.159 HD
ENDBRANCH   1  10
TORSDOF 4
ENDMDL
MODEL 6
REMARK VINA RESULT:    -3.138      8.074      8.754
REMARK INTER + INTRA:          -4.116
REMARK INTER:                  -3.629
REMARK INTRA:                  -0.487
REMARK UNBOUND:                -0.336
REMARK SMILES NC(=O)C[C@H]([NH3+])C(=O)[O-]
REMARK SMILES IDX 4 1 5 2 6 3 7 7 8 8 9 9 2 10 3 11 1 12
REMARK H PARENT 6 4 6 5 6 6 1 13 1 14
REMARK Flexibility Score: inf
ROOT
ATOM      1  C   UNL     1       5.919  13.452  17.169  1.00  0.00     0.171 C 
ENDROOT
BRANCH   1   2
ATOM      2  C   UNL     1       5.252  13.518  18.558  1.00  0.00     0.237 C 
BRANCH   2   3
ATOM      3  N   UNL     1       4.279  12.430  18.712  1.00  0.00    -0.350 N 
ATOM      4  H   UNL     1       4.576  11.604  18.145  1.00  0.00     0.345 HD
ATOM      5  H   UNL     1       3.342  12.743  18.367  1.00  0.00     0.345 HD
ATOM      6  H   UNL     1       4.196  12.147  19.716  1.00  0.00     0.345 HD
ENDBRANCH   2   3
BRANCH   2   7
ATOM      7  C   UNL     1       4.582  14.850  18.775  1.00  0.00     0.100 C 
ATOM      8  O   UNL     1       3.496  15.123  18.199  1.00  0.00    -0.544 OA
ATOM      9  O   UNL     1       5.172  15.796  19.605  1.00  0.00    -0.544 OA
ENDBRANCH   2   7
ENDBRANCH   1   2
BRANCH   1  10
ATOM     10  C   UNL     1       5.044  12.757  16.167  1.00  0.00     0.223 C 
ATOM     11  O   UNL     1       5.134  11.509  16.014  1.00  0.00    -0.275 OA
ATOM     12  N   UNL     1       4.082  13.495  15.412  1.00  0.00    -0.369 N 
ATOM     13  H   UNL     1       3.465  13.007  14.726  1.00  0.00     0.159 HD
ATOM     14  H   UNL     1       3.985  14.526  15.539  1.00  0.00     0.159 HD
ENDBRANCH   1  10
TORSDOF 4
ENDMDL
MODEL 7
REMARK VINA RESULT:    -3.122      2.038      2.584
REMARK INTER + INTRA:          -4.096
REMARK INTER:                  -3.610
REMARK INTRA:                  -0.487
REMARK UNBOUND:                -0.336
REMARK SMILES NC(=O)C[C@H]([NH3+])C(=O)[O-]
REMARK SMILES IDX 4 1 5 2 6 3 7 7 8 8 9 9 2 10 3 11 1 12
REMARK H PARENT 6 4 6 5 6 6 1 13 1 14
REMARK Flexibility Score: inf
ROOT
ATOM      1  C   UNL     1       7.721  17.525  11.158  1.00  0.00     0.171 C 
ENDROOT
BRANCH   1   2
ATOM      2  C   UNL     1       7.875  17.493   9.624  1.00  0.00     0.237 C 
BRANCH   2   3
ATOM      3  N   UNL     1       7.133  18.599   9.009  1.00  0.00    -0.350 N 
ATOM      4  H   UNL     1       6.479  19.021   9.709  1.00  0.00     0.345 HD
ATOM      5  H   UNL     1       6.565  18.242   8.207  1.00  0.00     0.345 HD
ATOM      6  H   UNL     1       7.788  19.338   8.662  1.00  0.00     0.345 HD
ENDBRANCH   2   3
BRANCH   2   7
ATOM      7  C   UNL     1       7.408  16.176   9.060  1.00  0.00     0.100 C 
ATOM      8  O   UNL     1       6.180  15.899   9.012  1.00  0.00    -0.544 OA
ATOM      9  O   UNL     1       8.336  15.249   8.601  1.00  0.00    -0.544 OA
ENDBRANCH   2   7
ENDBRANCH   1   2
BRANCH   1  10
ATOM     10  C   UNL     1       6.473  18.249  11.573  1.00  0.00     0.223 C 
ATOM     11  O   UNL     1       6.514  19.486  11.808  1.00  0.00    -0.275 OA
ATOM     12  N   UNL     1       5.231  17.551  11.668  1.00  0.00    -0.369 N 
ATOM     13  H   UNL     1       4.361  18.059  11.944  1.00  0.00     0.159 HD
ATOM     14  H   UNL     1       5.178  16.529  11.461  1.00  0.00     0.159 HD
ENDBRANCH   1  10
TORSDOF 4
ENDMDL
MODEL 8
REMARK VINA RESULT:    -3.006     15.318     16.213
REMARK INTER + INTRA:          -3.957
REMARK INTER:                  -3.717
REMARK INTRA:                  -0.240
REMARK UNBOUND:                -0.336
REMARK SMILES NC(=O)C[C@H]([NH3+])C(=O)[O-]
REMARK SMILES IDX 4 1 5 2 6 3 7 7 8 8 9 9 2 10 3 11 1 12
REMARK H PARENT 6 4 6 5 6 6 1 13 1 14
REMARK Flexibility Score: inf
ROOT
ATOM      1  C   UNL     1      -7.849  13.765   7.819  1.00  0.00     0.171 C 
ENDROOT
BRANCH   1   2
ATOM      2  C   UNL     1      -7.686  14.694   6.600  1.00  0.00     0.237 C 
BRANCH   2   3
ATOM      3  N   UNL     1      -8.770  14.473   5.636  1.00  0.00    -0.350 N 
ATOM      4  H   UNL     1      -8.644  13.548   5.164  1.00  0.00     0.345 HD
ATOM      5  H   UNL     1      -8.750  15.219   4.903  1.00  0.00     0.345 HD
ATOM      6  H   UNL     1      -9.701  14.491   6.115  1.00  0.00     0.345 HD
ENDBRANCH   2   3
BRANCH   2   7
ATOM      7  C   UNL     1      -6.349  14.487   5.935  1.00  0.00     0.100 C 
ATOM      8  O   UNL     1      -5.933  13.325   5.681  1.00  0.00    -0.544 OA
ATOM      9  O   UNL     1      -5.558  15.583   5.612  1.00  0.00    -0.544 OA
ENDBRANCH   2   7
ENDBRANCH   1   2
BRANCH   1  10
ATOM     10  C   UNL     1      -9.236  13.839   8.389  1.00  0.00     0.223 C 
ATOM     11  O   UNL     1      -9.712  14.951   8.740  1.00  0.00    -0.275 OA
ATOM     12  N   UNL     1     -10.035  12.660   8.502  1.00  0.00    -0.369 N 
ATOM     13  H   UNL     1     -11.004  12.716   8.886  1.00  0.00     0.159 HD
ATOM     14  H   UNL     1      -9.660  11.734   8.200  1.00  0.00     0.159 HD
ENDBRANCH   1  10
TORSDOF 4
ENDMDL
MODEL 9
REMARK VINA RESULT:    -3.005      8.940      9.250
REMARK INTER + INTRA:          -3.956
REMARK INTER:                  -3.663
REMARK INTRA:                  -0.294
REMARK UNBOUND:                -0.336
REMARK SMILES NC(=O)C[C@H]([NH3+])C(=O)[O-]
REMARK SMILES IDX 4 1 5 2 6 3 7 7 8 8 9 9 2 10 3 11 1 12
REMARK H PARENT 6 4 6 5 6 6 1 13 1 14
REMARK Flexibility Score: inf
ROOT
ATOM      1  C   UNL     1       4.716  14.105  19.534  1.00  0.00     0.171 C 
ENDROOT
BRANCH   1   2
ATOM      2  C   UNL     1       5.017  13.714  18.073  1.00  0.00     0.237 C 
BRANCH   2   3
ATOM      3  N   UNL     1       4.579  12.338  17.810  1.00  0.00    -0.350 N 
ATOM      4  H   UNL     1       5.220  11.663  18.286  1.00  0.00     0.345 HD
ATOM      5  H   UNL     1       4.610  12.148  16.781  1.00  0.00     0.345 HD
ATOM      6  H   UNL     1       3.602  12.188  18.155  1.00  0.00     0.345 HD
ENDBRANCH   2   3
BRANCH   2   7
ATOM      7  C   UNL     1       6.485  13.860  17.764  1.00  0.00     0.100 C 
ATOM      8  O   UNL     1       6.872  14.086  16.587  1.00  0.00    -0.544 OA
ATOM      9  O   UNL     1       7.424  13.730  18.780  1.00  0.00    -0.544 OA
ENDBRANCH   2   7
ENDBRANCH   1   2
BRANCH   1  10
ATOM     10  C   UNL     1       3.515  13.378  20.065  1.00  0.00     0.223 C 
ATOM     11  O   UNL     1       3.657  12.257  20.624  1.00  0.00    -0.275 OA
ATOM     12  N   UNL     1       2.216  13.964  19.974  1.00  0.00    -0.369 N 
ATOM     13  H   UNL     1       1.384  13.462  20.356  1.00  0.00     0.159 HD
ATOM     14  H   UNL     1       2.085  14.898  19.528  1.00  0.00     0.159 HD
ENDBRANCH   1  10
TORSDOF 4
ENDMDL
