MODEL 1
REMARK VINA RESULT:    -2.655      0.000      0.000
REMARK INTER + INTRA:          -5.467
REMARK INTER:                  -4.208
REMARK INTRA:                  -1.259
REMARK UNBOUND:                -1.259
REMARK SMILES CCCCCCCCCCCC=O
REMARK SMILES IDX 7 1 6 2 5 3 4 4 3 5 2 6 1 7 8 8 9 9 10 10 11 11 12 12 13 13
REMARK H PARENT
REMARK Flexibility Score: inf
ROOT
ATOM      1  C   UNL     1     110.514 107.730 104.113  1.00  0.00     0.000 C 
ENDROOT
BRANCH   1   2
ATOM      2  C   UNL     1     111.762 108.146 104.907  1.00  0.00     0.000 C 
BRANCH   2   3
ATOM      3  C   UNL     1     112.704 109.050 104.097  1.00  0.00    -0.000 C 
BRANCH   3   4
ATOM      4  C   UNL     1     112.125 110.462 103.955  1.00  0.00    -0.000 C 
BRANCH   4   5
ATOM      5  C   UNL     1     111.864 111.091 105.332  1.00  0.00    -0.000 C 
BRANCH   5   6
ATOM      6  C   UNL     1     111.521 112.586 105.244  1.00  0.00    -0.003 C 
ATOM      7  C   UNL     1     110.970 112.986 103.876  1.00  0.00     0.004 C 
ENDBRANCH   5   6
ENDBRANCH   4   5
ENDBRANCH   3   4
ENDBRANCH   2   3
ENDBRANCH   1   2
BRANCH   1   8
ATOM      8  C   UNL     1     109.214 107.921 104.914  1.00  0.00     0.000 C 
BRANCH   8   9
ATOM      9  C   UNL     1     108.554 109.285 104.655  1.00  0.00     0.000 C 
BRANCH   9  10
ATOM     10  C   UNL     1     108.283 110.065 105.952  1.00  0.00     0.008 C 
BRANCH  10  11
ATOM     11  C   UNL     1     107.849 111.512 105.675  1.00  0.00     0.072 C 
BRANCH  11  12
ATOM     12  C   UNL     1     107.437 111.721 104.246  1.00  0.00     0.224 C 
ATOM     13  O   UNL     1     106.253 111.784 103.957  1.00  0.00    -0.303 OA
ENDBRANCH  11  12
ENDBRANCH  10  11
ENDBRANCH   9  10
ENDBRANCH   8   9
ENDBRANCH   1   8
TORSDOF 10
ENDMDL
MODEL 2
REMARK VINA RESULT:    -2.559      2.706      4.030
REMARK INTER + INTRA:          -5.314
REMARK INTER:                  -3.985
REMARK INTRA:                  -1.329
REMARK UNBOUND:                -1.259
REMARK SMILES CCCCCCCCCCCC=O
REMARK SMILES IDX 7 1 6 2 5 3 4 4 3 5 2 6 1 7 8 8 9 9 10 10 11 11 12 12 13 13
REMARK H PARENT
REMARK Flexibility Score: inf
ROOT
ATOM      1  C   UNL     1     111.392 108.734 105.541  1.00  0.00     0.000 C 
ENDROOT
BRANCH   1   2
ATOM      2  C   UNL     1     111.760 110.008 106.318  1.00  0.00     0.000 C 
BRANCH   2   3
ATOM      3  C   UNL     1     111.416 111.291 105.547  1.00  0.00    -0.000 C 
BRANCH   3   4
ATOM      4  C   UNL     1     110.087 111.883 106.030  1.00  0.00    -0.000 C 
BRANCH   4   5
ATOM      5  C   UNL     1     108.987 111.700 104.974  1.00  0.00    -0.000 C 
BRANCH   5   6
ATOM      6  C   UNL     1     107.712 111.066 105.551  1.00  0.00    -0.003 C 
ATOM      7  C   UNL     1     107.781 110.873 107.065  1.00  0.00     0.004 C 
ENDBRANCH   5   6
ENDBRANCH   4   5
ENDBRANCH   3   4
ENDBRANCH   2   3
ENDBRANCH   1   2
BRANCH   1   8
ATOM      8  C   UNL     1     110.068 108.113 106.020  1.00  0.00     0.000 C 
BRANCH   8   9
ATOM      9  C   UNL     1     109.138 107.736 104.856  1.00  0.00     0.000 C 
BRANCH   9  10
ATOM     10  C   UNL     1     107.871 107.001 105.328  1.00  0.00     0.008 C 
BRANCH  10  11
ATOM     11  C   UNL     1     107.685 107.091 106.849  1.00  0.00     0.072 C 
BRANCH  11  12
ATOM     12  C   UNL     1     106.476 106.335 107.323  1.00  0.00     0.224 C 
ATOM     13  O   UNL     1     106.555 105.616 108.305  1.00  0.00    -0.303 OA
ENDBRANCH  11  12
ENDBRANCH  10  11
ENDBRANCH   9  10
ENDBRANCH   8   9
ENDBRANCH   1   8
TORSDOF 10
ENDMDL
MODEL 3
REMARK VINA RESULT:    -2.525      2.000      4.031
REMARK INTER + INTRA:          -5.259
REMARK INTER:                  -3.903
REMARK INTRA:                  -1.356
REMARK UNBOUND:                -1.259
REMARK SMILES CCCCCCCCCCCC=O
REMARK SMILES IDX 7 1 6 2 5 3 4 4 3 5 2 6 1 7 8 8 9 9 10 10 11 11 12 12 13 13
REMARK H PARENT
REMARK Flexibility Score: inf
ROOT
ATOM      1  C   UNL     1     111.675 110.636 105.371  1.00  0.00     0.000 C 
ENDROOT
BRANCH   1   2
ATOM      2  C   UNL     1     111.346 112.137 105.394  1.00  0.00     0.000 C 
BRANCH   2   3
ATOM      3  C   UNL     1     110.494 112.574 104.193  1.00  0.00    -0.000 C 
BRANCH   3   4
ATOM      4  C   UNL     1     109.239 111.703 104.062  1.00  0.00    -0.000 C 
BRANCH   4   5
ATOM      5  C   UNL     1     107.966 112.538 104.267  1.00  0.00    -0.000 C 
BRANCH   5   6
ATOM      6  C   UNL     1     107.408 112.425 105.694  1.00  0.00    -0.003 C 
ATOM      7  C   UNL     1     107.749 111.093 106.359  1.00  0.00     0.004 C 
ENDBRANCH   5   6
ENDBRANCH   4   5
ENDBRANCH   3   4
ENDBRANCH   2   3
ENDBRANCH   1   2
BRANCH   1   8
ATOM      8  C   UNL     1     111.276 109.924 106.675  1.00  0.00     0.000 C 
BRANCH   8   9
ATOM      9  C   UNL     1     110.721 108.511 106.432  1.00  0.00     0.000 C 
BRANCH   9  10
ATOM     10  C   UNL     1     110.354 108.268 104.958  1.00  0.00     0.008 C 
BRANCH  10  11
ATOM     11  C   UNL     1     108.885 107.853 104.791  1.00  0.00     0.072 C 
BRANCH  11  12
ATOM     12  C   UNL     1     108.268 107.400 106.083  1.00  0.00     0.224 C 
ATOM     13  O   UNL     1     107.485 106.464 106.088  1.00  0.00    -0.303 OA
ENDBRANCH  11  12
ENDBRANCH  10  11
ENDBRANCH   9  10
ENDBRANCH   8   9
ENDBRANCH   1   8
TORSDOF 10
ENDMDL
MODEL 4
REMARK VINA RESULT:    -2.524      2.329      3.931
REMARK INTER + INTRA:          -5.259
REMARK INTER:                  -3.990
REMARK INTRA:                  -1.270
REMARK UNBOUND:                -1.259
REMARK SMILES CCCCCCCCCCCC=O
REMARK SMILES IDX 7 1 6 2 5 3 4 4 3 5 2 6 1 7 8 8 9 9 10 10 11 11 12 12 13 13
REMARK H PARENT
REMARK Flexibility Score: inf
ROOT
ATOM      1  C   UNL     1     108.829 111.462 105.247  1.00  0.00     0.000 C 
ENDROOT
BRANCH   1   2
ATOM      2  C   UNL     1     109.391 112.029 103.934  1.00  0.00     0.000 C 
BRANCH   2   3
ATOM      3  C   UNL     1     110.776 112.669 104.111  1.00  0.00    -0.000 C 
BRANCH   3   4
ATOM      4  C   UNL     1     111.679 111.793 104.987  1.00  0.00    -0.000 C 
BRANCH   4   5
ATOM      5  C   UNL     1     112.385 110.718 104.148  1.00  0.00    -0.000 C 
BRANCH   5   6
ATOM      6  C   UNL     1     111.990 109.291 104.560  1.00  0.00    -0.003 C 
ATOM      7  C   UNL     1     111.682 109.171 106.052  1.00  0.00     0.004 C 
ENDBRANCH   5   6
ENDBRANCH   4   5
ENDBRANCH   3   4
ENDBRANCH   2   3
ENDBRANCH   1   2
BRANCH   1   8
ATOM      8  C   UNL     1     107.807 110.335 105.014  1.00  0.00     0.000 C 
BRANCH   8   9
ATOM      9  C   UNL     1     108.368 109.199 104.144  1.00  0.00     0.000 C 
BRANCH   9  10
ATOM     10  C   UNL     1     107.921 107.809 104.626  1.00  0.00     0.008 C 
BRANCH  10  11
ATOM     11  C   UNL     1     108.049 107.658 106.149  1.00  0.00     0.072 C 
BRANCH  11  12
ATOM     12  C   UNL     1     107.075 106.662 106.709  1.00  0.00     0.224 C 
ATOM     13  O   UNL     1     107.171 106.304 107.872  1.00  0.00    -0.303 OA
ENDBRANCH  11  12
ENDBRANCH  10  11
ENDBRANCH   9  10
ENDBRANCH   8   9
ENDBRANCH   1   8
TORSDOF 10
ENDMDL
MODEL 5
REMARK VINA RESULT:    -2.474      2.626      4.473
REMARK INTER + INTRA:          -5.179
REMARK INTER:                  -3.623
REMARK INTRA:                  -1.555
REMARK UNBOUND:                -1.259
REMARK SMILES CCCCCCCCCCCC=O
REMARK SMILES IDX 7 1 6 2 5 3 4 4 3 5 2 6 1 7 8 8 9 9 10 10 11 11 12 12 13 13
REMARK H PARENT
REMARK Flexibility Score: inf
ROOT
ATOM      1  C   UNL     1     110.556 108.745 106.298  1.00  0.00     0.000 C 
ENDROOT
BRANCH   1   2
ATOM      2  C   UNL     1     110.399 108.531 104.785  1.00  0.00     0.000 C 
BRANCH   2   3
ATOM      3  C   UNL     1     108.956 108.743 104.304  1.00  0.00    -0.000 C 
BRANCH   3   4
ATOM      4  C   UNL     1     108.127 109.483 105.360  1.00  0.00    -0.000 C 
BRANCH   4   5
ATOM      5  C   UNL     1     107.843 110.927 104.925  1.00  0.00    -0.000 C 
BRANCH   5   6
ATOM      6  C   UNL     1     107.594 111.866 106.115  1.00  0.00    -0.003 C 
ATOM      7  C   UNL     1     107.824 111.185 107.463  1.00  0.00     0.004 C 
ENDBRANCH   5   6
ENDBRANCH   4   5
ENDBRANCH   3   4
ENDBRANCH   2   3
ENDBRANCH   1   2
BRANCH   1   8
ATOM      8  C   UNL     1     111.600 109.824 106.637  1.00  0.00     0.000 C 
BRANCH   8   9
ATOM      9  C   UNL     1     111.782 110.847 105.504  1.00  0.00     0.000 C 
BRANCH   9  10
ATOM     10  C   UNL     1     111.263 112.245 105.882  1.00  0.00     0.008 C 
BRANCH  10  11
ATOM     11  C   UNL     1     111.408 112.527 107.384  1.00  0.00     0.072 C 
BRANCH  11  12
ATOM     12  C   UNL     1     112.636 113.333 107.698  1.00  0.00     0.224 C 
ATOM     13  O   UNL     1     113.374 113.694 106.796  1.00  0.00    -0.303 OA
ENDBRANCH  11  12
ENDBRANCH  10  11
ENDBRANCH   9  10
ENDBRANCH   8   9
ENDBRANCH   1   8
TORSDOF 10
ENDMDL
MODEL 6
REMARK VINA RESULT:    -2.466      1.848      3.184
REMARK INTER + INTRA:          -5.166
REMARK INTER:                  -3.600
REMARK INTRA:                  -1.566
REMARK UNBOUND:                -1.259
REMARK SMILES CCCCCCCCCCCC=O
REMARK SMILES IDX 7 1 6 2 5 3 4 4 3 5 2 6 1 7 8 8 9 9 10 10 11 11 12 12 13 13
REMARK H PARENT
REMARK Flexibility Score: inf
ROOT
ATOM      1  C   UNL     1     108.165 108.505 103.905  1.00  0.00     0.000 C 
ENDROOT
BRANCH   1   2
ATOM      2  C   UNL     1     108.522 107.420 104.932  1.00  0.00     0.000 C 
BRANCH   2   3
ATOM      3  C   UNL     1     108.325 107.889 106.381  1.00  0.00    -0.000 C 
BRANCH   3   4
ATOM      4  C   UNL     1     109.635 107.801 107.172  1.00  0.00    -0.000 C 
BRANCH   4   5
ATOM      5  C   UNL     1     110.834 108.189 106.294  1.00  0.00    -0.000 C 
BRANCH   5   6
ATOM      6  C   UNL     1     111.141 109.694 106.343  1.00  0.00    -0.003 C 
ATOM      7  C   UNL     1     111.692 110.227 105.022  1.00  0.00     0.004 C 
ENDBRANCH   5   6
ENDBRANCH   4   5
ENDBRANCH   3   4
ENDBRANCH   2   3
ENDBRANCH   1   2
BRANCH   1   8
ATOM      8  C   UNL     1     107.545 109.754 104.557  1.00  0.00     0.000 C 
BRANCH   8   9
ATOM      9  C   UNL     1     108.213 111.057 104.091  1.00  0.00     0.000 C 
BRANCH   9  10
ATOM     10  C   UNL     1     108.284 112.115 105.205  1.00  0.00     0.008 C 
BRANCH  10  11
ATOM     11  C   UNL     1     107.917 111.533 106.578  1.00  0.00     0.072 C 
BRANCH  11  12
ATOM     12  C   UNL     1     107.005 112.436 107.357  1.00  0.00     0.224 C 
ATOM     13  O   UNL     1     106.235 113.177 106.768  1.00  0.00    -0.303 OA
ENDBRANCH  11  12
ENDBRANCH  10  11
ENDBRANCH   9  10
ENDBRANCH   8   9
ENDBRANCH   1   8
TORSDOF 10
ENDMDL
MODEL 7
REMARK VINA RESULT:    -2.465      2.210      4.391
REMARK INTER + INTRA:          -5.165
REMARK INTER:                  -3.632
REMARK INTRA:                  -1.533
REMARK UNBOUND:                -1.259
REMARK SMILES CCCCCCCCCCCC=O
REMARK SMILES IDX 7 1 6 2 5 3 4 4 3 5 2 6 1 7 8 8 9 9 10 10 11 11 12 12 13 13
REMARK H PARENT
REMARK Flexibility Score: inf
ROOT
ATOM      1  C   UNL     1     107.827 110.843 104.830  1.00  0.00     0.000 C 
ENDROOT
BRANCH   1   2
ATOM      2  C   UNL     1     108.162 109.347 104.943  1.00  0.00     0.000 C 
BRANCH   2   3
ATOM      3  C   UNL     1     109.175 109.051 106.059  1.00  0.00    -0.000 C 
BRANCH   3   4
ATOM      4  C   UNL     1     110.262 108.086 105.573  1.00  0.00    -0.000 C 
BRANCH   4   5
ATOM      5  C   UNL     1     110.947 108.621 104.307  1.00  0.00    -0.000 C 
BRANCH   5   6
ATOM      6  C   UNL     1     112.474 108.718 104.456  1.00  0.00    -0.003 C 
ATOM      7  C   UNL     1     113.002 107.930 105.653  1.00  0.00     0.004 C 
ENDBRANCH   5   6
ENDBRANCH   4   5
ENDBRANCH   3   4
ENDBRANCH   2   3
ENDBRANCH   1   2
BRANCH   1   8
ATOM      8  C   UNL     1     108.930 111.741 105.418  1.00  0.00     0.000 C 
BRANCH   8   9
ATOM      9  C   UNL     1     109.946 112.199 104.360  1.00  0.00     0.000 C 
BRANCH   9  10
ATOM     10  C   UNL     1     111.374 112.309 104.921  1.00  0.00     0.008 C 
BRANCH  10  11
ATOM     11  C   UNL     1     111.386 112.399 106.454  1.00  0.00     0.072 C 
BRANCH  11  12
ATOM     12  C   UNL     1     112.258 111.349 107.081  1.00  0.00     0.224 C 
ATOM     13  O   UNL     1     111.769 110.524 107.836  1.00  0.00    -0.303 OA
ENDBRANCH  11  12
ENDBRANCH  10  11
ENDBRANCH   9  10
ENDBRANCH   8   9
ENDBRANCH   1   8
TORSDOF 10
ENDMDL
MODEL 8
REMARK VINA RESULT:    -2.452      1.424      2.284
REMARK INTER + INTRA:          -5.144
REMARK INTER:                  -3.863
REMARK INTRA:                  -1.281
REMARK UNBOUND:                -1.259
REMARK SMILES CCCCCCCCCCCC=O
REMARK SMILES IDX 7 1 6 2 5 3 4 4 3 5 2 6 1 7 8 8 9 9 10 10 11 11 12 12 13 13
REMARK H PARENT
REMARK Flexibility Score: inf
ROOT
ATOM      1  C   UNL     1     112.097 109.578 104.927  1.00  0.00     0.000 C 
ENDROOT
BRANCH   1   2
ATOM      2  C   UNL     1     111.746 110.655 103.889  1.00  0.00     0.000 C 
BRANCH   2   3
ATOM      3  C   UNL     1     112.625 111.909 104.018  1.00  0.00    -0.000 C 
BRANCH   3   4
ATOM      4  C   UNL     1     111.875 113.034 104.741  1.00  0.00    -0.000 C 
BRANCH   4   5
ATOM      5  C   UNL     1     112.610 113.449 106.024  1.00  0.00    -0.000 C 
BRANCH   5   6
ATOM      6  C   UNL     1     112.274 112.543 107.218  1.00  0.00    -0.003 C 
ATOM      7  C   UNL     1     110.781 112.238 107.327  1.00  0.00     0.004 C 
ENDBRANCH   5   6
ENDBRANCH   4   5
ENDBRANCH   3   4
ENDBRANCH   2   3
ENDBRANCH   1   2
BRANCH   1   8
ATOM      8  C   UNL     1     110.847 108.916 105.535  1.00  0.00     0.000 C 
BRANCH   8   9
ATOM      9  C   UNL     1     109.711 108.749 104.515  1.00  0.00     0.000 C 
BRANCH   9  10
ATOM     10  C   UNL     1     108.322 108.982 105.135  1.00  0.00     0.008 C 
BRANCH  10  11
ATOM     11  C   UNL     1     108.061 110.468 105.422  1.00  0.00     0.072 C 
BRANCH  11  12
ATOM     12  C   UNL     1     107.843 111.263 104.167  1.00  0.00     0.224 C 
ATOM     13  O   UNL     1     108.616 112.162 103.875  1.00  0.00    -0.303 OA
ENDBRANCH  11  12
ENDBRANCH  10  11
ENDBRANCH   9  10
ENDBRANCH   8   9
ENDBRANCH   1   8
TORSDOF 10
ENDMDL
MODEL 9
REMARK VINA RESULT:    -2.441      2.076      3.583
REMARK INTER + INTRA:          -5.128
REMARK INTER:                  -3.751
REMARK INTRA:                  -1.376
REMARK UNBOUND:                -1.259
REMARK SMILES CCCCCCCCCCCC=O
REMARK SMILES IDX 7 1 6 2 5 3 4 4 3 5 2 6 1 7 8 8 9 9 10 10 11 11 12 12 13 13
REMARK H PARENT
REMARK Flexibility Score: inf
ROOT
ATOM      1  C   UNL     1     109.837 111.783 104.144  1.00  0.00     0.000 C 
ENDROOT
BRANCH   1   2
ATOM      2  C   UNL     1     110.962 112.784 104.450  1.00  0.00     0.000 C 
BRANCH   2   3
ATOM      3  C   UNL     1     112.015 112.215 105.413  1.00  0.00    -0.000 C 
BRANCH   3   4
ATOM      4  C   UNL     1     111.547 112.327 106.868  1.00  0.00    -0.000 C 
BRANCH   4   5
ATOM      5  C   UNL     1     111.361 110.938 107.495  1.00  0.00    -0.000 C 
BRANCH   5   6
ATOM      6  C   UNL     1     111.907 109.810 106.606  1.00  0.00    -0.003 C 
ATOM      7  C   UNL     1     110.850 108.758 106.272  1.00  0.00     0.004 C 
ENDBRANCH   5   6
ENDBRANCH   4   5
ENDBRANCH   3   4
ENDBRANCH   2   3
ENDBRANCH   1   2
BRANCH   1   8
ATOM      8  C   UNL     1     108.479 112.471 103.921  1.00  0.00     0.000 C 
BRANCH   8   9
ATOM      9  C   UNL     1     107.368 111.887 104.809  1.00  0.00     0.000 C 
BRANCH   9  10
ATOM     10  C   UNL     1     107.923 111.148 106.038  1.00  0.00     0.008 C 
BRANCH  10  11
ATOM     11  C   UNL     1     107.597 111.882 107.348  1.00  0.00     0.072 C 
BRANCH  11  12
ATOM     12  C   UNL     1     106.674 113.047 107.135  1.00  0.00     0.224 C 
ATOM     13  O   UNL     1     105.939 113.413 108.038  1.00  0.00    -0.303 OA
ENDBRANCH  11  12
ENDBRANCH  10  11
ENDBRANCH   9  10
ENDBRANCH   8   9
ENDBRANCH   1   8
TORSDOF 10
ENDMDL
