MODEL 1
REMARK VINA RESULT:    -3.718      0.000      0.000
REMARK INTER + INTRA:          -5.961
REMARK INTER:                  -5.675
REMARK INTRA:                  -0.286
REMARK UNBOUND:                -0.286
REMARK SMILES CC1=CCC[C@H](C)C(=O)C[C@@H](C(C)C)C(=O)C1
REMARK SMILES IDX 8 1 9 2 6 3 7 4 5 5 4 6 3 7 2 8 1 9 10 11 11 12 15 13 16 14
REMARK SMILES IDX 17 15 12 17 13 18 14 19
REMARK H PARENT
REMARK Flexibility Score: 70.00
ROOT
ATOM      1  C   UNL     1      18.882  43.689  20.830  1.00  0.00     0.136 C 
ATOM      2  O   UNL     1      19.381  43.925  21.922  1.00  0.00    -0.299 OA
ENDROOT
BRANCH   1   3
ATOM      3  C   UNL     1      18.589  42.255  20.436  1.00  0.00     0.053 C 
ATOM      4  C   UNL     1      18.516  41.383  21.694  1.00  0.00     0.016 C 
BRANCH   3   5
ATOM      5  C   UNL     1      17.281  42.137  19.626  1.00  0.00     0.015 C 
BRANCH   5   6
ATOM      6  C   UNL     1      16.007  42.494  20.412  1.00  0.00     0.028 C 
BRANCH   6   7
ATOM      7  C   UNL     1      14.966  43.215  19.587  1.00  0.00    -0.028 C 
ATOM      8  C   UNL     1      14.554  44.504  19.705  1.00  0.00    -0.070 CG0
ATOM      9  C   UNL     1      13.418  44.937  18.808  1.00  0.00     0.039 C 
ATOM     10  G   UNL     1      15.198  45.564  20.594  1.00  0.00     0.000 G0
ENDBRANCH   6   7
ENDBRANCH   5   6
ENDBRANCH   3   5
ENDBRANCH   1   3
BRANCH   1  11
ATOM     11  C   UNL     1      18.605  44.835  19.890  1.00  0.00     0.087 C 
BRANCH  11  12
ATOM     12  C   UNL     1      17.842  45.998  20.585  1.00  0.00     0.066 C 
BRANCH  12  13
ATOM     13  C   UNL     1      16.434  46.251  20.047  1.00  0.00     0.140 C 
ATOM     14  O   UNL     1      16.314  46.955  19.053  1.00  0.00    -0.299 OA
BRANCH  13  15
ATOM     15  C   UNL     1      15.198  45.578  20.596  1.00  0.00     0.106 CG0
ATOM     16  G   UNL     1      14.582  44.519  19.687  1.00  0.00     0.000 G0
ENDBRANCH  13  15
ENDBRANCH  12  13
BRANCH  12  17
ATOM     17  C   UNL     1      18.652  47.332  20.620  1.00  0.00    -0.006 C 
ATOM     18  C   UNL     1      18.108  48.312  21.673  1.00  0.00     0.008 C 
ATOM     19  C   UNL     1      20.162  47.127  20.820  1.00  0.00     0.008 C 
ENDBRANCH  12  17
ENDBRANCH  11  12
ENDBRANCH   1  11
TORSDOF 1
ENDMDL
MODEL 2
REMARK VINA RESULT:    -3.615      8.500     10.142
REMARK INTER + INTRA:          -5.804
REMARK INTER:                  -5.628
REMARK INTRA:                  -0.175
REMARK UNBOUND:                -0.286
REMARK SMILES CC1=CCC[C@H](C)C(=O)C[C@@H](C(C)C)C(=O)C1
REMARK SMILES IDX 8 1 9 2 6 3 7 4 5 5 4 6 3 7 2 8 1 9 10 11 11 12 15 13 16 14
REMARK SMILES IDX 17 15 12 17 13 18 14 19
REMARK H PARENT
REMARK Flexibility Score: 70.00
ROOT
ATOM      1  C   UNL     1      15.165  40.298  29.582  1.00  0.00     0.136 C 
ATOM      2  O   UNL     1      14.926  39.494  30.473  1.00  0.00    -0.299 OA
ENDROOT
BRANCH   1   3
ATOM      3  C   UNL     1      14.027  41.083  28.959  1.00  0.00     0.053 C 
ATOM      4  C   UNL     1      14.408  42.565  28.886  1.00  0.00     0.016 C 
BRANCH   3   5
ATOM      5  C   UNL     1      13.663  40.553  27.556  1.00  0.00     0.015 C 
BRANCH   5   6
ATOM      6  C   UNL     1      13.109  39.118  27.538  1.00  0.00     0.028 C 
BRANCH   6   7
ATOM      7  C   UNL     1      13.761  38.227  26.507  1.00  0.00    -0.028 C 
ATOM      8  C   UNL     1      14.873  37.459  26.650  1.00  0.00    -0.070 CG0
ATOM      9  C   UNL     1      15.364  36.742  25.414  1.00  0.00     0.039 C 
ATOM     10  G   UNL     1      15.604  37.192  27.962  1.00  0.00     0.000 G0
ENDBRANCH   6   7
ENDBRANCH   5   6
ENDBRANCH   3   5
ENDBRANCH   1   3
BRANCH   1  11
ATOM     11  C   UNL     1      16.586  40.459  29.105  1.00  0.00     0.087 C 
BRANCH  11  12
ATOM     12  C   UNL     1      16.910  39.541  27.891  1.00  0.00     0.066 C 
BRANCH  12  13
ATOM     13  C   UNL     1      16.851  38.044  28.188  1.00  0.00     0.140 C 
ATOM     14  O   UNL     1      17.817  37.525  28.730  1.00  0.00    -0.299 OA
BRANCH  13  15
ATOM     15  C   UNL     1      15.619  37.197  27.968  1.00  0.00     0.106 CG0
ATOM     16  G   UNL     1      14.878  37.464  26.662  1.00  0.00     0.000 G0
ENDBRANCH  13  15
ENDBRANCH  12  13
BRANCH  12  17
ATOM     17  C   UNL     1      18.258  39.899  27.191  1.00  0.00    -0.006 C 
ATOM     18  C   UNL     1      18.125  39.931  25.660  1.00  0.00     0.008 C 
ATOM     19  C   UNL     1      18.882  41.210  27.695  1.00  0.00     0.008 C 
ENDBRANCH  12  17
ENDBRANCH  11  12
ENDBRANCH   1  11
TORSDOF 1
ENDMDL
MODEL 3
REMARK VINA RESULT:    -3.602      2.198      4.257
REMARK INTER + INTRA:          -5.783
REMARK INTER:                  -5.237
REMARK INTRA:                  -0.546
REMARK UNBOUND:                -0.286
REMARK SMILES CC1=CCC[C@H](C)C(=O)C[C@@H](C(C)C)C(=O)C1
REMARK SMILES IDX 8 1 9 2 6 3 7 4 5 5 4 6 3 7 2 8 1 9 10 11 11 12 15 13 16 14
REMARK SMILES IDX 17 15 12 17 13 18 14 19
REMARK H PARENT
REMARK Flexibility Score: 70.00
ROOT
ATOM      1  C   UNL     1      16.039  45.596  20.558  1.00  0.00     0.136 C 
ATOM      2  O   UNL     1      15.254  46.534  20.544  1.00  0.00    -0.299 OA
ENDROOT
BRANCH   1   3
ATOM      3  C   UNL     1      15.667  44.300  19.864  1.00  0.00     0.053 C 
ATOM      4  C   UNL     1      16.046  44.385  18.382  1.00  0.00     0.016 C 
BRANCH   3   5
ATOM      5  C   UNL     1      16.347  43.080  20.521  1.00  0.00     0.015 C 
BRANCH   5   6
ATOM      6  C   UNL     1      17.571  42.542  19.759  1.00  0.00     0.028 C 
BRANCH   6   7
ATOM      7  C   UNL     1      18.781  42.318  20.634  1.00  0.00    -0.028 C 
ATOM      8  C   UNL     1      19.949  43.012  20.638  1.00  0.00    -0.070 CG0
ATOM      9  C   UNL     1      21.036  42.503  21.556  1.00  0.00     0.039 C 
ATOM     10  G   UNL     1      20.217  44.302  19.869  1.00  0.00     0.000 G0
ENDBRANCH   6   7
ENDBRANCH   5   6
ENDBRANCH   3   5
ENDBRANCH   1   3
BRANCH   1  11
ATOM     11  C   UNL     1      17.345  45.746  21.297  1.00  0.00     0.087 C 
BRANCH  11  12
ATOM     12  C   UNL     1      18.483  46.282  20.383  1.00  0.00     0.066 C 
BRANCH  12  13
ATOM     13  C   UNL     1      19.835  45.597  20.576  1.00  0.00     0.140 C 
ATOM     14  O   UNL     1      20.594  46.046  21.424  1.00  0.00    -0.299 OA
BRANCH  13  15
ATOM     15  C   UNL     1      20.233  44.322  19.869  1.00  0.00     0.106 CG0
ATOM     16  G   UNL     1      19.943  43.039  20.643  1.00  0.00     0.000 G0
ENDBRANCH  13  15
ENDBRANCH  12  13
BRANCH  12  17
ATOM     17  C   UNL     1      18.651  47.832  20.453  1.00  0.00    -0.006 C 
ATOM     18  C   UNL     1      18.096  48.532  19.202  1.00  0.00     0.008 C 
ATOM     19  C   UNL     1      18.045  48.457  21.720  1.00  0.00     0.008 C 
ENDBRANCH  12  17
ENDBRANCH  11  12
ENDBRANCH   1  11
TORSDOF 1
ENDMDL
MODEL 4
REMARK VINA RESULT:    -3.597      2.471      3.806
REMARK INTER + INTRA:          -5.776
REMARK INTER:                  -5.276
REMARK INTRA:                  -0.500
REMARK UNBOUND:                -0.286
REMARK SMILES CC1=CCC[C@H](C)C(=O)C[C@@H](C(C)C)C(=O)C1
REMARK SMILES IDX 8 1 9 2 6 3 7 4 5 5 4 6 3 7 2 8 1 9 10 11 11 12 15 13 16 14
REMARK SMILES IDX 17 15 12 17 13 18 14 19
REMARK H PARENT
REMARK Flexibility Score: 70.00
ROOT
ATOM      1  C   UNL     1      21.191  43.669  21.942  1.00  0.00     0.136 C 
ATOM      2  O   UNL     1      21.833  44.554  22.491  1.00  0.00    -0.299 OA
ENDROOT
BRANCH   1   3
ATOM      3  C   UNL     1      21.158  42.282  22.552  1.00  0.00     0.053 C 
ATOM      4  C   UNL     1      22.589  41.811  22.833  1.00  0.00     0.016 C 
BRANCH   3   5
ATOM      5  C   UNL     1      20.318  42.242  23.846  1.00  0.00     0.015 C 
BRANCH   5   6
ATOM      6  C   UNL     1      18.877  41.736  23.659  1.00  0.00     0.028 C 
BRANCH   6   7
ATOM      7  C   UNL     1      18.682  40.906  22.412  1.00  0.00    -0.028 C 
ATOM      8  C   UNL     1      17.896  41.182  21.339  1.00  0.00    -0.070 CG0
ATOM      9  C   UNL     1      17.812  40.119  20.269  1.00  0.00     0.039 C 
ATOM     10  G   UNL     1      17.174  42.502  21.085  1.00  0.00     0.000 G0
ENDBRANCH   6   7
ENDBRANCH   5   6
ENDBRANCH   3   5
ENDBRANCH   1   3
BRANCH   1  11
ATOM     11  C   UNL     1      20.477  43.977  20.651  1.00  0.00     0.087 C 
BRANCH  11  12
ATOM     12  C   UNL     1      19.010  44.441  20.882  1.00  0.00     0.066 C 
BRANCH  12  13
ATOM     13  C   UNL     1      17.948  43.535  20.263  1.00  0.00     0.140 C 
ATOM     14  O   UNL     1      17.795  43.570  19.050  1.00  0.00    -0.299 OA
BRANCH  13  15
ATOM     15  C   UNL     1      17.167  42.507  21.048  1.00  0.00     0.106 CG0
ATOM     16  G   UNL     1      17.912  41.204  21.325  1.00  0.00     0.000 G0
ENDBRANCH  13  15
ENDBRANCH  12  13
BRANCH  12  17
ATOM     17  C   UNL     1      18.761  45.925  20.467  1.00  0.00    -0.006 C 
ATOM     18  C   UNL     1      17.567  46.542  21.213  1.00  0.00     0.008 C 
ATOM     19  C   UNL     1      20.000  46.821  20.620  1.00  0.00     0.008 C 
ENDBRANCH  12  17
ENDBRANCH  11  12
ENDBRANCH   1  11
TORSDOF 1
ENDMDL
MODEL 5
REMARK VINA RESULT:    -3.562      1.980      4.433
REMARK INTER + INTRA:          -5.723
REMARK INTER:                  -5.488
REMARK INTRA:                  -0.234
REMARK UNBOUND:                -0.286
REMARK SMILES CC1=CCC[C@H](C)C(=O)C[C@@H](C(C)C)C(=O)C1
REMARK SMILES IDX 8 1 9 2 6 3 7 4 5 5 4 6 3 7 2 8 1 9 10 11 11 12 15 13 16 14
REMARK SMILES IDX 17 15 12 17 13 18 14 19
REMARK H PARENT
REMARK Flexibility Score: 70.00
ROOT
ATOM      1  C   UNL     1      17.685  46.515  20.467  1.00  0.00     0.136 C 
ATOM      2  O   UNL     1      17.342  47.140  21.462  1.00  0.00    -0.299 OA
ENDROOT
BRANCH   1   3
ATOM      3  C   UNL     1      19.158  46.262  20.214  1.00  0.00     0.053 C 
ATOM      4  C   UNL     1      19.928  47.583  20.307  1.00  0.00     0.016 C 
BRANCH   3   5
ATOM      5  C   UNL     1      19.743  45.231  21.202  1.00  0.00     0.015 C 
BRANCH   5   6
ATOM      6  C   UNL     1      18.758  44.131  21.638  1.00  0.00     0.028 C 
BRANCH   6   7
ATOM      7  C   UNL     1      18.963  42.815  20.925  1.00  0.00    -0.028 C 
ATOM      8  C   UNL     1      18.303  42.344  19.835  1.00  0.00    -0.070 CG0
ATOM      9  C   UNL     1      18.645  40.941  19.390  1.00  0.00     0.039 C 
ATOM     10  G   UNL     1      17.322  43.140  18.979  1.00  0.00     0.000 G0
ENDBRANCH   6   7
ENDBRANCH   5   6
ENDBRANCH   3   5
ENDBRANCH   1   3
BRANCH   1  11
ATOM     11  C   UNL     1      16.629  46.043  19.500  1.00  0.00     0.087 C 
BRANCH  11  12
ATOM     12  C   UNL     1      15.712  44.947  20.115  1.00  0.00     0.066 C 
BRANCH  12  13
ATOM     13  C   UNL     1      16.019  43.524  19.651  1.00  0.00     0.140 C 
ATOM     14  O   UNL     1      15.135  42.683  19.745  1.00  0.00    -0.299 OA
BRANCH  13  15
ATOM     15  C   UNL     1      17.306  43.129  18.966  1.00  0.00     0.106 CG0
ATOM     16  G   UNL     1      18.292  42.358  19.839  1.00  0.00     0.000 G0
ENDBRANCH  13  15
ENDBRANCH  12  13
BRANCH  12  17
ATOM     17  C   UNL     1      14.190  45.252  19.947  1.00  0.00    -0.006 C 
ATOM     18  C   UNL     1      13.645  46.123  21.090  1.00  0.00     0.008 C 
ATOM     19  C   UNL     1      13.837  45.879  18.589  1.00  0.00     0.008 C 
ENDBRANCH  12  17
ENDBRANCH  11  12
ENDBRANCH   1  11
TORSDOF 1
ENDMDL
MODEL 6
REMARK VINA RESULT:    -3.370      2.468      4.856
REMARK INTER + INTRA:          -5.430
REMARK INTER:                  -5.089
REMARK INTRA:                  -0.340
REMARK UNBOUND:                -0.286
REMARK SMILES CC1=CCC[C@H](C)C(=O)C[C@@H](C(C)C)C(=O)C1
REMARK SMILES IDX 8 1 9 2 6 3 7 4 5 5 4 6 3 7 2 8 1 9 10 11 11 12 15 13 16 14
REMARK SMILES IDX 17 15 12 17 13 18 14 19
REMARK H PARENT
REMARK Flexibility Score: 70.00
ROOT
ATOM      1  C   UNL     1      19.263  41.412  22.577  1.00  0.00     0.136 C 
ATOM      2  O   UNL     1      19.712  40.437  23.166  1.00  0.00    -0.299 OA
ENDROOT
BRANCH   1   3
ATOM      3  C   UNL     1      20.004  42.732  22.644  1.00  0.00     0.053 C 
ATOM      4  C   UNL     1      20.742  42.838  23.983  1.00  0.00     0.016 C 
BRANCH   3   5
ATOM      5  C   UNL     1      20.995  42.897  21.472  1.00  0.00     0.015 C 
BRANCH   5   6
ATOM      6  C   UNL     1      20.702  44.093  20.549  1.00  0.00     0.028 C 
BRANCH   6   7
ATOM      7  C   UNL     1      19.561  44.961  21.024  1.00  0.00    -0.028 C 
ATOM      8  C   UNL     1      18.308  45.050  20.507  1.00  0.00    -0.070 CG0
ATOM      9  C   UNL     1      17.392  46.083  21.121  1.00  0.00     0.039 C 
ATOM     10  G   UNL     1      17.726  44.138  19.430  1.00  0.00     0.000 G0
ENDBRANCH   6   7
ENDBRANCH   5   6
ENDBRANCH   3   5
ENDBRANCH   1   3
BRANCH   1  11
ATOM     11  C   UNL     1      17.962  41.277  21.826  1.00  0.00     0.087 C 
BRANCH  11  12
ATOM     12  C   UNL     1      18.102  41.664  20.327  1.00  0.00     0.066 C 
BRANCH  12  13
ATOM     13  C   UNL     1      17.200  42.811  19.876  1.00  0.00     0.140 C 
ATOM     14  O   UNL     1      15.990  42.677  19.999  1.00  0.00    -0.299 OA
BRANCH  13  15
ATOM     15  C   UNL     1      17.722  44.149  19.407  1.00  0.00     0.106 CG0
ATOM     16  G   UNL     1      18.289  45.042  20.507  1.00  0.00     0.000 G0
ENDBRANCH  13  15
ENDBRANCH  12  13
BRANCH  12  17
ATOM     17  C   UNL     1      17.950  40.448  19.360  1.00  0.00    -0.006 C 
ATOM     18  C   UNL     1      19.265  40.115  18.636  1.00  0.00     0.008 C 
ATOM     19  C   UNL     1      17.389  39.189  20.041  1.00  0.00     0.008 C 
ENDBRANCH  12  17
ENDBRANCH  11  12
ENDBRANCH   1  11
TORSDOF 1
ENDMDL
MODEL 7
REMARK VINA RESULT:    -3.351      1.607      3.999
REMARK INTER + INTRA:          -5.401
REMARK INTER:                  -5.140
REMARK INTRA:                  -0.261
REMARK UNBOUND:                -0.286
REMARK SMILES CC1=CCC[C@H](C)C(=O)C[C@@H](C(C)C)C(=O)C1
REMARK SMILES IDX 8 1 9 2 6 3 7 4 5 5 4 6 3 7 2 8 1 9 10 11 11 12 15 13 16 14
REMARK SMILES IDX 17 15 12 17 13 18 14 19
REMARK H PARENT
REMARK Flexibility Score: 70.00
ROOT
ATOM      1  C   UNL     1      19.323  45.742  20.636  1.00  0.00     0.136 C 
ATOM      2  O   UNL     1      20.395  45.598  20.065  1.00  0.00    -0.299 OA
ENDROOT
BRANCH   1   3
ATOM      3  C   UNL     1      18.726  47.129  20.769  1.00  0.00     0.053 C 
ATOM      4  C   UNL     1      19.077  47.959  19.529  1.00  0.00     0.016 C 
BRANCH   3   5
ATOM      5  C   UNL     1      17.196  47.081  20.965  1.00  0.00     0.015 C 
BRANCH   5   6
ATOM      6  C   UNL     1      16.387  46.968  19.661  1.00  0.00     0.028 C 
BRANCH   6   7
ATOM      7  C   UNL     1      15.133  46.136  19.794  1.00  0.00    -0.028 C 
ATOM      8  C   UNL     1      14.932  44.857  19.384  1.00  0.00    -0.070 CG0
ATOM      9  C   UNL     1      13.537  44.301  19.555  1.00  0.00     0.039 C 
ATOM     10  G   UNL     1      16.009  43.915  18.855  1.00  0.00     0.000 G0
ENDBRANCH   6   7
ENDBRANCH   5   6
ENDBRANCH   3   5
ENDBRANCH   1   3
BRANCH   1  11
ATOM     11  C   UNL     1      18.640  44.533  21.224  1.00  0.00     0.087 C 
BRANCH  11  12
ATOM     12  C   UNL     1      18.323  43.453  20.151  1.00  0.00     0.066 C 
BRANCH  12  13
ATOM     13  C   UNL     1      16.834  43.204  19.914  1.00  0.00     0.140 C 
ATOM     14  O   UNL     1      16.242  42.468  20.691  1.00  0.00    -0.299 OA
BRANCH  13  15
ATOM     15  C   UNL     1      16.027  43.915  18.853  1.00  0.00     0.106 CG0
ATOM     16  G   UNL     1      14.954  44.860  19.384  1.00  0.00     0.000 G0
ENDBRANCH  13  15
ENDBRANCH  12  13
BRANCH  12  17
ATOM     17  C   UNL     1      19.062  42.100  20.401  1.00  0.00    -0.006 C 
ATOM     18  C   UNL     1      19.159  41.249  19.124  1.00  0.00     0.008 C 
ATOM     19  C   UNL     1      20.454  42.270  21.030  1.00  0.00     0.008 C 
ENDBRANCH  12  17
ENDBRANCH  11  12
ENDBRANCH   1  11
TORSDOF 1
ENDMDL
MODEL 8
REMARK VINA RESULT:    -3.284      2.873      4.609
REMARK INTER + INTRA:          -5.298
REMARK INTER:                  -5.092
REMARK INTRA:                  -0.206
REMARK UNBOUND:                -0.286
REMARK SMILES CC1=CCC[C@H](C)C(=O)C[C@@H](C(C)C)C(=O)C1
REMARK SMILES IDX 8 1 9 2 6 3 7 4 5 5 4 6 3 7 2 8 1 9 10 11 11 12 15 13 16 14
REMARK SMILES IDX 17 15 12 17 13 18 14 19
REMARK H PARENT
REMARK Flexibility Score: 70.00
ROOT
ATOM      1  C   UNL     1      17.293  43.081  19.658  1.00  0.00     0.136 C 
ATOM      2  O   UNL     1      16.956  43.755  18.694  1.00  0.00    -0.299 OA
ENDROOT
BRANCH   1   3
ATOM      3  C   UNL     1      17.194  41.570  19.586  1.00  0.00     0.053 C 
ATOM      4  C   UNL     1      18.529  40.992  19.107  1.00  0.00     0.016 C 
BRANCH   3   5
ATOM      5  C   UNL     1      16.799  40.954  20.944  1.00  0.00     0.015 C 
BRANCH   5   6
ATOM      6  C   UNL     1      17.935  40.203  21.661  1.00  0.00     0.028 C 
BRANCH   6   7
ATOM      7  C   UNL     1      18.452  40.912  22.890  1.00  0.00    -0.028 C 
ATOM      8  C   UNL     1      19.528  41.736  22.988  1.00  0.00    -0.070 CG0
ATOM      9  C   UNL     1      19.879  42.231  24.372  1.00  0.00     0.039 C 
ATOM     10  G   UNL     1      20.347  42.269  21.816  1.00  0.00     0.000 G0
ENDBRANCH   6   7
ENDBRANCH   5   6
ENDBRANCH   3   5
ENDBRANCH   1   3
BRANCH   1  11
ATOM     11  C   UNL     1      17.768  43.779  20.908  1.00  0.00     0.087 C 
BRANCH  11  12
ATOM     12  C   UNL     1      19.176  44.415  20.732  1.00  0.00     0.066 C 
BRANCH  12  13
ATOM     13  C   UNL     1      20.284  43.752  21.549  1.00  0.00     0.140 C 
ATOM     14  O   UNL     1      21.089  44.473  22.121  1.00  0.00    -0.299 OA
BRANCH  13  15
ATOM     15  C   UNL     1      20.363  42.263  21.793  1.00  0.00     0.106 CG0
ATOM     16  G   UNL     1      19.538  41.758  22.973  1.00  0.00     0.000 G0
ENDBRANCH  13  15
ENDBRANCH  12  13
BRANCH  12  17
ATOM     17  C   UNL     1      19.188  45.959  20.962  1.00  0.00    -0.006 C 
ATOM     18  C   UNL     1      20.000  46.698  19.886  1.00  0.00     0.008 C 
ATOM     19  C   UNL     1      17.784  46.572  21.079  1.00  0.00     0.008 C 
ENDBRANCH  12  17
ENDBRANCH  11  12
ENDBRANCH   1  11
TORSDOF 1
ENDMDL
MODEL 9
REMARK VINA RESULT:    -3.149      2.065      5.298
REMARK INTER + INTRA:          -5.092
REMARK INTER:                  -5.234
REMARK INTRA:                   0.142
REMARK UNBOUND:                -0.286
REMARK SMILES CC1=CCC[C@H](C)C(=O)C[C@@H](C(C)C)C(=O)C1
REMARK SMILES IDX 8 1 9 2 6 3 7 4 5 5 4 6 3 7 2 8 1 9 10 11 11 12 15 13 16 14
REMARK SMILES IDX 17 15 12 17 13 18 14 19
REMARK H PARENT
REMARK Flexibility Score: 70.00
ROOT
ATOM      1  C   UNL     1      15.537  43.999  19.032  1.00  0.00     0.136 C 
ATOM      2  O   UNL     1      14.386  43.708  18.737  1.00  0.00    -0.299 OA
ENDROOT
BRANCH   1   3
ATOM      3  C   UNL     1      15.923  45.457  19.187  1.00  0.00     0.053 C 
ATOM      4  C   UNL     1      15.107  46.310  18.210  1.00  0.00     0.016 C 
BRANCH   3   5
ATOM      5  C   UNL     1      15.720  45.955  20.633  1.00  0.00     0.015 C 
BRANCH   5   6
ATOM      6  C   UNL     1      16.884  46.791  21.192  1.00  0.00     0.028 C 
BRANCH   6   7
ATOM      7  C   UNL     1      18.208  46.516  20.519  1.00  0.00    -0.028 C 
ATOM      8  C   UNL     1      19.085  45.512  20.779  1.00  0.00    -0.070 CG0
ATOM      9  C   UNL     1      20.389  45.535  20.016  1.00  0.00     0.039 C 
ATOM     10  G   UNL     1      18.826  44.325  21.702  1.00  0.00     0.000 G0
ENDBRANCH   6   7
ENDBRANCH   5   6
ENDBRANCH   3   5
ENDBRANCH   1   3
BRANCH   1  11
ATOM     11  C   UNL     1      16.550  42.895  19.199  1.00  0.00     0.087 C 
BRANCH  11  12
ATOM     12  C   UNL     1      16.964  42.692  20.684  1.00  0.00     0.066 C 
BRANCH  12  13
ATOM     13  C   UNL     1      18.418  43.039  20.997  1.00  0.00     0.140 C 
ATOM     14  O   UNL     1      19.293  42.303  20.562  1.00  0.00    -0.299 OA
BRANCH  13  15
ATOM     15  C   UNL     1      18.840  44.308  21.701  1.00  0.00     0.106 CG0
ATOM     16  G   UNL     1      19.090  45.502  20.784  1.00  0.00     0.000 G0
ENDBRANCH  13  15
ENDBRANCH  12  13
BRANCH  12  17
ATOM     17  C   UNL     1      16.621  41.270  21.230  1.00  0.00    -0.006 C 
ATOM     18  C   UNL     1      16.463  40.239  20.101  1.00  0.00     0.008 C 
ATOM     19  C   UNL     1      17.621  40.758  22.278  1.00  0.00     0.008 C 
ENDBRANCH  12  17
ENDBRANCH  11  12
ENDBRANCH   1  11
TORSDOF 1
ENDMDL
