MODEL 1
REMARK VINA RESULT:    -7.357      0.000      0.000
REMARK INTER + INTRA:          -8.920
REMARK INTER:                  -8.863
REMARK INTRA:                  -0.057
REMARK UNBOUND:                -0.057
REMARK SMILES O=c1c(O)c(-c2ccc(O)cc2O)oc2cc(O)cc(O)c12
REMARK SMILES IDX 5 1 3 2 2 3 1 4 22 5 20 6 19 7 17 8 16 9 15 10 14 11 6 12
REMARK SMILES IDX 8 13 7 14 9 15 11 16 12 17 10 18 13 20 4 22 21 24 18 26
REMARK H PARENT 10 19 13 21 4 23 21 25 18 27
REMARK Flexibility Score: inf
ROOT
ATOM      1  C   UNL     1     100.835 115.361 124.801  1.00  0.00     0.184 A 
ATOM      2  C   UNL     1     100.243 115.492 123.536  1.00  0.00     0.208 A 
ATOM      3  C   UNL     1      99.584 116.688 123.213  1.00  0.00     0.238 A 
ATOM      4  O   UNL     1      99.103 116.820 122.057  1.00  0.00    -0.285 OA
ATOM      5  C   UNL     1      99.512 117.732 124.168  1.00  0.00     0.111 A 
ATOM      6  C   UNL     1      98.836 118.972 123.963  1.00  0.00     0.134 A 
ATOM      7  C   UNL     1      98.940 119.983 124.927  1.00  0.00     0.093 A 
ATOM      8  C   UNL     1      99.642 119.774 126.117  1.00  0.00     0.123 A 
ATOM      9  C   UNL     1     100.256 118.546 126.351  1.00  0.00     0.094 A 
ATOM     10  C   UNL     1     100.200 117.531 125.393  1.00  0.00     0.146 A 
ATOM     11  O   UNL     1     100.809 116.380 125.652  1.00  0.00    -0.451 OA
ENDROOT
BRANCH   1  12
ATOM     12  C   UNL     1     101.529 114.122 125.211  1.00  0.00     0.063 A 
ATOM     13  C   UNL     1     103.069 112.324 124.658  1.00  0.00     0.047 A 
ATOM     14  C   UNL     1     102.393 113.493 124.301  1.00  0.00     0.020 A 
ATOM     15  C   UNL     1     102.902 111.776 125.932  1.00  0.00     0.119 A 
ATOM     16  C   UNL     1     102.061 112.409 126.856  1.00  0.00     0.093 A 
ATOM     17  C   UNL     1     101.383 113.587 126.508  1.00  0.00     0.130 A 
BRANCH  15  18
ATOM     18  O   UNL     1     103.579 110.607 126.272  1.00  0.00    -0.508 OA
ATOM     19  H   UNL     1     103.577 109.798 125.661  1.00  0.00     0.293 HD
ENDBRANCH  15  18
BRANCH  17  20
ATOM     20  O   UNL     1     100.586 114.235 127.453  1.00  0.00    -0.507 OA
ATOM     21  H   UNL     1     100.774 115.188 127.742  1.00  0.00     0.293 HD
ENDBRANCH  17  20
ENDBRANCH   1  12
BRANCH   2  22
ATOM     22  O   UNL     1     100.345 114.453 122.606  1.00  0.00    -0.502 OA
ATOM     23  H   UNL     1     101.232 114.156 122.219  1.00  0.00     0.293 HD
ENDBRANCH   2  22
BRANCH   6  24
ATOM     24  O   UNL     1      98.033 119.249 122.852  1.00  0.00    -0.507 OA
ATOM     25  H   UNL     1      97.060 118.996 122.769  1.00  0.00     0.293 HD
ENDBRANCH   6  24
BRANCH   8  26
ATOM     26  O   UNL     1      99.727 120.779 127.076  1.00  0.00    -0.508 OA
ATOM     27  H   UNL     1     100.477 120.800 127.759  1.00  0.00     0.293 HD
ENDBRANCH   8  26
TORSDOF 6
ENDMDL
MODEL 2
REMARK VINA RESULT:    -7.217      3.526      6.267
REMARK INTER + INTRA:          -8.751
REMARK INTER:                  -8.335
REMARK INTRA:                  -0.416
REMARK UNBOUND:                -0.057
REMARK SMILES O=c1c(O)c(-c2ccc(O)cc2O)oc2cc(O)cc(O)c12
REMARK SMILES IDX 5 1 3 2 2 3 1 4 22 5 20 6 19 7 17 8 16 9 15 10 14 11 6 12
REMARK SMILES IDX 8 13 7 14 9 15 11 16 12 17 10 18 13 20 4 22 21 24 18 26
REMARK H PARENT 10 19 13 21 4 23 21 25 18 27
REMARK Flexibility Score: inf
ROOT
ATOM      1  C   UNL     1     101.188 111.380 123.228  1.00  0.00     0.184 A 
ATOM      2  C   UNL     1     102.112 110.800 124.110  1.00  0.00     0.208 A 
ATOM      3  C   UNL     1     102.388 111.442 125.327  1.00  0.00     0.238 A 
ATOM      4  O   UNL     1     103.177 110.890 126.137  1.00  0.00    -0.285 OA
ATOM      5  C   UNL     1     101.746 112.666 125.638  1.00  0.00     0.111 A 
ATOM      6  C   UNL     1     101.979 113.425 126.824  1.00  0.00     0.134 A 
ATOM      7  C   UNL     1     101.192 114.553 127.087  1.00  0.00     0.093 A 
ATOM      8  C   UNL     1     100.227 114.987 126.176  1.00  0.00     0.123 A 
ATOM      9  C   UNL     1     100.033 114.287 124.987  1.00  0.00     0.094 A 
ATOM     10  C   UNL     1     100.777 113.137 124.713  1.00  0.00     0.146 A 
ATOM     11  O   UNL     1     100.552 112.493 123.574  1.00  0.00    -0.451 OA
ENDROOT
BRANCH   1  12
ATOM     12  C   UNL     1     100.865 110.764 121.923  1.00  0.00     0.063 A 
ATOM     13  C   UNL     1      99.734 109.009 120.678  1.00  0.00     0.047 A 
ATOM     14  C   UNL     1     100.063 109.613 121.894  1.00  0.00     0.020 A 
ATOM     15  C   UNL     1     100.192 109.555 119.475  1.00  0.00     0.119 A 
ATOM     16  C   UNL     1     100.974 110.716 119.492  1.00  0.00     0.093 A 
ATOM     17  C   UNL     1     101.302 111.333 120.709  1.00  0.00     0.130 A 
BRANCH  15  18
ATOM     18  O   UNL     1      99.860 108.938 118.272  1.00  0.00    -0.508 OA
ATOM     19  H   UNL     1     100.572 108.653 117.610  1.00  0.00     0.293 HD
ENDBRANCH  15  18
BRANCH  17  20
ATOM     20  O   UNL     1     102.041 112.517 120.710  1.00  0.00    -0.507 OA
ATOM     21  H   UNL     1     101.865 113.254 120.037  1.00  0.00     0.293 HD
ENDBRANCH  17  20
ENDBRANCH   1  12
BRANCH   2  22
ATOM     22  O   UNL     1     102.718 109.582 123.786  1.00  0.00    -0.502 OA
ATOM     23  H   UNL     1     103.723 109.466 123.757  1.00  0.00     0.293 HD
ENDBRANCH   2  22
BRANCH   6  24
ATOM     24  O   UNL     1     102.980 113.130 127.755  1.00  0.00    -0.507 OA
ATOM     25  H   UNL     1     103.618 112.352 127.685  1.00  0.00     0.293 HD
ENDBRANCH   6  24
BRANCH   8  26
ATOM     26  O   UNL     1      99.460 116.120 126.439  1.00  0.00    -0.508 OA
ATOM     27  H   UNL     1      98.488 116.180 126.157  1.00  0.00     0.293 HD
ENDBRANCH   8  26
TORSDOF 6
ENDMDL
MODEL 3
REMARK VINA RESULT:    -7.158      3.685      6.355
REMARK INTER + INTRA:          -8.680
REMARK INTER:                  -8.337
REMARK INTRA:                  -0.343
REMARK UNBOUND:                -0.057
REMARK SMILES O=c1c(O)c(-c2ccc(O)cc2O)oc2cc(O)cc(O)c12
REMARK SMILES IDX 5 1 3 2 2 3 1 4 22 5 20 6 19 7 17 8 16 9 15 10 14 11 6 12
REMARK SMILES IDX 8 13 7 14 9 15 11 16 12 17 10 18 13 20 4 22 21 24 18 26
REMARK H PARENT 10 19 13 21 4 23 21 25 18 27
REMARK Flexibility Score: inf
ROOT
ATOM      1  C   UNL     1     101.272 111.490 122.898  1.00  0.00     0.184 A 
ATOM      2  C   UNL     1     102.144 110.793 123.747  1.00  0.00     0.208 A 
ATOM      3  C   UNL     1     102.392 111.299 125.033  1.00  0.00     0.238 A 
ATOM      4  O   UNL     1     103.132 110.640 125.810  1.00  0.00    -0.285 OA
ATOM      5  C   UNL     1     101.777 112.507 125.444  1.00  0.00     0.111 A 
ATOM      6  C   UNL     1     101.988 113.133 126.709  1.00  0.00     0.134 A 
ATOM      7  C   UNL     1     101.227 114.256 127.059  1.00  0.00     0.093 A 
ATOM      8  C   UNL     1     100.311 114.813 126.164  1.00  0.00     0.123 A 
ATOM      9  C   UNL     1     100.141 114.243 124.904  1.00  0.00     0.094 A 
ATOM     10  C   UNL     1     100.859 113.102 124.540  1.00  0.00     0.146 A 
ATOM     11  O   UNL     1     100.658 112.584 123.333  1.00  0.00    -0.451 OA
ENDROOT
BRANCH   1  12
ATOM     12  C   UNL     1     100.981 111.021 121.527  1.00  0.00     0.063 A 
ATOM     13  C   UNL     1     101.345 111.243 119.133  1.00  0.00     0.047 A 
ATOM     14  C   UNL     1     101.594 111.665 120.441  1.00  0.00     0.020 A 
ATOM     15  C   UNL     1     100.491 110.162 118.894  1.00  0.00     0.119 A 
ATOM     16  C   UNL     1      99.893 109.497 119.971  1.00  0.00     0.093 A 
ATOM     17  C   UNL     1     100.143 109.911 121.289  1.00  0.00     0.130 A 
BRANCH  15  18
ATOM     18  O   UNL     1     100.248 109.756 117.584  1.00  0.00    -0.508 OA
ATOM     19  H   UNL     1     100.908 109.175 117.080  1.00  0.00     0.293 HD
ENDBRANCH  15  18
BRANCH  17  20
ATOM     20  O   UNL     1      99.580 109.210 122.355  1.00  0.00    -0.507 OA
ATOM     21  H   UNL     1     100.009 108.369 122.724  1.00  0.00     0.293 HD
ENDBRANCH  17  20
ENDBRANCH   1  12
BRANCH   2  22
ATOM     22  O   UNL     1     102.723 109.593 123.323  1.00  0.00    -0.502 OA
ATOM     23  H   UNL     1     102.282 108.694 123.473  1.00  0.00     0.293 HD
ENDBRANCH   2  22
BRANCH   6  24
ATOM     24  O   UNL     1     102.943 112.712 127.639  1.00  0.00    -0.507 OA
ATOM     25  H   UNL     1     103.667 112.035 127.452  1.00  0.00     0.293 HD
ENDBRANCH   6  24
BRANCH   8  26
ATOM     26  O   UNL     1      99.570 115.939 126.514  1.00  0.00    -0.508 OA
ATOM     27  H   UNL     1      98.904 116.356 125.874  1.00  0.00     0.293 HD
ENDBRANCH   8  26
TORSDOF 6
ENDMDL
MODEL 4
REMARK VINA RESULT:    -6.944      3.692      8.243
REMARK INTER + INTRA:          -8.422
REMARK INTER:                  -7.993
REMARK INTRA:                  -0.429
REMARK UNBOUND:                -0.057
REMARK SMILES O=c1c(O)c(-c2ccc(O)cc2O)oc2cc(O)cc(O)c12
REMARK SMILES IDX 5 1 3 2 2 3 1 4 22 5 20 6 19 7 17 8 16 9 15 10 14 11 6 12
REMARK SMILES IDX 8 13 7 14 9 15 11 16 12 17 10 18 13 20 4 22 21 24 18 26
REMARK H PARENT 10 19 13 21 4 23 21 25 18 27
REMARK Flexibility Score: inf
ROOT
ATOM      1  C   UNL     1     101.209 111.675 123.818  1.00  0.00     0.184 A 
ATOM      2  C   UNL     1     102.302 110.920 124.269  1.00  0.00     0.208 A 
ATOM      3  C   UNL     1     102.586 109.695 123.646  1.00  0.00     0.238 A 
ATOM      4  O   UNL     1     103.600 109.047 124.018  1.00  0.00    -0.285 OA
ATOM      5  C   UNL     1     101.761 109.234 122.591  1.00  0.00     0.111 A 
ATOM      6  C   UNL     1     101.931 107.989 121.913  1.00  0.00     0.134 A 
ATOM      7  C   UNL     1     101.136 107.695 120.799  1.00  0.00     0.093 A 
ATOM      8  C   UNL     1     100.134 108.572 120.377  1.00  0.00     0.123 A 
ATOM      9  C   UNL     1      99.921 109.763 121.068  1.00  0.00     0.094 A 
ATOM     10  C   UNL     1     100.722 110.101 122.161  1.00  0.00     0.146 A 
ATOM     11  O   UNL     1     100.493 111.251 122.784  1.00  0.00    -0.451 OA
ENDROOT
BRANCH   1  12
ATOM     12  C   UNL     1     100.846 112.966 124.442  1.00  0.00     0.063 A 
ATOM     13  C   UNL     1      99.847 114.164 126.306  1.00  0.00     0.047 A 
ATOM     14  C   UNL     1     100.199 112.962 125.687  1.00  0.00     0.020 A 
ATOM     15  C   UNL     1     100.150 115.384 125.696  1.00  0.00     0.119 A 
ATOM     16  C   UNL     1     100.816 115.399 124.465  1.00  0.00     0.093 A 
ATOM     17  C   UNL     1     101.179 114.197 123.839  1.00  0.00     0.130 A 
BRANCH  15  18
ATOM     18  O   UNL     1      99.788 116.574 126.324  1.00  0.00    -0.508 OA
ATOM     19  H   UNL     1      98.889 116.679 126.780  1.00  0.00     0.293 HD
ENDBRANCH  15  18
BRANCH  17  20
ATOM     20  O   UNL     1     101.886 114.226 122.637  1.00  0.00    -0.507 OA
ATOM     21  H   UNL     1     101.574 113.706 121.824  1.00  0.00     0.293 HD
ENDBRANCH  17  20
ENDBRANCH   1  12
BRANCH   2  22
ATOM     22  O   UNL     1     103.111 111.406 125.300  1.00  0.00    -0.502 OA
ATOM     23  H   UNL     1     102.733 111.896 126.102  1.00  0.00     0.293 HD
ENDBRANCH   2  22
BRANCH   6  24
ATOM     24  O   UNL     1     102.840 107.003 122.309  1.00  0.00    -0.507 OA
ATOM     25  H   UNL     1     102.830 106.048 121.984  1.00  0.00     0.293 HD
ENDBRANCH   6  24
BRANCH   8  26
ATOM     26  O   UNL     1      99.338 108.265 119.277  1.00  0.00    -0.508 OA
ATOM     27  H   UNL     1      98.943 108.990 118.688  1.00  0.00     0.293 HD
ENDBRANCH   8  26
TORSDOF 6
ENDMDL
MODEL 5
REMARK VINA RESULT:    -6.907      2.606      4.634
REMARK INTER + INTRA:          -8.377
REMARK INTER:                  -8.047
REMARK INTRA:                  -0.330
REMARK UNBOUND:                -0.057
REMARK SMILES O=c1c(O)c(-c2ccc(O)cc2O)oc2cc(O)cc(O)c12
REMARK SMILES IDX 5 1 3 2 2 3 1 4 22 5 20 6 19 7 17 8 16 9 15 10 14 11 6 12
REMARK SMILES IDX 8 13 7 14 9 15 11 16 12 17 10 18 13 20 4 22 21 24 18 26
REMARK H PARENT 10 19 13 21 4 23 21 25 18 27
REMARK Flexibility Score: inf
ROOT
ATOM      1  C   UNL     1     100.806 114.998 123.330  1.00  0.00     0.184 A 
ATOM      2  C   UNL     1      99.890 116.054 123.441  1.00  0.00     0.208 A 
ATOM      3  C   UNL     1      99.468 116.715 122.276  1.00  0.00     0.238 A 
ATOM      4  O   UNL     1      98.605 117.626 122.376  1.00  0.00    -0.285 OA
ATOM      5  C   UNL     1      99.984 116.320 121.017  1.00  0.00     0.111 A 
ATOM      6  C   UNL     1      99.658 116.945 119.776  1.00  0.00     0.134 A 
ATOM      7  C   UNL     1     100.126 116.388 118.580  1.00  0.00     0.093 A 
ATOM      8  C   UNL     1     100.961 115.268 118.583  1.00  0.00     0.123 A 
ATOM      9  C   UNL     1     101.332 114.686 119.793  1.00  0.00     0.094 A 
ATOM     10  C   UNL     1     100.853 115.197 121.002  1.00  0.00     0.146 A 
ATOM     11  O   UNL     1     101.222 114.605 122.132  1.00  0.00    -0.451 OA
ENDROOT
BRANCH   1  12
ATOM     12  C   UNL     1     101.303 114.271 124.518  1.00  0.00     0.063 A 
ATOM     13  C   UNL     1     102.446 114.332 126.662  1.00  0.00     0.047 A 
ATOM     14  C   UNL     1     101.970 114.987 125.524  1.00  0.00     0.020 A 
ATOM     15  C   UNL     1     102.250 112.957 126.816  1.00  0.00     0.119 A 
ATOM     16  C   UNL     1     101.565 112.237 125.830  1.00  0.00     0.093 A 
ATOM     17  C   UNL     1     101.077 112.889 124.686  1.00  0.00     0.130 A 
BRANCH  15  18
ATOM     18  O   UNL     1     102.736 112.317 127.954  1.00  0.00    -0.508 OA
ATOM     19  H   UNL     1     103.726 112.294 128.167  1.00  0.00     0.293 HD
ENDBRANCH  15  18
BRANCH  17  20
ATOM     20  O   UNL     1     100.354 112.171 123.733  1.00  0.00    -0.507 OA
ATOM     21  H   UNL     1     100.470 111.170 123.621  1.00  0.00     0.293 HD
ENDBRANCH  17  20
ENDBRANCH   1  12
BRANCH   2  22
ATOM     22  O   UNL     1      99.383 116.411 124.694  1.00  0.00    -0.502 OA
ATOM     23  H   UNL     1      99.602 115.894 125.536  1.00  0.00     0.293 HD
ENDBRANCH   2  22
BRANCH   6  24
ATOM     24  O   UNL     1      98.908 118.120 119.667  1.00  0.00    -0.507 OA
ATOM     25  H   UNL     1      99.291 119.052 119.708  1.00  0.00     0.293 HD
ENDBRANCH   6  24
BRANCH   8  26
ATOM     26  O   UNL     1     101.434 114.731 117.389  1.00  0.00    -0.508 OA
ATOM     27  H   UNL     1     100.942 113.985 116.911  1.00  0.00     0.293 HD
ENDBRANCH   8  26
TORSDOF 6
ENDMDL
MODEL 6
REMARK VINA RESULT:    -6.830      1.754      3.610
REMARK INTER + INTRA:          -8.285
REMARK INTER:                  -8.256
REMARK INTRA:                  -0.029
REMARK UNBOUND:                -0.057
REMARK SMILES O=c1c(O)c(-c2ccc(O)cc2O)oc2cc(O)cc(O)c12
REMARK SMILES IDX 5 1 3 2 2 3 1 4 22 5 20 6 19 7 17 8 16 9 15 10 14 11 6 12
REMARK SMILES IDX 8 13 7 14 9 15 11 16 12 17 10 18 13 20 4 22 21 24 18 26
REMARK H PARENT 10 19 13 21 4 23 21 25 18 27
REMARK Flexibility Score: inf
ROOT
ATOM      1  C   UNL     1     101.360 113.531 124.885  1.00  0.00     0.184 A 
ATOM      2  C   UNL     1     100.784 114.085 126.038  1.00  0.00     0.208 A 
ATOM      3  C   UNL     1     100.196 115.358 125.961  1.00  0.00     0.238 A 
ATOM      4  O   UNL     1      99.633 115.827 126.984  1.00  0.00    -0.285 OA
ATOM      5  C   UNL     1     100.209 116.066 124.734  1.00  0.00     0.111 A 
ATOM      6  C   UNL     1      99.678 117.378 124.550  1.00  0.00     0.134 A 
ATOM      7  C   UNL     1      99.628 117.928 123.263  1.00  0.00     0.093 A 
ATOM      8  C   UNL     1     100.148 117.240 122.164  1.00  0.00     0.123 A 
ATOM      9  C   UNL     1     100.721 115.983 122.343  1.00  0.00     0.094 A 
ATOM     10  C   UNL     1     100.754 115.393 123.609  1.00  0.00     0.146 A 
ATOM     11  O   UNL     1     101.299 114.188 123.733  1.00  0.00    -0.451 OA
ENDROOT
BRANCH   1  12
ATOM     12  C   UNL     1     102.009 112.203 124.901  1.00  0.00     0.063 A 
ATOM     13  C   UNL     1     103.409 110.590 126.063  1.00  0.00     0.047 A 
ATOM     14  C   UNL     1     102.787 111.839 126.012  1.00  0.00     0.020 A 
ATOM     15  C   UNL     1     103.252 109.683 125.011  1.00  0.00     0.119 A 
ATOM     16  C   UNL     1     102.460 110.027 123.909  1.00  0.00     0.093 A 
ATOM     17  C   UNL     1     101.825 111.277 123.853  1.00  0.00     0.130 A 
BRANCH  15  18
ATOM     18  O   UNL     1     103.883 108.443 125.073  1.00  0.00    -0.508 OA
ATOM     19  H   UNL     1     104.858 108.358 125.337  1.00  0.00     0.293 HD
ENDBRANCH  15  18
BRANCH  17  20
ATOM     20  O   UNL     1     100.999 111.589 122.773  1.00  0.00    -0.507 OA
ATOM     21  H   UNL     1     100.833 112.549 122.491  1.00  0.00     0.293 HD
ENDBRANCH  17  20
ENDBRANCH   1  12
BRANCH   2  22
ATOM     22  O   UNL     1     100.769 113.357 127.231  1.00  0.00    -0.502 OA
ATOM     23  H   UNL     1      99.938 113.267 127.802  1.00  0.00     0.293 HD
ENDBRANCH   2  22
BRANCH   6  24
ATOM     24  O   UNL     1      99.217 118.186 125.594  1.00  0.00    -0.507 OA
ATOM     25  H   UNL     1      98.548 118.934 125.489  1.00  0.00     0.293 HD
ENDBRANCH   6  24
BRANCH   8  26
ATOM     26  O   UNL     1     100.108 117.802 120.891  1.00  0.00    -0.508 OA
ATOM     27  H   UNL     1     100.243 117.240 120.058  1.00  0.00     0.293 HD
ENDBRANCH   8  26
TORSDOF 6
ENDMDL
MODEL 7
REMARK VINA RESULT:    -6.829      3.009      5.670
REMARK INTER + INTRA:          -8.284
REMARK INTER:                  -7.864
REMARK INTRA:                  -0.420
REMARK UNBOUND:                -0.057
REMARK SMILES O=c1c(O)c(-c2ccc(O)cc2O)oc2cc(O)cc(O)c12
REMARK SMILES IDX 5 1 3 2 2 3 1 4 22 5 20 6 19 7 17 8 16 9 15 10 14 11 6 12
REMARK SMILES IDX 8 13 7 14 9 15 11 16 12 17 10 18 13 20 4 22 21 24 18 26
REMARK H PARENT 10 19 13 21 4 23 21 25 18 27
REMARK Flexibility Score: inf
ROOT
ATOM      1  C   UNL     1     100.504 116.171 121.733  1.00  0.00     0.184 A 
ATOM      2  C   UNL     1     100.639 114.953 122.417  1.00  0.00     0.208 A 
ATOM      3  C   UNL     1     100.593 114.950 123.820  1.00  0.00     0.238 A 
ATOM      4  O   UNL     1     100.661 113.849 124.425  1.00  0.00    -0.285 OA
ATOM      5  C   UNL     1     100.429 116.171 124.520  1.00  0.00     0.111 A 
ATOM      6  C   UNL     1     100.408 116.292 125.942  1.00  0.00     0.134 A 
ATOM      7  C   UNL     1     100.108 117.530 126.525  1.00  0.00     0.093 A 
ATOM      8  C   UNL     1      99.894 118.664 125.738  1.00  0.00     0.123 A 
ATOM      9  C   UNL     1      99.970 118.568 124.351  1.00  0.00     0.094 A 
ATOM     10  C   UNL     1     100.231 117.339 123.739  1.00  0.00     0.146 A 
ATOM     11  O   UNL     1     100.284 117.290 122.413  1.00  0.00    -0.451 OA
ENDROOT
BRANCH   1  12
ATOM     12  C   UNL     1     100.560 116.245 120.258  1.00  0.00     0.063 A 
ATOM     13  C   UNL     1     101.898 116.265 118.228  1.00  0.00     0.047 A 
ATOM     14  C   UNL     1     101.810 116.203 119.621  1.00  0.00     0.020 A 
ATOM     15  C   UNL     1     100.738 116.356 117.454  1.00  0.00     0.119 A 
ATOM     16  C   UNL     1      99.485 116.373 118.078  1.00  0.00     0.093 A 
ATOM     17  C   UNL     1      99.387 116.305 119.476  1.00  0.00     0.130 A 
BRANCH  15  18
ATOM     18  O   UNL     1     100.842 116.421 116.067  1.00  0.00    -0.508 OA
ATOM     19  H   UNL     1     101.704 116.702 115.614  1.00  0.00     0.293 HD
ENDBRANCH  15  18
BRANCH  17  20
ATOM     20  O   UNL     1      98.131 116.274 120.084  1.00  0.00    -0.507 OA
ATOM     21  H   UNL     1      97.947 116.771 120.948  1.00  0.00     0.293 HD
ENDBRANCH  17  20
ENDBRANCH   1  12
BRANCH   2  22
ATOM     22  O   UNL     1     100.783 113.761 121.700  1.00  0.00    -0.502 OA
ATOM     23  H   UNL     1     100.303 112.909 121.963  1.00  0.00     0.293 HD
ENDBRANCH   2  22
BRANCH   6  24
ATOM     24  O   UNL     1     100.699 115.243 126.819  1.00  0.00    -0.507 OA
ATOM     25  H   UNL     1     101.628 114.910 127.029  1.00  0.00     0.293 HD
ENDBRANCH   6  24
BRANCH   8  26
ATOM     26  O   UNL     1      99.612 119.894 126.327  1.00  0.00    -0.508 OA
ATOM     27  H   UNL     1      98.695 120.104 126.706  1.00  0.00     0.293 HD
ENDBRANCH   8  26
TORSDOF 6
ENDMDL
MODEL 8
REMARK VINA RESULT:    -6.804      4.054      6.321
REMARK INTER + INTRA:          -8.253
REMARK INTER:                  -7.838
REMARK INTRA:                  -0.415
REMARK UNBOUND:                -0.057
REMARK SMILES O=c1c(O)c(-c2ccc(O)cc2O)oc2cc(O)cc(O)c12
REMARK SMILES IDX 5 1 3 2 2 3 1 4 22 5 20 6 19 7 17 8 16 9 15 10 14 11 6 12
REMARK SMILES IDX 8 13 7 14 9 15 11 16 12 17 10 18 13 20 4 22 21 24 18 26
REMARK H PARENT 10 19 13 21 4 23 21 25 18 27
REMARK Flexibility Score: inf
ROOT
ATOM      1  C   UNL     1     101.613 110.819 122.385  1.00  0.00     0.184 A 
ATOM      2  C   UNL     1     101.217 112.053 121.848  1.00  0.00     0.208 A 
ATOM      3  C   UNL     1     101.158 113.174 122.691  1.00  0.00     0.238 A 
ATOM      4  O   UNL     1     100.854 114.290 122.192  1.00  0.00    -0.285 OA
ATOM      5  C   UNL     1     101.479 113.041 124.064  1.00  0.00     0.111 A 
ATOM      6  C   UNL     1     101.415 114.100 125.018  1.00  0.00     0.134 A 
ATOM      7  C   UNL     1     101.881 113.885 126.321  1.00  0.00     0.093 A 
ATOM      8  C   UNL     1     102.347 112.631 126.722  1.00  0.00     0.123 A 
ATOM      9  C   UNL     1     102.359 111.575 125.813  1.00  0.00     0.094 A 
ATOM     10  C   UNL     1     101.934 111.768 124.497  1.00  0.00     0.146 A 
ATOM     11  O   UNL     1     101.973 110.737 123.661  1.00  0.00    -0.451 OA
ENDROOT
BRANCH   1  12
ATOM     12  C   UNL     1     101.681 109.596 121.557  1.00  0.00     0.063 A 
ATOM     13  C   UNL     1     103.011 108.071 120.210  1.00  0.00     0.047 A 
ATOM     14  C   UNL     1     102.911 109.223 120.993  1.00  0.00     0.020 A 
ATOM     15  C   UNL     1     101.887 107.270 119.991  1.00  0.00     0.119 A 
ATOM     16  C   UNL     1     100.661 107.620 120.568  1.00  0.00     0.093 A 
ATOM     17  C   UNL     1     100.553 108.772 121.362  1.00  0.00     0.130 A 
BRANCH  15  18
ATOM     18  O   UNL     1     102.002 106.126 119.204  1.00  0.00    -0.508 OA
ATOM     19  H   UNL     1     102.882 105.632 119.114  1.00  0.00     0.293 HD
ENDBRANCH  15  18
BRANCH  17  20
ATOM     20  O   UNL     1      99.337 109.084 121.972  1.00  0.00    -0.507 OA
ATOM     21  H   UNL     1      99.281 109.315 122.957  1.00  0.00     0.293 HD
ENDBRANCH  17  20
ENDBRANCH   1  12
BRANCH   2  22
ATOM     22  O   UNL     1     100.923 112.161 120.486  1.00  0.00    -0.502 OA
ATOM     23  H   UNL     1     100.055 111.820 120.089  1.00  0.00     0.293 HD
ENDBRANCH   2  22
BRANCH   6  24
ATOM     24  O   UNL     1     100.881 115.364 124.746  1.00  0.00    -0.507 OA
ATOM     25  H   UNL     1     100.954 116.162 125.358  1.00  0.00     0.293 HD
ENDBRANCH   6  24
BRANCH   8  26
ATOM     26  O   UNL     1     102.794 112.422 128.024  1.00  0.00    -0.508 OA
ATOM     27  H   UNL     1     102.178 112.532 128.821  1.00  0.00     0.293 HD
ENDBRANCH   8  26
TORSDOF 6
ENDMDL
MODEL 9
REMARK VINA RESULT:    -6.800     10.069     13.390
REMARK INTER + INTRA:          -8.248
REMARK INTER:                  -7.891
REMARK INTRA:                  -0.357
REMARK UNBOUND:                -0.057
REMARK SMILES O=c1c(O)c(-c2ccc(O)cc2O)oc2cc(O)cc(O)c12
REMARK SMILES IDX 5 1 3 2 2 3 1 4 22 5 20 6 19 7 17 8 16 9 15 10 14 11 6 12
REMARK SMILES IDX 8 13 7 14 9 15 11 16 12 17 10 18 13 20 4 22 21 24 18 26
REMARK H PARENT 10 19 13 21 4 23 21 25 18 27
REMARK Flexibility Score: inf
ROOT
ATOM      1  C   UNL     1      99.649 107.717 116.708  1.00  0.00     0.184 A 
ATOM      2  C   UNL     1      99.572 108.554 117.832  1.00  0.00     0.208 A 
ATOM      3  C   UNL     1     100.067 108.091 119.061  1.00  0.00     0.238 A 
ATOM      4  O   UNL     1     100.044 108.866 120.053  1.00  0.00    -0.285 OA
ATOM      5  C   UNL     1     100.616 106.788 119.153  1.00  0.00     0.111 A 
ATOM      6  C   UNL     1     101.109 106.200 120.356  1.00  0.00     0.134 A 
ATOM      7  C   UNL     1     101.750 104.955 120.303  1.00  0.00     0.093 A 
ATOM      8  C   UNL     1     101.856 104.249 119.103  1.00  0.00     0.123 A 
ATOM      9  C   UNL     1     101.325 104.789 117.934  1.00  0.00     0.094 A 
ATOM     10  C   UNL     1     100.712 106.045 117.947  1.00  0.00     0.146 A 
ATOM     11  O   UNL     1     100.230 106.527 116.808  1.00  0.00    -0.451 OA
ENDROOT
BRANCH   1  12
ATOM     12  C   UNL     1      99.133 108.138 115.389  1.00  0.00     0.063 A 
ATOM     13  C   UNL     1      97.246 108.828 114.020  1.00  0.00     0.047 A 
ATOM     14  C   UNL     1      97.765 108.422 115.252  1.00  0.00     0.020 A 
ATOM     15  C   UNL     1      98.088 108.968 112.913  1.00  0.00     0.119 A 
ATOM     16  C   UNL     1      99.458 108.710 113.045  1.00  0.00     0.093 A 
ATOM     17  C   UNL     1      99.989 108.309 114.281  1.00  0.00     0.130 A 
BRANCH  15  18
ATOM     18  O   UNL     1      97.554 109.368 111.691  1.00  0.00    -0.508 OA
ATOM     19  H   UNL     1      96.918 108.775 111.172  1.00  0.00     0.293 HD
ENDBRANCH  15  18
BRANCH  17  20
ATOM     20  O   UNL     1     101.363 108.101 114.411  1.00  0.00    -0.507 OA
ATOM     21  H   UNL     1     102.032 108.836 114.212  1.00  0.00     0.293 HD
ENDBRANCH  17  20
ENDBRANCH   1  12
BRANCH   2  22
ATOM     22  O   UNL     1      99.042 109.842 117.710  1.00  0.00    -0.502 OA
ATOM     23  H   UNL     1      98.062 110.042 117.865  1.00  0.00     0.293 HD
ENDBRANCH   2  22
BRANCH   6  24
ATOM     24  O   UNL     1     100.973 106.779 121.621  1.00  0.00    -0.507 OA
ATOM     25  H   UNL     1     101.007 106.271 122.492  1.00  0.00     0.293 HD
ENDBRANCH   6  24
BRANCH   8  26
ATOM     26  O   UNL     1     102.480 103.006 119.063  1.00  0.00    -0.508 OA
ATOM     27  H   UNL     1     103.249 102.777 119.683  1.00  0.00     0.293 HD
ENDBRANCH   8  26
TORSDOF 6
ENDMDL
