MODEL 1
REMARK VINA RESULT:    -6.462      0.000      0.000
REMARK INTER + INTRA:          -7.463
REMARK INTER:                  -7.029
REMARK INTRA:                  -0.434
REMARK UNBOUND:                -0.434
REMARK SMILES C=C(C)[C@@H]1CC[C@]2(C)CC[C@@]3(C)[C@@H](CC[C@@H]4[C@@]5(C)CC[C@@H](O)C(C)(C)[C@H]5CC[C@@]43C)[C@H]12
REMARK SMILES IDX 4 1 5 2 6 3 7 4 31 5 13 6 14 7 15 8 16 9 17 10 19 11 20 12
REMARK SMILES IDX 21 13 23 14 26 15 27 16 28 17 29 18 11 19 10 20 9 21 12 22
REMARK SMILES IDX 30 23 24 24 25 25 18 26 8 27 2 28 3 29 1 30 22 31
REMARK H PARENT 22 32
REMARK Flexibility Score: inf
ROOT
ATOM      1  C   UNL     1      14.392 -11.848  27.109  1.00  0.00     0.018 C 
ATOM      2  C   UNL     1      14.468 -12.127  28.609  1.00  0.00     0.009 C 
ATOM      3  C   UNL     1      13.402 -13.179  28.890  1.00  0.00     0.008 C 
ATOM      4  C   UNL     1      12.890 -13.705  27.520  1.00  0.00    -0.029 C 
ATOM      5  C   UNL     1      13.914 -13.176  26.454  1.00  0.00     0.006 C 
ATOM      6  C   UNL     1      15.103 -14.153  26.064  1.00  0.00    -0.000 C 
ATOM      7  C   UNL     1      15.684 -13.771  24.675  1.00  0.00     0.005 C 
ATOM      8  C   UNL     1      16.641 -14.811  24.061  1.00  0.00     0.005 C 
ATOM      9  C   UNL     1      17.308 -15.758  25.102  1.00  0.00     0.002 C 
ATOM     10  C   UNL     1      18.552 -16.636  24.505  1.00  0.00    -0.026 C 
ATOM     11  C   UNL     1      19.732 -16.628  25.536  1.00  0.00     0.010 C 
ATOM     12  C   UNL     1      20.923 -17.532  25.180  1.00  0.00     0.033 C 
ATOM     13  C   UNL     1      20.516 -18.990  24.886  1.00  0.00     0.120 C 
ATOM     14  C   UNL     1      19.384 -19.122  23.812  1.00  0.00    -0.006 C 
ATOM     15  C   UNL     1      18.155 -18.130  24.107  1.00  0.00     0.003 C 
ATOM     16  C   UNL     1      17.134 -18.757  25.089  1.00  0.00     0.005 C 
ATOM     17  C   UNL     1      15.897 -17.895  25.276  1.00  0.00     0.008 C 
ATOM     18  C   UNL     1      16.175 -16.527  25.942  1.00  0.00    -0.024 C 
ATOM     19  C   UNL     1      14.771 -15.678  26.065  1.00  0.00    -0.024 C 
ATOM     20  C   UNL     1      14.018 -15.996  27.396  1.00  0.00     0.008 C 
ATOM     21  C   UNL     1      12.705 -15.241  27.554  1.00  0.00     0.007 C 
ATOM     22  C   UNL     1      13.759 -15.991  24.900  1.00  0.00     0.012 C 
ATOM     23  C   UNL     1      16.737 -16.799  27.380  1.00  0.00     0.012 C 
ATOM     24  C   UNL     1      19.989 -18.864  22.391  1.00  0.00     0.014 C 
ATOM     25  C   UNL     1      18.928 -20.614  23.775  1.00  0.00     0.014 C 
ATOM     26  C   UNL     1      19.122 -15.917  23.239  1.00  0.00     0.012 C 
ATOM     27  C   UNL     1      11.488 -13.093  27.246  1.00  0.00     0.011 C 
ENDROOT
BRANCH   1  28
ATOM     28  C   UNL     1      15.603 -11.129  26.513  1.00  0.00    -0.077 C 
ATOM     29  C   UNL     1      16.956 -11.332  27.147  1.00  0.00     0.039 C 
ATOM     30  C   UNL     1      15.525 -10.317  25.442  1.00  0.00     0.008 C 
ENDBRANCH   1  28
BRANCH  13  31
ATOM     31  O   UNL     1      20.221 -19.698  26.070  1.00  0.00    -0.393 OA
ATOM     32  H   UNL     1      21.039 -19.773  26.622  1.00  0.00     0.210 HD
ENDBRANCH  13  31
TORSDOF 2
ENDMDL
MODEL 2
REMARK VINA RESULT:    -5.456      4.640     10.420
REMARK INTER + INTRA:          -6.369
REMARK INTER:                  -5.942
REMARK INTRA:                  -0.427
REMARK UNBOUND:                -0.434
REMARK SMILES C=C(C)[C@@H]1CC[C@]2(C)CC[C@@]3(C)[C@@H](CC[C@@H]4[C@@]5(C)CC[C@@H](O)C(C)(C)[C@H]5CC[C@@]43C)[C@H]12
REMARK SMILES IDX 4 1 5 2 6 3 7 4 31 5 13 6 14 7 15 8 16 9 17 10 19 11 20 12
REMARK SMILES IDX 21 13 23 14 26 15 27 16 28 17 29 18 11 19 10 20 9 21 12 22
REMARK SMILES IDX 30 23 24 24 25 25 18 26 8 27 2 28 3 29 1 30 22 31
REMARK H PARENT 22 32
REMARK Flexibility Score: inf
ROOT
ATOM      1  C   UNL     1      18.569 -27.560  23.915  1.00  0.00     0.018 C 
ATOM      2  C   UNL     1      18.178 -27.737  22.449  1.00  0.00     0.009 C 
ATOM      3  C   UNL     1      16.671 -27.518  22.392  1.00  0.00     0.008 C 
ATOM      4  C   UNL     1      16.228 -26.953  23.770  1.00  0.00    -0.029 C 
ATOM      5  C   UNL     1      17.552 -26.541  24.506  1.00  0.00     0.006 C 
ATOM      6  C   UNL     1      18.010 -25.029  24.352  1.00  0.00    -0.000 C 
ATOM      7  C   UNL     1      18.960 -24.630  25.514  1.00  0.00     0.005 C 
ATOM      8  C   UNL     1      19.241 -23.121  25.637  1.00  0.00     0.005 C 
ATOM      9  C   UNL     1      19.024 -22.321  24.318  1.00  0.00     0.002 C 
ATOM     10  C   UNL     1      19.622 -20.800  24.353  1.00  0.00    -0.026 C 
ATOM     11  C   UNL     1      20.365 -20.504  23.005  1.00  0.00     0.010 C 
ATOM     12  C   UNL     1      20.859 -19.060  22.829  1.00  0.00     0.033 C 
ATOM     13  C   UNL     1      19.754 -18.006  23.041  1.00  0.00     0.120 C 
ATOM     14  C   UNL     1      18.987 -18.164  24.397  1.00  0.00    -0.006 C 
ATOM     15  C   UNL     1      18.525 -19.681  24.655  1.00  0.00     0.003 C 
ATOM     16  C   UNL     1      17.162 -19.988  23.985  1.00  0.00     0.005 C 
ATOM     17  C   UNL     1      16.639 -21.372  24.328  1.00  0.00     0.008 C 
ATOM     18  C   UNL     1      17.519 -22.528  23.798  1.00  0.00    -0.024 C 
ATOM     19  C   UNL     1      16.868 -23.970  24.255  1.00  0.00    -0.024 C 
ATOM     20  C   UNL     1      15.828 -24.491  23.211  1.00  0.00     0.008 C 
ATOM     21  C   UNL     1      15.190 -25.819  23.592  1.00  0.00     0.007 C 
ATOM     22  C   UNL     1      16.109 -23.893  25.632  1.00  0.00     0.012 C 
ATOM     23  C   UNL     1      17.529 -22.444  22.233  1.00  0.00     0.012 C 
ATOM     24  C   UNL     1      19.891 -17.643  25.565  1.00  0.00     0.014 C 
ATOM     25  C   UNL     1      17.773 -17.183  24.380  1.00  0.00     0.014 C 
ATOM     26  C   UNL     1      20.735 -20.715  25.450  1.00  0.00     0.012 C 
ATOM     27  C   UNL     1      15.519 -28.085  24.565  1.00  0.00     0.011 C 
ENDROOT
BRANCH   1  28
ATOM     28  C   UNL     1      20.061 -27.344  24.175  1.00  0.00    -0.077 C 
ATOM     29  C   UNL     1      20.887 -26.635  23.131  1.00  0.00     0.039 C 
ATOM     30  C   UNL     1      20.681 -27.756  25.296  1.00  0.00     0.008 C 
ENDBRANCH   1  28
BRANCH  13  31
ATOM     31  O   UNL     1      18.882 -17.934  21.934  1.00  0.00    -0.393 OA
ATOM     32  H   UNL     1      19.062 -17.104  21.426  1.00  0.00     0.210 HD
ENDBRANCH  13  31
TORSDOF 2
ENDMDL
MODEL 3
REMARK VINA RESULT:    -5.365      1.818      2.920
REMARK INTER + INTRA:          -6.270
REMARK INTER:                  -5.845
REMARK INTRA:                  -0.425
REMARK UNBOUND:                -0.434
REMARK SMILES C=C(C)[C@@H]1CC[C@]2(C)CC[C@@]3(C)[C@@H](CC[C@@H]4[C@@]5(C)CC[C@@H](O)C(C)(C)[C@H]5CC[C@@]43C)[C@H]12
REMARK SMILES IDX 4 1 5 2 6 3 7 4 31 5 13 6 14 7 15 8 16 9 17 10 19 11 20 12
REMARK SMILES IDX 21 13 23 14 26 15 27 16 28 17 29 18 11 19 10 20 9 21 12 22
REMARK SMILES IDX 30 23 24 24 25 25 18 26 8 27 2 28 3 29 1 30 22 31
REMARK H PARENT 22 32
REMARK Flexibility Score: inf
ROOT
ATOM      1  C   UNL     1      18.497 -11.101  26.029  1.00  0.00     0.018 C 
ATOM      2  C   UNL     1      18.853 -11.263  27.506  1.00  0.00     0.009 C 
ATOM      3  C   UNL     1      17.549 -11.619  28.210  1.00  0.00     0.008 C 
ATOM      4  C   UNL     1      16.492 -11.924  27.113  1.00  0.00    -0.029 C 
ATOM      5  C   UNL     1      17.299 -12.060  25.773  1.00  0.00     0.006 C 
ATOM      6  C   UNL     1      17.741 -13.526  25.355  1.00  0.00    -0.000 C 
ATOM      7  C   UNL     1      18.016 -13.594  23.828  1.00  0.00     0.005 C 
ATOM      8  C   UNL     1      18.171 -15.016  23.256  1.00  0.00     0.005 C 
ATOM      9  C   UNL     1      18.589 -16.086  24.309  1.00  0.00     0.002 C 
ATOM     10  C   UNL     1      19.064 -17.510  23.661  1.00  0.00    -0.026 C 
ATOM     11  C   UNL     1      20.351 -18.011  24.402  1.00  0.00     0.010 C 
ATOM     12  C   UNL     1      20.838 -19.413  24.001  1.00  0.00     0.033 C 
ATOM     13  C   UNL     1      19.741 -20.492  24.103  1.00  0.00     0.120 C 
ATOM     14  C   UNL     1      18.426 -20.125  23.336  1.00  0.00    -0.006 C 
ATOM     15  C   UNL     1      17.930 -18.633  23.668  1.00  0.00     0.003 C 
ATOM     16  C   UNL     1      17.057 -18.589  24.947  1.00  0.00     0.005 C 
ATOM     17  C   UNL     1      16.465 -17.214  25.204  1.00  0.00     0.008 C 
ATOM     18  C   UNL     1      17.516 -16.120  25.504  1.00  0.00    -0.024 C 
ATOM     19  C   UNL     1      16.759 -14.677  25.737  1.00  0.00    -0.024 C 
ATOM     20  C   UNL     1      16.351 -14.474  27.231  1.00  0.00     0.008 C 
ATOM     21  C   UNL     1      15.638 -13.156  27.499  1.00  0.00     0.007 C 
ATOM     22  C   UNL     1      15.435 -14.534  24.896  1.00  0.00     0.012 C 
ATOM     23  C   UNL     1      18.266 -16.523  26.820  1.00  0.00     0.012 C 
ATOM     24  C   UNL     1      18.655 -20.314  21.798  1.00  0.00     0.014 C 
ATOM     25  C   UNL     1      17.344 -21.189  23.700  1.00  0.00     0.014 C 
ATOM     26  C   UNL     1      19.520 -17.271  22.184  1.00  0.00     0.012 C 
ATOM     27  C   UNL     1      15.516 -10.719  27.015  1.00  0.00     0.011 C 
ENDROOT
BRANCH   1  28
ATOM     28  C   UNL     1      19.681 -11.129  25.061  1.00  0.00    -0.077 C 
ATOM     29  C   UNL     1      19.561 -10.406  23.742  1.00  0.00     0.039 C 
ATOM     30  C   UNL     1      20.835 -11.769  25.326  1.00  0.00     0.008 C 
ENDBRANCH   1  28
BRANCH  13  31
ATOM     31  O   UNL     1      19.498 -20.864  25.442  1.00  0.00    -0.393 OA
ATOM     32  H   UNL     1      18.977 -21.705  25.461  1.00  0.00     0.210 HD
ENDBRANCH  13  31
TORSDOF 2
ENDMDL
MODEL 4
REMARK VINA RESULT:    -5.357      4.049      7.319
REMARK INTER + INTRA:          -6.261
REMARK INTER:                  -5.849
REMARK INTRA:                  -0.412
REMARK UNBOUND:                -0.434
REMARK SMILES C=C(C)[C@@H]1CC[C@]2(C)CC[C@@]3(C)[C@@H](CC[C@@H]4[C@@]5(C)CC[C@@H](O)C(C)(C)[C@H]5CC[C@@]43C)[C@H]12
REMARK SMILES IDX 4 1 5 2 6 3 7 4 31 5 13 6 14 7 15 8 16 9 17 10 19 11 20 12
REMARK SMILES IDX 21 13 23 14 26 15 27 16 28 17 29 18 11 19 10 20 9 21 12 22
REMARK SMILES IDX 30 23 24 24 25 25 18 26 8 27 2 28 3 29 1 30 22 31
REMARK H PARENT 22 32
REMARK Flexibility Score: inf
ROOT
ATOM      1  C   UNL     1      19.314 -16.210  25.220  1.00  0.00     0.018 C 
ATOM      2  C   UNL     1      18.093 -15.644  24.497  1.00  0.00     0.009 C 
ATOM      3  C   UNL     1      18.481 -15.565  23.026  1.00  0.00     0.008 C 
ATOM      4  C   UNL     1      19.822 -16.330  22.853  1.00  0.00    -0.029 C 
ATOM      5  C   UNL     1      20.029 -17.130  24.189  1.00  0.00     0.006 C 
ATOM      6  C   UNL     1      19.504 -18.628  24.208  1.00  0.00    -0.000 C 
ATOM      7  C   UNL     1      20.230 -19.442  25.314  1.00  0.00     0.005 C 
ATOM      8  C   UNL     1      20.021 -20.966  25.245  1.00  0.00     0.005 C 
ATOM      9  C   UNL     1      18.730 -21.401  24.489  1.00  0.00     0.002 C 
ATOM     10  C   UNL     1      18.337 -22.975  24.688  1.00  0.00    -0.026 C 
ATOM     11  C   UNL     1      16.795 -23.096  24.940  1.00  0.00     0.010 C 
ATOM     12  C   UNL     1      16.249 -24.531  25.004  1.00  0.00     0.033 C 
ATOM     13  C   UNL     1      16.631 -25.384  23.778  1.00  0.00     0.120 C 
ATOM     14  C   UNL     1      18.167 -25.393  23.473  1.00  0.00    -0.006 C 
ATOM     15  C   UNL     1      18.791 -23.912  23.479  1.00  0.00     0.003 C 
ATOM     16  C   UNL     1      18.641 -23.220  22.101  1.00  0.00     0.005 C 
ATOM     17  C   UNL     1      19.344 -21.875  22.043  1.00  0.00     0.008 C 
ATOM     18  C   UNL     1      18.750 -20.811  22.995  1.00  0.00    -0.024 C 
ATOM     19  C   UNL     1      19.608 -19.412  22.862  1.00  0.00    -0.024 C 
ATOM     20  C   UNL     1      19.041 -18.492  21.734  1.00  0.00     0.008 C 
ATOM     21  C   UNL     1      19.806 -17.187  21.565  1.00  0.00     0.007 C 
ATOM     22  C   UNL     1      21.125 -19.652  22.514  1.00  0.00     0.012 C 
ATOM     23  C   UNL     1      17.269 -20.547  22.556  1.00  0.00     0.012 C 
ATOM     24  C   UNL     1      18.894 -26.316  24.509  1.00  0.00     0.014 C 
ATOM     25  C   UNL     1      18.381 -26.106  22.101  1.00  0.00     0.014 C 
ATOM     26  C   UNL     1      18.999 -23.503  26.004  1.00  0.00     0.012 C 
ATOM     27  C   UNL     1      20.967 -15.293  22.684  1.00  0.00     0.011 C 
ENDROOT
BRANCH   1  28
ATOM     28  C   UNL     1      19.053 -16.748  26.627  1.00  0.00    -0.077 C 
ATOM     29  C   UNL     1      17.656 -17.183  26.994  1.00  0.00     0.039 C 
ATOM     30  C   UNL     1      20.013 -16.855  27.565  1.00  0.00     0.008 C 
ENDBRANCH   1  28
BRANCH  13  31
ATOM     31  O   UNL     1      15.858 -25.048  22.647  1.00  0.00    -0.393 OA
ATOM     32  H   UNL     1      16.022 -25.708  21.928  1.00  0.00     0.210 HD
ENDBRANCH  13  31
TORSDOF 2
ENDMDL
MODEL 5
REMARK VINA RESULT:    -5.270      3.595      9.440
REMARK INTER + INTRA:          -6.166
REMARK INTER:                  -5.743
REMARK INTRA:                  -0.423
REMARK UNBOUND:                -0.434
REMARK SMILES C=C(C)[C@@H]1CC[C@]2(C)CC[C@@]3(C)[C@@H](CC[C@@H]4[C@@]5(C)CC[C@@H](O)C(C)(C)[C@H]5CC[C@@]43C)[C@H]12
REMARK SMILES IDX 4 1 5 2 6 3 7 4 31 5 13 6 14 7 15 8 16 9 17 10 19 11 20 12
REMARK SMILES IDX 21 13 23 14 26 15 27 16 28 17 29 18 11 19 10 20 9 21 12 22
REMARK SMILES IDX 30 23 24 24 25 25 18 26 8 27 2 28 3 29 1 30 22 31
REMARK H PARENT 22 32
REMARK Flexibility Score: inf
ROOT
ATOM      1  C   UNL     1      18.416 -25.251  23.841  1.00  0.00     0.018 C 
ATOM      2  C   UNL     1      19.905 -25.574  23.963  1.00  0.00     0.009 C 
ATOM      3  C   UNL     1      20.481 -25.412  22.562  1.00  0.00     0.008 C 
ATOM      4  C   UNL     1      19.390 -24.740  21.682  1.00  0.00    -0.029 C 
ATOM      5  C   UNL     1      18.299 -24.218  22.683  1.00  0.00     0.006 C 
ATOM      6  C   UNL     1      18.438 -22.712  23.164  1.00  0.00    -0.000 C 
ATOM      7  C   UNL     1      17.070 -22.177  23.670  1.00  0.00     0.005 C 
ATOM      8  C   UNL     1      17.007 -20.654  23.891  1.00  0.00     0.005 C 
ATOM      9  C   UNL     1      18.394 -19.985  24.127  1.00  0.00     0.002 C 
ATOM     10  C   UNL     1      18.309 -18.447  24.676  1.00  0.00    -0.026 C 
ATOM     11  C   UNL     1      19.355 -18.250  25.827  1.00  0.00     0.010 C 
ATOM     12  C   UNL     1      19.495 -16.812  26.350  1.00  0.00     0.033 C 
ATOM     13  C   UNL     1      19.767 -15.782  25.236  1.00  0.00     0.120 C 
ATOM     14  C   UNL     1      18.735 -15.841  24.059  1.00  0.00    -0.006 C 
ATOM     15  C   UNL     1      18.500 -17.344  23.540  1.00  0.00     0.003 C 
ATOM     16  C   UNL     1      19.553 -17.756  22.480  1.00  0.00     0.005 C 
ATOM     17  C   UNL     1      19.270 -19.120  21.875  1.00  0.00     0.008 C 
ATOM     18  C   UNL     1      19.363 -20.290  22.883  1.00  0.00    -0.024 C 
ATOM     19  C   UNL     1      19.012 -21.705  22.119  1.00  0.00    -0.024 C 
ATOM     20  C   UNL     1      20.286 -22.353  21.489  1.00  0.00     0.008 C 
ATOM     21  C   UNL     1      20.013 -23.662  20.762  1.00  0.00     0.007 C 
ATOM     22  C   UNL     1      17.979 -21.529  20.943  1.00  0.00     0.012 C 
ATOM     23  C   UNL     1      20.836 -20.347  23.416  1.00  0.00     0.012 C 
ATOM     24  C   UNL     1      17.388 -15.187  24.520  1.00  0.00     0.014 C 
ATOM     25  C   UNL     1      19.250 -14.908  22.919  1.00  0.00     0.014 C 
ATOM     26  C   UNL     1      16.918 -18.226  25.358  1.00  0.00     0.012 C 
ATOM     27  C   UNL     1      18.771 -25.818  20.750  1.00  0.00     0.011 C 
ENDROOT
BRANCH   1  28
ATOM     28  C   UNL     1      17.697 -24.962  25.159  1.00  0.00    -0.077 C 
ATOM     29  C   UNL     1      18.500 -24.457  26.332  1.00  0.00     0.039 C 
ATOM     30  C   UNL     1      16.373 -25.135  25.330  1.00  0.00     0.008 C 
ENDBRANCH   1  28
BRANCH  13  31
ATOM     31  O   UNL     1      21.102 -15.840  24.785  1.00  0.00    -0.393 OA
ATOM     32  H   UNL     1      21.700 -15.461  25.476  1.00  0.00     0.210 HD
ENDBRANCH  13  31
TORSDOF 2
ENDMDL
MODEL 6
REMARK VINA RESULT:    -5.258      2.685      4.951
REMARK INTER + INTRA:          -6.153
REMARK INTER:                  -5.721
REMARK INTRA:                  -0.432
REMARK UNBOUND:                -0.434
REMARK SMILES C=C(C)[C@@H]1CC[C@]2(C)CC[C@@]3(C)[C@@H](CC[C@@H]4[C@@]5(C)CC[C@@H](O)C(C)(C)[C@H]5CC[C@@]43C)[C@H]12
REMARK SMILES IDX 4 1 5 2 6 3 7 4 31 5 13 6 14 7 15 8 16 9 17 10 19 11 20 12
REMARK SMILES IDX 21 13 23 14 26 15 27 16 28 17 29 18 11 19 10 20 9 21 12 22
REMARK SMILES IDX 30 23 24 24 25 25 18 26 8 27 2 28 3 29 1 30 22 31
REMARK H PARENT 22 32
REMARK Flexibility Score: inf
ROOT
ATOM      1  C   UNL     1      17.957 -12.591  24.862  1.00  0.00     0.018 C 
ATOM      2  C   UNL     1      19.162 -12.121  24.048  1.00  0.00     0.009 C 
ATOM      3  C   UNL     1      20.365 -12.257  24.973  1.00  0.00     0.008 C 
ATOM      4  C   UNL     1      19.905 -13.052  26.226  1.00  0.00    -0.029 C 
ATOM      5  C   UNL     1      18.504 -13.655  25.855  1.00  0.00     0.006 C 
ATOM      6  C   UNL     1      18.499 -15.130  25.268  1.00  0.00    -0.000 C 
ATOM      7  C   UNL     1      17.103 -15.785  25.463  1.00  0.00     0.005 C 
ATOM      8  C   UNL     1      17.053 -17.302  25.198  1.00  0.00     0.005 C 
ATOM      9  C   UNL     1      18.188 -17.827  24.269  1.00  0.00     0.002 C 
ATOM     10  C   UNL     1      17.956 -19.353  23.729  1.00  0.00    -0.026 C 
ATOM     11  C   UNL     1      18.308 -19.421  22.204  1.00  0.00     0.010 C 
ATOM     12  C   UNL     1      18.279 -20.827  21.584  1.00  0.00     0.033 C 
ATOM     13  C   UNL     1      19.141 -21.850  22.350  1.00  0.00     0.120 C 
ATOM     14  C   UNL     1      18.824 -21.917  23.882  1.00  0.00    -0.006 C 
ATOM     15  C   UNL     1      18.765 -20.457  24.550  1.00  0.00     0.003 C 
ATOM     16  C   UNL     1      20.170 -19.967  24.982  1.00  0.00     0.005 C 
ATOM     17  C   UNL     1      20.123 -18.651  25.739  1.00  0.00     0.008 C 
ATOM     18  C   UNL     1      19.619 -17.456  24.896  1.00  0.00    -0.024 C 
ATOM     19  C   UNL     1      19.587 -16.099  25.828  1.00  0.00    -0.024 C 
ATOM     20  C   UNL     1      20.954 -15.343  25.794  1.00  0.00     0.008 C 
ATOM     21  C   UNL     1      20.979 -14.083  26.648  1.00  0.00     0.007 C 
ATOM     22  C   UNL     1      19.287 -16.401  27.343  1.00  0.00     0.012 C 
ATOM     23  C   UNL     1      20.627 -17.243  23.715  1.00  0.00     0.012 C 
ATOM     24  C   UNL     1      17.478 -22.690  24.097  1.00  0.00     0.014 C 
ATOM     25  C   UNL     1      19.902 -22.821  24.557  1.00  0.00     0.014 C 
ATOM     26  C   UNL     1      16.432 -19.694  23.804  1.00  0.00     0.012 C 
ATOM     27  C   UNL     1      19.750 -12.061  27.412  1.00  0.00     0.011 C 
ENDROOT
BRANCH   1  28
ATOM     28  C   UNL     1      16.704 -12.920  24.049  1.00  0.00    -0.077 C 
ATOM     29  C   UNL     1      16.860 -13.355  22.613  1.00  0.00     0.039 C 
ATOM     30  C   UNL     1      15.458 -12.842  24.552  1.00  0.00     0.008 C 
ENDBRANCH   1  28
BRANCH  13  31
ATOM     31  O   UNL     1      20.516 -21.671  22.091  1.00  0.00    -0.393 OA
ATOM     32  H   UNL     1      20.640 -20.894  21.491  1.00  0.00     0.210 HD
ENDBRANCH  13  31
TORSDOF 2
ENDMDL
MODEL 7
REMARK VINA RESULT:    -5.210      1.821      3.967
REMARK INTER + INTRA:          -6.101
REMARK INTER:                  -5.680
REMARK INTRA:                  -0.421
REMARK UNBOUND:                -0.434
REMARK SMILES C=C(C)[C@@H]1CC[C@]2(C)CC[C@@]3(C)[C@@H](CC[C@@H]4[C@@]5(C)CC[C@@H](O)C(C)(C)[C@H]5CC[C@@]43C)[C@H]12
REMARK SMILES IDX 4 1 5 2 6 3 7 4 31 5 13 6 14 7 15 8 16 9 17 10 19 11 20 12
REMARK SMILES IDX 21 13 23 14 26 15 27 16 28 17 29 18 11 19 10 20 9 21 12 22
REMARK SMILES IDX 30 23 24 24 25 25 18 26 8 27 2 28 3 29 1 30 22 31
REMARK H PARENT 22 32
REMARK Flexibility Score: inf
ROOT
ATOM      1  C   UNL     1      15.817 -12.454  25.876  1.00  0.00     0.018 C 
ATOM      2  C   UNL     1      16.760 -11.563  25.069  1.00  0.00     0.009 C 
ATOM      3  C   UNL     1      17.980 -11.341  25.955  1.00  0.00     0.008 C 
ATOM      4  C   UNL     1      17.865 -12.314  27.162  1.00  0.00    -0.029 C 
ATOM      5  C   UNL     1      16.729 -13.329  26.782  1.00  0.00     0.006 C 
ATOM      6  C   UNL     1      17.189 -14.685  26.097  1.00  0.00    -0.000 C 
ATOM      7  C   UNL     1      16.100 -15.778  26.277  1.00  0.00     0.005 C 
ATOM      8  C   UNL     1      16.545 -17.207  25.912  1.00  0.00     0.005 C 
ATOM      9  C   UNL     1      17.748 -17.269  24.923  1.00  0.00     0.002 C 
ATOM     10  C   UNL     1      18.013 -18.751  24.287  1.00  0.00    -0.026 C 
ATOM     11  C   UNL     1      18.301 -18.612  22.753  1.00  0.00     0.010 C 
ATOM     12  C   UNL     1      18.713 -19.909  22.039  1.00  0.00     0.033 C 
ATOM     13  C   UNL     1      19.899 -20.627  22.715  1.00  0.00     0.120 C 
ATOM     14  C   UNL     1      19.689 -20.883  24.245  1.00  0.00    -0.006 C 
ATOM     15  C   UNL     1      19.178 -19.566  25.012  1.00  0.00     0.003 C 
ATOM     16  C   UNL     1      20.358 -18.660  25.446  1.00  0.00     0.005 C 
ATOM     17  C   UNL     1      19.909 -17.480  26.290  1.00  0.00     0.008 C 
ATOM     18  C   UNL     1      19.001 -16.477  25.542  1.00  0.00    -0.024 C 
ATOM     19  C   UNL     1      18.560 -15.264  26.564  1.00  0.00    -0.024 C 
ATOM     20  C   UNL     1      19.596 -14.094  26.552  1.00  0.00     0.008 C 
ATOM     21  C   UNL     1      19.238 -12.949  27.489  1.00  0.00     0.007 C 
ATOM     22  C   UNL     1      18.444 -15.734  28.063  1.00  0.00     0.012 C 
ATOM     23  C   UNL     1      19.828 -15.873  24.356  1.00  0.00     0.012 C 
ATOM     24  C   UNL     1      18.688 -22.072  24.438  1.00  0.00     0.014 C 
ATOM     25  C   UNL     1      21.035 -21.410  24.833  1.00  0.00     0.014 C 
ATOM     26  C   UNL     1      16.693 -19.586  24.372  1.00  0.00     0.012 C 
ATOM     27  C   UNL     1      17.441 -11.500  28.416  1.00  0.00     0.011 C 
ENDROOT
BRANCH   1  28
ATOM     28  C   UNL     1      14.710 -13.136  25.071  1.00  0.00    -0.077 C 
ATOM     29  C   UNL     1      13.448 -13.560  25.781  1.00  0.00     0.039 C 
ATOM     30  C   UNL     1      14.802 -13.380  23.750  1.00  0.00     0.008 C 
ENDBRANCH   1  28
BRANCH  13  31
ATOM     31  O   UNL     1      21.124 -19.984  22.438  1.00  0.00    -0.393 OA
ATOM     32  H   UNL     1      21.870 -20.536  22.780  1.00  0.00     0.210 HD
ENDBRANCH  13  31
TORSDOF 2
ENDMDL
MODEL 8
REMARK VINA RESULT:    -5.205      2.286      7.346
REMARK INTER + INTRA:          -6.095
REMARK INTER:                  -5.686
REMARK INTRA:                  -0.409
REMARK UNBOUND:                -0.434
REMARK SMILES C=C(C)[C@@H]1CC[C@]2(C)CC[C@@]3(C)[C@@H](CC[C@@H]4[C@@]5(C)CC[C@@H](O)C(C)(C)[C@H]5CC[C@@]43C)[C@H]12
REMARK SMILES IDX 4 1 5 2 6 3 7 4 31 5 13 6 14 7 15 8 16 9 17 10 19 11 20 12
REMARK SMILES IDX 21 13 23 14 26 15 27 16 28 17 29 18 11 19 10 20 9 21 12 22
REMARK SMILES IDX 30 23 24 24 25 25 18 26 8 27 2 28 3 29 1 30 22 31
REMARK H PARENT 22 32
REMARK Flexibility Score: inf
ROOT
ATOM      1  C   UNL     1      20.170 -16.500  23.098  1.00  0.00     0.018 C 
ATOM      2  C   UNL     1      19.508 -17.464  22.115  1.00  0.00     0.009 C 
ATOM      3  C   UNL     1      19.313 -18.768  22.881  1.00  0.00     0.008 C 
ATOM      4  C   UNL     1      19.615 -18.481  24.378  1.00  0.00    -0.029 C 
ATOM      5  C   UNL     1      19.665 -16.917  24.509  1.00  0.00     0.006 C 
ATOM      6  C   UNL     1      18.316 -16.197  24.936  1.00  0.00    -0.000 C 
ATOM      7  C   UNL     1      18.618 -14.801  25.547  1.00  0.00     0.005 C 
ATOM      8  C   UNL     1      17.428 -14.130  26.258  1.00  0.00     0.005 C 
ATOM      9  C   UNL     1      16.032 -14.640  25.788  1.00  0.00     0.002 C 
ATOM     10  C   UNL     1      14.780 -13.719  26.294  1.00  0.00    -0.026 C 
ATOM     11  C   UNL     1      13.776 -13.515  25.109  1.00  0.00     0.010 C 
ATOM     12  C   UNL     1      12.471 -12.788  25.469  1.00  0.00     0.033 C 
ATOM     13  C   UNL     1      11.727 -13.423  26.660  1.00  0.00     0.120 C 
ATOM     14  C   UNL     1      12.621 -13.611  27.931  1.00  0.00    -0.006 C 
ATOM     15  C   UNL     1      14.032 -14.296  27.580  1.00  0.00     0.003 C 
ATOM     16  C   UNL     1      13.932 -15.842  27.567  1.00  0.00     0.005 C 
ATOM     17  C   UNL     1      15.280 -16.514  27.372  1.00  0.00     0.008 C 
ATOM     18  C   UNL     1      15.935 -16.229  26.001  1.00  0.00    -0.024 C 
ATOM     19  C   UNL     1      17.396 -16.984  25.921  1.00  0.00    -0.024 C 
ATOM     20  C   UNL     1      17.262 -18.443  25.377  1.00  0.00     0.008 C 
ATOM     21  C   UNL     1      18.587 -19.189  25.292  1.00  0.00     0.007 C 
ATOM     22  C   UNL     1      18.107 -17.098  27.321  1.00  0.00     0.012 C 
ATOM     23  C   UNL     1      14.996 -16.812  24.890  1.00  0.00     0.012 C 
ATOM     24  C   UNL     1      12.826 -12.224  28.628  1.00  0.00     0.014 C 
ATOM     25  C   UNL     1      11.812 -14.451  28.969  1.00  0.00     0.014 C 
ATOM     26  C   UNL     1      15.304 -12.283  26.626  1.00  0.00     0.012 C 
ATOM     27  C   UNL     1      21.007 -19.079  24.726  1.00  0.00     0.011 C 
ENDROOT
BRANCH   1  28
ATOM     28  C   UNL     1      20.116 -15.023  22.705  1.00  0.00    -0.077 C 
ATOM     29  C   UNL     1      18.911 -14.512  21.955  1.00  0.00     0.039 C 
ATOM     30  C   UNL     1      21.095 -14.146  22.997  1.00  0.00     0.008 C 
ENDBRANCH   1  28
BRANCH  13  31
ATOM     31  O   UNL     1      11.063 -14.611  26.287  1.00  0.00    -0.393 OA
ATOM     32  H   UNL     1      11.283 -15.328  26.932  1.00  0.00     0.210 HD
ENDBRANCH  13  31
TORSDOF 2
ENDMDL
MODEL 9
REMARK VINA RESULT:    -5.150      2.635      8.901
REMARK INTER + INTRA:          -6.035
REMARK INTER:                  -5.614
REMARK INTRA:                  -0.421
REMARK UNBOUND:                -0.434
REMARK SMILES C=C(C)[C@@H]1CC[C@]2(C)CC[C@@]3(C)[C@@H](CC[C@@H]4[C@@]5(C)CC[C@@H](O)C(C)(C)[C@H]5CC[C@@]43C)[C@H]12
REMARK SMILES IDX 4 1 5 2 6 3 7 4 31 5 13 6 14 7 15 8 16 9 17 10 19 11 20 12
REMARK SMILES IDX 21 13 23 14 26 15 27 16 28 17 29 18 11 19 10 20 9 21 12 22
REMARK SMILES IDX 30 23 24 24 25 25 18 26 8 27 2 28 3 29 1 30 22 31
REMARK H PARENT 22 32
REMARK Flexibility Score: inf
ROOT
ATOM      1  C   UNL     1      18.703 -23.927  23.262  1.00  0.00     0.018 C 
ATOM      2  C   UNL     1      20.125 -24.116  23.788  1.00  0.00     0.009 C 
ATOM      3  C   UNL     1      21.045 -23.580  22.698  1.00  0.00     0.008 C 
ATOM      4  C   UNL     1      20.159 -22.839  21.659  1.00  0.00    -0.029 C 
ATOM      5  C   UNL     1      18.755 -22.674  22.341  1.00  0.00     0.006 C 
ATOM      6  C   UNL     1      18.495 -21.311  23.112  1.00  0.00    -0.000 C 
ATOM      7  C   UNL     1      16.970 -21.047  23.248  1.00  0.00     0.005 C 
ATOM      8  C   UNL     1      16.593 -19.630  23.717  1.00  0.00     0.005 C 
ATOM      9  C   UNL     1      17.721 -18.895  24.501  1.00  0.00     0.002 C 
ATOM     10  C   UNL     1      17.226 -17.540  25.271  1.00  0.00    -0.026 C 
ATOM     11  C   UNL     1      17.847 -17.506  26.709  1.00  0.00     0.010 C 
ATOM     12  C   UNL     1      17.588 -16.219  27.508  1.00  0.00     0.033 C 
ATOM     13  C   UNL     1      17.994 -14.939  26.750  1.00  0.00     0.120 C 
ATOM     14  C   UNL     1      17.371 -14.833  25.318  1.00  0.00    -0.006 C 
ATOM     15  C   UNL     1      17.550 -16.193  24.480  1.00  0.00     0.003 C 
ATOM     16  C   UNL     1      18.917 -16.243  23.752  1.00  0.00     0.005 C 
ATOM     17  C   UNL     1      19.053 -17.454  22.846  1.00  0.00     0.008 C 
ATOM     18  C   UNL     1      19.045 -18.807  23.595  1.00  0.00    -0.024 C 
ATOM     19  C   UNL     1      19.170 -20.039  22.510  1.00  0.00    -0.024 C 
ATOM     20  C   UNL     1      20.661 -20.393  22.208  1.00  0.00     0.008 C 
ATOM     21  C   UNL     1      20.832 -21.523  21.202  1.00  0.00     0.007 C 
ATOM     22  C   UNL     1      18.506 -19.705  21.121  1.00  0.00     0.012 C 
ATOM     23  C   UNL     1      20.289 -18.836  24.548  1.00  0.00     0.012 C 
ATOM     24  C   UNL     1      15.859 -14.441  25.440  1.00  0.00     0.014 C 
ATOM     25  C   UNL     1      18.029 -13.616  24.595  1.00  0.00     0.014 C 
ATOM     26  C   UNL     1      15.681 -17.623  25.504  1.00  0.00     0.012 C 
ATOM     27  C   UNL     1      20.024 -23.733  20.395  1.00  0.00     0.011 C 
ENDROOT
BRANCH   1  28
ATOM     28  C   UNL     1      17.596 -24.021  24.313  1.00  0.00    -0.077 C 
ATOM     29  C   UNL     1      16.203 -24.397  23.872  1.00  0.00     0.039 C 
ATOM     30  C   UNL     1      17.801 -23.785  25.622  1.00  0.00     0.008 C 
ENDBRANCH   1  28
BRANCH  13  31
ATOM     31  O   UNL     1      19.393 -14.757  26.744  1.00  0.00    -0.393 OA
ATOM     32  H   UNL     1      19.839 -15.623  26.921  1.00  0.00     0.210 HD
ENDBRANCH  13  31
TORSDOF 2
ENDMDL
