MODEL 1
REMARK VINA RESULT:    -4.137      0.000      0.000
REMARK INTER + INTRA:          -5.495
REMARK INTER:                  -5.588
REMARK INTRA:                   0.093
REMARK UNBOUND:                 0.093
REMARK SMILES C=C(C)[C@@H]1CC[C@@H](C)C2=C(C1)[C@@H](C)CC2
REMARK SMILES IDX 10 1 9 2 15 3 14 4 12 5 13 6 7 7 8 8 6 9 11 11 4 12 5 13
REMARK SMILES IDX 2 15 1 16 3 17
REMARK H PARENT
REMARK Flexibility Score: 80.00
ROOT
ATOM      1  C   UNL     1     165.717 163.003 201.521  1.00  0.00    -0.067 C 
ATOM      2  C   UNL     1     165.583 162.606 200.259  1.00  0.00    -0.068 C 
ATOM      3  C   UNL     1     166.899 162.246 199.651  1.00  0.00     0.032 C 
ATOM      4  C   UNL     1     167.930 162.657 200.706  1.00  0.00     0.012 C 
ATOM      5  C   UNL     1     167.134 162.958 201.988  1.00  0.00     0.012 C 
ATOM      6  C   UNL     1     167.329 161.866 203.046  1.00  0.00     0.012 C 
ENDROOT
BRANCH   2   7
ATOM      7  C   UNL     1     164.230 162.525 199.568  1.00  0.00     0.012 C 
ATOM      8  C   UNL     1     164.295 161.744 198.247  1.00  0.00     0.012 C 
BRANCH   7   9
ATOM      9  C   UNL     1     163.586 163.921 199.346  1.00  0.00     0.008 CG0
ATOM     10  G   UNL     1     162.991 164.610 200.595  1.00  0.00     0.000 G0
ENDBRANCH   7   9
ENDBRANCH   2   7
BRANCH   1  11
ATOM     11  C   UNL     1     164.551 163.449 202.371  1.00  0.00     0.039 C 
BRANCH  11  12
ATOM     12  C   UNL     1     163.893 164.756 201.851  1.00  0.00     0.018 C 
BRANCH  12  13
ATOM     13  C   UNL     1     162.983 164.620 200.599  1.00  0.00     0.009 CG0
ATOM     14  G   UNL     1     163.581 163.925 199.354  1.00  0.00     0.000 G0
ENDBRANCH  12  13
BRANCH  12  15
ATOM     15  C   UNL     1     163.206 165.537 202.968  1.00  0.00    -0.077 C 
ATOM     16  C   UNL     1     163.362 166.869 203.050  1.00  0.00     0.008 C 
ATOM     17  C   UNL     1     162.304 164.864 203.971  1.00  0.00     0.039 C 
ENDBRANCH  12  15
ENDBRANCH  11  12
ENDBRANCH   1  11
TORSDOF 1
ENDMDL
MODEL 2
REMARK VINA RESULT:    -4.130      4.989      6.890
REMARK INTER + INTRA:          -5.485
REMARK INTER:                  -5.571
REMARK INTRA:                   0.086
REMARK UNBOUND:                 0.093
REMARK SMILES C=C(C)[C@@H]1CC[C@@H](C)C2=C(C1)[C@@H](C)CC2
REMARK SMILES IDX 10 1 9 2 15 3 14 4 12 5 13 6 7 7 8 8 6 9 11 11 4 12 5 13
REMARK SMILES IDX 2 15 1 16 3 17
REMARK H PARENT
REMARK Flexibility Score: 80.00
ROOT
ATOM      1  C   UNL     1     166.312 169.000 201.738  1.00  0.00    -0.067 C 
ATOM      2  C   UNL     1     166.414 169.388 200.470  1.00  0.00    -0.068 C 
ATOM      3  C   UNL     1     165.083 169.738 199.891  1.00  0.00     0.032 C 
ATOM      4  C   UNL     1     164.078 169.330 200.973  1.00  0.00     0.012 C 
ATOM      5  C   UNL     1     164.905 169.042 202.238  1.00  0.00     0.012 C 
ATOM      6  C   UNL     1     164.731 170.141 203.292  1.00  0.00     0.012 C 
ENDROOT
BRANCH   2   7
ATOM      7  C   UNL     1     167.750 169.469 199.746  1.00  0.00     0.012 C 
ATOM      8  C   UNL     1     167.651 170.246 198.424  1.00  0.00     0.012 C 
BRANCH   7   9
ATOM      9  C   UNL     1     168.392 168.075 199.515  1.00  0.00     0.008 CG0
ATOM     10  G   UNL     1     169.029 167.398 200.750  1.00  0.00     0.000 G0
ENDBRANCH   7   9
ENDBRANCH   2   7
BRANCH   1  11
ATOM     11  C   UNL     1     167.499 168.565 202.564  1.00  0.00     0.039 C 
BRANCH  11  12
ATOM     12  C   UNL     1     168.153 167.259 202.036  1.00  0.00     0.018 C 
BRANCH  12  13
ATOM     13  C   UNL     1     169.035 167.394 200.763  1.00  0.00     0.009 CG0
ATOM     14  G   UNL     1     168.408 168.080 199.528  1.00  0.00     0.000 G0
ENDBRANCH  12  13
BRANCH  12  15
ATOM     15  C   UNL     1     168.867 166.487 203.142  1.00  0.00    -0.077 C 
ATOM     16  C   UNL     1     169.670 167.136 204.002  1.00  0.00     0.008 C 
ATOM     17  C   UNL     1     168.662 165.007 203.339  1.00  0.00     0.039 C 
ENDBRANCH  12  15
ENDBRANCH  11  12
ENDBRANCH   1  11
TORSDOF 1
ENDMDL
MODEL 3
REMARK VINA RESULT:    -4.093      4.705      6.553
REMARK INTER + INTRA:          -5.436
REMARK INTER:                  -5.496
REMARK INTRA:                   0.060
REMARK UNBOUND:                 0.093
REMARK SMILES C=C(C)[C@@H]1CC[C@@H](C)C2=C(C1)[C@@H](C)CC2
REMARK SMILES IDX 10 1 9 2 15 3 14 4 12 5 13 6 7 7 8 8 6 9 11 11 4 12 5 13
REMARK SMILES IDX 2 15 1 16 3 17
REMARK H PARENT
REMARK Flexibility Score: 80.00
ROOT
ATOM      1  C   UNL     1     168.566 167.119 201.098  1.00  0.00    -0.067 C 
ATOM      2  C   UNL     1     168.125 168.246 200.545  1.00  0.00    -0.068 C 
ATOM      3  C   UNL     1     167.408 169.102 201.536  1.00  0.00     0.032 C 
ATOM      4  C   UNL     1     167.314 168.233 202.793  1.00  0.00     0.012 C 
ATOM      5  C   UNL     1     168.246 167.032 202.553  1.00  0.00     0.012 C 
ATOM      6  C   UNL     1     169.519 167.123 203.402  1.00  0.00     0.012 C 
ENDROOT
BRANCH   2   7
ATOM      7  C   UNL     1     168.363 168.584 199.081  1.00  0.00     0.012 C 
ATOM      8  C   UNL     1     168.058 170.056 198.766  1.00  0.00     0.012 C 
BRANCH   7   9
ATOM      9  C   UNL     1     167.590 167.647 198.114  1.00  0.00     0.008 CG0
ATOM     10  G   UNL     1     168.165 166.224 197.931  1.00  0.00     0.000 G0
ENDBRANCH   7   9
ENDBRANCH   2   7
BRANCH   1  11
ATOM     11  C   UNL     1     169.305 166.056 200.321  1.00  0.00     0.039 C 
BRANCH  11  12
ATOM     12  C   UNL     1     168.426 165.387 199.230  1.00  0.00     0.018 C 
BRANCH  12  13
ATOM     13  C   UNL     1     168.174 166.218 197.941  1.00  0.00     0.009 CG0
ATOM     14  G   UNL     1     167.581 167.636 198.109  1.00  0.00     0.000 G0
ENDBRANCH  12  13
BRANCH  12  15
ATOM     15  C   UNL     1     168.889 163.969 198.908  1.00  0.00    -0.077 C 
ATOM     16  C   UNL     1     169.758 163.346 199.722  1.00  0.00     0.008 C 
ATOM     17  C   UNL     1     168.360 163.209 197.718  1.00  0.00     0.039 C 
ENDBRANCH  12  15
ENDBRANCH  11  12
ENDBRANCH   1  11
TORSDOF 1
ENDMDL
MODEL 4
REMARK VINA RESULT:    -4.050      2.184      5.608
REMARK INTER + INTRA:          -5.377
REMARK INTER:                  -5.436
REMARK INTRA:                   0.059
REMARK UNBOUND:                 0.093
REMARK SMILES C=C(C)[C@@H]1CC[C@@H](C)C2=C(C1)[C@@H](C)CC2
REMARK SMILES IDX 10 1 9 2 15 3 14 4 12 5 13 6 7 7 8 8 6 9 11 11 4 12 5 13
REMARK SMILES IDX 2 15 1 16 3 17
REMARK H PARENT
REMARK Flexibility Score: 80.00
ROOT
ATOM      1  C   UNL     1     163.153 167.143 200.663  1.00  0.00    -0.067 C 
ATOM      2  C   UNL     1     163.333 167.349 201.965  1.00  0.00    -0.068 C 
ATOM      3  C   UNL     1     163.875 168.714 202.238  1.00  0.00     0.032 C 
ATOM      4  C   UNL     1     164.179 169.287 200.850  1.00  0.00     0.012 C 
ATOM      5  C   UNL     1     163.517 168.334 199.839  1.00  0.00     0.012 C 
ATOM      6  C   UNL     1     162.272 168.960 199.200  1.00  0.00     0.012 C 
ENDROOT
BRANCH   2   7
ATOM      7  C   UNL     1     162.996 166.299 203.012  1.00  0.00     0.012 C 
ATOM      8  C   UNL     1     162.978 166.877 204.435  1.00  0.00     0.012 C 
BRANCH   7   9
ATOM      9  C   UNL     1     163.926 165.057 202.939  1.00  0.00     0.008 CG0
ATOM     10  G   UNL     1     163.665 164.070 201.778  1.00  0.00     0.000 G0
ENDBRANCH   7   9
ENDBRANCH   2   7
BRANCH   1  11
ATOM     11  C   UNL     1     162.638 165.840 200.100  1.00  0.00     0.039 C 
BRANCH  11  12
ATOM     12  C   UNL     1     163.614 164.655 200.337  1.00  0.00     0.018 C 
BRANCH  12  13
ATOM     13  C   UNL     1     163.645 164.064 201.774  1.00  0.00     0.009 CG0
ATOM     14  G   UNL     1     163.919 165.039 202.943  1.00  0.00     0.000 G0
ENDBRANCH  12  13
BRANCH  12  15
ATOM     15  C   UNL     1     163.462 163.566 199.279  1.00  0.00    -0.077 C 
ATOM     16  C   UNL     1     162.631 163.752 198.239  1.00  0.00     0.008 C 
ATOM     17  C   UNL     1     164.260 162.288 199.332  1.00  0.00     0.039 C 
ENDBRANCH  12  15
ENDBRANCH  11  12
ENDBRANCH   1  11
TORSDOF 1
ENDMDL
MODEL 5
REMARK VINA RESULT:    -4.026      2.632      5.919
REMARK INTER + INTRA:          -5.344
REMARK INTER:                  -5.407
REMARK INTRA:                   0.063
REMARK UNBOUND:                 0.093
REMARK SMILES C=C(C)[C@@H]1CC[C@@H](C)C2=C(C1)[C@@H](C)CC2
REMARK SMILES IDX 10 1 9 2 15 3 14 4 12 5 13 6 7 7 8 8 6 9 11 11 4 12 5 13
REMARK SMILES IDX 2 15 1 16 3 17
REMARK H PARENT
REMARK Flexibility Score: 80.00
ROOT
ATOM      1  C   UNL     1     163.561 167.883 200.329  1.00  0.00    -0.067 C 
ATOM      2  C   UNL     1     163.791 168.367 201.547  1.00  0.00    -0.068 C 
ATOM      3  C   UNL     1     164.426 169.718 201.493  1.00  0.00     0.032 C 
ATOM      4  C   UNL     1     164.727 169.938 200.007  1.00  0.00     0.012 C 
ATOM      5  C   UNL     1     163.978 168.827 199.250  1.00  0.00     0.012 C 
ATOM      6  C   UNL     1     162.758 169.375 198.500  1.00  0.00     0.012 C 
ENDROOT
BRANCH   2   7
ATOM      7  C   UNL     1     163.415 167.609 202.811  1.00  0.00     0.012 C 
ATOM      8  C   UNL     1     163.474 168.496 204.063  1.00  0.00     0.012 C 
BRANCH   7   9
ATOM      9  C   UNL     1     164.262 166.322 203.012  1.00  0.00     0.008 CG0
ATOM     10  G   UNL     1     163.916 165.122 202.102  1.00  0.00     0.000 G0
ENDBRANCH   7   9
ENDBRANCH   2   7
BRANCH   1  11
ATOM     11  C   UNL     1     162.948 166.525 200.086  1.00  0.00     0.039 C 
BRANCH  11  12
ATOM     12  C   UNL     1     163.856 165.360 200.566  1.00  0.00     0.018 C 
BRANCH  12  13
ATOM     13  C   UNL     1     163.907 165.112 202.100  1.00  0.00     0.009 CG0
ATOM     14  G   UNL     1     164.256 166.313 203.008  1.00  0.00     0.000 G0
ENDBRANCH  12  13
BRANCH  12  15
ATOM     15  C   UNL     1     163.596 164.072 199.791  1.00  0.00    -0.077 C 
ATOM     16  C   UNL     1     164.182 162.926 200.177  1.00  0.00     0.008 C 
ATOM     17  C   UNL     1     162.649 164.025 198.619  1.00  0.00     0.039 C 
ENDBRANCH  12  15
ENDBRANCH  11  12
ENDBRANCH   1  11
TORSDOF 1
ENDMDL
MODEL 6
REMARK VINA RESULT:    -3.992      4.465      6.006
REMARK INTER + INTRA:          -5.299
REMARK INTER:                  -5.365
REMARK INTRA:                   0.066
REMARK UNBOUND:                 0.093
REMARK SMILES C=C(C)[C@@H]1CC[C@@H](C)C2=C(C1)[C@@H](C)CC2
REMARK SMILES IDX 10 1 9 2 15 3 14 4 12 5 13 6 7 7 8 8 6 9 11 11 4 12 5 13
REMARK SMILES IDX 2 15 1 16 3 17
REMARK H PARENT
REMARK Flexibility Score: 80.00
ROOT
ATOM      1  C   UNL     1     168.780 165.099 200.734  1.00  0.00    -0.067 C 
ATOM      2  C   UNL     1     168.602 164.965 202.045  1.00  0.00    -0.068 C 
ATOM      3  C   UNL     1     168.096 163.605 202.397  1.00  0.00     0.032 C 
ATOM      4  C   UNL     1     167.810 162.944 201.046  1.00  0.00     0.012 C 
ATOM      5  C   UNL     1     168.448 163.853 199.981  1.00  0.00     0.012 C 
ATOM      6  C   UNL     1     169.711 163.224 199.380  1.00  0.00     0.012 C 
ENDROOT
BRANCH   2   7
ATOM      7  C   UNL     1     168.910 166.084 203.029  1.00  0.00     0.012 C 
ATOM      8  C   UNL     1     168.943 165.589 204.483  1.00  0.00     0.012 C 
BRANCH   7   9
ATOM      9  C   UNL     1     167.945 167.292 202.885  1.00  0.00     0.008 CG0
ATOM     10  G   UNL     1     168.187 168.225 201.677  1.00  0.00     0.000 G0
ENDBRANCH   7   9
ENDBRANCH   2   7
BRANCH   1  11
ATOM     11  C   UNL     1     169.261 166.380 200.096  1.00  0.00     0.039 C 
BRANCH  11  12
ATOM     12  C   UNL     1     168.254 167.551 200.262  1.00  0.00     0.018 C 
BRANCH  12  13
ATOM     13  C   UNL     1     168.191 168.214 201.666  1.00  0.00     0.009 CG0
ATOM     14  G   UNL     1     167.941 167.291 202.881  1.00  0.00     0.000 G0
ENDBRANCH  12  13
BRANCH  12  15
ATOM     15  C   UNL     1     168.391 168.588 199.151  1.00  0.00    -0.077 C 
ATOM     16  C   UNL     1     169.347 168.449 198.216  1.00  0.00     0.008 C 
ATOM     17  C   UNL     1     167.446 169.757 199.032  1.00  0.00     0.039 C 
ENDBRANCH  12  15
ENDBRANCH  11  12
ENDBRANCH   1  11
TORSDOF 1
ENDMDL
MODEL 7
REMARK VINA RESULT:    -3.877      2.148      3.562
REMARK INTER + INTRA:          -5.144
REMARK INTER:                  -5.231
REMARK INTRA:                   0.087
REMARK UNBOUND:                 0.093
REMARK SMILES C=C(C)[C@@H]1CC[C@@H](C)C2=C(C1)[C@@H](C)CC2
REMARK SMILES IDX 10 1 9 2 15 3 14 4 12 5 13 6 7 7 8 8 6 9 11 11 4 12 5 13
REMARK SMILES IDX 2 15 1 16 3 17
REMARK H PARENT
REMARK Flexibility Score: 80.00
ROOT
ATOM      1  C   UNL     1     163.587 164.954 201.695  1.00  0.00    -0.067 C 
ATOM      2  C   UNL     1     164.129 163.893 201.103  1.00  0.00    -0.068 C 
ATOM      3  C   UNL     1     164.701 162.937 202.098  1.00  0.00     0.032 C 
ATOM      4  C   UNL     1     164.584 163.668 203.438  1.00  0.00     0.012 C 
ATOM      5  C   UNL     1     163.678 164.886 203.184  1.00  0.00     0.012 C 
ATOM      6  C   UNL     1     162.291 164.703 203.811  1.00  0.00     0.012 C 
ENDROOT
BRANCH   2   7
ATOM      7  C   UNL     1     164.125 163.712 199.592  1.00  0.00     0.012 C 
ATOM      8  C   UNL     1     164.504 162.283 199.175  1.00  0.00     0.012 C 
BRANCH   7   9
ATOM      9  C   UNL     1     165.018 164.750 198.860  1.00  0.00     0.008 CG0
ATOM     10  G   UNL     1     164.457 166.186 198.753  1.00  0.00     0.000 G0
ENDBRANCH   7   9
ENDBRANCH   2   7
BRANCH   1  11
ATOM     11  C   UNL     1     162.957 166.092 200.929  1.00  0.00     0.039 C 
BRANCH  11  12
ATOM     12  C   UNL     1     163.982 166.877 200.067  1.00  0.00     0.018 C 
BRANCH  12  13
ATOM     13  C   UNL     1     164.452 166.189 198.755  1.00  0.00     0.009 CG0
ATOM     14  G   UNL     1     165.023 164.756 198.865  1.00  0.00     0.000 G0
ENDBRANCH  12  13
BRANCH  12  15
ATOM     15  C   UNL     1     163.543 168.319 199.824  1.00  0.00    -0.077 C 
ATOM     16  C   UNL     1     162.245 168.600 199.618  1.00  0.00     0.008 C 
ATOM     17  C   UNL     1     164.522 169.465 199.858  1.00  0.00     0.039 C 
ENDBRANCH  12  15
ENDBRANCH  11  12
ENDBRANCH   1  11
TORSDOF 1
ENDMDL
MODEL 8
REMARK VINA RESULT:    -3.864      2.030      5.237
REMARK INTER + INTRA:          -5.126
REMARK INTER:                  -5.185
REMARK INTRA:                   0.059
REMARK UNBOUND:                 0.093
REMARK SMILES C=C(C)[C@@H]1CC[C@@H](C)C2=C(C1)[C@@H](C)CC2
REMARK SMILES IDX 10 1 9 2 15 3 14 4 12 5 13 6 7 7 8 8 6 9 11 11 4 12 5 13
REMARK SMILES IDX 2 15 1 16 3 17
REMARK H PARENT
REMARK Flexibility Score: 80.00
ROOT
ATOM      1  C   UNL     1     164.366 163.810 199.961  1.00  0.00    -0.067 C 
ATOM      2  C   UNL     1     164.043 163.978 201.241  1.00  0.00    -0.068 C 
ATOM      3  C   UNL     1     162.794 164.782 201.394  1.00  0.00     0.032 C 
ATOM      4  C   UNL     1     162.469 165.255 199.974  1.00  0.00     0.012 C 
ATOM      5  C   UNL     1     163.384 164.449 199.035  1.00  0.00     0.012 C 
ATOM      6  C   UNL     1     162.600 163.390 198.251  1.00  0.00     0.012 C 
ENDROOT
BRANCH   2   7
ATOM      7  C   UNL     1     164.867 163.385 202.374  1.00  0.00     0.012 C 
ATOM      8  C   UNL     1     164.129 163.438 203.721  1.00  0.00     0.012 C 
BRANCH   7   9
ATOM      9  C   UNL     1     166.273 164.033 202.496  1.00  0.00     0.008 CG0
ATOM     10  G   UNL     1     167.318 163.611 201.438  1.00  0.00     0.000 G0
ENDBRANCH   7   9
ENDBRANCH   2   7
BRANCH   1  11
ATOM     11  C   UNL     1     165.595 163.056 199.515  1.00  0.00     0.039 C 
BRANCH  11  12
ATOM     12  C   UNL     1     166.916 163.752 199.943  1.00  0.00     0.018 C 
BRANCH  12  13
ATOM     13  C   UNL     1     167.320 163.607 201.437  1.00  0.00     0.009 CG0
ATOM     14  G   UNL     1     166.284 164.037 202.501  1.00  0.00     0.000 G0
ENDBRANCH  12  13
BRANCH  12  15
ATOM     15  C   UNL     1     168.073 163.412 199.008  1.00  0.00    -0.077 C 
ATOM     16  C   UNL     1     169.331 163.376 199.481  1.00  0.00     0.008 C 
ATOM     17  C   UNL     1     167.849 163.059 197.559  1.00  0.00     0.039 C 
ENDBRANCH  12  15
ENDBRANCH  11  12
ENDBRANCH   1  11
TORSDOF 1
ENDMDL
MODEL 9
REMARK VINA RESULT:    -3.827      3.168      5.578
REMARK INTER + INTRA:          -5.076
REMARK INTER:                  -5.133
REMARK INTRA:                   0.057
REMARK UNBOUND:                 0.093
REMARK SMILES C=C(C)[C@@H]1CC[C@@H](C)C2=C(C1)[C@@H](C)CC2
REMARK SMILES IDX 10 1 9 2 15 3 14 4 12 5 13 6 7 7 8 8 6 9 11 11 4 12 5 13
REMARK SMILES IDX 2 15 1 16 3 17
REMARK H PARENT
REMARK Flexibility Score: 80.00
ROOT
ATOM      1  C   UNL     1     163.795 166.902 199.346  1.00  0.00    -0.067 C 
ATOM      2  C   UNL     1     163.943 167.622 198.238  1.00  0.00    -0.068 C 
ATOM      3  C   UNL     1     163.105 168.857 198.266  1.00  0.00     0.032 C 
ATOM      4  C   UNL     1     162.250 168.708 199.528  1.00  0.00     0.012 C 
ATOM      5  C   UNL     1     162.855 167.534 200.319  1.00  0.00     0.012 C 
ATOM      6  C   UNL     1     163.601 168.016 201.568  1.00  0.00     0.012 C 
ENDROOT
BRANCH   2   7
ATOM      7  C   UNL     1     164.879 167.206 197.113  1.00  0.00     0.012 C 
ATOM      8  C   UNL     1     165.124 168.340 196.107  1.00  0.00     0.012 C 
BRANCH   7   9
ATOM      9  C   UNL     1     164.405 165.919 196.383  1.00  0.00     0.008 CG0
ATOM     10  G   UNL     1     164.626 164.584 197.129  1.00  0.00     0.000 G0
ENDBRANCH   7   9
ENDBRANCH   2   7
BRANCH   1  11
ATOM     11  C   UNL     1     164.506 165.589 199.576  1.00  0.00     0.039 C 
BRANCH  11  12
ATOM     12  C   UNL     1     164.064 164.483 198.580  1.00  0.00     0.018 C 
BRANCH  12  13
ATOM     13  C   UNL     1     164.630 164.587 197.137  1.00  0.00     0.009 CG0
ATOM     14  G   UNL     1     164.405 165.913 196.374  1.00  0.00     0.000 G0
ENDBRANCH  12  13
BRANCH  12  15
ATOM     15  C   UNL     1     164.243 163.083 199.160  1.00  0.00    -0.077 C 
ATOM     16  C   UNL     1     164.229 162.901 200.492  1.00  0.00     0.008 C 
ATOM     17  C   UNL     1     164.388 161.868 198.278  1.00  0.00     0.039 C 
ENDBRANCH  12  15
ENDBRANCH  11  12
ENDBRANCH   1  11
TORSDOF 1
ENDMDL
