MODEL 1
REMARK VINA RESULT:    15.281      0.000      0.000
REMARK INTER + INTRA:          17.679
REMARK INTER:                  16.620
REMARK INTRA:                   1.058
REMARK UNBOUND:                 1.058
REMARK SMILES C[C@@H]1[C@@H](C)CC[C@]2(C(=O)[O-])CC[C@]3(C)C(=CC[C@H]4[C@]5(C)CC[C@@H](O)C(C)(C)[C@@H]5CC[C@]43C)[C@@H]12
REMARK SMILES IDX 7 1 6 2 11 3 33 4 5 5 12 6 15 7 2 8 3 9 13 10 16 11 1 12
REMARK SMILES IDX 4 13 14 14 31 15 17 16 18 17 30 18 32 19 19 20 29 21 28 22
REMARK SMILES IDX 21 23 20 24 25 25 22 26 23 27 26 28 27 29 8 30 9 31 10 32
REMARK SMILES IDX 24 33
REMARK H PARENT 24 34
REMARK Flexibility Score: inf
ROOT
ATOM      1  C   UNL     1      -5.092  18.169  -6.445  1.00  0.00     0.017 C 
ATOM      2  C   UNL     1      -4.785  17.461  -5.102  1.00  0.00     0.014 C 
ATOM      3  C   UNL     1      -5.031  19.700  -6.194  1.00  0.00     0.014 C 
ATOM      4  C   UNL     1      -6.542  17.797  -6.902  1.00  0.00     0.030 C 
ATOM      5  C   UNL     1      -4.912  15.944  -5.224  1.00  0.00     0.004 C 
ATOM      6  C   UNL     1      -5.438  20.523  -7.430  1.00  0.00     0.013 C 
ATOM      7  C   UNL     1      -6.906  18.610  -8.174  1.00  0.00    -0.063 C 
ATOM      8  C   UNL     1      -6.812  16.245  -6.927  1.00  0.00    -0.003 C 
ATOM      9  C   UNL     1      -6.345  15.547  -5.608  1.00  0.00    -0.011 C 
ATOM     10  C   UNL     1      -6.835  20.155  -8.064  1.00  0.00    -0.006 C 
ATOM     11  C   UNL     1      -7.249  17.985  -9.333  1.00  0.00    -0.027 C 
ATOM     12  C   UNL     1      -8.324  15.950  -7.127  1.00  0.00     0.008 C 
ATOM     13  C   UNL     1      -6.425  14.015  -5.713  1.00  0.00     0.008 C 
ATOM     14  C   UNL     1      -7.922  20.596  -7.036  1.00  0.00     0.017 C 
ATOM     15  C   UNL     1      -7.014  20.869  -9.513  1.00  0.00    -0.020 C 
ATOM     16  C   UNL     1      -7.781  18.657 -10.570  1.00  0.00     0.032 C 
ATOM     17  C   UNL     1      -8.116  20.156 -10.382  1.00  0.00     0.006 C 
ATOM     18  C   UNL     1      -7.312  22.416  -9.450  1.00  0.00     0.008 C 
ATOM     19  C   UNL     1      -5.668  20.750 -10.329  1.00  0.00     0.012 C 
ATOM     20  C   UNL     1      -9.671  20.503 -10.144  1.00  0.00    -0.025 C 
ATOM     21  C   UNL     1      -8.690  22.868  -9.970  1.00  0.00     0.005 C 
ATOM     22  C   UNL     1      -9.853  21.955  -9.514  1.00  0.00     0.003 C 
ATOM     23  C   UNL     1     -10.344  20.463 -11.567  1.00  0.00     0.010 C 
ATOM     24  C   UNL     1     -10.376  19.431  -9.240  1.00  0.00     0.012 C 
ATOM     25  C   UNL     1     -11.304  22.609  -9.692  1.00  0.00    -0.006 C 
ATOM     26  C   UNL     1     -11.769  21.002 -11.626  1.00  0.00     0.033 C 
ATOM     27  C   UNL     1     -11.809  22.454 -11.153  1.00  0.00     0.120 C 
ATOM     28  C   UNL     1     -11.300  24.125  -9.352  1.00  0.00     0.014 C 
ATOM     29  C   UNL     1     -12.324  21.979  -8.700  1.00  0.00     0.014 C 
ENDROOT
BRANCH   1  30
ATOM     30  C   UNL     1      -4.021  17.784  -7.465  1.00  0.00     0.048 C 
ATOM     31  O   UNL     1      -3.760  18.556  -8.430  1.00  0.00    -0.550 OA
ATOM     32  O   UNL     1      -3.336  16.577  -7.375  1.00  0.00    -0.550 OA
ENDBRANCH   1  30
BRANCH  27  33
ATOM     33  O   UNL     1     -13.125  22.941 -11.272  1.00  0.00    -0.393 OA
ATOM     34  H   UNL     1     -13.072  23.825 -11.723  1.00  0.00     0.210 HD
ENDBRANCH  27  33
TORSDOF 2
ENDMDL
