MODEL 1
REMARK VINA RESULT:    -3.274      0.000      0.000
REMARK INTER + INTRA:          -3.274
REMARK INTER:                  -3.274
REMARK INTRA:                   0.000
REMARK UNBOUND:                 0.000
REMARK SMILES CC1(C)[C@H]2CC[C@]1(C)C(=O)C2
REMARK SMILES IDX 1 1 2 2 4 3 5 4 6 5 7 6 9 7 10 8 11 9 8 10 3 11
REMARK H PARENT
REMARK Flexibility Score: inf
ROOT
ATOM      1  C   UNL     1     145.688 141.048 144.043  1.00  0.00     0.012 C 
ATOM      2  C   UNL     1     144.985 141.693 142.808  1.00  0.00    -0.020 C 
ATOM      3  C   UNL     1     144.190 142.977 143.149  1.00  0.00     0.003 C 
ATOM      4  C   UNL     1     143.473 143.299 141.809  1.00  0.00     0.005 C 
ATOM      5  C   UNL     1     143.142 141.895 141.244  1.00  0.00     0.015 C 
ATOM      6  C   UNL     1     143.721 140.950 142.325  1.00  0.00     0.032 C 
ATOM      7  C   UNL     1     142.817 141.132 143.518  1.00  0.00     0.139 C 
ATOM      8  O   UNL     1     141.947 140.356 143.885  1.00  0.00    -0.299 OA
ATOM      9  C   UNL     1     143.090 142.474 144.124  1.00  0.00     0.080 C 
ATOM     10  C   UNL     1     143.913 139.498 141.872  1.00  0.00     0.020 C 
ATOM     11  C   UNL     1     146.092 141.905 141.732  1.00  0.00     0.012 C 
ENDROOT
TORSDOF 0
ENDMDL
MODEL 2
REMARK VINA RESULT:    -3.251      3.802      5.113
REMARK INTER + INTRA:          -3.251
REMARK INTER:                  -3.251
REMARK INTRA:                   0.000
REMARK UNBOUND:                 0.000
REMARK SMILES CC1(C)[C@H]2CC[C@]1(C)C(=O)C2
REMARK SMILES IDX 1 1 2 2 4 3 5 4 6 5 7 6 9 7 10 8 11 9 8 10 3 11
REMARK H PARENT
REMARK Flexibility Score: inf
ROOT
ATOM      1  C   UNL     1     141.001 135.921 144.100  1.00  0.00     0.012 C 
ATOM      2  C   UNL     1     141.607 136.614 142.840  1.00  0.00    -0.020 C 
ATOM      3  C   UNL     1     142.915 137.392 143.129  1.00  0.00     0.003 C 
ATOM      4  C   UNL     1     143.195 138.104 141.778  1.00  0.00     0.005 C 
ATOM      5  C   UNL     1     141.774 138.454 141.268  1.00  0.00     0.015 C 
ATOM      6  C   UNL     1     140.864 137.889 142.386  1.00  0.00     0.032 C 
ATOM      7  C   UNL     1     141.106 138.790 143.570  1.00  0.00     0.139 C 
ATOM      8  O   UNL     1     140.358 139.672 143.966  1.00  0.00    -0.299 OA
ATOM      9  C   UNL     1     142.466 138.499 144.123  1.00  0.00     0.080 C 
ATOM     10  C   UNL     1     139.392 137.718 141.990  1.00  0.00     0.020 C 
ATOM     11  C   UNL     1     141.761 135.504 141.757  1.00  0.00     0.012 C 
ENDROOT
TORSDOF 0
ENDMDL
MODEL 3
REMARK VINA RESULT:    -3.242      3.759      5.068
REMARK INTER + INTRA:          -3.242
REMARK INTER:                  -3.242
REMARK INTRA:                   0.000
REMARK UNBOUND:                 0.000
REMARK SMILES CC1(C)[C@H]2CC[C@]1(C)C(=O)C2
REMARK SMILES IDX 1 1 2 2 4 3 5 4 6 5 7 6 9 7 10 8 11 9 8 10 3 11
REMARK H PARENT
REMARK Flexibility Score: inf
ROOT
ATOM      1  C   UNL     1     140.599 145.564 144.072  1.00  0.00     0.012 C 
ATOM      2  C   UNL     1     139.876 144.909 142.855  1.00  0.00    -0.020 C 
ATOM      3  C   UNL     1     138.639 144.065 143.250  1.00  0.00     0.003 C 
ATOM      4  C   UNL     1     138.229 143.409 141.903  1.00  0.00     0.005 C 
ATOM      5  C   UNL     1     139.591 143.144 141.215  1.00  0.00     0.015 C 
ATOM      6  C   UNL     1     140.605 143.691 142.249  1.00  0.00     0.032 C 
ATOM      7  C   UNL     1     140.536 142.723 143.404  1.00  0.00     0.139 C 
ATOM      8  O   UNL     1     141.357 141.854 143.663  1.00  0.00    -0.299 OA
ATOM      9  C   UNL     1     139.241 142.929 144.125  1.00  0.00     0.080 C 
ATOM     10  C   UNL     1     142.013 143.942 141.697  1.00  0.00     0.020 C 
ATOM     11  C   UNL     1     139.556 146.064 141.858  1.00  0.00     0.012 C 
ENDROOT
TORSDOF 0
ENDMDL
MODEL 4
REMARK VINA RESULT:    -3.216      5.793      7.264
REMARK INTER + INTRA:          -3.216
REMARK INTER:                  -3.216
REMARK INTRA:                   0.000
REMARK UNBOUND:                 0.000
REMARK SMILES CC1(C)[C@H]2CC[C@]1(C)C(=O)C2
REMARK SMILES IDX 1 1 2 2 4 3 5 4 6 5 7 6 9 7 10 8 11 9 8 10 3 11
REMARK H PARENT
REMARK Flexibility Score: inf
ROOT
ATOM      1  C   UNL     1     138.211 138.073 141.249  1.00  0.00     0.012 C 
ATOM      2  C   UNL     1     137.762 138.756 142.578  1.00  0.00    -0.020 C 
ATOM      3  C   UNL     1     136.253 139.103 142.617  1.00  0.00     0.003 C 
ATOM      4  C   UNL     1     136.121 139.905 143.941  1.00  0.00     0.005 C 
ATOM      5  C   UNL     1     137.453 140.694 144.004  1.00  0.00     0.015 C 
ATOM      6  C   UNL     1     138.180 140.235 142.716  1.00  0.00     0.032 C 
ATOM      7  C   UNL     1     137.393 140.855 141.589  1.00  0.00     0.139 C 
ATOM      8  O   UNL     1     137.720 141.837 140.939  1.00  0.00    -0.299 OA
ATOM      9  C   UNL     1     136.088 140.132 141.463  1.00  0.00     0.080 C 
ATOM     10  C   UNL     1     139.686 140.525 142.691  1.00  0.00     0.020 C 
ATOM     11  C   UNL     1     138.221 137.817 143.734  1.00  0.00     0.012 C 
ENDROOT
TORSDOF 0
ENDMDL
MODEL 5
REMARK VINA RESULT:    -3.211      4.143      5.690
REMARK INTER + INTRA:          -3.211
REMARK INTER:                  -3.211
REMARK INTRA:                   0.000
REMARK UNBOUND:                 0.000
REMARK SMILES CC1(C)[C@H]2CC[C@]1(C)C(=O)C2
REMARK SMILES IDX 1 1 2 2 4 3 5 4 6 5 7 6 9 7 10 8 11 9 8 10 3 11
REMARK H PARENT
REMARK Flexibility Score: inf
ROOT
ATOM      1  C   UNL     1     138.173 143.276 141.300  1.00  0.00     0.012 C 
ATOM      2  C   UNL     1     138.804 143.804 142.625  1.00  0.00    -0.020 C 
ATOM      3  C   UNL     1     139.121 145.320 142.599  1.00  0.00     0.003 C 
ATOM      4  C   UNL     1     139.877 145.533 143.939  1.00  0.00     0.005 C 
ATOM      5  C   UNL     1     140.690 144.223 144.093  1.00  0.00     0.015 C 
ATOM      6  C   UNL     1     140.286 143.424 142.830  1.00  0.00     0.032 C 
ATOM      7  C   UNL     1     140.926 144.167 141.685  1.00  0.00     0.139 C 
ATOM      8  O   UNL     1     141.934 143.828 141.082  1.00  0.00    -0.299 OA
ATOM      9  C   UNL     1     140.182 145.449 141.471  1.00  0.00     0.080 C 
ATOM     10  C   UNL     1     140.605 141.925 142.889  1.00  0.00     0.020 C 
ATOM     11  C   UNL     1     137.838 143.383 143.773  1.00  0.00     0.012 C 
ENDROOT
TORSDOF 0
ENDMDL
MODEL 6
REMARK VINA RESULT:    -3.202      5.573      7.149
REMARK INTER + INTRA:          -3.202
REMARK INTER:                  -3.202
REMARK INTRA:                   0.000
REMARK UNBOUND:                 0.000
REMARK SMILES CC1(C)[C@H]2CC[C@]1(C)C(=O)C2
REMARK SMILES IDX 1 1 2 2 4 3 5 4 6 5 7 6 9 7 10 8 11 9 8 10 3 11
REMARK H PARENT
REMARK Flexibility Score: inf
ROOT
ATOM      1  C   UNL     1     136.013 140.342 144.124  1.00  0.00     0.012 C 
ATOM      2  C   UNL     1     136.665 139.850 142.795  1.00  0.00    -0.020 C 
ATOM      3  C   UNL     1     137.360 138.472 142.920  1.00  0.00     0.003 C 
ATOM      4  C   UNL     1     138.050 138.312 141.537  1.00  0.00     0.005 C 
ATOM      5  C   UNL     1     138.488 139.758 141.197  1.00  0.00     0.015 C 
ATOM      6  C   UNL     1     137.983 140.562 142.421  1.00  0.00     0.032 C 
ATOM      7  C   UNL     1     138.869 140.125 143.560  1.00  0.00     0.139 C 
ATOM      8  O   UNL     1     139.797 140.765 144.034  1.00  0.00    -0.299 OA
ATOM      9  C   UNL     1     138.495 138.729 143.950  1.00  0.00     0.080 C 
ATOM     10  C   UNL     1     137.903 142.078 142.205  1.00  0.00     0.020 C 
ATOM     11  C   UNL     1     135.545 139.895 141.712  1.00  0.00     0.012 C 
ENDROOT
TORSDOF 0
ENDMDL
MODEL 7
REMARK VINA RESULT:    -3.195      1.449      3.011
REMARK INTER + INTRA:          -3.195
REMARK INTER:                  -3.195
REMARK INTRA:                   0.000
REMARK UNBOUND:                 0.000
REMARK SMILES CC1(C)[C@H]2CC[C@]1(C)C(=O)C2
REMARK SMILES IDX 1 1 2 2 4 3 5 4 6 5 7 6 9 7 10 8 11 9 8 10 3 11
REMARK H PARENT
REMARK Flexibility Score: inf
ROOT
ATOM      1  C   UNL     1     143.327 143.456 141.281  1.00  0.00     0.012 C 
ATOM      2  C   UNL     1     143.861 142.780 142.581  1.00  0.00    -0.020 C 
ATOM      3  C   UNL     1     145.379 142.478 142.545  1.00  0.00     0.003 C 
ATOM      4  C   UNL     1     145.599 141.674 143.855  1.00  0.00     0.005 C 
ATOM      5  C   UNL     1     144.297 140.844 143.977  1.00  0.00     0.015 C 
ATOM      6  C   UNL     1     143.494 141.287 142.729  1.00  0.00     0.032 C 
ATOM      7  C   UNL     1     144.244 140.699 141.561  1.00  0.00     0.139 C 
ATOM      8  O   UNL     1     143.915 139.711 140.920  1.00  0.00    -0.299 OA
ATOM      9  C   UNL     1     145.519 141.462 141.377  1.00  0.00     0.080 C 
ATOM     10  C   UNL     1     141.999 140.952 142.775  1.00  0.00     0.020 C 
ATOM     11  C   UNL     1     143.430 143.698 143.765  1.00  0.00     0.012 C 
ENDROOT
TORSDOF 0
ENDMDL
MODEL 8
REMARK VINA RESULT:    -3.178      3.674      5.369
REMARK INTER + INTRA:          -3.178
REMARK INTER:                  -3.178
REMARK INTRA:                   0.000
REMARK UNBOUND:                 0.000
REMARK SMILES CC1(C)[C@H]2CC[C@]1(C)C(=O)C2
REMARK SMILES IDX 1 1 2 2 4 3 5 4 6 5 7 6 9 7 10 8 11 9 8 10 3 11
REMARK H PARENT
REMARK Flexibility Score: inf
ROOT
ATOM      1  C   UNL     1     143.444 138.334 141.334  1.00  0.00     0.012 C 
ATOM      2  C   UNL     1     142.793 137.826 142.657  1.00  0.00    -0.020 C 
ATOM      3  C   UNL     1     142.483 136.308 142.653  1.00  0.00     0.003 C 
ATOM      4  C   UNL     1     141.706 136.115 143.983  1.00  0.00     0.005 C 
ATOM      5  C   UNL     1     140.885 137.424 144.100  1.00  0.00     0.015 C 
ATOM      6  C   UNL     1     141.306 138.203 142.830  1.00  0.00     0.032 C 
ATOM      7  C   UNL     1     140.689 137.436 141.687  1.00  0.00     0.139 C 
ATOM      8  O   UNL     1     139.690 137.759 141.062  1.00  0.00    -0.299 OA
ATOM      9  C   UNL     1     141.442 136.154 141.509  1.00  0.00     0.080 C 
ATOM     10  C   UNL     1     140.979 139.700 142.857  1.00  0.00     0.020 C 
ATOM     11  C   UNL     1     143.738 138.272 143.813  1.00  0.00     0.012 C 
ENDROOT
TORSDOF 0
ENDMDL
MODEL 9
REMARK VINA RESULT:    -3.079      1.782      3.183
REMARK INTER + INTRA:          -3.079
REMARK INTER:                  -3.079
REMARK INTRA:                   0.000
REMARK UNBOUND:                 0.000
REMARK SMILES CC1(C)[C@H]2CC[C@]1(C)C(=O)C2
REMARK SMILES IDX 1 1 2 2 4 3 5 4 6 5 7 6 9 7 10 8 11 9 8 10 3 11
REMARK H PARENT
REMARK Flexibility Score: inf
ROOT
ATOM      1  C   UNL     1     143.928 139.394 142.090  1.00  0.00     0.012 C 
ATOM      2  C   UNL     1     143.609 140.780 142.730  1.00  0.00    -0.020 C 
ATOM      3  C   UNL     1     143.113 141.835 141.710  1.00  0.00     0.003 C 
ATOM      4  C   UNL     1     143.040 143.129 142.565  1.00  0.00     0.005 C 
ATOM      5  C   UNL     1     144.248 142.982 143.524  1.00  0.00     0.015 C 
ATOM      6  C   UNL     1     144.850 141.619 143.103  1.00  0.00     0.032 C 
ATOM      7  C   UNL     1     145.442 141.865 141.738  1.00  0.00     0.139 C 
ATOM      8  O   UNL     1     146.629 142.009 141.485  1.00  0.00    -0.299 OA
ATOM      9  C   UNL     1     144.325 142.010 140.752  1.00  0.00     0.080 C 
ATOM     10  C   UNL     1     145.812 140.999 144.124  1.00  0.00     0.020 C 
ATOM     11  C   UNL     1     142.607 140.509 143.892  1.00  0.00     0.012 C 
ENDROOT
TORSDOF 0
ENDMDL
