MODEL 1
REMARK VINA RESULT:    -3.968      0.000      0.000
REMARK INTER + INTRA:          -8.264
REMARK INTER:                  -6.751
REMARK INTRA:                  -1.513
REMARK UNBOUND:                -1.513
REMARK SMILES CCCCCCCCCCCCCC(=O)[O-]
REMARK SMILES IDX 8 1 9 2 10 3 11 4 12 5 13 6 14 7 15 8 16 9 7 10 6 11 5 12
REMARK SMILES IDX 4 13 3 14 2 15 1 16
REMARK H PARENT
REMARK Flexibility Score: inf
ROOT
ATOM      1  C   UNL     1      -9.378   4.166 -11.713  1.00  0.00     0.000 C 
ENDROOT
BRANCH   1   2
ATOM      2  C   UNL     1     -10.831   3.693 -11.923  1.00  0.00     0.000 C 
BRANCH   2   3
ATOM      3  C   UNL     1     -11.014   2.203 -11.586  1.00  0.00     0.000 C 
BRANCH   3   4
ATOM      4  C   UNL     1     -10.870   1.907 -10.082  1.00  0.00     0.000 C 
BRANCH   4   5
ATOM      5  C   UNL     1      -9.875   0.786  -9.733  1.00  0.00     0.006 C 
BRANCH   5   6
ATOM      6  C   UNL     1      -8.456   1.309  -9.474  1.00  0.00     0.053 C 
BRANCH   6   7
ATOM      7  C   UNL     1      -7.529   0.859 -10.559  1.00  0.00     0.041 C 
ATOM      8  O   UNL     1      -7.978   0.582 -11.702  1.00  0.00    -0.550 OA
ATOM      9  O   UNL     1      -6.162   0.792 -10.322  1.00  0.00    -0.550 OA
ENDBRANCH   6   7
ENDBRANCH   5   6
ENDBRANCH   4   5
ENDBRANCH   3   4
ENDBRANCH   2   3
ENDBRANCH   1   2
BRANCH   1  10
ATOM     10  C   UNL     1      -9.267   5.627 -11.246  1.00  0.00     0.000 C 
BRANCH  10  11
ATOM     11  C   UNL     1      -7.822   6.151 -11.260  1.00  0.00    -0.000 C 
BRANCH  11  12
ATOM     12  C   UNL     1      -7.392   6.732  -9.904  1.00  0.00    -0.000 C 
BRANCH  12  13
ATOM     13  C   UNL     1      -8.253   6.210  -8.740  1.00  0.00    -0.000 C 
BRANCH  13  14
ATOM     14  C   UNL     1      -7.818   4.815  -8.255  1.00  0.00    -0.000 C 
BRANCH  14  15
ATOM     15  C   UNL     1      -8.881   4.059  -7.438  1.00  0.00    -0.003 C 
ATOM     16  C   UNL     1     -10.309   4.492  -7.769  1.00  0.00     0.004 C 
ENDBRANCH  14  15
ENDBRANCH  13  14
ENDBRANCH  12  13
ENDBRANCH  11  12
ENDBRANCH  10  11
ENDBRANCH   1  10
TORSDOF 12
ENDMDL
MODEL 2
REMARK VINA RESULT:    -3.756      1.084      3.066
REMARK INTER + INTRA:          -7.904
REMARK INTER:                  -6.641
REMARK INTRA:                  -1.263
REMARK UNBOUND:                -1.513
REMARK SMILES CCCCCCCCCCCCCC(=O)[O-]
REMARK SMILES IDX 8 1 9 2 10 3 11 4 12 5 13 6 14 7 15 8 16 9 7 10 6 11 5 12
REMARK SMILES IDX 4 13 3 14 2 15 1 16
REMARK H PARENT
REMARK Flexibility Score: inf
ROOT
ATOM      1  C   UNL     1      -7.613   5.202  -8.365  1.00  0.00     0.000 C 
ENDROOT
BRANCH   1   2
ATOM      2  C   UNL     1      -8.985   5.169  -7.659  1.00  0.00     0.000 C 
BRANCH   2   3
ATOM      3  C   UNL     1      -9.649   3.783  -7.740  1.00  0.00     0.000 C 
BRANCH   3   4
ATOM      4  C   UNL     1      -8.718   2.706  -8.326  1.00  0.00     0.000 C 
BRANCH   4   5
ATOM      5  C   UNL     1      -9.293   1.278  -8.322  1.00  0.00     0.006 C 
BRANCH   5   6
ATOM      6  C   UNL     1      -8.374   0.263  -9.013  1.00  0.00     0.053 C 
BRANCH   6   7
ATOM      7  C   UNL     1      -7.562   0.934 -10.075  1.00  0.00     0.041 C 
ATOM      8  O   UNL     1      -6.606   1.691  -9.758  1.00  0.00    -0.550 OA
ATOM      9  O   UNL     1      -7.828   0.687 -11.415  1.00  0.00    -0.550 OA
ENDBRANCH   6   7
ENDBRANCH   5   6
ENDBRANCH   4   5
ENDBRANCH   3   4
ENDBRANCH   2   3
ENDBRANCH   1   2
BRANCH   1  10
ATOM     10  C   UNL     1      -7.226   6.594  -8.891  1.00  0.00     0.000 C 
BRANCH  10  11
ATOM     11  C   UNL     1      -8.012   6.999 -10.149  1.00  0.00    -0.000 C 
BRANCH  11  12
ATOM     12  C   UNL     1      -7.544   6.244 -11.403  1.00  0.00    -0.000 C 
BRANCH  12  13
ATOM     13  C   UNL     1      -8.698   5.528 -12.125  1.00  0.00    -0.000 C 
BRANCH  13  14
ATOM     14  C   UNL     1      -8.822   4.045 -11.729  1.00  0.00    -0.000 C 
BRANCH  14  15
ATOM     15  C   UNL     1     -10.252   3.589 -11.387  1.00  0.00    -0.003 C 
ATOM     16  C   UNL     1     -11.125   4.716 -10.837  1.00  0.00     0.004 C 
ENDBRANCH  14  15
ENDBRANCH  13  14
ENDBRANCH  12  13
ENDBRANCH  11  12
ENDBRANCH  10  11
ENDBRANCH   1  10
TORSDOF 12
ENDMDL
MODEL 3
REMARK VINA RESULT:    -3.665      1.350      3.108
REMARK INTER + INTRA:          -7.749
REMARK INTER:                  -6.184
REMARK INTRA:                  -1.566
REMARK UNBOUND:                -1.513
REMARK SMILES CCCCCCCCCCCCCC(=O)[O-]
REMARK SMILES IDX 8 1 9 2 10 3 11 4 12 5 13 6 14 7 15 8 16 9 7 10 6 11 5 12
REMARK SMILES IDX 4 13 3 14 2 15 1 16
REMARK H PARENT
REMARK Flexibility Score: inf
ROOT
ATOM      1  C   UNL     1      -8.881   3.077  -8.584  1.00  0.00     0.000 C 
ENDROOT
BRANCH   1   2
ATOM      2  C   UNL     1      -9.712   1.785  -8.724  1.00  0.00     0.000 C 
BRANCH   2   3
ATOM      3  C   UNL     1     -10.080   1.484 -10.188  1.00  0.00     0.000 C 
BRANCH   3   4
ATOM      4  C   UNL     1      -9.657   2.606 -11.154  1.00  0.00     0.000 C 
BRANCH   4   5
ATOM      5  C   UNL     1      -8.514   2.237 -12.117  1.00  0.00     0.006 C 
BRANCH   5   6
ATOM      6  C   UNL     1      -7.984   0.815 -11.895  1.00  0.00     0.053 C 
BRANCH   6   7
ATOM      7  C   UNL     1      -6.632   0.856 -11.256  1.00  0.00     0.041 C 
ATOM      8  O   UNL     1      -5.615   0.482 -11.899  1.00  0.00    -0.550 OA
ATOM      9  O   UNL     1      -6.486   1.353  -9.967  1.00  0.00    -0.550 OA
ENDBRANCH   6   7
ENDBRANCH   5   6
ENDBRANCH   4   5
ENDBRANCH   3   4
ENDBRANCH   2   3
ENDBRANCH   1   2
BRANCH   1  10
ATOM     10  C   UNL     1      -9.522   4.123  -7.658  1.00  0.00     0.000 C 
BRANCH  10  11
ATOM     11  C   UNL     1     -10.959   4.485  -8.069  1.00  0.00    -0.000 C 
BRANCH  11  12
ATOM     12  C   UNL     1     -11.018   5.221  -9.418  1.00  0.00    -0.000 C 
BRANCH  12  13
ATOM     13  C   UNL     1     -10.018   6.386  -9.497  1.00  0.00    -0.000 C 
BRANCH  13  14
ATOM     14  C   UNL     1      -9.008   6.230 -10.650  1.00  0.00    -0.000 C 
BRANCH  14  15
ATOM     15  C   UNL     1      -7.571   6.660 -10.308  1.00  0.00    -0.003 C 
ATOM     16  C   UNL     1      -7.310   6.735  -8.804  1.00  0.00     0.004 C 
ENDBRANCH  14  15
ENDBRANCH  13  14
ENDBRANCH  12  13
ENDBRANCH  11  12
ENDBRANCH  10  11
ENDBRANCH   1  10
TORSDOF 12
ENDMDL
MODEL 4
REMARK VINA RESULT:    -3.432      2.113      5.111
REMARK INTER + INTRA:          -7.353
REMARK INTER:                  -6.048
REMARK INTRA:                  -1.304
REMARK UNBOUND:                -1.513
REMARK SMILES CCCCCCCCCCCCCC(=O)[O-]
REMARK SMILES IDX 8 1 9 2 10 3 11 4 12 5 13 6 14 7 15 8 16 9 7 10 6 11 5 12
REMARK SMILES IDX 4 13 3 14 2 15 1 16
REMARK H PARENT
REMARK Flexibility Score: inf
ROOT
ATOM      1  C   UNL     1      -9.692   3.250  -8.060  1.00  0.00     0.000 C 
ENDROOT
BRANCH   1   2
ATOM      2  C   UNL     1      -8.718   4.317  -7.519  1.00  0.00     0.000 C 
BRANCH   2   3
ATOM      3  C   UNL     1      -7.434   4.414  -8.361  1.00  0.00     0.000 C 
BRANCH   3   4
ATOM      4  C   UNL     1      -7.227   5.809  -8.980  1.00  0.00     0.000 C 
BRANCH   4   5
ATOM      5  C   UNL     1      -8.514   6.630  -9.176  1.00  0.00     0.006 C 
BRANCH   5   6
ATOM      6  C   UNL     1      -8.964   6.692 -10.641  1.00  0.00     0.053 C 
BRANCH   6   7
ATOM      7  C   UNL     1      -7.972   5.998 -11.520  1.00  0.00     0.041 C 
ATOM      8  O   UNL     1      -8.111   4.775 -11.790  1.00  0.00    -0.550 OA
ATOM      9  O   UNL     1      -6.922   6.711 -12.083  1.00  0.00    -0.550 OA
ENDBRANCH   6   7
ENDBRANCH   5   6
ENDBRANCH   4   5
ENDBRANCH   3   4
ENDBRANCH   2   3
ENDBRANCH   1   2
BRANCH   1  10
ATOM     10  C   UNL     1     -10.773   3.821  -8.993  1.00  0.00     0.000 C 
BRANCH  10  11
ATOM     11  C   UNL     1     -10.783   3.151 -10.377  1.00  0.00    -0.000 C 
BRANCH  11  12
ATOM     12  C   UNL     1     -11.124   1.655 -10.305  1.00  0.00    -0.000 C 
BRANCH  12  13
ATOM     13  C   UNL     1     -10.109   0.781 -11.061  1.00  0.00    -0.000 C 
BRANCH  13  14
ATOM     14  C   UNL     1      -8.773   1.504 -11.318  1.00  0.00    -0.000 C 
BRANCH  14  15
ATOM     15  C   UNL     1      -7.641   1.125 -10.348  1.00  0.00    -0.003 C 
ATOM     16  C   UNL     1      -8.136   0.366  -9.117  1.00  0.00     0.004 C 
ENDBRANCH  14  15
ENDBRANCH  13  14
ENDBRANCH  12  13
ENDBRANCH  11  12
ENDBRANCH  10  11
ENDBRANCH   1  10
TORSDOF 12
ENDMDL
MODEL 5
REMARK VINA RESULT:    -3.381     11.591     14.771
REMARK INTER + INTRA:          -7.265
REMARK INTER:                  -5.635
REMARK INTRA:                  -1.630
REMARK UNBOUND:                -1.513
REMARK SMILES CCCCCCCCCCCCCC(=O)[O-]
REMARK SMILES IDX 8 1 9 2 10 3 11 4 12 5 13 6 14 7 15 8 16 9 7 10 6 11 5 12
REMARK SMILES IDX 4 13 3 14 2 15 1 16
REMARK H PARENT
REMARK Flexibility Score: inf
ROOT
ATOM      1  C   UNL     1       0.333  -7.755 -10.495  1.00  0.00     0.000 C 
ENDROOT
BRANCH   1   2
ATOM      2  C   UNL     1      -0.970  -6.948 -10.316  1.00  0.00     0.000 C 
BRANCH   2   3
ATOM      3  C   UNL     1      -1.518  -6.424 -11.655  1.00  0.00     0.000 C 
BRANCH   3   4
ATOM      4  C   UNL     1      -1.728  -4.899 -11.661  1.00  0.00     0.000 C 
BRANCH   4   5
ATOM      5  C   UNL     1      -0.645  -4.092 -10.922  1.00  0.00     0.006 C 
BRANCH   5   6
ATOM      6  C   UNL     1       0.601  -3.840 -11.782  1.00  0.00     0.053 C 
BRANCH   6   7
ATOM      7  C   UNL     1       1.842  -4.010 -10.964  1.00  0.00     0.041 C 
ATOM      8  O   UNL     1       2.511  -5.075 -11.043  1.00  0.00    -0.550 OA
ATOM      9  O   UNL     1       2.288  -2.976 -10.153  1.00  0.00    -0.550 OA
ENDBRANCH   6   7
ENDBRANCH   5   6
ENDBRANCH   4   5
ENDBRANCH   3   4
ENDBRANCH   2   3
ENDBRANCH   1   2
BRANCH   1  10
ATOM     10  C   UNL     1       0.556  -8.252 -11.934  1.00  0.00     0.000 C 
BRANCH  10  11
ATOM     11  C   UNL     1       0.436  -9.779 -12.064  1.00  0.00    -0.000 C 
BRANCH  11  12
ATOM     12  C   UNL     1       0.560 -10.497 -10.711  1.00  0.00    -0.000 C 
BRANCH  12  13
ATOM     13  C   UNL     1      -0.566 -11.518 -10.480  1.00  0.00    -0.000 C 
BRANCH  13  14
ATOM     14  C   UNL     1      -1.684 -10.979  -9.569  1.00  0.00    -0.000 C 
BRANCH  14  15
ATOM     15  C   UNL     1      -2.713 -10.081 -10.277  1.00  0.00    -0.003 C 
ATOM     16  C   UNL     1      -3.263 -10.698 -11.562  1.00  0.00     0.004 C 
ENDBRANCH  14  15
ENDBRANCH  13  14
ENDBRANCH  12  13
ENDBRANCH  11  12
ENDBRANCH  10  11
ENDBRANCH   1  10
TORSDOF 12
ENDMDL
MODEL 6
REMARK VINA RESULT:    -3.175     11.310     14.465
REMARK INTER + INTRA:          -6.915
REMARK INTER:                  -5.812
REMARK INTRA:                  -1.102
REMARK UNBOUND:                -1.513
REMARK SMILES CCCCCCCCCCCCCC(=O)[O-]
REMARK SMILES IDX 8 1 9 2 10 3 11 4 12 5 13 6 14 7 15 8 16 9 7 10 6 11 5 12
REMARK SMILES IDX 4 13 3 14 2 15 1 16
REMARK H PARENT
REMARK Flexibility Score: inf
ROOT
ATOM      1  C   UNL     1      -1.038  -6.696 -10.635  1.00  0.00     0.000 C 
ENDROOT
BRANCH   1   2
ATOM      2  C   UNL     1      -1.579  -5.622 -11.601  1.00  0.00     0.000 C 
BRANCH   2   3
ATOM      3  C   UNL     1      -1.326  -4.194 -11.086  1.00  0.00     0.000 C 
BRANCH   3   4
ATOM      4  C   UNL     1      -0.178  -3.484 -11.826  1.00  0.00     0.000 C 
BRANCH   4   5
ATOM      5  C   UNL     1       1.236  -3.905 -11.387  1.00  0.00     0.006 C 
BRANCH   5   6
ATOM      6  C   UNL     1       2.288  -2.817 -11.640  1.00  0.00     0.053 C 
BRANCH   6   7
ATOM      7  C   UNL     1       2.602  -2.090 -10.371  1.00  0.00     0.041 C 
ATOM      8  O   UNL     1       1.801  -2.135  -9.400  1.00  0.00    -0.550 OA
ATOM      9  O   UNL     1       3.803  -1.404 -10.241  1.00  0.00    -0.550 OA
ENDBRANCH   6   7
ENDBRANCH   5   6
ENDBRANCH   4   5
ENDBRANCH   3   4
ENDBRANCH   2   3
ENDBRANCH   1   2
BRANCH   1  10
ATOM     10  C   UNL     1       0.198  -7.438 -11.170  1.00  0.00     0.000 C 
BRANCH  10  11
ATOM     11  C   UNL     1       0.697  -8.534 -10.214  1.00  0.00    -0.000 C 
BRANCH  11  12
ATOM     12  C   UNL     1       0.916  -9.880 -10.923  1.00  0.00    -0.000 C 
BRANCH  12  13
ATOM     13  C   UNL     1      -0.307 -10.806 -10.817  1.00  0.00    -0.000 C 
BRANCH  13  14
ATOM     14  C   UNL     1      -1.129 -10.862 -12.119  1.00  0.00    -0.000 C 
BRANCH  14  15
ATOM     15  C   UNL     1      -2.502 -10.172 -12.042  1.00  0.00    -0.003 C 
ATOM     16  C   UNL     1      -3.059 -10.104 -10.621  1.00  0.00     0.004 C 
ENDBRANCH  14  15
ENDBRANCH  13  14
ENDBRANCH  12  13
ENDBRANCH  11  12
ENDBRANCH  10  11
ENDBRANCH   1  10
TORSDOF 12
ENDMDL
MODEL 7
REMARK VINA RESULT:    -3.066     12.507     15.373
REMARK INTER + INTRA:          -6.730
REMARK INTER:                  -5.388
REMARK INTRA:                  -1.342
REMARK UNBOUND:                -1.513
REMARK SMILES CCCCCCCCCCCCCC(=O)[O-]
REMARK SMILES IDX 8 1 9 2 10 3 11 4 12 5 13 6 14 7 15 8 16 9 7 10 6 11 5 12
REMARK SMILES IDX 4 13 3 14 2 15 1 16
REMARK H PARENT
REMARK Flexibility Score: inf
ROOT
ATOM      1  C   UNL     1       0.246  -9.170 -11.578  1.00  0.00     0.000 C 
ENDROOT
BRANCH   1   2
ATOM      2  C   UNL     1       1.236 -10.348 -11.677  1.00  0.00     0.000 C 
BRANCH   2   3
ATOM      3  C   UNL     1       0.544 -11.708 -11.480  1.00  0.00     0.000 C 
BRANCH   3   4
ATOM      4  C   UNL     1       0.368 -12.082  -9.997  1.00  0.00     0.000 C 
BRANCH   4   5
ATOM      5  C   UNL     1      -1.066 -11.938  -9.456  1.00  0.00     0.006 C 
BRANCH   5   6
ATOM      6  C   UNL     1      -2.135 -12.227 -10.518  1.00  0.00     0.053 C 
BRANCH   6   7
ATOM      7  C   UNL     1      -3.103 -11.091 -10.606  1.00  0.00     0.041 C 
ATOM      8  O   UNL     1      -2.768  -9.941 -10.215  1.00  0.00    -0.550 OA
ATOM      9  O   UNL     1      -4.359 -11.288 -11.165  1.00  0.00    -0.550 OA
ENDBRANCH   6   7
ENDBRANCH   5   6
ENDBRANCH   4   5
ENDBRANCH   3   4
ENDBRANCH   2   3
ENDBRANCH   1   2
BRANCH   1  10
ATOM     10  C   UNL     1       0.346  -8.392 -10.255  1.00  0.00     0.000 C 
BRANCH  10  11
ATOM     11  C   UNL     1       1.642  -7.573 -10.139  1.00  0.00    -0.000 C 
BRANCH  11  12
ATOM     12  C   UNL     1       1.888  -6.684 -11.368  1.00  0.00    -0.000 C 
BRANCH  12  13
ATOM     13  C   UNL     1       2.073  -5.203 -10.997  1.00  0.00    -0.000 C 
BRANCH  13  14
ATOM     14  C   UNL     1       1.006  -4.291 -11.631  1.00  0.00    -0.000 C 
BRANCH  14  15
ATOM     15  C   UNL     1      -0.331  -4.985 -11.942  1.00  0.00    -0.003 C 
ATOM     16  C   UNL     1      -1.368  -4.813 -10.833  1.00  0.00     0.004 C 
ENDBRANCH  14  15
ENDBRANCH  13  14
ENDBRANCH  12  13
ENDBRANCH  11  12
ENDBRANCH  10  11
ENDBRANCH   1  10
TORSDOF 12
ENDMDL
MODEL 8
REMARK VINA RESULT:    -3.032     12.259     15.783
REMARK INTER + INTRA:          -6.672
REMARK INTER:                  -5.619
REMARK INTRA:                  -1.053
REMARK UNBOUND:                -1.513
REMARK SMILES CCCCCCCCCCCCCC(=O)[O-]
REMARK SMILES IDX 8 1 9 2 10 3 11 4 12 5 13 6 14 7 15 8 16 9 7 10 6 11 5 12
REMARK SMILES IDX 4 13 3 14 2 15 1 16
REMARK H PARENT
REMARK Flexibility Score: inf
ROOT
ATOM      1  C   UNL     1      -1.010  -8.353 -11.304  1.00  0.00     0.000 C 
ENDROOT
BRANCH   1   2
ATOM      2  C   UNL     1       0.492  -8.655 -11.484  1.00  0.00     0.000 C 
BRANCH   2   3
ATOM      3  C   UNL     1       1.345  -7.375 -11.515  1.00  0.00     0.000 C 
BRANCH   3   4
ATOM      4  C   UNL     1       0.587  -6.137 -11.000  1.00  0.00     0.000 C 
BRANCH   4   5
ATOM      5  C   UNL     1       0.747  -4.872 -11.862  1.00  0.00     0.006 C 
BRANCH   5   6
ATOM      6  C   UNL     1       0.524  -3.578 -11.068  1.00  0.00     0.053 C 
BRANCH   6   7
ATOM      7  C   UNL     1       1.835  -2.989 -10.654  1.00  0.00     0.041 C 
ATOM      8  O   UNL     1       2.864  -3.176 -11.356  1.00  0.00    -0.550 OA
ATOM      9  O   UNL     1       1.912  -2.191  -9.520  1.00  0.00    -0.550 OA
ENDBRANCH   6   7
ENDBRANCH   5   6
ENDBRANCH   4   5
ENDBRANCH   3   4
ENDBRANCH   2   3
ENDBRANCH   1   2
BRANCH   1  10
ATOM     10  C   UNL     1      -1.918  -9.560 -11.592  1.00  0.00     0.000 C 
BRANCH  10  11
ATOM     11  C   UNL     1      -2.597 -10.112 -10.328  1.00  0.00    -0.000 C 
BRANCH  11  12
ATOM     12  C   UNL     1      -1.592 -10.724  -9.339  1.00  0.00    -0.000 C 
BRANCH  12  13
ATOM     13  C   UNL     1      -1.562 -12.261  -9.405  1.00  0.00    -0.000 C 
BRANCH  13  14
ATOM     14  C   UNL     1      -0.551 -12.795 -10.436  1.00  0.00    -0.000 C 
BRANCH  14  15
ATOM     15  C   UNL     1       0.862 -12.196 -10.321  1.00  0.00    -0.003 C 
ATOM     16  C   UNL     1       1.596 -12.133 -11.660  1.00  0.00     0.004 C 
ENDBRANCH  14  15
ENDBRANCH  13  14
ENDBRANCH  12  13
ENDBRANCH  11  12
ENDBRANCH  10  11
ENDBRANCH   1  10
TORSDOF 12
ENDMDL
MODEL 9
REMARK VINA RESULT:    -3.023     12.044     14.449
REMARK INTER + INTRA:          -6.657
REMARK INTER:                  -5.349
REMARK INTRA:                  -1.308
REMARK UNBOUND:                -1.513
REMARK SMILES CCCCCCCCCCCCCC(=O)[O-]
REMARK SMILES IDX 8 1 9 2 10 3 11 4 12 5 13 6 14 7 15 8 16 9 7 10 6 11 5 12
REMARK SMILES IDX 4 13 3 14 2 15 1 16
REMARK H PARENT
REMARK Flexibility Score: inf
ROOT
ATOM      1  C   UNL     1      -1.398  -5.810 -10.446  1.00  0.00     0.000 C 
ENDROOT
BRANCH   1   2
ATOM      2  C   UNL     1      -1.501  -6.716 -11.690  1.00  0.00     0.000 C 
BRANCH   2   3
ATOM      3  C   UNL     1      -1.651  -8.202 -11.318  1.00  0.00     0.000 C 
BRANCH   3   4
ATOM      4  C   UNL     1      -0.313  -8.963 -11.339  1.00  0.00     0.000 C 
BRANCH   4   5
ATOM      5  C   UNL     1      -0.423 -10.477 -11.084  1.00  0.00     0.006 C 
BRANCH   5   6
ATOM      6  C   UNL     1      -1.293 -10.815  -9.866  1.00  0.00     0.053 C 
BRANCH   6   7
ATOM      7  C   UNL     1      -1.801 -12.218  -9.961  1.00  0.00     0.041 C 
ATOM      8  O   UNL     1      -1.814 -12.814 -11.071  1.00  0.00    -0.550 OA
ATOM      9  O   UNL     1      -2.213 -12.888  -8.816  1.00  0.00    -0.550 OA
ENDBRANCH   6   7
ENDBRANCH   5   6
ENDBRANCH   4   5
ENDBRANCH   3   4
ENDBRANCH   2   3
ENDBRANCH   1   2
BRANCH   1  10
ATOM     10  C   UNL     1      -1.263  -4.315 -10.784  1.00  0.00     0.000 C 
BRANCH  10  11
ATOM     11  C   UNL     1      -0.293  -4.051 -11.947  1.00  0.00    -0.000 C 
BRANCH  11  12
ATOM     12  C   UNL     1       0.975  -3.308 -11.499  1.00  0.00    -0.000 C 
BRANCH  12  13
ATOM     13  C   UNL     1       2.209  -4.224 -11.446  1.00  0.00    -0.000 C 
BRANCH  13  14
ATOM     14  C   UNL     1       1.971  -5.586 -12.125  1.00  0.00    -0.000 C 
BRANCH  14  15
ATOM     15  C   UNL     1       2.747  -6.760 -11.502  1.00  0.00    -0.003 C 
ATOM     16  C   UNL     1       2.268  -7.115 -10.095  1.00  0.00     0.004 C 
ENDBRANCH  14  15
ENDBRANCH  13  14
ENDBRANCH  12  13
ENDBRANCH  11  12
ENDBRANCH  10  11
ENDBRANCH   1  10
TORSDOF 12
ENDMDL
