MODEL 1
REMARK VINA RESULT:    -2.251      0.000      0.000
REMARK INTER + INTRA:          -4.399
REMARK INTER:                  -3.830
REMARK INTRA:                  -0.570
REMARK UNBOUND:                -0.570
REMARK SMILES CCCCCCCCCCCCCC(=O)[O-]
REMARK SMILES IDX 8 1 9 2 10 3 11 4 12 5 13 6 14 7 15 8 16 9 7 10 6 11 5 12
REMARK SMILES IDX 4 13 3 14 2 15 1 16
REMARK H PARENT
REMARK Flexibility Score: inf
ROOT
ATOM      1  C   UNL     1      -3.087  36.486  19.924  1.00  0.00     0.000 C 
ENDROOT
BRANCH   1   2
ATOM      2  C   UNL     1      -4.424  36.352  20.669  1.00  0.00     0.000 C 
BRANCH   2   3
ATOM      3  C   UNL     1      -4.610  34.971  21.322  1.00  0.00     0.000 C 
BRANCH   3   4
ATOM      4  C   UNL     1      -5.001  35.001  22.814  1.00  0.00     0.000 C 
BRANCH   4   5
ATOM      5  C   UNL     1      -5.125  36.406  23.428  1.00  0.00     0.006 C 
BRANCH   5   6
ATOM      6  C   UNL     1      -5.115  36.389  24.962  1.00  0.00     0.053 C 
BRANCH   6   7
ATOM      7  C   UNL     1      -4.982  37.778  25.499  1.00  0.00     0.041 C 
ATOM      8  O   UNL     1      -4.795  37.966  26.731  1.00  0.00    -0.550 OA
ATOM      9  O   UNL     1      -5.118  38.869  24.649  1.00  0.00    -0.550 OA
ENDBRANCH   6   7
ENDBRANCH   5   6
ENDBRANCH   4   5
ENDBRANCH   3   4
ENDBRANCH   2   3
ENDBRANCH   1   2
BRANCH   1  10
ATOM     10  C   UNL     1      -3.124  37.656  18.933  1.00  0.00     0.000 C 
BRANCH  10  11
ATOM     11  C   UNL     1      -1.751  37.869  18.281  1.00  0.00    -0.000 C 
BRANCH  11  12
ATOM     12  C   UNL     1      -1.626  37.160  16.923  1.00  0.00    -0.000 C 
BRANCH  12  13
ATOM     13  C   UNL     1      -2.992  36.787  16.323  1.00  0.00    -0.000 C 
BRANCH  13  14
ATOM     14  C   UNL     1      -2.916  36.566  14.797  1.00  0.00    -0.000 C 
BRANCH  14  15
ATOM     15  C   UNL     1      -4.105  37.166  14.029  1.00  0.00    -0.003 C 
ATOM     16  C   UNL     1      -4.318  38.650  14.319  1.00  0.00     0.004 C 
ENDBRANCH  14  15
ENDBRANCH  13  14
ENDBRANCH  12  13
ENDBRANCH  11  12
ENDBRANCH  10  11
ENDBRANCH   1  10
TORSDOF 12
ENDMDL
MODEL 2
REMARK VINA RESULT:    -2.157      1.694      2.400
REMARK INTER + INTRA:          -4.240
REMARK INTER:                  -3.585
REMARK INTRA:                  -0.655
REMARK UNBOUND:                -0.570
REMARK SMILES CCCCCCCCCCCCCC(=O)[O-]
REMARK SMILES IDX 8 1 9 2 10 3 11 4 12 5 13 6 14 7 15 8 16 9 7 10 6 11 5 12
REMARK SMILES IDX 4 13 3 14 2 15 1 16
REMARK H PARENT
REMARK Flexibility Score: inf
ROOT
ATOM      1  C   UNL     1      -1.879  37.490  19.718  1.00  0.00     0.000 C 
ENDROOT
BRANCH   1   2
ATOM      2  C   UNL     1      -3.213  38.182  19.403  1.00  0.00     0.000 C 
BRANCH   2   3
ATOM      3  C   UNL     1      -4.430  37.408  19.941  1.00  0.00     0.000 C 
BRANCH   3   4
ATOM      4  C   UNL     1      -4.281  35.873  19.940  1.00  0.00     0.000 C 
BRANCH   4   5
ATOM      5  C   UNL     1      -4.807  35.166  21.202  1.00  0.00     0.006 C 
BRANCH   5   6
ATOM      6  C   UNL     1      -5.125  36.141  22.343  1.00  0.00     0.053 C 
BRANCH   6   7
ATOM      7  C   UNL     1      -5.123  35.427  23.656  1.00  0.00     0.041 C 
ATOM      8  O   UNL     1      -5.071  36.080  24.733  1.00  0.00    -0.550 OA
ATOM      9  O   UNL     1      -5.125  34.038  23.693  1.00  0.00    -0.550 OA
ENDBRANCH   6   7
ENDBRANCH   5   6
ENDBRANCH   4   5
ENDBRANCH   3   4
ENDBRANCH   2   3
ENDBRANCH   1   2
BRANCH   1  10
ATOM     10  C   UNL     1      -0.727  38.139  18.940  1.00  0.00     0.000 C 
BRANCH  10  11
ATOM     11  C   UNL     1      -0.473  37.403  17.616  1.00  0.00    -0.000 C 
BRANCH  11  12
ATOM     12  C   UNL     1      -1.697  37.422  16.687  1.00  0.00    -0.000 C 
BRANCH  12  13
ATOM     13  C   UNL     1      -2.041  36.029  16.134  1.00  0.00    -0.000 C 
BRANCH  13  14
ATOM     14  C   UNL     1      -3.306  36.051  15.248  1.00  0.00    -0.000 C 
BRANCH  14  15
ATOM     15  C   UNL     1      -3.253  37.103  14.128  1.00  0.00    -0.003 C 
ATOM     16  C   UNL     1      -4.332  38.176  14.263  1.00  0.00     0.004 C 
ENDBRANCH  14  15
ENDBRANCH  13  14
ENDBRANCH  12  13
ENDBRANCH  11  12
ENDBRANCH  10  11
ENDBRANCH   1  10
TORSDOF 12
ENDMDL
MODEL 3
REMARK VINA RESULT:    -0.428      4.055      8.204
REMARK INTER + INTRA:          -1.298
REMARK INTER:                  -1.764
REMARK INTRA:                   0.467
REMARK UNBOUND:                -0.570
REMARK SMILES CCCCCCCCCCCCCC(=O)[O-]
REMARK SMILES IDX 8 1 9 2 10 3 11 4 12 5 13 6 14 7 15 8 16 9 7 10 6 11 5 12
REMARK SMILES IDX 4 13 3 14 2 15 1 16
REMARK H PARENT
REMARK Flexibility Score: inf
ROOT
ATOM      1  C   UNL     1      -2.947  37.081  20.371  1.00  0.00     0.000 C 
ENDROOT
BRANCH   1   2
ATOM      2  C   UNL     1      -1.590  37.211  19.662  1.00  0.00     0.000 C 
BRANCH   2   3
ATOM      3  C   UNL     1      -1.690  37.926  18.303  1.00  0.00     0.000 C 
BRANCH   3   4
ATOM      4  C   UNL     1      -2.778  37.381  17.356  1.00  0.00     0.000 C 
BRANCH   4   5
ATOM      5  C   UNL     1      -2.294  36.325  16.346  1.00  0.00     0.006 C 
BRANCH   5   6
ATOM      6  C   UNL     1      -2.308  36.835  14.899  1.00  0.00     0.053 C 
BRANCH   6   7
ATOM      7  C   UNL     1      -3.637  37.437  14.571  1.00  0.00     0.041 C 
ATOM      8  O   UNL     1      -4.586  36.705  14.183  1.00  0.00    -0.550 OA
ATOM      9  O   UNL     1      -3.813  38.813  14.641  1.00  0.00    -0.550 OA
ENDBRANCH   6   7
ENDBRANCH   5   6
ENDBRANCH   4   5
ENDBRANCH   3   4
ENDBRANCH   2   3
ENDBRANCH   1   2
BRANCH   1  10
ATOM     10  C   UNL     1      -3.968  36.367  19.476  1.00  0.00     0.000 C 
BRANCH  10  11
ATOM     11  C   UNL     1      -5.125  35.796  20.309  1.00  0.00    -0.000 C 
BRANCH  11  12
ATOM     12  C   UNL     1      -5.030  36.182  21.793  1.00  0.00    -0.000 C 
BRANCH  12  13
ATOM     13  C   UNL     1      -4.773  34.970  22.704  1.00  0.00    -0.000 C 
BRANCH  13  14
ATOM     14  C   UNL     1      -5.047  35.291  24.190  1.00  0.00    -0.000 C 
BRANCH  14  15
ATOM     15  C   UNL     1      -5.121  36.798  24.489  1.00  0.00    -0.003 C 
ATOM     16  C   UNL     1      -5.073  37.115  25.982  1.00  0.00     0.004 C 
ENDBRANCH  14  15
ENDBRANCH  13  14
ENDBRANCH  12  13
ENDBRANCH  11  12
ENDBRANCH  10  11
ENDBRANCH   1  10
TORSDOF 12
ENDMDL
MODEL 4
REMARK VINA RESULT:    -0.347      3.790      8.133
REMARK INTER + INTRA:          -1.160
REMARK INTER:                  -0.799
REMARK INTRA:                  -0.361
REMARK UNBOUND:                -0.570
REMARK SMILES CCCCCCCCCCCCCC(=O)[O-]
REMARK SMILES IDX 8 1 9 2 10 3 11 4 12 5 13 6 14 7 15 8 16 9 7 10 6 11 5 12
REMARK SMILES IDX 4 13 3 14 2 15 1 16
REMARK H PARENT
REMARK Flexibility Score: inf
ROOT
ATOM      1  C   UNL     1      -3.767  35.116  21.417  1.00  0.00     0.000 C 
ENDROOT
BRANCH   1   2
ATOM      2  C   UNL     1      -4.374  35.628  20.103  1.00  0.00     0.000 C 
BRANCH   2   3
ATOM      3  C   UNL     1      -4.116  37.127  19.868  1.00  0.00     0.000 C 
BRANCH   3   4
ATOM      4  C   UNL     1      -3.764  37.511  18.417  1.00  0.00     0.000 C 
BRANCH   4   5
ATOM      5  C   UNL     1      -2.264  37.468  18.076  1.00  0.00     0.006 C 
BRANCH   5   6
ATOM      6  C   UNL     1      -1.985  37.694  16.585  1.00  0.00     0.053 C 
BRANCH   6   7
ATOM      7  C   UNL     1      -2.473  36.532  15.780  1.00  0.00     0.041 C 
ATOM      8  O   UNL     1      -2.702  35.426  16.338  1.00  0.00    -0.550 OA
ATOM      9  O   UNL     1      -2.625  36.653  14.405  1.00  0.00    -0.550 OA
ENDBRANCH   6   7
ENDBRANCH   5   6
ENDBRANCH   4   5
ENDBRANCH   3   4
ENDBRANCH   2   3
ENDBRANCH   1   2
BRANCH   1  10
ATOM     10  C   UNL     1      -4.839  34.997  22.508  1.00  0.00     0.000 C 
BRANCH  10  11
ATOM     11  C   UNL     1      -4.779  36.191  23.472  1.00  0.00    -0.000 C 
BRANCH  11  12
ATOM     12  C   UNL     1      -5.124  35.801  24.917  1.00  0.00    -0.000 C 
BRANCH  12  13
ATOM     13  C   UNL     1      -4.700  36.872  25.936  1.00  0.00    -0.000 C 
BRANCH  13  14
ATOM     14  C   UNL     1      -4.099  38.119  25.252  1.00  0.00    -0.000 C 
BRANCH  14  15
ATOM     15  C   UNL     1      -5.123  39.240  25.008  1.00  0.00    -0.003 C 
ATOM     16  C   UNL     1      -5.076  39.795  23.585  1.00  0.00     0.004 C 
ENDBRANCH  14  15
ENDBRANCH  13  14
ENDBRANCH  12  13
ENDBRANCH  11  12
ENDBRANCH  10  11
ENDBRANCH   1  10
TORSDOF 12
ENDMDL
MODEL 5
REMARK VINA RESULT:    -0.164      1.660      2.059
REMARK INTER + INTRA:          -0.848
REMARK INTER:                  -0.132
REMARK INTRA:                  -0.716
REMARK UNBOUND:                -0.570
REMARK SMILES CCCCCCCCCCCCCC(=O)[O-]
REMARK SMILES IDX 8 1 9 2 10 3 11 4 12 5 13 6 14 7 15 8 16 9 7 10 6 11 5 12
REMARK SMILES IDX 4 13 3 14 2 15 1 16
REMARK H PARENT
REMARK Flexibility Score: inf
ROOT
ATOM      1  C   UNL     1      -2.481  37.971  19.931  1.00  0.00     0.000 C 
ENDROOT
BRANCH   1   2
ATOM      2  C   UNL     1      -3.963  37.869  19.543  1.00  0.00     0.000 C 
BRANCH   2   3
ATOM      3  C   UNL     1      -4.909  38.031  20.746  1.00  0.00     0.000 C 
BRANCH   3   4
ATOM      4  C   UNL     1      -5.084  39.477  21.251  1.00  0.00     0.000 C 
BRANCH   4   5
ATOM      5  C   UNL     1      -5.123  39.634  22.781  1.00  0.00     0.006 C 
BRANCH   5   6
ATOM      6  C   UNL     1      -5.125  38.289  23.518  1.00  0.00     0.053 C 
BRANCH   6   7
ATOM      7  C   UNL     1      -4.949  38.498  24.988  1.00  0.00     0.041 C 
ATOM      8  O   UNL     1      -4.875  37.509  25.765  1.00  0.00    -0.550 OA
ATOM      9  O   UNL     1      -4.920  39.786  25.509  1.00  0.00    -0.550 OA
ENDBRANCH   6   7
ENDBRANCH   5   6
ENDBRANCH   4   5
ENDBRANCH   3   4
ENDBRANCH   2   3
ENDBRANCH   1   2
BRANCH   1  10
ATOM     10  C   UNL     1      -1.576  37.603  18.748  1.00  0.00     0.000 C 
BRANCH  10  11
ATOM     11  C   UNL     1      -2.405  37.115  17.551  1.00  0.00    -0.000 C 
BRANCH  11  12
ATOM     12  C   UNL     1      -1.530  36.641  16.381  1.00  0.00    -0.000 C 
BRANCH  12  13
ATOM     13  C   UNL     1      -2.209  36.842  15.015  1.00  0.00    -0.000 C 
BRANCH  13  14
ATOM     14  C   UNL     1      -3.725  37.103  15.153  1.00  0.00    -0.000 C 
BRANCH  14  15
ATOM     15  C   UNL     1      -4.316  37.915  13.989  1.00  0.00    -0.003 C 
ATOM     16  C   UNL     1      -4.488  39.396  14.319  1.00  0.00     0.004 C 
ENDBRANCH  14  15
ENDBRANCH  13  14
ENDBRANCH  12  13
ENDBRANCH  11  12
ENDBRANCH  10  11
ENDBRANCH   1  10
TORSDOF 12
ENDMDL
MODEL 6
REMARK VINA RESULT:     0.500      1.963      2.798
REMARK INTER + INTRA:           0.281
REMARK INTER:                   0.825
REMARK INTRA:                  -0.544
REMARK UNBOUND:                -0.570
REMARK SMILES CCCCCCCCCCCCCC(=O)[O-]
REMARK SMILES IDX 8 1 9 2 10 3 11 4 12 5 13 6 14 7 15 8 16 9 7 10 6 11 5 12
REMARK SMILES IDX 4 13 3 14 2 15 1 16
REMARK H PARENT
REMARK Flexibility Score: inf
ROOT
ATOM      1  C   UNL     1      -1.988  36.619  18.525  1.00  0.00     0.000 C 
ENDROOT
BRANCH   1   2
ATOM      2  C   UNL     1      -3.304  37.351  18.822  1.00  0.00     0.000 C 
BRANCH   2   3
ATOM      3  C   UNL     1      -4.517  36.405  18.873  1.00  0.00     0.000 C 
BRANCH   3   4
ATOM      4  C   UNL     1      -5.125  36.196  20.275  1.00  0.00     0.000 C 
BRANCH   4   5
ATOM      5  C   UNL     1      -4.289  36.758  21.439  1.00  0.00     0.006 C 
BRANCH   5   6
ATOM      6  C   UNL     1      -5.115  37.615  22.406  1.00  0.00     0.053 C 
BRANCH   6   7
ATOM      7  C   UNL     1      -5.124  39.043  21.962  1.00  0.00     0.041 C 
ATOM      8  O   UNL     1      -5.084  39.325  20.734  1.00  0.00    -0.550 OA
ATOM      9  O   UNL     1      -5.124  40.065  22.903  1.00  0.00    -0.550 OA
ENDBRANCH   6   7
ENDBRANCH   5   6
ENDBRANCH   4   5
ENDBRANCH   3   4
ENDBRANCH   2   3
ENDBRANCH   1   2
BRANCH   1  10
ATOM     10  C   UNL     1      -1.422  37.034  17.161  1.00  0.00     0.000 C 
BRANCH  10  11
ATOM     11  C   UNL     1      -1.512  35.879  16.153  1.00  0.00    -0.000 C 
BRANCH  11  12
ATOM     12  C   UNL     1      -1.692  36.371  14.708  1.00  0.00    -0.000 C 
BRANCH  12  13
ATOM     13  C   UNL     1      -3.171  36.495  14.306  1.00  0.00    -0.000 C 
BRANCH  13  14
ATOM     14  C   UNL     1      -3.863  37.690  14.998  1.00  0.00    -0.000 C 
BRANCH  14  15
ATOM     15  C   UNL     1      -4.737  38.527  14.049  1.00  0.00    -0.003 C 
ATOM     16  C   UNL     1      -4.628  40.030  14.305  1.00  0.00     0.004 C 
ENDBRANCH  14  15
ENDBRANCH  13  14
ENDBRANCH  12  13
ENDBRANCH  11  12
ENDBRANCH  10  11
ENDBRANCH   1  10
TORSDOF 12
ENDMDL
