MODEL 1
REMARK VINA RESULT:    -5.836      0.000      0.000
REMARK INTER + INTRA:          -7.486
REMARK INTER:                  -7.201
REMARK INTRA:                  -0.285
REMARK UNBOUND:                -0.285
REMARK SMILES O=c1c(O)c(-c2cc(O)c(O)c(O)c2)oc2cc(O)cc(O)c12
REMARK SMILES IDX 5 1 3 2 2 3 1 4 23 5 21 6 20 7 18 8 17 9 16 10 15 11 6 12
REMARK SMILES IDX 7 13 8 14 14 15 10 16 12 17 9 18 11 20 13 22 4 24 22 26
REMARK SMILES IDX 19 28
REMARK H PARENT 9 19 11 21 13 23 4 25 22 27 19 29
REMARK Flexibility Score: inf
ROOT
ATOM      1  C   UNL     1      -1.364  26.644  35.794  1.00  0.00     0.180 A 
ATOM      2  C   UNL     1      -2.729  26.336  35.631  1.00  0.00     0.208 A 
ATOM      3  C   UNL     1      -3.417  25.723  36.690  1.00  0.00     0.238 A 
ATOM      4  O   UNL     1      -4.641  25.453  36.560  1.00  0.00    -0.285 OA
ATOM      5  C   UNL     1      -2.728  25.411  37.880  1.00  0.00     0.111 A 
ATOM      6  C   UNL     1      -3.346  24.790  38.992  1.00  0.00     0.134 A 
ATOM      7  C   UNL     1      -2.591  24.503  40.139  1.00  0.00     0.093 A 
ATOM      8  C   UNL     1      -1.228  24.824  40.193  1.00  0.00     0.123 A 
ATOM      9  C   UNL     1      -0.615  25.437  39.099  1.00  0.00     0.094 A 
ATOM     10  C   UNL     1      -1.352  25.732  37.949  1.00  0.00     0.146 A 
ATOM     11  O   UNL     1      -0.744  26.321  36.926  1.00  0.00    -0.452 OA
ENDROOT
BRANCH   1  12
ATOM     12  C   UNL     1      -0.575  27.308  34.731  1.00  0.00     0.029 A 
ATOM     13  C   UNL     1       0.337  26.588  33.940  1.00  0.00     0.062 A 
ATOM     14  C   UNL     1       1.059  27.229  32.924  1.00  0.00     0.162 A 
ATOM     15  C   UNL     1      -0.781  28.670  34.467  1.00  0.00     0.062 A 
ATOM     16  C   UNL     1       0.862  28.599  32.681  1.00  0.00     0.200 A 
ATOM     17  C   UNL     1      -0.064  29.317  33.454  1.00  0.00     0.162 A 
BRANCH  14  18
ATOM     18  O   UNL     1       1.966  26.506  32.150  1.00  0.00    -0.504 OA
ATOM     19  H   UNL     1       1.818  25.527  31.932  1.00  0.00     0.293 HD
ENDBRANCH  14  18
BRANCH  16  20
ATOM     20  O   UNL     1       1.575  29.253  31.675  1.00  0.00    -0.502 OA
ATOM     21  H   UNL     1       2.416  29.785  31.867  1.00  0.00     0.293 HD
ENDBRANCH  16  20
BRANCH  17  22
ATOM     22  O   UNL     1      -0.288  30.677  33.233  1.00  0.00    -0.504 OA
ATOM     23  H   UNL     1       0.321  31.391  33.613  1.00  0.00     0.293 HD
ENDBRANCH  17  22
ENDBRANCH   1  12
BRANCH   2  24
ATOM     24  O   UNL     1      -3.375  26.612  34.424  1.00  0.00    -0.502 OA
ATOM     25  H   UNL     1      -4.304  26.266  34.215  1.00  0.00     0.293 HD
ENDBRANCH   2  24
BRANCH   6  26
ATOM     26  O   UNL     1      -4.701  24.457  38.967  1.00  0.00    -0.507 OA
ATOM     27  H   UNL     1      -5.418  25.118  39.241  1.00  0.00     0.293 HD
ENDBRANCH   6  26
BRANCH   8  28
ATOM     28  O   UNL     1      -0.477  24.538  41.331  1.00  0.00    -0.508 OA
ATOM     29  H   UNL     1       0.427  24.965  41.490  1.00  0.00     0.293 HD
ENDBRANCH   8  28
TORSDOF 7
ENDMDL
MODEL 2
REMARK VINA RESULT:    -5.788      0.234      1.769
REMARK INTER + INTRA:          -7.427
REMARK INTER:                  -7.093
REMARK INTRA:                  -0.334
REMARK UNBOUND:                -0.285
REMARK SMILES O=c1c(O)c(-c2cc(O)c(O)c(O)c2)oc2cc(O)cc(O)c12
REMARK SMILES IDX 5 1 3 2 2 3 1 4 23 5 21 6 20 7 18 8 17 9 16 10 15 11 6 12
REMARK SMILES IDX 7 13 8 14 14 15 10 16 12 17 9 18 11 20 13 22 4 24 22 26
REMARK SMILES IDX 19 28
REMARK H PARENT 9 19 11 21 13 23 4 25 22 27 19 29
REMARK Flexibility Score: inf
ROOT
ATOM      1  C   UNL     1      -1.346  26.580  35.891  1.00  0.00     0.180 A 
ATOM      2  C   UNL     1      -2.716  26.265  35.809  1.00  0.00     0.208 A 
ATOM      3  C   UNL     1      -3.343  25.669  36.915  1.00  0.00     0.238 A 
ATOM      4  O   UNL     1      -4.572  25.393  36.857  1.00  0.00    -0.285 OA
ATOM      5  C   UNL     1      -2.589  25.380  38.071  1.00  0.00     0.111 A 
ATOM      6  C   UNL     1      -3.143  24.776  39.225  1.00  0.00     0.134 A 
ATOM      7  C   UNL     1      -2.325  24.512  40.334  1.00  0.00     0.093 A 
ATOM      8  C   UNL     1      -0.963  24.838  40.307  1.00  0.00     0.123 A 
ATOM      9  C   UNL     1      -0.413  25.434  39.171  1.00  0.00     0.094 A 
ATOM     10  C   UNL     1      -1.212  25.706  38.058  1.00  0.00     0.146 A 
ATOM     11  O   UNL     1      -0.664  26.278  36.993  1.00  0.00    -0.452 OA
ENDROOT
BRANCH   1  12
ATOM     12  C   UNL     1      -0.618  27.226  34.775  1.00  0.00     0.029 A 
ATOM     13  C   UNL     1      -0.740  28.604  34.524  1.00  0.00     0.062 A 
ATOM     14  C   UNL     1      -0.026  29.202  33.477  1.00  0.00     0.162 A 
ATOM     15  C   UNL     1       0.255  26.463  33.987  1.00  0.00     0.062 A 
ATOM     16  C   UNL     1       0.830  28.425  32.677  1.00  0.00     0.200 A 
ATOM     17  C   UNL     1       0.971  27.052  32.939  1.00  0.00     0.162 A 
BRANCH  14  18
ATOM     18  O   UNL     1      -0.160  30.569  33.232  1.00  0.00    -0.504 OA
ATOM     19  H   UNL     1       0.426  31.252  33.698  1.00  0.00     0.293 HD
ENDBRANCH  14  18
BRANCH  16  20
ATOM     20  O   UNL     1       1.544  29.004  31.628  1.00  0.00    -0.502 OA
ATOM     21  H   UNL     1       1.344  29.937  31.287  1.00  0.00     0.293 HD
ENDBRANCH  16  20
BRANCH  17  22
ATOM     22  O   UNL     1       1.818  26.255  32.168  1.00  0.00    -0.504 OA
ATOM     23  H   UNL     1       2.528  25.665  32.585  1.00  0.00     0.293 HD
ENDBRANCH  17  22
ENDBRANCH   1  12
BRANCH   2  24
ATOM     24  O   UNL     1      -3.429  26.518  34.634  1.00  0.00    -0.502 OA
ATOM     25  H   UNL     1      -3.914  27.392  34.472  1.00  0.00     0.293 HD
ENDBRANCH   2  24
BRANCH   6  26
ATOM     26  O   UNL     1      -4.496  24.439  39.280  1.00  0.00    -0.507 OA
ATOM     27  H   UNL     1      -4.908  24.019  40.105  1.00  0.00     0.293 HD
ENDBRANCH   6  26
BRANCH   8  28
ATOM     28  O   UNL     1      -0.150  24.574  41.407  1.00  0.00    -0.508 OA
ATOM     29  H   UNL     1       0.402  23.727  41.467  1.00  0.00     0.293 HD
ENDBRANCH   8  28
TORSDOF 7
ENDMDL
MODEL 3
REMARK VINA RESULT:    -5.736      4.163      8.758
REMARK INTER + INTRA:          -7.363
REMARK INTER:                  -7.002
REMARK INTRA:                  -0.361
REMARK UNBOUND:                -0.285
REMARK SMILES O=c1c(O)c(-c2cc(O)c(O)c(O)c2)oc2cc(O)cc(O)c12
REMARK SMILES IDX 5 1 3 2 2 3 1 4 23 5 21 6 20 7 18 8 17 9 16 10 15 11 6 12
REMARK SMILES IDX 7 13 8 14 14 15 10 16 12 17 9 18 11 20 13 22 4 24 22 26
REMARK SMILES IDX 19 28
REMARK H PARENT 9 19 11 21 13 23 4 25 22 27 19 29
REMARK Flexibility Score: inf
ROOT
ATOM      1  C   UNL     1       2.093  26.764  30.856  1.00  0.00     0.180 A 
ATOM      2  C   UNL     1       1.673  26.612  29.520  1.00  0.00     0.208 A 
ATOM      3  C   UNL     1       2.550  26.021  28.597  1.00  0.00     0.238 A 
ATOM      4  O   UNL     1       2.181  25.870  27.400  1.00  0.00    -0.285 OA
ATOM      5  C   UNL     1       3.833  25.614  29.017  1.00  0.00     0.111 A 
ATOM      6  C   UNL     1       4.778  25.016  28.149  1.00  0.00     0.134 A 
ATOM      7  C   UNL     1       6.039  24.646  28.640  1.00  0.00     0.093 A 
ATOM      8  C   UNL     1       6.372  24.865  29.982  1.00  0.00     0.123 A 
ATOM      9  C   UNL     1       5.443  25.454  30.842  1.00  0.00     0.094 A 
ATOM     10  C   UNL     1       4.182  25.828  30.371  1.00  0.00     0.146 A 
ATOM     11  O   UNL     1       3.316  26.381  31.212  1.00  0.00    -0.452 OA
ENDROOT
BRANCH   1  12
ATOM     12  C   UNL     1       1.218  27.359  31.893  1.00  0.00     0.029 A 
ATOM     13  C   UNL     1       0.266  26.586  32.578  1.00  0.00     0.062 A 
ATOM     14  C   UNL     1      -0.537  27.162  33.572  1.00  0.00     0.162 A 
ATOM     15  C   UNL     1       1.381  28.708  32.241  1.00  0.00     0.062 A 
ATOM     16  C   UNL     1      -0.383  28.520  33.899  1.00  0.00     0.200 A 
ATOM     17  C   UNL     1       0.583  29.291  33.231  1.00  0.00     0.162 A 
BRANCH  14  18
ATOM     18  O   UNL     1      -1.485  26.387  34.240  1.00  0.00    -0.504 OA
ATOM     19  H   UNL     1      -2.279  26.806  34.709  1.00  0.00     0.293 HD
ENDBRANCH  14  18
BRANCH  16  20
ATOM     20  O   UNL     1      -1.177  29.110  34.882  1.00  0.00    -0.502 OA
ATOM     21  H   UNL     1      -1.546  28.584  35.666  1.00  0.00     0.293 HD
ENDBRANCH  16  20
BRANCH  17  22
ATOM     22  O   UNL     1       0.767  30.640  33.538  1.00  0.00    -0.504 OA
ATOM     23  H   UNL     1       1.025  31.321  32.835  1.00  0.00     0.293 HD
ENDBRANCH  17  22
ENDBRANCH   1  12
BRANCH   2  24
ATOM     24  O   UNL     1       0.414  27.068  29.120  1.00  0.00    -0.502 OA
ATOM     25  H   UNL     1      -0.118  27.737  29.663  1.00  0.00     0.293 HD
ENDBRANCH   2  24
BRANCH   6  26
ATOM     26  O   UNL     1       4.475  24.786  26.806  1.00  0.00    -0.507 OA
ATOM     27  H   UNL     1       5.143  24.979  26.068  1.00  0.00     0.293 HD
ENDBRANCH   6  26
BRANCH   8  28
ATOM     28  O   UNL     1       7.625  24.500  30.471  1.00  0.00    -0.508 OA
ATOM     29  H   UNL     1       8.465  24.996  30.198  1.00  0.00     0.293 HD
ENDBRANCH   8  28
TORSDOF 7
ENDMDL
MODEL 4
REMARK VINA RESULT:    -5.653      1.285      2.958
REMARK INTER + INTRA:          -7.260
REMARK INTER:                  -6.895
REMARK INTRA:                  -0.366
REMARK UNBOUND:                -0.285
REMARK SMILES O=c1c(O)c(-c2cc(O)c(O)c(O)c2)oc2cc(O)cc(O)c12
REMARK SMILES IDX 5 1 3 2 2 3 1 4 23 5 21 6 20 7 18 8 17 9 16 10 15 11 6 12
REMARK SMILES IDX 7 13 8 14 14 15 10 16 12 17 9 18 11 20 13 22 4 24 22 26
REMARK SMILES IDX 19 28
REMARK H PARENT 9 19 11 21 13 23 4 25 22 27 19 29
REMARK Flexibility Score: inf
ROOT
ATOM      1  C   UNL     1      -1.619  26.668  36.069  1.00  0.00     0.180 A 
ATOM      2  C   UNL     1      -1.136  26.553  37.387  1.00  0.00     0.208 A 
ATOM      3  C   UNL     1      -1.947  25.937  38.354  1.00  0.00     0.238 A 
ATOM      4  O   UNL     1      -1.521  25.818  39.535  1.00  0.00    -0.285 OA
ATOM      5  C   UNL     1      -3.228  25.470  37.995  1.00  0.00     0.111 A 
ATOM      6  C   UNL     1      -4.107  24.843  38.910  1.00  0.00     0.134 A 
ATOM      7  C   UNL     1      -5.370  24.412  38.478  1.00  0.00     0.093 A 
ATOM      8  C   UNL     1      -5.770  24.599  37.149  1.00  0.00     0.123 A 
ATOM      9  C   UNL     1      -4.906  25.216  36.243  1.00  0.00     0.094 A 
ATOM     10  C   UNL     1      -3.643  25.650  36.654  1.00  0.00     0.146 A 
ATOM     11  O   UNL     1      -2.839  26.229  35.770  1.00  0.00    -0.452 OA
ENDROOT
BRANCH   1  12
ATOM     12  C   UNL     1      -0.816  27.287  34.988  1.00  0.00     0.029 A 
ATOM     13  C   UNL     1       0.111  26.537  34.246  1.00  0.00     0.062 A 
ATOM     14  C   UNL     1       0.845  27.134  33.212  1.00  0.00     0.162 A 
ATOM     15  C   UNL     1      -1.026  28.634  34.659  1.00  0.00     0.062 A 
ATOM     16  C   UNL     1       0.645  28.491  32.903  1.00  0.00     0.200 A 
ATOM     17  C   UNL     1      -0.297  29.238  33.628  1.00  0.00     0.162 A 
BRANCH  14  18
ATOM     18  O   UNL     1       1.769  26.382  32.486  1.00  0.00    -0.504 OA
ATOM     19  H   UNL     1       1.965  26.579  31.511  1.00  0.00     0.293 HD
ENDBRANCH  14  18
BRANCH  16  20
ATOM     20  O   UNL     1       1.371  29.102  31.880  1.00  0.00    -0.502 OA
ATOM     21  H   UNL     1       1.074  29.971  31.452  1.00  0.00     0.293 HD
ENDBRANCH  16  20
BRANCH  17  22
ATOM     22  O   UNL     1      -0.524  30.585  33.341  1.00  0.00    -0.504 OA
ATOM     23  H   UNL     1      -1.411  31.034  33.534  1.00  0.00     0.293 HD
ENDBRANCH  17  22
ENDBRANCH   1  12
BRANCH   2  24
ATOM     24  O   UNL     1       0.117  27.068  37.727  1.00  0.00    -0.502 OA
ATOM     25  H   UNL     1       0.345  27.360  38.670  1.00  0.00     0.293 HD
ENDBRANCH   2  24
BRANCH   6  26
ATOM     26  O   UNL     1      -3.737  24.645  40.241  1.00  0.00    -0.507 OA
ATOM     27  H   UNL     1      -3.132  23.881  40.517  1.00  0.00     0.293 HD
ENDBRANCH   6  26
BRANCH   8  28
ATOM     28  O   UNL     1      -7.025  24.173  36.719  1.00  0.00    -0.508 OA
ATOM     29  H   UNL     1      -7.877  24.566  37.100  1.00  0.00     0.293 HD
ENDBRANCH   8  28
TORSDOF 7
ENDMDL
MODEL 5
REMARK VINA RESULT:    -5.647      1.305      3.438
REMARK INTER + INTRA:          -7.253
REMARK INTER:                  -6.898
REMARK INTRA:                  -0.355
REMARK UNBOUND:                -0.285
REMARK SMILES O=c1c(O)c(-c2cc(O)c(O)c(O)c2)oc2cc(O)cc(O)c12
REMARK SMILES IDX 5 1 3 2 2 3 1 4 23 5 21 6 20 7 18 8 17 9 16 10 15 11 6 12
REMARK SMILES IDX 7 13 8 14 14 15 10 16 12 17 9 18 11 20 13 22 4 24 22 26
REMARK SMILES IDX 19 28
REMARK H PARENT 9 19 11 21 13 23 4 25 22 27 19 29
REMARK Flexibility Score: inf
ROOT
ATOM      1  C   UNL     1      -1.682  26.728  36.004  1.00  0.00     0.180 A 
ATOM      2  C   UNL     1      -1.203  26.656  37.326  1.00  0.00     0.208 A 
ATOM      3  C   UNL     1      -2.001  26.042  38.305  1.00  0.00     0.238 A 
ATOM      4  O   UNL     1      -1.578  25.962  39.490  1.00  0.00    -0.285 OA
ATOM      5  C   UNL     1      -3.268  25.533  37.951  1.00  0.00     0.111 A 
ATOM      6  C   UNL     1      -4.135  24.905  38.877  1.00  0.00     0.134 A 
ATOM      7  C   UNL     1      -5.385  24.432  38.451  1.00  0.00     0.093 A 
ATOM      8  C   UNL     1      -5.783  24.576  37.115  1.00  0.00     0.123 A 
ATOM      9  C   UNL     1      -4.930  25.194  36.199  1.00  0.00     0.094 A 
ATOM     10  C   UNL     1      -3.681  25.670  36.605  1.00  0.00     0.146 A 
ATOM     11  O   UNL     1      -2.888  26.249  35.711  1.00  0.00    -0.452 OA
ENDROOT
BRANCH   1  12
ATOM     12  C   UNL     1      -0.891  27.341  34.913  1.00  0.00     0.029 A 
ATOM     13  C   UNL     1      -1.031  28.700  34.583  1.00  0.00     0.062 A 
ATOM     14  C   UNL     1      -0.257  29.269  33.562  1.00  0.00     0.162 A 
ATOM     15  C   UNL     1       0.059  26.568  34.231  1.00  0.00     0.062 A 
ATOM     16  C   UNL     1       0.677  28.481  32.868  1.00  0.00     0.200 A 
ATOM     17  C   UNL     1       0.836  27.127  33.209  1.00  0.00     0.162 A 
BRANCH  14  18
ATOM     18  O   UNL     1      -0.409  30.617  33.239  1.00  0.00    -0.504 OA
ATOM     19  H   UNL     1       0.206  31.078  32.579  1.00  0.00     0.293 HD
ENDBRANCH  14  18
BRANCH  16  20
ATOM     20  O   UNL     1       1.452  29.030  31.847  1.00  0.00    -0.502 OA
ATOM     21  H   UNL     1       1.336  28.762  30.876  1.00  0.00     0.293 HD
ENDBRANCH  16  20
BRANCH  17  22
ATOM     22  O   UNL     1       1.760  26.320  32.545  1.00  0.00    -0.504 OA
ATOM     23  H   UNL     1       2.689  26.152  32.911  1.00  0.00     0.293 HD
ENDBRANCH  17  22
ENDBRANCH   1  12
BRANCH   2  24
ATOM     24  O   UNL     1       0.035  27.212  37.660  1.00  0.00    -0.502 OA
ATOM     25  H   UNL     1       0.851  27.114  37.067  1.00  0.00     0.293 HD
ENDBRANCH   2  24
BRANCH   6  26
ATOM     26  O   UNL     1      -3.767  24.748  40.214  1.00  0.00    -0.507 OA
ATOM     27  H   UNL     1      -3.923  23.879  40.711  1.00  0.00     0.293 HD
ENDBRANCH   6  26
BRANCH   8  28
ATOM     28  O   UNL     1      -7.024  24.107  36.691  1.00  0.00    -0.508 OA
ATOM     29  H   UNL     1      -7.880  24.367  37.167  1.00  0.00     0.293 HD
ENDBRANCH   8  28
TORSDOF 7
ENDMDL
MODEL 6
REMARK VINA RESULT:    -5.646      6.603     10.780
REMARK INTER + INTRA:          -7.251
REMARK INTER:                  -7.002
REMARK INTRA:                  -0.249
REMARK UNBOUND:                -0.285
REMARK SMILES O=c1c(O)c(-c2cc(O)c(O)c(O)c2)oc2cc(O)cc(O)c12
REMARK SMILES IDX 5 1 3 2 2 3 1 4 23 5 21 6 20 7 18 8 17 9 16 10 15 11 6 12
REMARK SMILES IDX 7 13 8 14 14 15 10 16 12 17 9 18 11 20 13 22 4 24 22 26
REMARK SMILES IDX 19 28
REMARK H PARENT 9 19 11 21 13 23 4 25 22 27 19 29
REMARK Flexibility Score: inf
ROOT
ATOM      1  C   UNL     1       1.437  25.194  27.710  1.00  0.00     0.180 A 
ATOM      2  C   UNL     1       0.253  24.728  27.107  1.00  0.00     0.208 A 
ATOM      3  C   UNL     1       0.347  23.807  26.051  1.00  0.00     0.238 A 
ATOM      4  O   UNL     1      -0.707  23.374  25.511  1.00  0.00    -0.285 OA
ATOM      5  C   UNL     1       1.616  23.386  25.604  1.00  0.00     0.111 A 
ATOM      6  C   UNL     1       1.797  22.465  24.544  1.00  0.00     0.134 A 
ATOM      7  C   UNL     1       3.094  22.102  24.151  1.00  0.00     0.093 A 
ATOM      8  C   UNL     1       4.212  22.645  24.797  1.00  0.00     0.123 A 
ATOM      9  C   UNL     1       4.038  23.552  25.843  1.00  0.00     0.094 A 
ATOM     10  C   UNL     1       2.754  23.925  26.250  1.00  0.00     0.146 A 
ATOM     11  O   UNL     1       2.618  24.786  27.251  1.00  0.00    -0.452 OA
ENDROOT
BRANCH   1  12
ATOM     12  C   UNL     1       1.421  26.151  28.840  1.00  0.00     0.029 A 
ATOM     13  C   UNL     1       0.917  25.785  30.100  1.00  0.00     0.062 A 
ATOM     14  C   UNL     1       0.930  26.697  31.165  1.00  0.00     0.162 A 
ATOM     15  C   UNL     1       1.971  27.430  28.670  1.00  0.00     0.062 A 
ATOM     16  C   UNL     1       1.463  27.984  30.979  1.00  0.00     0.200 A 
ATOM     17  C   UNL     1       1.987  28.346  29.727  1.00  0.00     0.162 A 
BRANCH  14  18
ATOM     18  O   UNL     1       0.422  26.325  32.409  1.00  0.00    -0.504 OA
ATOM     19  H   UNL     1      -0.556  26.087  32.533  1.00  0.00     0.293 HD
ENDBRANCH  14  18
BRANCH  16  20
ATOM     20  O   UNL     1       1.480  28.905  32.026  1.00  0.00    -0.502 OA
ATOM     21  H   UNL     1       1.981  28.732  32.890  1.00  0.00     0.293 HD
ENDBRANCH  16  20
BRANCH  17  22
ATOM     22  O   UNL     1       2.530  29.614  29.512  1.00  0.00    -0.504 OA
ATOM     23  H   UNL     1       3.044  29.844  28.670  1.00  0.00     0.293 HD
ENDBRANCH  17  22
ENDBRANCH   1  12
BRANCH   2  24
ATOM     24  O   UNL     1      -0.991  25.198  27.537  1.00  0.00    -0.502 OA
ATOM     25  H   UNL     1      -1.839  24.654  27.438  1.00  0.00     0.293 HD
ENDBRANCH   2  24
BRANCH   6  26
ATOM     26  O   UNL     1       0.702  21.910  23.881  1.00  0.00    -0.507 OA
ATOM     27  H   UNL     1      -0.023  22.488  23.472  1.00  0.00     0.293 HD
ENDBRANCH   6  26
BRANCH   8  28
ATOM     28  O   UNL     1       5.500  22.285  24.406  1.00  0.00    -0.508 OA
ATOM     29  H   UNL     1       5.739  22.149  23.431  1.00  0.00     0.293 HD
ENDBRANCH   8  28
TORSDOF 7
ENDMDL
MODEL 7
REMARK VINA RESULT:    -5.567      1.828      4.040
REMARK INTER + INTRA:          -7.154
REMARK INTER:                  -6.795
REMARK INTRA:                  -0.359
REMARK UNBOUND:                -0.285
REMARK SMILES O=c1c(O)c(-c2cc(O)c(O)c(O)c2)oc2cc(O)cc(O)c12
REMARK SMILES IDX 5 1 3 2 2 3 1 4 23 5 21 6 20 7 18 8 17 9 16 10 15 11 6 12
REMARK SMILES IDX 7 13 8 14 14 15 10 16 12 17 9 18 11 20 13 22 4 24 22 26
REMARK SMILES IDX 19 28
REMARK H PARENT 9 19 11 21 13 23 4 25 22 27 19 29
REMARK Flexibility Score: inf
ROOT
ATOM      1  C   UNL     1      -2.011  26.874  34.836  1.00  0.00     0.180 A 
ATOM      2  C   UNL     1      -1.738  26.242  36.064  1.00  0.00     0.208 A 
ATOM      3  C   UNL     1      -2.798  25.655  36.775  1.00  0.00     0.238 A 
ATOM      4  O   UNL     1      -2.564  25.076  37.871  1.00  0.00    -0.285 OA
ATOM      5  C   UNL     1      -4.108  25.727  36.259  1.00  0.00     0.111 A 
ATOM      6  C   UNL     1      -5.230  25.166  36.914  1.00  0.00     0.134 A 
ATOM      7  C   UNL     1      -6.504  25.287  36.341  1.00  0.00     0.093 A 
ATOM      8  C   UNL     1      -6.677  25.962  35.125  1.00  0.00     0.123 A 
ATOM      9  C   UNL     1      -5.573  26.516  34.475  1.00  0.00     0.094 A 
ATOM     10  C   UNL     1      -4.296  26.403  35.030  1.00  0.00     0.146 A 
ATOM     11  O   UNL     1      -3.262  26.936  34.388  1.00  0.00    -0.452 OA
ENDROOT
BRANCH   1  12
ATOM     12  C   UNL     1      -0.946  27.499  34.019  1.00  0.00     0.029 A 
ATOM     13  C   UNL     1      -0.592  28.848  34.187  1.00  0.00     0.062 A 
ATOM     14  C   UNL     1       0.434  29.416  33.421  1.00  0.00     0.162 A 
ATOM     15  C   UNL     1      -0.235  26.716  33.098  1.00  0.00     0.062 A 
ATOM     16  C   UNL     1       1.127  28.631  32.483  1.00  0.00     0.200 A 
ATOM     17  C   UNL     1       0.791  27.276  32.327  1.00  0.00     0.162 A 
BRANCH  14  18
ATOM     18  O   UNL     1       0.773  30.759  33.591  1.00  0.00    -0.504 OA
ATOM     19  H   UNL     1       0.435  31.476  32.960  1.00  0.00     0.293 HD
ENDBRANCH  14  18
BRANCH  16  20
ATOM     20  O   UNL     1       2.149  29.181  31.709  1.00  0.00    -0.502 OA
ATOM     21  H   UNL     1       2.949  29.647  32.122  1.00  0.00     0.293 HD
ENDBRANCH  16  20
BRANCH  17  22
ATOM     22  O   UNL     1       1.465  26.467  31.412  1.00  0.00    -0.504 OA
ATOM     23  H   UNL     1       1.179  25.514  31.222  1.00  0.00     0.293 HD
ENDBRANCH  17  22
ENDBRANCH   1  12
BRANCH   2  24
ATOM     24  O   UNL     1      -0.439  26.226  36.577  1.00  0.00    -0.502 OA
ATOM     25  H   UNL     1      -0.144  26.843  37.325  1.00  0.00     0.293 HD
ENDBRANCH   2  24
BRANCH   6  26
ATOM     26  O   UNL     1      -5.089  24.490  38.127  1.00  0.00    -0.507 OA
ATOM     27  H   UNL     1      -4.599  24.901  38.913  1.00  0.00     0.293 HD
ENDBRANCH   6  26
BRANCH   8  28
ATOM     28  O   UNL     1      -7.942  26.084  34.556  1.00  0.00    -0.508 OA
ATOM     29  H   UNL     1      -8.434  25.282  34.180  1.00  0.00     0.293 HD
ENDBRANCH   8  28
TORSDOF 7
ENDMDL
MODEL 8
REMARK VINA RESULT:    -5.459      1.465      6.949
REMARK INTER + INTRA:          -7.020
REMARK INTER:                  -6.668
REMARK INTRA:                  -0.352
REMARK UNBOUND:                -0.285
REMARK SMILES O=c1c(O)c(-c2cc(O)c(O)c(O)c2)oc2cc(O)cc(O)c12
REMARK SMILES IDX 5 1 3 2 2 3 1 4 23 5 21 6 20 7 18 8 17 9 16 10 15 11 6 12
REMARK SMILES IDX 7 13 8 14 14 15 10 16 12 17 9 18 11 20 13 22 4 24 22 26
REMARK SMILES IDX 19 28
REMARK H PARENT 9 19 11 21 13 23 4 25 22 27 19 29
REMARK Flexibility Score: inf
ROOT
ATOM      1  C   UNL     1      -1.029  27.004  35.974  1.00  0.00     0.180 A 
ATOM      2  C   UNL     1      -1.271  28.270  35.408  1.00  0.00     0.208 A 
ATOM      3  C   UNL     1      -0.600  28.625  34.227  1.00  0.00     0.238 A 
ATOM      4  O   UNL     1      -0.817  29.752  33.704  1.00  0.00    -0.285 OA
ATOM      5  C   UNL     1       0.312  27.720  33.646  1.00  0.00     0.111 A 
ATOM      6  C   UNL     1       1.032  28.002  32.459  1.00  0.00     0.134 A 
ATOM      7  C   UNL     1       1.929  27.054  31.947  1.00  0.00     0.093 A 
ATOM      8  C   UNL     1       2.122  25.830  32.601  1.00  0.00     0.123 A 
ATOM      9  C   UNL     1       1.414  25.548  33.770  1.00  0.00     0.094 A 
ATOM     10  C   UNL     1       0.514  26.479  34.294  1.00  0.00     0.146 A 
ATOM     11  O   UNL     1      -0.150  26.183  35.406  1.00  0.00    -0.452 OA
ENDROOT
BRANCH   1  12
ATOM     12  C   UNL     1      -1.711  26.549  37.207  1.00  0.00     0.029 A 
ATOM     13  C   UNL     1      -2.864  25.747  37.152  1.00  0.00     0.062 A 
ATOM     14  C   UNL     1      -3.483  25.308  38.330  1.00  0.00     0.162 A 
ATOM     15  C   UNL     1      -1.167  26.877  38.457  1.00  0.00     0.062 A 
ATOM     16  C   UNL     1      -2.943  25.659  39.580  1.00  0.00     0.200 A 
ATOM     17  C   UNL     1      -1.779  26.443  39.639  1.00  0.00     0.162 A 
BRANCH  14  18
ATOM     18  O   UNL     1      -4.630  24.518  38.264  1.00  0.00    -0.504 OA
ATOM     19  H   UNL     1      -5.558  24.925  38.281  1.00  0.00     0.293 HD
ENDBRANCH  14  18
BRANCH  16  20
ATOM     20  O   UNL     1      -3.549  25.234  40.762  1.00  0.00    -0.502 OA
ATOM     21  H   UNL     1      -4.437  24.747  40.769  1.00  0.00     0.293 HD
ENDBRANCH  16  20
BRANCH  17  22
ATOM     22  O   UNL     1      -1.214  26.803  40.863  1.00  0.00    -0.504 OA
ATOM     23  H   UNL     1      -0.635  26.166  41.396  1.00  0.00     0.293 HD
ENDBRANCH  17  22
ENDBRANCH   1  12
BRANCH   2  24
ATOM     24  O   UNL     1      -2.144  29.167  36.031  1.00  0.00    -0.502 OA
ATOM     25  H   UNL     1      -3.100  29.295  35.722  1.00  0.00     0.293 HD
ENDBRANCH   2  24
BRANCH   6  26
ATOM     26  O   UNL     1       0.862  29.213  31.787  1.00  0.00    -0.507 OA
ATOM     27  H   UNL     1       0.493  29.252  30.844  1.00  0.00     0.293 HD
ENDBRANCH   6  26
BRANCH   8  28
ATOM     28  O   UNL     1       3.014  24.888  32.094  1.00  0.00    -0.508 OA
ATOM     29  H   UNL     1       3.971  24.835  32.422  1.00  0.00     0.293 HD
ENDBRANCH   8  28
TORSDOF 7
ENDMDL
MODEL 9
REMARK VINA RESULT:    -5.450      2.835      8.041
REMARK INTER + INTRA:          -7.010
REMARK INTER:                  -6.786
REMARK INTRA:                  -0.223
REMARK UNBOUND:                -0.285
REMARK SMILES O=c1c(O)c(-c2cc(O)c(O)c(O)c2)oc2cc(O)cc(O)c12
REMARK SMILES IDX 5 1 3 2 2 3 1 4 23 5 21 6 20 7 18 8 17 9 16 10 15 11 6 12
REMARK SMILES IDX 7 13 8 14 14 15 10 16 12 17 9 18 11 20 13 22 4 24 22 26
REMARK SMILES IDX 19 28
REMARK H PARENT 9 19 11 21 13 23 4 25 22 27 19 29
REMARK Flexibility Score: inf
ROOT
ATOM      1  C   UNL     1       0.366  27.168  32.618  1.00  0.00     0.180 A 
ATOM      2  C   UNL     1       1.150  28.188  32.046  1.00  0.00     0.208 A 
ATOM      3  C   UNL     1       1.627  28.022  30.735  1.00  0.00     0.238 A 
ATOM      4  O   UNL     1       2.321  28.933  30.208  1.00  0.00    -0.285 OA
ATOM      5  C   UNL     1       1.331  26.837  30.031  1.00  0.00     0.111 A 
ATOM      6  C   UNL     1       1.777  26.590  28.710  1.00  0.00     0.134 A 
ATOM      7  C   UNL     1       1.448  25.382  28.079  1.00  0.00     0.093 A 
ATOM      8  C   UNL     1       0.684  24.415  28.744  1.00  0.00     0.123 A 
ATOM      9  C   UNL     1       0.242  24.655  30.046  1.00  0.00     0.094 A 
ATOM     10  C   UNL     1       0.558  25.853  30.691  1.00  0.00     0.146 A 
ATOM     11  O   UNL     1       0.120  26.057  31.928  1.00  0.00    -0.452 OA
ENDROOT
BRANCH   1  12
ATOM     12  C   UNL     1      -0.189  27.276  33.987  1.00  0.00     0.029 A 
ATOM     13  C   UNL     1      -1.146  28.253  34.312  1.00  0.00     0.062 A 
ATOM     14  C   UNL     1      -1.677  28.326  35.607  1.00  0.00     0.162 A 
ATOM     15  C   UNL     1       0.202  26.351  34.965  1.00  0.00     0.062 A 
ATOM     16  C   UNL     1      -1.262  27.409  36.588  1.00  0.00     0.200 A 
ATOM     17  C   UNL     1      -0.322  26.417  36.261  1.00  0.00     0.162 A 
BRANCH  14  18
ATOM     18  O   UNL     1      -2.620  29.304  35.921  1.00  0.00    -0.504 OA
ATOM     19  H   UNL     1      -2.708  29.676  36.860  1.00  0.00     0.293 HD
ENDBRANCH  14  18
BRANCH  16  20
ATOM     20  O   UNL     1      -1.777  27.470  37.883  1.00  0.00    -0.502 OA
ATOM     21  H   UNL     1      -1.979  26.638  38.425  1.00  0.00     0.293 HD
ENDBRANCH  16  20
BRANCH  17  22
ATOM     22  O   UNL     1       0.104  25.487  37.210  1.00  0.00    -0.504 OA
ATOM     23  H   UNL     1       0.452  25.766  38.119  1.00  0.00     0.293 HD
ENDBRANCH  17  22
ENDBRANCH   1  12
BRANCH   2  24
ATOM     24  O   UNL     1       1.470  29.331  32.783  1.00  0.00    -0.502 OA
ATOM     25  H   UNL     1       1.138  29.475  33.729  1.00  0.00     0.293 HD
ENDBRANCH   2  24
BRANCH   6  26
ATOM     26  O   UNL     1       2.541  27.534  28.022  1.00  0.00    -0.507 OA
ATOM     27  H   UNL     1       3.529  27.394  27.848  1.00  0.00     0.293 HD
ENDBRANCH   6  26
BRANCH   8  28
ATOM     28  O   UNL     1       0.358  23.214  28.118  1.00  0.00    -0.508 OA
ATOM     29  H   UNL     1       0.927  22.835  27.371  1.00  0.00     0.293 HD
ENDBRANCH   8  28
TORSDOF 7
ENDMDL
