MODEL 1
REMARK VINA RESULT:    -5.049      0.000      0.000
REMARK INTER + INTRA:          -5.892
REMARK INTER:                  -5.787
REMARK INTRA:                  -0.105
REMARK UNBOUND:                -0.105
REMARK SMILES OCC=Cc1ccccc1
REMARK SMILES IDX 4 1 3 2 5 3 8 4 7 5 9 6 6 7 10 8 2 9 1 10
REMARK H PARENT 1 11
REMARK Flexibility Score: inf
ROOT
ATOM      1  C   UNL     1      21.534  -4.981  18.704  1.00  0.00     0.006 C 
ATOM      2  C   UNL     1      22.101  -5.112  19.910  1.00  0.00     0.001 C 
ENDROOT
BRANCH   1   3
ATOM      3  C   UNL     1      21.169  -6.125  17.833  1.00  0.00    -0.026 A 
ATOM      4  C   UNL     1      20.382  -8.250  16.164  1.00  0.00     0.000 A 
ATOM      5  C   UNL     1      19.425  -7.371  16.676  1.00  0.00     0.001 A 
ATOM      6  C   UNL     1      21.732  -8.066  16.472  1.00  0.00     0.001 A 
ATOM      7  C   UNL     1      19.815  -6.312  17.502  1.00  0.00     0.008 A 
ATOM      8  C   UNL     1      22.128  -7.009  17.297  1.00  0.00     0.008 A 
ENDBRANCH   1   3
BRANCH   2   9
ATOM      9  C   UNL     1      22.425  -3.912  20.749  1.00  0.00     0.183 C 
BRANCH   9  10
ATOM     10  O   UNL     1      21.643  -3.904  21.912  1.00  0.00    -0.392 OA
ATOM     11  H   UNL     1      21.290  -4.826  22.027  1.00  0.00     0.210 HD
ENDBRANCH   9  10
ENDBRANCH   2   9
TORSDOF 3
ENDMDL
MODEL 2
REMARK VINA RESULT:    -4.586     17.459     18.139
REMARK INTER + INTRA:          -5.361
REMARK INTER:                  -5.255
REMARK INTRA:                  -0.106
REMARK UNBOUND:                -0.105
REMARK SMILES OCC=Cc1ccccc1
REMARK SMILES IDX 4 1 3 2 5 3 8 4 7 5 9 6 6 7 10 8 2 9 1 10
REMARK H PARENT 1 11
REMARK Flexibility Score: inf
ROOT
ATOM      1  C   UNL     1      19.412   7.821  30.532  1.00  0.00     0.006 C 
ATOM      2  C   UNL     1      18.613   6.758  30.687  1.00  0.00     0.001 C 
ENDROOT
BRANCH   1   3
ATOM      3  C   UNL     1      20.015   8.221  29.238  1.00  0.00    -0.026 A 
ATOM      4  C   UNL     1      21.238   8.912  26.799  1.00  0.00     0.000 A 
ATOM      5  C   UNL     1      21.970   8.246  27.785  1.00  0.00     0.001 A 
ATOM      6  C   UNL     1      19.895   9.225  27.020  1.00  0.00     0.001 A 
ATOM      7  C   UNL     1      21.362   7.898  28.995  1.00  0.00     0.008 A 
ATOM      8  C   UNL     1      19.282   8.880  28.228  1.00  0.00     0.008 A 
ENDBRANCH   1   3
BRANCH   2   9
ATOM      9  C   UNL     1      18.019   6.422  32.023  1.00  0.00     0.183 C 
BRANCH   9  10
ATOM     10  O   UNL     1      18.750   5.398  32.639  1.00  0.00    -0.392 OA
ATOM     11  H   UNL     1      19.662   5.755  32.803  1.00  0.00     0.210 HD
ENDBRANCH   9  10
ENDBRANCH   2   9
TORSDOF 3
ENDMDL
MODEL 3
REMARK VINA RESULT:    -4.572     17.425     18.024
REMARK INTER + INTRA:          -5.344
REMARK INTER:                  -5.237
REMARK INTRA:                  -0.108
REMARK UNBOUND:                -0.105
REMARK SMILES OCC=Cc1ccccc1
REMARK SMILES IDX 4 1 3 2 5 3 8 4 7 5 9 6 6 7 10 8 2 9 1 10
REMARK H PARENT 1 11
REMARK Flexibility Score: inf
ROOT
ATOM      1  C   UNL     1      19.545   7.738  30.516  1.00  0.00     0.006 C 
ATOM      2  C   UNL     1      18.643   6.757  30.643  1.00  0.00     0.001 C 
ENDROOT
BRANCH   1   3
ATOM      3  C   UNL     1      20.197   8.101  29.234  1.00  0.00    -0.026 A 
ATOM      4  C   UNL     1      21.354   8.852  26.781  1.00  0.00     0.000 A 
ATOM      5  C   UNL     1      20.003   9.108  27.025  1.00  0.00     0.001 A 
ATOM      6  C   UNL     1      22.134   8.233  27.760  1.00  0.00     0.001 A 
ATOM      7  C   UNL     1      19.428   8.739  28.245  1.00  0.00     0.008 A 
ATOM      8  C   UNL     1      21.565   7.861  28.982  1.00  0.00     0.008 A 
ENDBRANCH   1   3
BRANCH   2   9
ATOM      9  C   UNL     1      18.005   6.457  31.967  1.00  0.00     0.183 C 
BRANCH   9  10
ATOM     10  O   UNL     1      18.707   5.439  32.627  1.00  0.00    -0.392 OA
ATOM     11  H   UNL     1      18.393   4.578  32.242  1.00  0.00     0.210 HD
ENDBRANCH   9  10
ENDBRANCH   2   9
TORSDOF 3
ENDMDL
MODEL 4
REMARK VINA RESULT:    -4.525     12.068     13.536
REMARK INTER + INTRA:          -5.291
REMARK INTER:                  -5.176
REMARK INTRA:                  -0.115
REMARK UNBOUND:                -0.105
REMARK SMILES OCC=Cc1ccccc1
REMARK SMILES IDX 4 1 3 2 5 3 8 4 7 5 9 6 6 7 10 8 2 9 1 10
REMARK H PARENT 1 11
REMARK Flexibility Score: inf
ROOT
ATOM      1  C   UNL     1      25.659   2.994  25.292  1.00  0.00     0.006 C 
ATOM      2  C   UNL     1      24.399   3.374  25.540  1.00  0.00     0.001 C 
ENDROOT
BRANCH   1   3
ATOM      3  C   UNL     1      26.688   3.880  24.696  1.00  0.00    -0.026 A 
ATOM      4  C   UNL     1      28.653   5.492  23.486  1.00  0.00     0.000 A 
ATOM      5  C   UNL     1      28.527   4.149  23.122  1.00  0.00     0.001 A 
ATOM      6  C   UNL     1      27.795   6.037  24.444  1.00  0.00     0.001 A 
ATOM      7  C   UNL     1      27.549   3.349  23.719  1.00  0.00     0.008 A 
ATOM      8  C   UNL     1      26.814   5.241  25.045  1.00  0.00     0.008 A 
ENDBRANCH   1   3
BRANCH   2   9
ATOM      9  C   UNL     1      23.414   2.432  26.166  1.00  0.00     0.183 C 
BRANCH   9  10
ATOM     10  O   UNL     1      24.082   1.466  26.932  1.00  0.00    -0.392 OA
ATOM     11  H   UNL     1      24.651   0.946  26.306  1.00  0.00     0.210 HD
ENDBRANCH   9  10
ENDBRANCH   2   9
TORSDOF 3
ENDMDL
MODEL 5
REMARK VINA RESULT:    -4.518     12.088     13.500
REMARK INTER + INTRA:          -5.284
REMARK INTER:                  -5.162
REMARK INTRA:                  -0.122
REMARK UNBOUND:                -0.105
REMARK SMILES OCC=Cc1ccccc1
REMARK SMILES IDX 4 1 3 2 5 3 8 4 7 5 9 6 6 7 10 8 2 9 1 10
REMARK H PARENT 1 11
REMARK Flexibility Score: inf
ROOT
ATOM      1  C   UNL     1      25.658   2.990  25.295  1.00  0.00     0.006 C 
ATOM      2  C   UNL     1      24.391   3.352  25.532  1.00  0.00     0.001 C 
ENDROOT
BRANCH   1   3
ATOM      3  C   UNL     1      26.664   3.871  24.653  1.00  0.00    -0.026 A 
ATOM      4  C   UNL     1      28.557   5.614  23.513  1.00  0.00     0.000 A 
ATOM      5  C   UNL     1      27.660   6.087  24.473  1.00  0.00     0.001 A 
ATOM      6  C   UNL     1      28.521   4.272  23.127  1.00  0.00     0.001 A 
ATOM      7  C   UNL     1      26.722   5.221  25.044  1.00  0.00     0.008 A 
ATOM      8  C   UNL     1      27.585   3.401  23.694  1.00  0.00     0.008 A 
ENDBRANCH   1   3
BRANCH   2   9
ATOM      9  C   UNL     1      23.431   2.418  26.205  1.00  0.00     0.183 C 
BRANCH   9  10
ATOM     10  O   UNL     1      24.127   1.459  26.955  1.00  0.00    -0.392 OA
ATOM     11  H   UNL     1      24.096   0.612  26.436  1.00  0.00     0.210 HD
ENDBRANCH   9  10
ENDBRANCH   2   9
TORSDOF 3
ENDMDL
MODEL 6
REMARK VINA RESULT:    -4.437     18.394     18.957
REMARK INTER + INTRA:          -5.191
REMARK INTER:                  -5.061
REMARK INTRA:                  -0.129
REMARK UNBOUND:                -0.105
REMARK SMILES OCC=Cc1ccccc1
REMARK SMILES IDX 4 1 3 2 5 3 8 4 7 5 9 6 6 7 10 8 2 9 1 10
REMARK H PARENT 1 11
REMARK Flexibility Score: inf
ROOT
ATOM      1  C   UNL     1      19.084   8.372  29.106  1.00  0.00     0.006 C 
ATOM      2  C   UNL     1      19.792   9.434  28.702  1.00  0.00     0.001 C 
ENDROOT
BRANCH   1   3
ATOM      3  C   UNL     1      19.324   7.656  30.383  1.00  0.00    -0.026 A 
ATOM      4  C   UNL     1      19.855   6.368  32.828  1.00  0.00     0.000 A 
ATOM      5  C   UNL     1      20.778   7.273  32.299  1.00  0.00     0.001 A 
ATOM      6  C   UNL     1      18.663   6.111  32.148  1.00  0.00     0.001 A 
ATOM      7  C   UNL     1      20.513   7.917  31.087  1.00  0.00     0.008 A 
ATOM      8  C   UNL     1      18.393   6.751  30.935  1.00  0.00     0.008 A 
ENDBRANCH   1   3
BRANCH   2   9
ATOM      9  C   UNL     1      19.482  10.125  27.407  1.00  0.00     0.183 C 
BRANCH   9  10
ATOM     10  O   UNL     1      18.250   9.685  26.902  1.00  0.00    -0.392 OA
ATOM     11  H   UNL     1      18.397   9.453  25.948  1.00  0.00     0.210 HD
ENDBRANCH   9  10
ENDBRANCH   2   9
TORSDOF 3
ENDMDL
MODEL 7
REMARK VINA RESULT:    -4.347     18.344     19.139
REMARK INTER + INTRA:          -5.088
REMARK INTER:                  -4.977
REMARK INTRA:                  -0.111
REMARK UNBOUND:                -0.105
REMARK SMILES OCC=Cc1ccccc1
REMARK SMILES IDX 4 1 3 2 5 3 8 4 7 5 9 6 6 7 10 8 2 9 1 10
REMARK H PARENT 1 11
REMARK Flexibility Score: inf
ROOT
ATOM      1  C   UNL     1      20.341   7.502  32.109  1.00  0.00     0.006 C 
ATOM      2  C   UNL     1      19.928   6.235  32.242  1.00  0.00     0.001 C 
ENDROOT
BRANCH   1   3
ATOM      3  C   UNL     1      20.235   8.279  30.850  1.00  0.00    -0.026 A 
ATOM      4  C   UNL     1      20.127   9.796  28.482  1.00  0.00     0.000 A 
ATOM      5  C   UNL     1      21.045  10.124  29.482  1.00  0.00     0.001 A 
ATOM      6  C   UNL     1      19.271   8.706  28.653  1.00  0.00     0.001 A 
ATOM      7  C   UNL     1      21.102   9.369  30.657  1.00  0.00     0.008 A 
ATOM      8  C   UNL     1      19.323   7.947  29.826  1.00  0.00     0.008 A 
ENDBRANCH   1   3
BRANCH   2   9
ATOM      9  C   UNL     1      20.046   5.514  33.551  1.00  0.00     0.183 C 
BRANCH   9  10
ATOM     10  O   UNL     1      19.257   4.355  33.543  1.00  0.00    -0.392 OA
ATOM     11  H   UNL     1      19.489   3.856  32.717  1.00  0.00     0.210 HD
ENDBRANCH   9  10
ENDBRANCH   2   9
TORSDOF 3
ENDMDL
