MODEL 1
REMARK VINA RESULT:    -3.999      0.000      0.000
REMARK INTER + INTRA:          -8.993
REMARK INTER:                  -7.740
REMARK INTRA:                  -1.253
REMARK UNBOUND:                -1.253
REMARK SMILES CCCCCCCCCCCCCCCCCC(=O)[O-]
REMARK SMILES IDX 10 1 11 2 12 3 13 4 14 5 15 6 16 7 17 8 18 9 19 10 20 11
REMARK SMILES IDX 9 12 8 13 7 14 6 15 5 16 4 17 3 18 2 19 1 20
REMARK H PARENT
REMARK Flexibility Score: inf
ROOT
ATOM      1  C   UNL     1      -9.978  -8.908  -7.011  1.00  0.00     0.000 C 
ENDROOT
BRANCH   1   2
ATOM      2  C   UNL     1      -8.545  -9.168  -6.532  1.00  0.00     0.000 C 
BRANCH   2   3
ATOM      3  C   UNL     1      -8.217 -10.668  -6.573  1.00  0.00     0.000 C 
BRANCH   3   4
ATOM      4  C   UNL     1      -7.288 -11.040  -7.741  1.00  0.00     0.000 C 
BRANCH   4   5
ATOM      5  C   UNL     1      -5.801 -10.866  -7.390  1.00  0.00     0.000 C 
BRANCH   5   6
ATOM      6  C   UNL     1      -4.992 -10.243  -8.538  1.00  0.00     0.000 C 
BRANCH   6   7
ATOM      7  C   UNL     1      -4.751  -8.735  -8.345  1.00  0.00     0.006 C 
BRANCH   7   8
ATOM      8  C   UNL     1      -4.935  -8.301  -6.886  1.00  0.00     0.053 C 
BRANCH   8   9
ATOM      9  C   UNL     1      -3.738  -7.564  -6.369  1.00  0.00     0.041 C 
ATOM     10  O   UNL     1      -2.873  -8.164  -5.680  1.00  0.00    -0.550 OA
ATOM     11  O   UNL     1      -3.595  -6.204  -6.621  1.00  0.00    -0.550 OA
ENDBRANCH   8   9
ENDBRANCH   7   8
ENDBRANCH   6   7
ENDBRANCH   5   6
ENDBRANCH   4   5
ENDBRANCH   3   4
ENDBRANCH   2   3
ENDBRANCH   1   2
BRANCH   1  12
ATOM     12  C   UNL     1     -10.957  -9.921  -6.402  1.00  0.00     0.000 C 
BRANCH  12  13
ATOM     13  C   UNL     1     -12.369  -9.334  -6.310  1.00  0.00    -0.000 C 
BRANCH  13  14
ATOM     14  C   UNL     1     -12.421  -7.923  -6.915  1.00  0.00    -0.000 C 
BRANCH  14  15
ATOM     15  C   UNL     1     -13.722  -7.181  -6.568  1.00  0.00    -0.000 C 
BRANCH  15  16
ATOM     16  C   UNL     1     -14.764  -7.261  -7.696  1.00  0.00    -0.000 C 
BRANCH  16  17
ATOM     17  C   UNL     1     -16.159  -7.662  -7.187  1.00  0.00    -0.000 C 
BRANCH  17  18
ATOM     18  C   UNL     1     -16.181  -8.902  -6.273  1.00  0.00    -0.000 C 
BRANCH  18  19
ATOM     19  C   UNL     1     -16.980 -10.089  -6.852  1.00  0.00    -0.003 C 
ATOM     20  C   UNL     1     -17.276  -9.924  -8.343  1.00  0.00     0.004 C 
ENDBRANCH  18  19
ENDBRANCH  17  18
ENDBRANCH  16  17
ENDBRANCH  15  16
ENDBRANCH  14  15
ENDBRANCH  13  14
ENDBRANCH  12  13
ENDBRANCH   1  12
TORSDOF 16
ENDMDL
MODEL 2
REMARK VINA RESULT:    -3.897      4.278      9.794
REMARK INTER + INTRA:          -8.795
REMARK INTER:                  -7.061
REMARK INTRA:                  -1.734
REMARK UNBOUND:                -1.253
REMARK SMILES CCCCCCCCCCCCCCCCCC(=O)[O-]
REMARK SMILES IDX 10 1 11 2 12 3 13 4 14 5 15 6 16 7 17 8 18 9 19 10 20 11
REMARK SMILES IDX 9 12 8 13 7 14 6 15 5 16 4 17 3 18 2 19 1 20
REMARK H PARENT
REMARK Flexibility Score: inf
ROOT
ATOM      1  C   UNL     1      -6.888  -8.621  -6.548  1.00  0.00     0.000 C 
ENDROOT
BRANCH   1   2
ATOM      2  C   UNL     1      -8.165  -7.797  -6.341  1.00  0.00     0.000 C 
BRANCH   2   3
ATOM      3  C   UNL     1      -9.416  -8.657  -6.573  1.00  0.00     0.000 C 
BRANCH   3   4
ATOM      4  C   UNL     1     -10.481  -8.463  -5.479  1.00  0.00     0.000 C 
BRANCH   4   5
ATOM      5  C   UNL     1     -11.896  -8.820  -5.965  1.00  0.00     0.000 C 
BRANCH   5   6
ATOM      6  C   UNL     1     -12.271  -8.101  -7.270  1.00  0.00     0.000 C 
BRANCH   6   7
ATOM      7  C   UNL     1     -13.397  -7.068  -7.076  1.00  0.00     0.006 C 
BRANCH   7   8
ATOM      8  C   UNL     1     -14.592  -7.651  -6.312  1.00  0.00     0.053 C 
BRANCH   8   9
ATOM      9  C   UNL     1     -15.804  -7.772  -7.184  1.00  0.00     0.041 C 
ATOM     10  O   UNL     1     -16.772  -8.493  -6.827  1.00  0.00    -0.550 OA
ATOM     11  O   UNL     1     -15.850  -7.115  -8.408  1.00  0.00    -0.550 OA
ENDBRANCH   8   9
ENDBRANCH   7   8
ENDBRANCH   6   7
ENDBRANCH   5   6
ENDBRANCH   4   5
ENDBRANCH   3   4
ENDBRANCH   2   3
ENDBRANCH   1   2
BRANCH   1  12
ATOM     12  C   UNL     1      -7.213 -10.111  -6.711  1.00  0.00     0.000 C 
BRANCH  12  13
ATOM     13  C   UNL     1      -6.280 -10.769  -7.733  1.00  0.00    -0.000 C 
BRANCH  13  14
ATOM     14  C   UNL     1      -5.299  -9.745  -8.322  1.00  0.00    -0.000 C 
BRANCH  14  15
ATOM     15  C   UNL     1      -3.876 -10.309  -8.465  1.00  0.00    -0.000 C 
BRANCH  15  16
ATOM     16  C   UNL     1      -3.364 -10.951  -7.163  1.00  0.00    -0.000 C 
BRANCH  16  17
ATOM     17  C   UNL     1      -2.649  -9.943  -6.247  1.00  0.00    -0.000 C 
BRANCH  17  18
ATOM     18  C   UNL     1      -3.542  -9.310  -5.162  1.00  0.00    -0.000 C 
BRANCH  18  19
ATOM     19  C   UNL     1      -3.370  -7.783  -5.027  1.00  0.00    -0.003 C 
ATOM     20  C   UNL     1      -3.610  -7.047  -6.345  1.00  0.00     0.004 C 
ENDBRANCH  18  19
ENDBRANCH  17  18
ENDBRANCH  16  17
ENDBRANCH  15  16
ENDBRANCH  14  15
ENDBRANCH  13  14
ENDBRANCH  12  13
ENDBRANCH   1  12
TORSDOF 16
ENDMDL
MODEL 3
REMARK VINA RESULT:    -3.624      1.672      3.180
REMARK INTER + INTRA:          -8.267
REMARK INTER:                  -6.877
REMARK INTRA:                  -1.389
REMARK UNBOUND:                -1.253
REMARK SMILES CCCCCCCCCCCCCCCCCC(=O)[O-]
REMARK SMILES IDX 10 1 11 2 12 3 13 4 14 5 15 6 16 7 17 8 18 9 19 10 20 11
REMARK SMILES IDX 9 12 8 13 7 14 6 15 5 16 4 17 3 18 2 19 1 20
REMARK H PARENT
REMARK Flexibility Score: inf
ROOT
ATOM      1  C   UNL     1     -11.552  -9.656  -6.572  1.00  0.00     0.000 C 
ENDROOT
BRANCH   1   2
ATOM      2  C   UNL     1     -11.093  -8.195  -6.484  1.00  0.00     0.000 C 
BRANCH   2   3
ATOM      3  C   UNL     1      -9.885  -8.055  -5.546  1.00  0.00     0.000 C 
BRANCH   3   4
ATOM      4  C   UNL     1      -8.634  -7.521  -6.264  1.00  0.00     0.000 C 
BRANCH   4   5
ATOM      5  C   UNL     1      -7.460  -8.513  -6.218  1.00  0.00     0.000 C 
BRANCH   5   6
ATOM      6  C   UNL     1      -7.881  -9.943  -6.591  1.00  0.00     0.000 C 
BRANCH   6   7
ATOM      7  C   UNL     1      -6.926 -10.597  -7.607  1.00  0.00     0.006 C 
BRANCH   7   8
ATOM      8  C   UNL     1      -5.457 -10.264  -7.318  1.00  0.00     0.053 C 
BRANCH   8   9
ATOM      9  C   UNL     1      -4.786  -9.637  -8.502  1.00  0.00     0.041 C 
ATOM     10  O   UNL     1      -4.291 -10.361  -9.406  1.00  0.00    -0.550 OA
ATOM     11  O   UNL     1      -4.676  -8.255  -8.590  1.00  0.00    -0.550 OA
ENDBRANCH   8   9
ENDBRANCH   7   8
ENDBRANCH   6   7
ENDBRANCH   5   6
ENDBRANCH   4   5
ENDBRANCH   3   4
ENDBRANCH   2   3
ENDBRANCH   1   2
BRANCH   1  12
ATOM     12  C   UNL     1     -12.649  -9.952  -5.542  1.00  0.00     0.000 C 
BRANCH  12  13
ATOM     13  C   UNL     1     -13.744 -10.840  -6.144  1.00  0.00    -0.000 C 
BRANCH  13  14
ATOM     14  C   UNL     1     -15.106 -10.549  -5.497  1.00  0.00    -0.000 C 
BRANCH  14  15
ATOM     15  C   UNL     1     -16.284 -10.996  -6.379  1.00  0.00    -0.000 C 
BRANCH  15  16
ATOM     16  C   UNL     1     -17.071  -9.807  -6.957  1.00  0.00    -0.000 C 
BRANCH  16  17
ATOM     17  C   UNL     1     -17.137  -8.614  -5.989  1.00  0.00    -0.000 C 
BRANCH  17  18
ATOM     18  C   UNL     1     -16.155  -7.470  -6.307  1.00  0.00    -0.000 C 
BRANCH  18  19
ATOM     19  C   UNL     1     -15.717  -7.417  -7.786  1.00  0.00    -0.003 C 
ATOM     20  C   UNL     1     -14.227  -7.114  -7.946  1.00  0.00     0.004 C 
ENDBRANCH  18  19
ENDBRANCH  17  18
ENDBRANCH  16  17
ENDBRANCH  15  16
ENDBRANCH  14  15
ENDBRANCH  13  14
ENDBRANCH  12  13
ENDBRANCH   1  12
TORSDOF 16
ENDMDL
MODEL 4
REMARK VINA RESULT:    -3.580      1.882      2.556
REMARK INTER + INTRA:          -8.181
REMARK INTER:                  -6.823
REMARK INTRA:                  -1.358
REMARK UNBOUND:                -1.253
REMARK SMILES CCCCCCCCCCCCCCCCCC(=O)[O-]
REMARK SMILES IDX 10 1 11 2 12 3 13 4 14 5 15 6 16 7 17 8 18 9 19 10 20 11
REMARK SMILES IDX 9 12 8 13 7 14 6 15 5 16 4 17 3 18 2 19 1 20
REMARK H PARENT
REMARK Flexibility Score: inf
ROOT
ATOM      1  C   UNL     1     -10.132  -8.512  -7.147  1.00  0.00     0.000 C 
ENDROOT
BRANCH   1   2
ATOM      2  C   UNL     1      -9.654  -9.897  -6.694  1.00  0.00     0.000 C 
BRANCH   2   3
ATOM      3  C   UNL     1      -8.263  -9.813  -6.048  1.00  0.00     0.000 C 
BRANCH   3   4
ATOM      4  C   UNL     1      -7.740  -8.370  -5.953  1.00  0.00     0.000 C 
BRANCH   4   5
ATOM      5  C   UNL     1      -6.463  -8.262  -5.101  1.00  0.00     0.000 C 
BRANCH   5   6
ATOM      6  C   UNL     1      -5.302  -7.600  -5.859  1.00  0.00     0.000 C 
BRANCH   6   7
ATOM      7  C   UNL     1      -4.400  -8.623  -6.573  1.00  0.00     0.006 C 
BRANCH   7   8
ATOM      8  C   UNL     1      -4.641  -8.652  -8.087  1.00  0.00     0.053 C 
BRANCH   8   9
ATOM      9  C   UNL     1      -4.822 -10.049  -8.595  1.00  0.00     0.041 C 
ATOM     10  O   UNL     1      -5.639 -10.826  -8.035  1.00  0.00    -0.550 OA
ATOM     11  O   UNL     1      -4.063 -10.505  -9.667  1.00  0.00    -0.550 OA
ENDBRANCH   8   9
ENDBRANCH   7   8
ENDBRANCH   6   7
ENDBRANCH   5   6
ENDBRANCH   4   5
ENDBRANCH   3   4
ENDBRANCH   2   3
ENDBRANCH   1   2
BRANCH   1  12
ATOM     12  C   UNL     1     -11.507  -8.181  -6.553  1.00  0.00     0.000 C 
BRANCH  12  13
ATOM     13  C   UNL     1     -12.131  -9.412  -5.889  1.00  0.00    -0.000 C 
BRANCH  13  14
ATOM     14  C   UNL     1     -13.623  -9.186  -5.600  1.00  0.00    -0.000 C 
BRANCH  14  15
ATOM     15  C   UNL     1     -14.073  -7.752  -5.922  1.00  0.00    -0.000 C 
BRANCH  15  16
ATOM     16  C   UNL     1     -15.346  -7.349  -5.157  1.00  0.00    -0.000 C 
BRANCH  16  17
ATOM     17  C   UNL     1     -16.615  -7.456  -6.019  1.00  0.00    -0.000 C 
BRANCH  17  18
ATOM     18  C   UNL     1     -16.373  -7.911  -7.471  1.00  0.00    -0.000 C 
BRANCH  18  19
ATOM     19  C   UNL     1     -16.989  -9.285  -7.804  1.00  0.00    -0.003 C 
ATOM     20  C   UNL     1     -17.131 -10.178  -6.571  1.00  0.00     0.004 C 
ENDBRANCH  18  19
ENDBRANCH  17  18
ENDBRANCH  16  17
ENDBRANCH  15  16
ENDBRANCH  14  15
ENDBRANCH  13  14
ENDBRANCH  12  13
ENDBRANCH   1  12
TORSDOF 16
ENDMDL
MODEL 5
REMARK VINA RESULT:    -3.555      3.966      9.409
REMARK INTER + INTRA:          -8.134
REMARK INTER:                  -6.683
REMARK INTRA:                  -1.451
REMARK UNBOUND:                -1.253
REMARK SMILES CCCCCCCCCCCCCCCCCC(=O)[O-]
REMARK SMILES IDX 10 1 11 2 12 3 13 4 14 5 15 6 16 7 17 8 18 9 19 10 20 11
REMARK SMILES IDX 9 12 8 13 7 14 6 15 5 16 4 17 3 18 2 19 1 20
REMARK H PARENT
REMARK Flexibility Score: inf
ROOT
ATOM      1  C   UNL     1     -11.740  -7.935  -5.899  1.00  0.00     0.000 C 
ENDROOT
BRANCH   1   2
ATOM      2  C   UNL     1     -12.569  -9.000  -5.170  1.00  0.00     0.000 C 
BRANCH   2   3
ATOM      3  C   UNL     1     -12.398 -10.375  -5.832  1.00  0.00     0.000 C 
BRANCH   3   4
ATOM      4  C   UNL     1     -13.740 -11.007  -6.239  1.00  0.00     0.000 C 
BRANCH   4   5
ATOM      5  C   UNL     1     -14.922 -10.459  -5.422  1.00  0.00     0.000 C 
BRANCH   5   6
ATOM      6  C   UNL     1     -16.161 -10.184  -6.287  1.00  0.00     0.000 C 
BRANCH   6   7
ATOM      7  C   UNL     1     -16.807  -8.820  -5.984  1.00  0.00     0.006 C 
BRANCH   7   8
ATOM      8  C   UNL     1     -15.805  -7.665  -6.106  1.00  0.00     0.053 C 
BRANCH   8   9
ATOM      9  C   UNL     1     -15.422  -7.410  -7.532  1.00  0.00     0.041 C 
ATOM     10  O   UNL     1     -14.237  -7.101  -7.824  1.00  0.00    -0.550 OA
ATOM     11  O   UNL     1     -16.382  -7.480  -8.535  1.00  0.00    -0.550 OA
ENDBRANCH   8   9
ENDBRANCH   7   8
ENDBRANCH   6   7
ENDBRANCH   5   6
ENDBRANCH   4   5
ENDBRANCH   3   4
ENDBRANCH   2   3
ENDBRANCH   1   2
BRANCH   1  12
ATOM     12  C   UNL     1     -10.955  -8.548  -7.065  1.00  0.00     0.000 C 
BRANCH  12  13
ATOM     13  C   UNL     1      -9.454  -8.585  -6.760  1.00  0.00    -0.000 C 
BRANCH  13  14
ATOM     14  C   UNL     1      -8.911 -10.020  -6.839  1.00  0.00    -0.000 C 
BRANCH  14  15
ATOM     15  C   UNL     1      -7.379 -10.076  -6.716  1.00  0.00    -0.000 C 
BRANCH  15  16
ATOM     16  C   UNL     1      -6.731  -8.683  -6.795  1.00  0.00    -0.000 C 
BRANCH  16  17
ATOM     17  C   UNL     1      -5.226  -8.747  -7.106  1.00  0.00    -0.000 C 
BRANCH  17  18
ATOM     18  C   UNL     1      -4.581 -10.130  -6.896  1.00  0.00    -0.000 C 
BRANCH  18  19
ATOM     19  C   UNL     1      -3.574 -10.522  -7.997  1.00  0.00    -0.003 C 
ATOM     20  C   UNL     1      -4.141 -10.332  -9.404  1.00  0.00     0.004 C 
ENDBRANCH  18  19
ENDBRANCH  17  18
ENDBRANCH  16  17
ENDBRANCH  15  16
ENDBRANCH  14  15
ENDBRANCH  13  14
ENDBRANCH  12  13
ENDBRANCH   1  12
TORSDOF 16
ENDMDL
MODEL 6
REMARK VINA RESULT:    -3.541      4.508      9.941
REMARK INTER + INTRA:          -8.105
REMARK INTER:                  -6.766
REMARK INTRA:                  -1.339
REMARK UNBOUND:                -1.253
REMARK SMILES CCCCCCCCCCCCCCCCCC(=O)[O-]
REMARK SMILES IDX 10 1 11 2 12 3 13 4 14 5 15 6 16 7 17 8 18 9 19 10 20 11
REMARK SMILES IDX 9 12 8 13 7 14 6 15 5 16 4 17 3 18 2 19 1 20
REMARK H PARENT
REMARK Flexibility Score: inf
ROOT
ATOM      1  C   UNL     1      -9.188  -8.041  -6.146  1.00  0.00     0.000 C 
ENDROOT
BRANCH   1   2
ATOM      2  C   UNL     1     -10.256  -8.496  -7.148  1.00  0.00     0.000 C 
BRANCH   2   3
ATOM      3  C   UNL     1     -11.589  -8.778  -6.439  1.00  0.00     0.000 C 
BRANCH   3   4
ATOM      4  C   UNL     1     -11.976  -7.673  -5.442  1.00  0.00     0.000 C 
BRANCH   4   5
ATOM      5  C   UNL     1     -13.341  -7.041  -5.764  1.00  0.00     0.000 C 
BRANCH   5   6
ATOM      6  C   UNL     1     -14.098  -7.802  -6.863  1.00  0.00     0.000 C 
BRANCH   6   7
ATOM      7  C   UNL     1     -15.505  -7.231  -7.119  1.00  0.00     0.006 C 
BRANCH   7   8
ATOM      8  C   UNL     1     -16.563  -7.870  -6.211  1.00  0.00     0.053 C 
BRANCH   8   9
ATOM      9  C   UNL     1     -16.844  -9.290  -6.598  1.00  0.00     0.041 C 
ATOM     10  O   UNL     1     -16.786 -10.205  -5.736  1.00  0.00    -0.550 OA
ATOM     11  O   UNL     1     -17.135  -9.607  -7.920  1.00  0.00    -0.550 OA
ENDBRANCH   8   9
ENDBRANCH   7   8
ENDBRANCH   6   7
ENDBRANCH   5   6
ENDBRANCH   4   5
ENDBRANCH   3   4
ENDBRANCH   2   3
ENDBRANCH   1   2
BRANCH   1  12
ATOM     12  C   UNL     1      -7.864  -8.779  -6.377  1.00  0.00     0.000 C 
BRANCH  12  13
ATOM     13  C   UNL     1      -8.037 -10.291  -6.196  1.00  0.00    -0.000 C 
BRANCH  13  14
ATOM     14  C   UNL     1      -7.465 -11.058  -7.397  1.00  0.00    -0.000 C 
BRANCH  14  15
ATOM     15  C   UNL     1      -6.121 -10.484  -7.876  1.00  0.00    -0.000 C 
BRANCH  15  16
ATOM     16  C   UNL     1      -4.924 -11.068  -7.107  1.00  0.00    -0.000 C 
BRANCH  16  17
ATOM     17  C   UNL     1      -4.008  -9.980  -6.522  1.00  0.00    -0.000 C 
BRANCH  17  18
ATOM     18  C   UNL     1      -4.306  -8.551  -7.014  1.00  0.00    -0.000 C 
BRANCH  18  19
ATOM     19  C   UNL     1      -4.064  -7.462  -5.949  1.00  0.00    -0.003 C 
ATOM     20  C   UNL     1      -3.396  -6.214  -6.527  1.00  0.00     0.004 C 
ENDBRANCH  18  19
ENDBRANCH  17  18
ENDBRANCH  16  17
ENDBRANCH  15  16
ENDBRANCH  14  15
ENDBRANCH  13  14
ENDBRANCH  12  13
ENDBRANCH   1  12
TORSDOF 16
ENDMDL
MODEL 7
REMARK VINA RESULT:    -3.107      1.450      2.075
REMARK INTER + INTRA:          -7.265
REMARK INTER:                  -6.013
REMARK INTRA:                  -1.252
REMARK UNBOUND:                -1.253
REMARK SMILES CCCCCCCCCCCCCCCCCC(=O)[O-]
REMARK SMILES IDX 10 1 11 2 12 3 13 4 14 5 15 6 16 7 17 8 18 9 19 10 20 11
REMARK SMILES IDX 9 12 8 13 7 14 6 15 5 16 4 17 3 18 2 19 1 20
REMARK H PARENT
REMARK Flexibility Score: inf
ROOT
ATOM      1  C   UNL     1     -10.188  -9.728  -6.041  1.00  0.00     0.000 C 
ENDROOT
BRANCH   1   2
ATOM      2  C   UNL     1      -9.865  -8.457  -5.247  1.00  0.00     0.000 C 
BRANCH   2   3
ATOM      3  C   UNL     1      -8.376  -8.101  -5.363  1.00  0.00     0.000 C 
BRANCH   3   4
ATOM      4  C   UNL     1      -7.614  -9.040  -6.314  1.00  0.00     0.000 C 
BRANCH   4   5
ATOM      5  C   UNL     1      -6.088  -8.873  -6.209  1.00  0.00     0.000 C 
BRANCH   5   6
ATOM      6  C   UNL     1      -5.383  -9.031  -7.564  1.00  0.00     0.000 C 
BRANCH   6   7
ATOM      7  C   UNL     1      -4.043  -9.781  -7.453  1.00  0.00     0.006 C 
BRANCH   7   8
ATOM      8  C   UNL     1      -3.553  -9.879  -6.002  1.00  0.00     0.053 C 
BRANCH   8   9
ATOM      9  C   UNL     1      -2.437  -8.919  -5.726  1.00  0.00     0.041 C 
ATOM     10  O   UNL     1      -2.680  -7.695  -5.564  1.00  0.00    -0.550 OA
ATOM     11  O   UNL     1      -1.124  -9.372  -5.681  1.00  0.00    -0.550 OA
ENDBRANCH   8   9
ENDBRANCH   7   8
ENDBRANCH   6   7
ENDBRANCH   5   6
ENDBRANCH   4   5
ENDBRANCH   3   4
ENDBRANCH   2   3
ENDBRANCH   1   2
BRANCH   1  12
ATOM     12  C   UNL     1     -11.498  -9.573  -6.823  1.00  0.00     0.000 C 
BRANCH  12  13
ATOM     13  C   UNL     1     -11.681  -8.132  -7.311  1.00  0.00    -0.000 C 
BRANCH  13  14
ATOM     14  C   UNL     1     -13.084  -7.609  -6.971  1.00  0.00    -0.000 C 
BRANCH  14  15
ATOM     15  C   UNL     1     -13.251  -7.303  -5.474  1.00  0.00    -0.000 C 
BRANCH  15  16
ATOM     16  C   UNL     1     -14.507  -7.960  -4.875  1.00  0.00    -0.000 C 
BRANCH  16  17
ATOM     17  C   UNL     1     -15.804  -7.250  -5.295  1.00  0.00    -0.000 C 
BRANCH  17  18
ATOM     18  C   UNL     1     -16.880  -8.173  -5.899  1.00  0.00    -0.000 C 
BRANCH  18  19
ATOM     19  C   UNL     1     -16.618  -8.555  -7.370  1.00  0.00    -0.003 C 
ATOM     20  C   UNL     1     -16.259  -7.346  -8.235  1.00  0.00     0.004 C 
ENDBRANCH  18  19
ENDBRANCH  17  18
ENDBRANCH  16  17
ENDBRANCH  15  16
ENDBRANCH  14  15
ENDBRANCH  13  14
ENDBRANCH  12  13
ENDBRANCH   1  12
TORSDOF 16
ENDMDL
MODEL 8
REMARK VINA RESULT:    -2.509      1.365      2.629
REMARK INTER + INTRA:          -6.108
REMARK INTER:                  -5.018
REMARK INTRA:                  -1.090
REMARK UNBOUND:                -1.253
REMARK SMILES CCCCCCCCCCCCCCCCCC(=O)[O-]
REMARK SMILES IDX 10 1 11 2 12 3 13 4 14 5 15 6 16 7 17 8 18 9 19 10 20 11
REMARK SMILES IDX 9 12 8 13 7 14 6 15 5 16 4 17 3 18 2 19 1 20
REMARK H PARENT
REMARK Flexibility Score: inf
ROOT
ATOM      1  C   UNL     1     -11.733  -8.449  -7.094  1.00  0.00     0.000 C 
ENDROOT
BRANCH   1   2
ATOM      2  C   UNL     1     -11.687  -9.753  -6.287  1.00  0.00     0.000 C 
BRANCH   2   3
ATOM      3  C   UNL     1     -10.237 -10.149  -5.969  1.00  0.00     0.000 C 
BRANCH   3   4
ATOM      4  C   UNL     1      -9.234  -9.608  -7.002  1.00  0.00     0.000 C 
BRANCH   4   5
ATOM      5  C   UNL     1      -7.884 -10.344  -6.953  1.00  0.00     0.000 C 
BRANCH   5   6
ATOM      6  C   UNL     1      -7.269 -10.355  -5.546  1.00  0.00     0.000 C 
BRANCH   6   7
ATOM      7  C   UNL     1      -6.045  -9.429  -5.425  1.00  0.00     0.006 C 
BRANCH   7   8
ATOM      8  C   UNL     1      -5.294  -9.286  -6.755  1.00  0.00     0.053 C 
BRANCH   8   9
ATOM      9  C   UNL     1      -3.982  -8.585  -6.580  1.00  0.00     0.041 C 
ATOM     10  O   UNL     1      -2.979  -9.215  -6.152  1.00  0.00    -0.550 OA
ATOM     11  O   UNL     1      -3.875  -7.227  -6.856  1.00  0.00    -0.550 OA
ENDBRANCH   8   9
ENDBRANCH   7   8
ENDBRANCH   6   7
ENDBRANCH   5   6
ENDBRANCH   4   5
ENDBRANCH   3   4
ENDBRANCH   2   3
ENDBRANCH   1   2
BRANCH   1  12
ATOM     12  C   UNL     1     -12.791  -7.490  -6.533  1.00  0.00     0.000 C 
BRANCH  12  13
ATOM     13  C   UNL     1     -13.147  -7.849  -5.086  1.00  0.00    -0.000 C 
BRANCH  13  14
ATOM     14  C   UNL     1     -14.663  -8.032  -4.922  1.00  0.00    -0.000 C 
BRANCH  14  15
ATOM     15  C   UNL     1     -15.075  -9.513  -4.876  1.00  0.00    -0.000 C 
BRANCH  15  16
ATOM     16  C   UNL     1     -15.802  -9.961  -6.156  1.00  0.00    -0.000 C 
BRANCH  16  17
ATOM     17  C   UNL     1     -16.755  -8.885  -6.703  1.00  0.00    -0.000 C 
BRANCH  17  18
ATOM     18  C   UNL     1     -16.113  -7.900  -7.699  1.00  0.00    -0.000 C 
BRANCH  18  19
ATOM     19  C   UNL     1     -16.710  -6.478  -7.640  1.00  0.00    -0.003 C 
ATOM     20  C   UNL     1     -16.981  -5.899  -9.029  1.00  0.00     0.004 C 
ENDBRANCH  18  19
ENDBRANCH  17  18
ENDBRANCH  16  17
ENDBRANCH  15  16
ENDBRANCH  14  15
ENDBRANCH  13  14
ENDBRANCH  12  13
ENDBRANCH   1  12
TORSDOF 16
ENDMDL
MODEL 9
REMARK VINA RESULT:    -2.166      4.872      9.891
REMARK INTER + INTRA:          -5.445
REMARK INTER:                  -4.807
REMARK INTRA:                  -0.638
REMARK UNBOUND:                -1.253
REMARK SMILES CCCCCCCCCCCCCCCCCC(=O)[O-]
REMARK SMILES IDX 10 1 11 2 12 3 13 4 14 5 15 6 16 7 17 8 18 9 19 10 20 11
REMARK SMILES IDX 9 12 8 13 7 14 6 15 5 16 4 17 3 18 2 19 1 20
REMARK H PARENT
REMARK Flexibility Score: inf
ROOT
ATOM      1  C   UNL     1     -14.958  -6.895  -8.471  1.00  0.00     0.000 C 
ENDROOT
BRANCH   1   2
ATOM      2  C   UNL     1     -16.022  -7.711  -7.725  1.00  0.00     0.000 C 
BRANCH   2   3
ATOM      3  C   UNL     1     -16.344  -9.010  -8.478  1.00  0.00     0.000 C 
BRANCH   3   4
ATOM      4  C   UNL     1     -17.381  -9.879  -7.746  1.00  0.00     0.000 C 
BRANCH   4   5
ATOM      5  C   UNL     1     -16.736 -11.044  -6.976  1.00  0.00     0.000 C 
BRANCH   5   6
ATOM      6  C   UNL     1     -16.831 -10.868  -5.452  1.00  0.00     0.000 C 
BRANCH   6   7
ATOM      7  C   UNL     1     -16.813  -9.390  -5.023  1.00  0.00     0.006 C 
BRANCH   7   8
ATOM      8  C   UNL     1     -18.226  -8.812  -4.875  1.00  0.00     0.053 C 
BRANCH   8   9
ATOM      9  C   UNL     1     -18.218  -7.314  -4.889  1.00  0.00     0.041 C 
ATOM     10  O   UNL     1     -17.127  -6.686  -4.881  1.00  0.00    -0.550 OA
ATOM     11  O   UNL     1     -19.417  -6.611  -4.876  1.00  0.00    -0.550 OA
ENDBRANCH   8   9
ENDBRANCH   7   8
ENDBRANCH   6   7
ENDBRANCH   5   6
ENDBRANCH   4   5
ENDBRANCH   3   4
ENDBRANCH   2   3
ENDBRANCH   1   2
BRANCH   1  12
ATOM     12  C   UNL     1     -13.546  -7.275  -8.007  1.00  0.00     0.000 C 
BRANCH  12  13
ATOM     13  C   UNL     1     -13.517  -7.548  -6.500  1.00  0.00    -0.000 C 
BRANCH  13  14
ATOM     14  C   UNL     1     -12.978  -8.956  -6.206  1.00  0.00    -0.000 C 
BRANCH  14  15
ATOM     15  C   UNL     1     -11.518  -8.938  -5.725  1.00  0.00    -0.000 C 
BRANCH  15  16
ATOM     16  C   UNL     1     -10.524  -8.679  -6.871  1.00  0.00    -0.000 C 
BRANCH  16  17
ATOM     17  C   UNL     1      -9.170  -9.374  -6.650  1.00  0.00    -0.000 C 
BRANCH  17  18
ATOM     18  C   UNL     1      -8.000  -8.423  -6.333  1.00  0.00    -0.000 C 
BRANCH  18  19
ATOM     19  C   UNL     1      -6.659  -9.146  -6.087  1.00  0.00    -0.003 C 
ATOM     20  C   UNL     1      -5.842  -9.317  -7.367  1.00  0.00     0.004 C 
ENDBRANCH  18  19
ENDBRANCH  17  18
ENDBRANCH  16  17
ENDBRANCH  15  16
ENDBRANCH  14  15
ENDBRANCH  13  14
ENDBRANCH  12  13
ENDBRANCH   1  12
TORSDOF 16
ENDMDL
