MODEL 1
REMARK VINA RESULT:    -6.457      0.000      0.000
REMARK INTER + INTRA:         -11.875
REMARK INTER:                 -11.365
REMARK INTRA:                  -0.510
REMARK UNBOUND:                -0.510
REMARK SMILES CCCCCCC=CCCCCCCCC(=O)[O-]
REMARK SMILES IDX 10 1 11 2 12 3 13 4 14 5 15 6 16 7 17 8 18 9 9 10 8 11 7 12
REMARK SMILES IDX 6 13 5 14 4 15 3 16 2 17 1 18
REMARK H PARENT
REMARK Flexibility Score: inf
ROOT
ATOM      1  C   UNL     1      16.170 120.556  16.200  1.00  0.00     0.004 C 
ENDROOT
BRANCH   1   2
ATOM      2  C   UNL     1      17.393 121.298  16.752  1.00  0.00     0.000 C 
BRANCH   2   3
ATOM      3  C   UNL     1      17.785 122.467  15.842  1.00  0.00     0.000 C 
BRANCH   3   4
ATOM      4  C   UNL     1      18.158 123.707  16.669  1.00  0.00     0.000 C 
BRANCH   4   5
ATOM      5  C   UNL     1      18.032 125.017  15.871  1.00  0.00     0.006 C 
BRANCH   5   6
ATOM      6  C   UNL     1      18.045 126.288  16.736  1.00  0.00     0.053 C 
BRANCH   6   7
ATOM      7  C   UNL     1      19.270 127.115  16.497  1.00  0.00     0.041 C 
ATOM      8  O   UNL     1      20.213 126.663  15.794  1.00  0.00    -0.550 OA
ATOM      9  O   UNL     1      19.359 128.397  17.024  1.00  0.00    -0.550 OA
ENDBRANCH   6   7
ENDBRANCH   5   6
ENDBRANCH   4   5
ENDBRANCH   3   4
ENDBRANCH   2   3
ENDBRANCH   1   2
BRANCH   1  10
ATOM     10  C   UNL     1      15.842 119.325  17.055  1.00  0.00     0.027 C 
BRANCH  10  11
ATOM     11  C   UNL     1      14.439 119.401  17.598  1.00  0.00    -0.031 C 
ATOM     12  C   UNL     1      13.401 118.669  17.154  1.00  0.00    -0.031 C 
BRANCH  12  13
ATOM     13  C   UNL     1      13.480 117.617  16.072  1.00  0.00     0.027 C 
BRANCH  13  14
ATOM     14  C   UNL     1      12.359 116.580  16.215  1.00  0.00     0.004 C 
BRANCH  14  15
ATOM     15  C   UNL     1      11.946 115.983  14.858  1.00  0.00     0.000 C 
BRANCH  15  16
ATOM     16  C   UNL     1      11.438 114.534  14.970  1.00  0.00    -0.000 C 
BRANCH  16  17
ATOM     17  C   UNL     1      11.276 114.014  16.409  1.00  0.00    -0.003 C 
ATOM     18  C   UNL     1      11.718 112.561  16.573  1.00  0.00     0.004 C 
ENDBRANCH  16  17
ENDBRANCH  15  16
ENDBRANCH  14  15
ENDBRANCH  13  14
ENDBRANCH  12  13
ENDBRANCH  10  11
ENDBRANCH   1  10
TORSDOF 13
ENDMDL
MODEL 2
REMARK VINA RESULT:    -6.410      4.390      9.782
REMARK INTER + INTRA:         -11.792
REMARK INTER:                 -11.171
REMARK INTRA:                  -0.621
REMARK UNBOUND:                -0.510
REMARK SMILES CCCCCCC=CCCCCCCCC(=O)[O-]
REMARK SMILES IDX 10 1 11 2 12 3 13 4 14 5 15 6 16 7 17 8 18 9 9 10 8 11 7 12
REMARK SMILES IDX 6 13 5 14 4 15 3 16 2 17 1 18
REMARK H PARENT
REMARK Flexibility Score: inf
ROOT
ATOM      1  C   UNL     1      15.760 119.282  16.861  1.00  0.00     0.004 C 
ENDROOT
BRANCH   1   2
ATOM      2  C   UNL     1      14.298 119.704  17.053  1.00  0.00     0.000 C 
BRANCH   2   3
ATOM      3  C   UNL     1      13.497 118.609  17.765  1.00  0.00     0.000 C 
BRANCH   3   4
ATOM      4  C   UNL     1      13.196 119.005  19.219  1.00  0.00     0.000 C 
BRANCH   4   5
ATOM      5  C   UNL     1      14.456 119.035  20.103  1.00  0.00     0.006 C 
BRANCH   5   6
ATOM      6  C   UNL     1      14.177 118.884  21.607  1.00  0.00     0.053 C 
BRANCH   6   7
ATOM      7  C   UNL     1      15.404 119.124  22.430  1.00  0.00     0.041 C 
ATOM      8  O   UNL     1      16.485 119.460  21.876  1.00  0.00    -0.550 OA
ATOM      9  O   UNL     1      15.348 119.008  23.813  1.00  0.00    -0.550 OA
ENDBRANCH   6   7
ENDBRANCH   5   6
ENDBRANCH   4   5
ENDBRANCH   3   4
ENDBRANCH   2   3
ENDBRANCH   1   2
BRANCH   1  10
ATOM     10  C   UNL     1      16.577 120.407  16.214  1.00  0.00     0.027 C 
BRANCH  10  11
ATOM     11  C   UNL     1      17.277 121.238  17.258  1.00  0.00    -0.031 C 
ATOM     12  C   UNL     1      18.009 122.337  17.001  1.00  0.00    -0.031 C 
BRANCH  12  13
ATOM     13  C   UNL     1      18.211 122.948  15.634  1.00  0.00     0.027 C 
BRANCH  13  14
ATOM     14  C   UNL     1      18.104 124.478  15.681  1.00  0.00     0.004 C 
BRANCH  14  15
ATOM     15  C   UNL     1      19.361 125.127  16.285  1.00  0.00     0.000 C 
BRANCH  15  16
ATOM     16  C   UNL     1      19.045 126.374  17.131  1.00  0.00    -0.000 C 
BRANCH  16  17
ATOM     17  C   UNL     1      19.457 127.711  16.493  1.00  0.00    -0.003 C 
ATOM     18  C   UNL     1      20.143 127.542  15.138  1.00  0.00     0.004 C 
ENDBRANCH  16  17
ENDBRANCH  15  16
ENDBRANCH  14  15
ENDBRANCH  13  14
ENDBRANCH  12  13
ENDBRANCH  10  11
ENDBRANCH   1  10
TORSDOF 13
ENDMDL
MODEL 3
REMARK VINA RESULT:    -6.379      4.599      9.185
REMARK INTER + INTRA:         -11.736
REMARK INTER:                 -10.941
REMARK INTRA:                  -0.795
REMARK UNBOUND:                -0.510
REMARK SMILES CCCCCCC=CCCCCCCCC(=O)[O-]
REMARK SMILES IDX 10 1 11 2 12 3 13 4 14 5 15 6 16 7 17 8 18 9 9 10 8 11 7 12
REMARK SMILES IDX 6 13 5 14 4 15 3 16 2 17 1 18
REMARK H PARENT
REMARK Flexibility Score: inf
ROOT
ATOM      1  C   UNL     1      13.937 119.452  17.359  1.00  0.00     0.004 C 
ENDROOT
BRANCH   1   2
ATOM      2  C   UNL     1      13.469 118.402  18.373  1.00  0.00     0.000 C 
BRANCH   2   3
ATOM      3  C   UNL     1      13.159 119.043  19.730  1.00  0.00     0.000 C 
BRANCH   3   4
ATOM      4  C   UNL     1      14.231 118.678  20.768  1.00  0.00     0.000 C 
BRANCH   4   5
ATOM      5  C   UNL     1      14.405 119.758  21.851  1.00  0.00     0.006 C 
BRANCH   5   6
ATOM      6  C   UNL     1      15.830 119.860  22.420  1.00  0.00     0.053 C 
BRANCH   6   7
ATOM      7  C   UNL     1      15.832 120.311  23.847  1.00  0.00     0.041 C 
ATOM      8  O   UNL     1      16.905 120.680  24.395  1.00  0.00    -0.550 OA
ATOM      9  O   UNL     1      14.644 120.354  24.565  1.00  0.00    -0.550 OA
ENDBRANCH   6   7
ENDBRANCH   5   6
ENDBRANCH   4   5
ENDBRANCH   3   4
ENDBRANCH   2   3
ENDBRANCH   1   2
BRANCH   1  10
ATOM     10  C   UNL     1      15.323 119.101  16.803  1.00  0.00     0.027 C 
BRANCH  10  11
ATOM     11  C   UNL     1      16.411 119.778  17.594  1.00  0.00    -0.031 C 
ATOM     12  C   UNL     1      17.093 120.866  17.190  1.00  0.00    -0.031 C 
BRANCH  12  13
ATOM     13  C   UNL     1      16.847 121.616  15.901  1.00  0.00     0.027 C 
BRANCH  13  14
ATOM     14  C   UNL     1      17.997 122.582  15.587  1.00  0.00     0.004 C 
BRANCH  14  15
ATOM     15  C   UNL     1      18.322 123.501  16.777  1.00  0.00     0.000 C 
BRANCH  15  16
ATOM     16  C   UNL     1      17.972 124.976  16.509  1.00  0.00    -0.000 C 
BRANCH  16  17
ATOM     17  C   UNL     1      19.102 125.975  16.810  1.00  0.00    -0.003 C 
ATOM     18  C   UNL     1      18.646 127.432  16.747  1.00  0.00     0.004 C 
ENDBRANCH  16  17
ENDBRANCH  15  16
ENDBRANCH  14  15
ENDBRANCH  13  14
ENDBRANCH  12  13
ENDBRANCH  10  11
ENDBRANCH   1  10
TORSDOF 13
ENDMDL
MODEL 4
REMARK VINA RESULT:    -6.329      5.070      6.400
REMARK INTER + INTRA:         -11.649
REMARK INTER:                 -10.113
REMARK INTRA:                  -1.536
REMARK UNBOUND:                -0.510
REMARK SMILES CCCCCCC=CCCCCCCCC(=O)[O-]
REMARK SMILES IDX 10 1 11 2 12 3 13 4 14 5 15 6 16 7 17 8 18 9 9 10 8 11 7 12
REMARK SMILES IDX 6 13 5 14 4 15 3 16 2 17 1 18
REMARK H PARENT
REMARK Flexibility Score: inf
ROOT
ATOM      1  C   UNL     1      16.909 121.748  15.830  1.00  0.00     0.004 C 
ENDROOT
BRANCH   1   2
ATOM      2  C   UNL     1      17.974 122.394  16.724  1.00  0.00     0.000 C 
BRANCH   2   3
ATOM      3  C   UNL     1      17.969 123.919  16.574  1.00  0.00     0.000 C 
BRANCH   3   4
ATOM      4  C   UNL     1      19.064 124.380  15.601  1.00  0.00     0.000 C 
BRANCH   4   5
ATOM      5  C   UNL     1      19.679 125.737  15.993  1.00  0.00     0.006 C 
BRANCH   5   6
ATOM      6  C   UNL     1      18.647 126.847  16.252  1.00  0.00     0.053 C 
BRANCH   6   7
ATOM      7  C   UNL     1      18.754 127.395  17.641  1.00  0.00     0.041 C 
ATOM      8  O   UNL     1      19.256 128.534  17.837  1.00  0.00    -0.550 OA
ATOM      9  O   UNL     1      18.269 126.664  18.718  1.00  0.00    -0.550 OA
ENDBRANCH   6   7
ENDBRANCH   5   6
ENDBRANCH   4   5
ENDBRANCH   3   4
ENDBRANCH   2   3
ENDBRANCH   1   2
BRANCH   1  10
ATOM     10  C   UNL     1      17.550 120.802  14.807  1.00  0.00     0.027 C 
BRANCH  10  11
ATOM     11  C   UNL     1      17.385 121.328  13.406  1.00  0.00    -0.031 C 
ATOM     12  C   UNL     1      18.399 121.644  12.579  1.00  0.00    -0.031 C 
BRANCH  12  13
ATOM     13  C   UNL     1      19.867 121.480  12.901  1.00  0.00     0.027 C 
BRANCH  13  14
ATOM     14  C   UNL     1      20.533 120.458  11.971  1.00  0.00     0.004 C 
BRANCH  14  15
ATOM     15  C   UNL     1      20.008 119.031  12.208  1.00  0.00     0.000 C 
BRANCH  15  16
ATOM     16  C   UNL     1      19.549 118.338  10.912  1.00  0.00    -0.000 C 
BRANCH  16  17
ATOM     17  C   UNL     1      19.214 119.290   9.751  1.00  0.00    -0.003 C 
ATOM     18  C   UNL     1      17.715 119.545   9.600  1.00  0.00     0.004 C 
ENDBRANCH  16  17
ENDBRANCH  15  16
ENDBRANCH  14  15
ENDBRANCH  13  14
ENDBRANCH  12  13
ENDBRANCH  10  11
ENDBRANCH   1  10
TORSDOF 13
ENDMDL
MODEL 5
REMARK VINA RESULT:    -6.327      2.872      4.882
REMARK INTER + INTRA:         -11.645
REMARK INTER:                 -11.053
REMARK INTRA:                  -0.593
REMARK UNBOUND:                -0.510
REMARK SMILES CCCCCCC=CCCCCCCCC(=O)[O-]
REMARK SMILES IDX 10 1 11 2 12 3 13 4 14 5 15 6 16 7 17 8 18 9 9 10 8 11 7 12
REMARK SMILES IDX 6 13 5 14 4 15 3 16 2 17 1 18
REMARK H PARENT
REMARK Flexibility Score: inf
ROOT
ATOM      1  C   UNL     1      15.886 120.739  16.324  1.00  0.00     0.004 C 
ENDROOT
BRANCH   1   2
ATOM      2  C   UNL     1      17.239 121.250  16.834  1.00  0.00     0.000 C 
BRANCH   2   3
ATOM      3  C   UNL     1      17.773 122.379  15.946  1.00  0.00     0.000 C 
BRANCH   3   4
ATOM      4  C   UNL     1      18.341 123.525  16.796  1.00  0.00     0.000 C 
BRANCH   4   5
ATOM      5  C   UNL     1      18.226 124.895  16.105  1.00  0.00     0.006 C 
BRANCH   5   6
ATOM      6  C   UNL     1      19.434 125.819  16.325  1.00  0.00     0.053 C 
BRANCH   6   7
ATOM      7  C   UNL     1      19.072 127.034  17.122  1.00  0.00     0.041 C 
ATOM      8  O   UNL     1      18.656 126.916  18.305  1.00  0.00    -0.550 OA
ATOM      9  O   UNL     1      19.226 128.300  16.571  1.00  0.00    -0.550 OA
ENDBRANCH   6   7
ENDBRANCH   5   6
ENDBRANCH   4   5
ENDBRANCH   3   4
ENDBRANCH   2   3
ENDBRANCH   1   2
BRANCH   1  10
ATOM     10  C   UNL     1      15.638 119.294  16.775  1.00  0.00     0.027 C 
BRANCH  10  11
ATOM     11  C   UNL     1      14.165 119.019  16.926  1.00  0.00    -0.031 C 
ATOM     12  C   UNL     1      13.525 118.883  18.103  1.00  0.00    -0.031 C 
BRANCH  12  13
ATOM     13  C   UNL     1      14.166 119.030  19.463  1.00  0.00     0.027 C 
BRANCH  13  14
ATOM     14  C   UNL     1      13.115 119.044  20.580  1.00  0.00     0.004 C 
BRANCH  14  15
ATOM     15  C   UNL     1      13.756 119.024  21.978  1.00  0.00     0.000 C 
BRANCH  15  16
ATOM     16  C   UNL     1      14.734 120.191  22.205  1.00  0.00    -0.000 C 
BRANCH  16  17
ATOM     17  C   UNL     1      16.187 119.773  22.488  1.00  0.00    -0.003 C 
ATOM     18  C   UNL     1      16.423 119.372  23.943  1.00  0.00     0.004 C 
ENDBRANCH  16  17
ENDBRANCH  15  16
ENDBRANCH  14  15
ENDBRANCH  13  14
ENDBRANCH  12  13
ENDBRANCH  10  11
ENDBRANCH   1  10
TORSDOF 13
ENDMDL
MODEL 6
REMARK VINA RESULT:    -6.286      6.491     11.674
REMARK INTER + INTRA:         -11.573
REMARK INTER:                 -11.101
REMARK INTRA:                  -0.472
REMARK UNBOUND:                -0.510
REMARK SMILES CCCCCCC=CCCCCCCCC(=O)[O-]
REMARK SMILES IDX 10 1 11 2 12 3 13 4 14 5 15 6 16 7 17 8 18 9 9 10 8 11 7 12
REMARK SMILES IDX 6 13 5 14 4 15 3 16 2 17 1 18
REMARK H PARENT
REMARK Flexibility Score: inf
ROOT
ATOM      1  C   UNL     1      12.586 117.065  16.027  1.00  0.00     0.004 C 
ENDROOT
BRANCH   1   2
ATOM      2  C   UNL     1      12.060 116.947  14.592  1.00  0.00     0.000 C 
BRANCH   2   3
ATOM      3  C   UNL     1      11.534 115.535  14.312  1.00  0.00     0.000 C 
BRANCH   3   4
ATOM      4  C   UNL     1      11.726 114.623  15.533  1.00  0.00     0.000 C 
BRANCH   4   5
ATOM      5  C   UNL     1      11.264 113.177  15.278  1.00  0.00     0.006 C 
BRANCH   5   6
ATOM      6  C   UNL     1      10.515 112.535  16.457  1.00  0.00     0.053 C 
BRANCH   6   7
ATOM      7  C   UNL     1      10.575 111.040  16.410  1.00  0.00     0.041 C 
ATOM      8  O   UNL     1      11.009 110.390  17.399  1.00  0.00    -0.550 OA
ATOM      9  O   UNL     1      10.121 110.360  15.287  1.00  0.00    -0.550 OA
ENDBRANCH   6   7
ENDBRANCH   5   6
ENDBRANCH   4   5
ENDBRANCH   3   4
ENDBRANCH   2   3
ENDBRANCH   1   2
BRANCH   1  10
ATOM     10  C   UNL     1      13.910 117.839  16.066  1.00  0.00     0.027 C 
BRANCH  10  11
ATOM     11  C   UNL     1      13.852 118.962  17.067  1.00  0.00    -0.031 C 
ATOM     12  C   UNL     1      14.863 119.811  17.330  1.00  0.00    -0.031 C 
BRANCH  12  13
ATOM     13  C   UNL     1      16.203 119.810  16.632  1.00  0.00     0.027 C 
BRANCH  13  14
ATOM     14  C   UNL     1      17.152 120.851  17.239  1.00  0.00     0.004 C 
BRANCH  14  15
ATOM     15  C   UNL     1      17.508 121.962  16.237  1.00  0.00     0.000 C 
BRANCH  15  16
ATOM     16  C   UNL     1      18.086 123.218  16.915  1.00  0.00    -0.000 C 
BRANCH  16  17
ATOM     17  C   UNL     1      18.357 124.399  15.967  1.00  0.00    -0.003 C 
ATOM     18  C   UNL     1      17.965 125.749  16.566  1.00  0.00     0.004 C 
ENDBRANCH  16  17
ENDBRANCH  15  16
ENDBRANCH  14  15
ENDBRANCH  13  14
ENDBRANCH  12  13
ENDBRANCH  10  11
ENDBRANCH   1  10
TORSDOF 13
ENDMDL
MODEL 7
REMARK VINA RESULT:    -6.231      1.514      2.899
REMARK INTER + INTRA:         -11.476
REMARK INTER:                 -10.907
REMARK INTRA:                  -0.569
REMARK UNBOUND:                -0.510
REMARK SMILES CCCCCCC=CCCCCCCCC(=O)[O-]
REMARK SMILES IDX 10 1 11 2 12 3 13 4 14 5 15 6 16 7 17 8 18 9 9 10 8 11 7 12
REMARK SMILES IDX 6 13 5 14 4 15 3 16 2 17 1 18
REMARK H PARENT
REMARK Flexibility Score: inf
ROOT
ATOM      1  C   UNL     1      14.152 119.435  17.147  1.00  0.00     0.004 C 
ENDROOT
BRANCH   1   2
ATOM      2  C   UNL     1      15.607 119.200  17.569  1.00  0.00     0.000 C 
BRANCH   2   3
ATOM      3  C   UNL     1      16.581 119.720  16.507  1.00  0.00     0.000 C 
BRANCH   3   4
ATOM      4  C   UNL     1      16.412 121.233  16.300  1.00  0.00     0.000 C 
BRANCH   4   5
ATOM      5  C   UNL     1      17.605 122.046  16.836  1.00  0.00     0.006 C 
BRANCH   5   6
ATOM      6  C   UNL     1      18.344 122.865  15.766  1.00  0.00     0.053 C 
BRANCH   6   7
ATOM      7  C   UNL     1      18.294 124.334  16.052  1.00  0.00     0.041 C 
ATOM      8  O   UNL     1      18.248 124.748  17.241  1.00  0.00    -0.550 OA
ATOM      9  O   UNL     1      18.332 125.248  15.007  1.00  0.00    -0.550 OA
ENDBRANCH   6   7
ENDBRANCH   5   6
ENDBRANCH   4   5
ENDBRANCH   3   4
ENDBRANCH   2   3
ENDBRANCH   1   2
BRANCH   1  10
ATOM     10  C   UNL     1      13.649 118.298  16.249  1.00  0.00     0.027 C 
BRANCH  10  11
ATOM     11  C   UNL     1      12.760 117.355  17.016  1.00  0.00    -0.031 C 
ATOM     12  C   UNL     1      12.049 116.351  16.469  1.00  0.00    -0.031 C 
BRANCH  12  13
ATOM     13  C   UNL     1      12.063 115.974  15.006  1.00  0.00     0.027 C 
BRANCH  13  14
ATOM     14  C   UNL     1      11.294 114.670  14.756  1.00  0.00     0.004 C 
BRANCH  14  15
ATOM     15  C   UNL     1      11.437 113.681  15.926  1.00  0.00     0.000 C 
BRANCH  15  16
ATOM     16  C   UNL     1      11.445 112.210  15.470  1.00  0.00    -0.000 C 
BRANCH  16  17
ATOM     17  C   UNL     1      10.304 111.350  16.037  1.00  0.00    -0.003 C 
ATOM     18  C   UNL     1      10.799 110.093  16.749  1.00  0.00     0.004 C 
ENDBRANCH  16  17
ENDBRANCH  15  16
ENDBRANCH  14  15
ENDBRANCH  13  14
ENDBRANCH  12  13
ENDBRANCH  10  11
ENDBRANCH   1  10
TORSDOF 13
ENDMDL
MODEL 8
REMARK VINA RESULT:    -6.230      1.348      2.002
REMARK INTER + INTRA:         -11.474
REMARK INTER:                 -10.816
REMARK INTRA:                  -0.659
REMARK UNBOUND:                -0.510
REMARK SMILES CCCCCCC=CCCCCCCCC(=O)[O-]
REMARK SMILES IDX 10 1 11 2 12 3 13 4 14 5 15 6 16 7 17 8 18 9 9 10 8 11 7 12
REMARK SMILES IDX 6 13 5 14 4 15 3 16 2 17 1 18
REMARK H PARENT
REMARK Flexibility Score: inf
ROOT
ATOM      1  C   UNL     1      17.142 120.917  16.880  1.00  0.00     0.004 C 
ENDROOT
BRANCH   1   2
ATOM      2  C   UNL     1      17.331 121.429  15.447  1.00  0.00     0.000 C 
BRANCH   2   3
ATOM      3  C   UNL     1      18.067 122.773  15.434  1.00  0.00     0.000 C 
BRANCH   3   4
ATOM      4  C   UNL     1      18.138 123.375  16.845  1.00  0.00     0.000 C 
BRANCH   4   5
ATOM      5  C   UNL     1      18.262 124.910  16.833  1.00  0.00     0.006 C 
BRANCH   5   6
ATOM      6  C   UNL     1      19.119 125.467  15.686  1.00  0.00     0.053 C 
BRANCH   6   7
ATOM      7  C   UNL     1      19.621 126.847  15.981  1.00  0.00     0.041 C 
ATOM      8  O   UNL     1      19.372 127.389  17.091  1.00  0.00    -0.550 OA
ATOM      9  O   UNL     1      20.391 127.523  15.043  1.00  0.00    -0.550 OA
ENDBRANCH   6   7
ENDBRANCH   5   6
ENDBRANCH   4   5
ENDBRANCH   3   4
ENDBRANCH   2   3
ENDBRANCH   1   2
BRANCH   1  10
ATOM     10  C   UNL     1      16.419 119.565  16.890  1.00  0.00     0.027 C 
BRANCH  10  11
ATOM     11  C   UNL     1      15.537 119.432  18.104  1.00  0.00    -0.031 C 
ATOM     12  C   UNL     1      14.214 119.187  18.071  1.00  0.00    -0.031 C 
BRANCH  12  13
ATOM     13  C   UNL     1      13.404 118.958  16.816  1.00  0.00     0.027 C 
BRANCH  13  14
ATOM     14  C   UNL     1      13.073 117.472  16.625  1.00  0.00     0.004 C 
BRANCH  14  15
ATOM     15  C   UNL     1      12.790 117.127  15.154  1.00  0.00     0.000 C 
BRANCH  15  16
ATOM     16  C   UNL     1      11.855 115.914  14.991  1.00  0.00    -0.000 C 
BRANCH  16  17
ATOM     17  C   UNL     1      11.277 115.726  13.579  1.00  0.00    -0.003 C 
ATOM     18  C   UNL     1      10.472 116.931  13.096  1.00  0.00     0.004 C 
ENDBRANCH  16  17
ENDBRANCH  15  16
ENDBRANCH  14  15
ENDBRANCH  13  14
ENDBRANCH  12  13
ENDBRANCH  10  11
ENDBRANCH   1  10
TORSDOF 13
ENDMDL
MODEL 9
REMARK VINA RESULT:    -6.160      5.618     10.904
REMARK INTER + INTRA:         -11.351
REMARK INTER:                 -10.757
REMARK INTRA:                  -0.594
REMARK UNBOUND:                -0.510
REMARK SMILES CCCCCCC=CCCCCCCCC(=O)[O-]
REMARK SMILES IDX 10 1 11 2 12 3 13 4 14 5 15 6 16 7 17 8 18 9 9 10 8 11 7 12
REMARK SMILES IDX 6 13 5 14 4 15 3 16 2 17 1 18
REMARK H PARENT
REMARK Flexibility Score: inf
ROOT
ATOM      1  C   UNL     1      14.648 119.353  17.809  1.00  0.00     0.004 C 
ENDROOT
BRANCH   1   2
ATOM      2  C   UNL     1      13.474 119.080  16.862  1.00  0.00     0.000 C 
BRANCH   2   3
ATOM      3  C   UNL     1      13.150 117.583  16.802  1.00  0.00     0.000 C 
BRANCH   3   4
ATOM      4  C   UNL     1      12.915 117.128  15.354  1.00  0.00     0.000 C 
BRANCH   4   5
ATOM      5  C   UNL     1      12.047 115.860  15.260  1.00  0.00     0.006 C 
BRANCH   5   6
ATOM      6  C   UNL     1      11.644 115.267  16.620  1.00  0.00     0.053 C 
BRANCH   6   7
ATOM      7  C   UNL     1      11.323 113.808  16.521  1.00  0.00     0.041 C 
ATOM      8  O   UNL     1      10.559 113.386  15.611  1.00  0.00    -0.550 OA
ATOM      9  O   UNL     1      11.891 112.908  17.413  1.00  0.00    -0.550 OA
ENDBRANCH   6   7
ENDBRANCH   5   6
ENDBRANCH   4   5
ENDBRANCH   3   4
ENDBRANCH   2   3
ENDBRANCH   1   2
BRANCH   1  10
ATOM     10  C   UNL     1      15.957 119.522  17.028  1.00  0.00     0.027 C 
BRANCH  10  11
ATOM     11  C   UNL     1      16.863 120.520  17.699  1.00  0.00    -0.031 C 
ATOM     12  C   UNL     1      17.587 121.456  17.056  1.00  0.00    -0.031 C 
BRANCH  12  13
ATOM     13  C   UNL     1      17.573 121.692  15.564  1.00  0.00     0.027 C 
BRANCH  13  14
ATOM     14  C   UNL     1      18.118 123.081  15.210  1.00  0.00     0.004 C 
BRANCH  14  15
ATOM     15  C   UNL     1      18.357 123.944  16.461  1.00  0.00     0.000 C 
BRANCH  15  16
ATOM     16  C   UNL     1      18.878 125.354  16.126  1.00  0.00    -0.000 C 
BRANCH  16  17
ATOM     17  C   UNL     1      18.060 126.507  16.731  1.00  0.00    -0.003 C 
ATOM     18  C   UNL     1      18.922 127.696  17.153  1.00  0.00     0.004 C 
ENDBRANCH  16  17
ENDBRANCH  15  16
ENDBRANCH  14  15
ENDBRANCH  13  14
ENDBRANCH  12  13
ENDBRANCH  10  11
ENDBRANCH   1  10
TORSDOF 13
ENDMDL
