MODEL 1
REMARK VINA RESULT:    -4.733      0.000      0.000
REMARK INTER + INTRA:          -5.947
REMARK INTER:                  -5.701
REMARK INTRA:                  -0.246
REMARK UNBOUND:                -0.246
REMARK SMILES C=CCc1ccc(O)c(OC)c1
REMARK SMILES IDX 9 1 7 2 6 3 5 4 4 5 12 6 10 7 11 8 8 9 3 11 2 12 1 13
REMARK H PARENT 8 10
REMARK Flexibility Score: inf
ROOT
ATOM      1  C   UNL     1       9.746 -11.840 -44.987  1.00  0.00     0.160 A 
ATOM      2  C   UNL     1      10.845 -12.619 -44.580  1.00  0.00     0.157 A 
ATOM      3  C   UNL     1      12.028 -12.000 -44.165  1.00  0.00     0.050 A 
ATOM      4  C   UNL     1      12.130 -10.609 -44.152  1.00  0.00     0.008 A 
ATOM      5  C   UNL     1      11.050  -9.816 -44.563  1.00  0.00    -0.040 A 
ATOM      6  C   UNL     1       9.857 -10.435 -44.972  1.00  0.00     0.054 A 
ENDROOT
BRANCH   1   7
ATOM      7  O   UNL     1       8.569 -12.489 -45.395  1.00  0.00    -0.493 OA
ATOM      8  C   UNL     1       7.555 -11.892 -46.196  1.00  0.00     0.278 C 
ENDBRANCH   1   7
BRANCH   2   9
ATOM      9  O   UNL     1      10.779 -14.013 -44.580  1.00  0.00    -0.504 OA
ATOM     10  H   UNL     1      10.353 -14.534 -43.824  1.00  0.00     0.293 HD
ENDBRANCH   2   9
BRANCH   5  11
ATOM     11  C   UNL     1      11.148  -8.314 -44.522  1.00  0.00     0.062 C 
BRANCH  11  12
ATOM     12  C   UNL     1      10.021  -7.729 -43.719  1.00  0.00    -0.030 C 
ATOM     13  C   UNL     1      10.036  -7.729 -42.383  1.00  0.00     0.004 C 
ENDBRANCH  11  12
ENDBRANCH   5  11
TORSDOF 4
ENDMDL
MODEL 2
REMARK VINA RESULT:    -4.728      1.153      2.926
REMARK INTER + INTRA:          -5.941
REMARK INTER:                  -5.696
REMARK INTRA:                  -0.245
REMARK UNBOUND:                -0.246
REMARK SMILES C=CCc1ccc(O)c(OC)c1
REMARK SMILES IDX 9 1 7 2 6 3 5 4 4 5 12 6 10 7 11 8 8 9 3 11 2 12 1 13
REMARK H PARENT 8 10
REMARK Flexibility Score: inf
ROOT
ATOM      1  C   UNL     1      12.049 -11.732 -44.247  1.00  0.00     0.160 A 
ATOM      2  C   UNL     1      10.936 -12.407 -44.781  1.00  0.00     0.157 A 
ATOM      3  C   UNL     1       9.807 -11.687 -45.184  1.00  0.00     0.050 A 
ATOM      4  C   UNL     1       9.773 -10.298 -45.059  1.00  0.00     0.008 A 
ATOM      5  C   UNL     1      10.869  -9.610 -44.520  1.00  0.00    -0.040 A 
ATOM      6  C   UNL     1      12.008 -10.329 -44.123  1.00  0.00     0.054 A 
ENDROOT
BRANCH   1   7
ATOM      7  O   UNL     1      13.171 -12.481 -43.854  1.00  0.00    -0.493 OA
ATOM      8  C   UNL     1      14.425 -11.920 -43.483  1.00  0.00     0.278 C 
ENDBRANCH   1   7
BRANCH   2   9
ATOM      9  O   UNL     1      10.933 -13.795 -44.921  1.00  0.00    -0.504 OA
ATOM     10  H   UNL     1      10.075 -14.333 -44.961  1.00  0.00     0.293 HD
ENDBRANCH   2   9
BRANCH   5  11
ATOM     11  C   UNL     1      10.846  -8.108 -44.411  1.00  0.00     0.062 C 
BRANCH  11  12
ATOM     12  C   UNL     1       9.921  -7.669 -43.311  1.00  0.00    -0.030 C 
ATOM     13  C   UNL     1      10.154  -7.976 -42.032  1.00  0.00     0.004 C 
ENDBRANCH  11  12
ENDBRANCH   5  11
TORSDOF 4
ENDMDL
MODEL 3
REMARK VINA RESULT:    -4.678      1.695      3.032
REMARK INTER + INTRA:          -5.881
REMARK INTER:                  -5.669
REMARK INTRA:                  -0.212
REMARK UNBOUND:                -0.246
REMARK SMILES C=CCc1ccc(O)c(OC)c1
REMARK SMILES IDX 9 1 7 2 6 3 5 4 4 5 12 6 10 7 11 8 8 9 3 11 2 12 1 13
REMARK H PARENT 8 10
REMARK Flexibility Score: inf
ROOT
ATOM      1  C   UNL     1       9.524 -12.611 -46.452  1.00  0.00     0.160 A 
ATOM      2  C   UNL     1       8.245 -12.133 -46.792  1.00  0.00     0.157 A 
ATOM      3  C   UNL     1       7.769 -10.945 -46.229  1.00  0.00     0.050 A 
ATOM      4  C   UNL     1       8.554 -10.226 -45.327  1.00  0.00     0.008 A 
ATOM      5  C   UNL     1       9.827 -10.692 -44.969  1.00  0.00    -0.040 A 
ATOM      6  C   UNL     1      10.311 -11.881 -45.539  1.00  0.00     0.054 A 
ENDROOT
BRANCH   1   7
ATOM      7  O   UNL     1       9.979 -13.805 -47.036  1.00  0.00    -0.493 OA
ATOM      8  C   UNL     1      11.076 -13.895 -47.938  1.00  0.00     0.278 C 
ENDBRANCH   1   7
BRANCH   2   9
ATOM      9  O   UNL     1       7.432 -12.825 -47.690  1.00  0.00    -0.504 OA
ATOM     10  H   UNL     1       7.777 -13.164 -48.580  1.00  0.00     0.293 HD
ENDBRANCH   2   9
BRANCH   5  11
ATOM     11  C   UNL     1      10.687  -9.904 -44.017  1.00  0.00     0.062 C 
BRANCH  11  12
ATOM     12  C   UNL     1      10.471  -8.428 -44.204  1.00  0.00    -0.030 C 
ATOM     13  C   UNL     1       9.988  -7.659 -43.224  1.00  0.00     0.004 C 
ENDBRANCH  11  12
ENDBRANCH   5  11
TORSDOF 4
ENDMDL
MODEL 4
REMARK VINA RESULT:    -4.663      3.228      5.116
REMARK INTER + INTRA:          -5.863
REMARK INTER:                  -5.660
REMARK INTRA:                  -0.204
REMARK UNBOUND:                -0.246
REMARK SMILES C=CCc1ccc(O)c(OC)c1
REMARK SMILES IDX 9 1 7 2 6 3 5 4 4 5 12 6 10 7 11 8 8 9 3 11 2 12 1 13
REMARK H PARENT 8 10
REMARK Flexibility Score: inf
ROOT
ATOM      1  C   UNL     1      10.272  -8.711 -41.995  1.00  0.00     0.160 A 
ATOM      2  C   UNL     1      10.028  -7.710 -42.953  1.00  0.00     0.157 A 
ATOM      3  C   UNL     1      10.437  -7.893 -44.278  1.00  0.00     0.050 A 
ATOM      4  C   UNL     1      11.089  -9.065 -44.660  1.00  0.00     0.008 A 
ATOM      5  C   UNL     1      11.349 -10.070 -43.717  1.00  0.00    -0.040 A 
ATOM      6  C   UNL     1      10.932  -9.892 -42.388  1.00  0.00     0.054 A 
ENDROOT
BRANCH   1   7
ATOM      7  O   UNL     1       9.846  -8.501 -40.673  1.00  0.00    -0.493 OA
ATOM      8  C   UNL     1      10.493  -9.037 -39.523  1.00  0.00     0.278 C 
ENDBRANCH   1   7
BRANCH   2   9
ATOM      9  O   UNL     1       9.379  -6.524 -42.608  1.00  0.00    -0.504 OA
ATOM     10  H   UNL     1       8.380  -6.483 -42.443  1.00  0.00     0.293 HD
ENDBRANCH   2   9
BRANCH   5  11
ATOM     11  C   UNL     1      12.027 -11.348 -44.134  1.00  0.00     0.062 C 
BRANCH  11  12
ATOM     12  C   UNL     1      13.083 -11.739 -43.138  1.00  0.00    -0.030 C 
ATOM     13  C   UNL     1      14.375 -11.801 -43.472  1.00  0.00     0.004 C 
ENDBRANCH  11  12
ENDBRANCH   5  11
TORSDOF 4
ENDMDL
MODEL 5
REMARK VINA RESULT:    -4.533      1.516      2.965
REMARK INTER + INTRA:          -5.706
REMARK INTER:                  -5.451
REMARK INTRA:                  -0.255
REMARK UNBOUND:                -0.246
REMARK SMILES C=CCc1ccc(O)c(OC)c1
REMARK SMILES IDX 9 1 7 2 6 3 5 4 4 5 12 6 10 7 11 8 8 9 3 11 2 12 1 13
REMARK H PARENT 8 10
REMARK Flexibility Score: inf
ROOT
ATOM      1  C   UNL     1       8.825 -13.033 -45.344  1.00  0.00     0.160 A 
ATOM      2  C   UNL     1       7.642 -12.468 -45.854  1.00  0.00     0.157 A 
ATOM      3  C   UNL     1       7.495 -11.078 -45.907  1.00  0.00     0.050 A 
ATOM      4  C   UNL     1       8.516 -10.242 -45.455  1.00  0.00     0.008 A 
ATOM      5  C   UNL     1       9.698 -10.787 -44.934  1.00  0.00    -0.040 A 
ATOM      6  C   UNL     1       9.852 -12.182 -44.888  1.00  0.00     0.054 A 
ENDROOT
BRANCH   1   7
ATOM      7  O   UNL     1       8.947 -14.431 -45.306  1.00  0.00    -0.493 OA
ATOM      8  C   UNL     1       8.836 -15.219 -44.126  1.00  0.00     0.278 C 
ENDBRANCH   1   7
BRANCH   2   9
ATOM      9  O   UNL     1       6.599 -13.272 -46.314  1.00  0.00    -0.504 OA
ATOM     10  H   UNL     1       6.756 -14.205 -46.676  1.00  0.00     0.293 HD
ENDBRANCH   2   9
BRANCH   5  11
ATOM     11  C   UNL     1      10.813  -9.886 -44.472  1.00  0.00     0.062 C 
BRANCH  11  12
ATOM     12  C   UNL     1      10.304  -8.494 -44.223  1.00  0.00    -0.030 C 
ATOM     13  C   UNL     1      10.193  -7.997 -42.988  1.00  0.00     0.004 C 
ENDBRANCH  11  12
ENDBRANCH   5  11
TORSDOF 4
ENDMDL
MODEL 6
REMARK VINA RESULT:    -4.508      2.112      4.223
REMARK INTER + INTRA:          -5.676
REMARK INTER:                  -5.477
REMARK INTRA:                  -0.199
REMARK UNBOUND:                -0.246
REMARK SMILES C=CCc1ccc(O)c(OC)c1
REMARK SMILES IDX 9 1 7 2 6 3 5 4 4 5 12 6 10 7 11 8 8 9 3 11 2 12 1 13
REMARK H PARENT 8 10
REMARK Flexibility Score: inf
ROOT
ATOM      1  C   UNL     1      10.589  -9.596 -44.341  1.00  0.00     0.160 A 
ATOM      2  C   UNL     1       9.619 -10.465 -44.876  1.00  0.00     0.157 A 
ATOM      3  C   UNL     1       9.865 -11.840 -44.932  1.00  0.00     0.050 A 
ATOM      4  C   UNL     1      11.070 -12.362 -44.461  1.00  0.00     0.008 A 
ATOM      5  C   UNL     1      12.052 -11.511 -43.934  1.00  0.00    -0.040 A 
ATOM      6  C   UNL     1      11.804 -10.130 -43.869  1.00  0.00     0.054 A 
ENDROOT
BRANCH   1   7
ATOM      7  O   UNL     1      10.313  -8.220 -44.294  1.00  0.00    -0.493 OA
ATOM      8  C   UNL     1       9.830  -7.533 -43.144  1.00  0.00     0.278 C 
ENDBRANCH   1   7
BRANCH   2   9
ATOM      9  O   UNL     1       8.403  -9.979 -45.357  1.00  0.00    -0.504 OA
ATOM     10  H   UNL     1       7.555 -10.533 -45.339  1.00  0.00     0.293 HD
ENDBRANCH   2   9
BRANCH   5  11
ATOM     11  C   UNL     1      13.341 -12.075 -43.399  1.00  0.00     0.062 C 
BRANCH  11  12
ATOM     12  C   UNL     1      14.518 -11.516 -44.148  1.00  0.00    -0.030 C 
ATOM     13  C   UNL     1      15.758 -11.579 -43.656  1.00  0.00     0.004 C 
ENDBRANCH  11  12
ENDBRANCH   5  11
TORSDOF 4
ENDMDL
MODEL 7
REMARK VINA RESULT:    -4.230      1.708      2.224
REMARK INTER + INTRA:          -5.342
REMARK INTER:                  -5.121
REMARK INTRA:                  -0.220
REMARK UNBOUND:                -0.246
REMARK SMILES C=CCc1ccc(O)c(OC)c1
REMARK SMILES IDX 9 1 7 2 6 3 5 4 4 5 12 6 10 7 11 8 8 9 3 11 2 12 1 13
REMARK H PARENT 8 10
REMARK Flexibility Score: inf
ROOT
ATOM      1  C   UNL     1      11.686 -12.879 -45.196  1.00  0.00     0.160 A 
ATOM      2  C   UNL     1      12.568 -12.912 -44.100  1.00  0.00     0.157 A 
ATOM      3  C   UNL     1      12.568 -11.870 -43.168  1.00  0.00     0.050 A 
ATOM      4  C   UNL     1      11.697 -10.790 -43.317  1.00  0.00     0.008 A 
ATOM      5  C   UNL     1      10.818 -10.734 -44.408  1.00  0.00    -0.040 A 
ATOM      6  C   UNL     1      10.810 -11.784 -45.340  1.00  0.00     0.054 A 
ENDROOT
BRANCH   1   7
ATOM      7  O   UNL     1      11.705 -13.942 -46.114  1.00  0.00    -0.493 OA
ATOM      8  C   UNL     1      11.454 -13.807 -47.509  1.00  0.00     0.278 C 
ENDBRANCH   1   7
BRANCH   2   9
ATOM      9  O   UNL     1      13.453 -13.976 -43.920  1.00  0.00    -0.504 OA
ATOM     10  H   UNL     1      14.309 -14.062 -44.454  1.00  0.00     0.293 HD
ENDBRANCH   2   9
BRANCH   5  11
ATOM     11  C   UNL     1       9.859  -9.584 -44.554  1.00  0.00     0.062 C 
BRANCH  11  12
ATOM     12  C   UNL     1      10.470  -8.311 -44.037  1.00  0.00    -0.030 C 
ATOM     13  C   UNL     1       9.848  -7.551 -43.132  1.00  0.00     0.004 C 
ENDBRANCH  11  12
ENDBRANCH   5  11
TORSDOF 4
ENDMDL
MODEL 8
REMARK VINA RESULT:    -4.196      1.702      3.467
REMARK INTER + INTRA:          -5.301
REMARK INTER:                  -5.098
REMARK INTRA:                  -0.202
REMARK UNBOUND:                -0.246
REMARK SMILES C=CCc1ccc(O)c(OC)c1
REMARK SMILES IDX 9 1 7 2 6 3 5 4 4 5 12 6 10 7 11 8 8 9 3 11 2 12 1 13
REMARK H PARENT 8 10
REMARK Flexibility Score: inf
ROOT
ATOM      1  C   UNL     1       9.252 -12.079 -45.319  1.00  0.00     0.160 A 
ATOM      2  C   UNL     1       8.879 -10.725 -45.403  1.00  0.00     0.157 A 
ATOM      3  C   UNL     1       9.653  -9.745 -44.773  1.00  0.00     0.050 A 
ATOM      4  C   UNL     1      10.796 -10.100 -44.057  1.00  0.00     0.008 A 
ATOM      5  C   UNL     1      11.177 -11.446 -43.954  1.00  0.00    -0.040 A 
ATOM      6  C   UNL     1      10.407 -12.431 -44.593  1.00  0.00     0.054 A 
ENDROOT
BRANCH   1   7
ATOM      7  O   UNL     1       8.458 -13.041 -45.966  1.00  0.00    -0.493 OA
ATOM      8  C   UNL     1       7.476 -13.844 -45.318  1.00  0.00     0.278 C 
ENDBRANCH   1   7
BRANCH   2   9
ATOM      9  O   UNL     1       7.743 -10.332 -46.110  1.00  0.00    -0.504 OA
ATOM     10  H   UNL     1       6.815 -10.657 -45.865  1.00  0.00     0.293 HD
ENDBRANCH   2   9
BRANCH   5  11
ATOM     11  C   UNL     1      12.426 -11.829 -43.205  1.00  0.00     0.062 C 
BRANCH  11  12
ATOM     12  C   UNL     1      13.652 -11.447 -43.986  1.00  0.00    -0.030 C 
ATOM     13  C   UNL     1      14.871 -11.857 -43.624  1.00  0.00     0.004 C 
ENDBRANCH  11  12
ENDBRANCH   5  11
TORSDOF 4
ENDMDL
MODEL 9
REMARK VINA RESULT:    -4.122     12.960     14.343
REMARK INTER + INTRA:          -5.212
REMARK INTER:                  -4.958
REMARK INTRA:                  -0.254
REMARK UNBOUND:                -0.246
REMARK SMILES C=CCc1ccc(O)c(OC)c1
REMARK SMILES IDX 9 1 7 2 6 3 5 4 4 5 12 6 10 7 11 8 8 9 3 11 2 12 1 13
REMARK H PARENT 8 10
REMARK Flexibility Score: inf
ROOT
ATOM      1  C   UNL     1      10.649 -22.591 -37.047  1.00  0.00     0.160 A 
ATOM      2  C   UNL     1      10.448 -23.782 -36.325  1.00  0.00     0.157 A 
ATOM      3  C   UNL     1       9.417 -23.866 -35.385  1.00  0.00     0.050 A 
ATOM      4  C   UNL     1       8.581 -22.773 -35.154  1.00  0.00     0.008 A 
ATOM      5  C   UNL     1       8.772 -21.575 -35.856  1.00  0.00    -0.040 A 
ATOM      6  C   UNL     1       9.802 -21.491 -36.807  1.00  0.00     0.054 A 
ENDROOT
BRANCH   1   7
ATOM      7  O   UNL     1      11.691 -22.537 -37.988  1.00  0.00    -0.493 OA
ATOM      8  C   UNL     1      12.906 -21.819 -37.805  1.00  0.00     0.278 C 
ENDBRANCH   1   7
BRANCH   2   9
ATOM      9  O   UNL     1      11.264 -24.895 -36.529  1.00  0.00    -0.504 OA
ATOM     10  H   UNL     1      11.378 -25.321 -37.441  1.00  0.00     0.293 HD
ENDBRANCH   2   9
BRANCH   5  11
ATOM     11  C   UNL     1       7.854 -20.404 -35.629  1.00  0.00     0.062 C 
BRANCH  11  12
ATOM     12  C   UNL     1       6.907 -20.238 -36.784  1.00  0.00    -0.030 C 
ATOM     13  C   UNL     1       5.972 -21.150 -37.064  1.00  0.00     0.004 C 
ENDBRANCH  11  12
ENDBRANCH   5  11
TORSDOF 4
ENDMDL
