MODEL 1
REMARK VINA RESULT:    -3.254      0.000      0.000
REMARK INTER + INTRA:          -3.477
REMARK INTER:                  -3.444
REMARK INTRA:                  -0.033
REMARK UNBOUND:                -0.033
REMARK SMILES COc1ccc2ccc(=O)oc2c1
REMARK SMILES IDX 3 1 13 2 12 3 6 4 5 5 4 6 7 7 8 8 9 9 10 10 11 11 2 12 1 13
REMARK H PARENT
REMARK Flexibility Score: inf
ROOT
ATOM      1  C   UNL     1     148.061 162.052 160.246  1.00  0.00     0.122 A 
ATOM      2  C   UNL     1     147.174 161.916 161.333  1.00  0.00     0.094 A 
ATOM      3  C   UNL     1     146.853 160.647 161.827  1.00  0.00     0.142 A 
ATOM      4  C   UNL     1     147.421 159.499 161.233  1.00  0.00     0.018 A 
ATOM      5  C   UNL     1     148.303 159.633 160.154  1.00  0.00     0.016 A 
ATOM      6  C   UNL     1     148.619 160.904 159.666  1.00  0.00     0.047 A 
ATOM      7  C   UNL     1     147.081 158.244 161.750  1.00  0.00     0.019 A 
ATOM      8  C   UNL     1     146.198 158.164 162.826  1.00  0.00     0.094 A 
ATOM      9  C   UNL     1     145.674 159.345 163.363  1.00  0.00     0.336 A 
ATOM     10  O   UNL     1     144.875 159.292 164.334  1.00  0.00    -0.246 OA
ATOM     11  O   UNL     1     146.014 160.525 162.852  1.00  0.00    -0.423 OA
ENDROOT
BRANCH   1  12
ATOM     12  O   UNL     1     148.413 163.302 159.716  1.00  0.00    -0.497 OA
ATOM     13  C   UNL     1     149.625 163.990 160.013  1.00  0.00     0.278 C 
ENDBRANCH   1  12
TORSDOF 1
ENDMDL
MODEL 2
REMARK VINA RESULT:    -2.761     12.338     14.050
REMARK INTER + INTRA:          -2.956
REMARK INTER:                  -2.921
REMARK INTRA:                  -0.034
REMARK UNBOUND:                -0.033
REMARK SMILES COc1ccc2ccc(=O)oc2c1
REMARK SMILES IDX 3 1 13 2 12 3 6 4 5 5 4 6 7 7 8 8 9 9 10 10 11 11 2 12 1 13
REMARK H PARENT
REMARK Flexibility Score: inf
ROOT
ATOM      1  C   UNL     1     161.995 163.754 162.979  1.00  0.00     0.122 A 
ATOM      2  C   UNL     1     160.670 164.125 163.286  1.00  0.00     0.094 A 
ATOM      3  C   UNL     1     160.095 163.744 164.504  1.00  0.00     0.142 A 
ATOM      4  C   UNL     1     160.846 162.986 165.428  1.00  0.00     0.018 A 
ATOM      5  C   UNL     1     162.163 162.619 165.124  1.00  0.00     0.016 A 
ATOM      6  C   UNL     1     162.730 163.003 163.906  1.00  0.00     0.047 A 
ATOM      7  C   UNL     1     160.243 162.622 166.636  1.00  0.00     0.019 A 
ATOM      8  C   UNL     1     158.929 163.013 166.891  1.00  0.00     0.094 A 
ATOM      9  C   UNL     1     158.246 163.763 165.928  1.00  0.00     0.336 A 
ATOM     10  O   UNL     1     157.060 164.125 166.140  1.00  0.00    -0.246 OA
ATOM     11  O   UNL     1     158.843 164.097 164.786  1.00  0.00    -0.423 OA
ENDROOT
BRANCH   1  12
ATOM     12  O   UNL     1     162.615 164.112 161.773  1.00  0.00    -0.497 OA
ATOM     13  C   UNL     1     162.116 163.776 160.482  1.00  0.00     0.278 C 
ENDBRANCH   1  12
TORSDOF 1
ENDMDL
MODEL 3
REMARK VINA RESULT:    -2.334     12.117     14.386
REMARK INTER + INTRA:          -2.504
REMARK INTER:                  -2.469
REMARK INTRA:                  -0.035
REMARK UNBOUND:                -0.033
REMARK SMILES COc1ccc2ccc(=O)oc2c1
REMARK SMILES IDX 3 1 13 2 12 3 6 4 5 5 4 6 7 7 8 8 9 9 10 10 11 11 2 12 1 13
REMARK H PARENT
REMARK Flexibility Score: inf
ROOT
ATOM      1  C   UNL     1     158.422 163.759 165.712  1.00  0.00     0.122 A 
ATOM      2  C   UNL     1     159.030 164.122 164.493  1.00  0.00     0.094 A 
ATOM      3  C   UNL     1     160.348 163.739 164.220  1.00  0.00     0.142 A 
ATOM      4  C   UNL     1     161.071 162.987 165.171  1.00  0.00     0.018 A 
ATOM      5  C   UNL     1     160.467 162.626 166.382  1.00  0.00     0.016 A 
ATOM      6  C   UNL     1     159.150 163.011 166.647  1.00  0.00     0.047 A 
ATOM      7  C   UNL     1     162.386 162.620 164.869  1.00  0.00     0.019 A 
ATOM      8  C   UNL     1     162.941 163.004 163.650  1.00  0.00     0.094 A 
ATOM      9  C   UNL     1     162.165 163.750 162.756  1.00  0.00     0.336 A 
ATOM     10  O   UNL     1     162.649 164.107 161.650  1.00  0.00    -0.246 OA
ATOM     11  O   UNL     1     160.916 164.086 163.068  1.00  0.00    -0.423 OA
ENDROOT
BRANCH   1  12
ATOM     12  O   UNL     1     157.104 164.119 166.030  1.00  0.00    -0.497 OA
ATOM     13  C   UNL     1     155.982 163.898 165.181  1.00  0.00     0.278 C 
ENDBRANCH   1  12
TORSDOF 1
ENDMDL
MODEL 4
REMARK VINA RESULT:    -2.206      1.476      4.705
REMARK INTER + INTRA:          -2.368
REMARK INTER:                  -2.329
REMARK INTRA:                  -0.039
REMARK UNBOUND:                -0.033
REMARK SMILES COc1ccc2ccc(=O)oc2c1
REMARK SMILES IDX 3 1 13 2 12 3 6 4 5 5 4 6 7 7 8 8 9 9 10 10 11 11 2 12 1 13
REMARK H PARENT
REMARK Flexibility Score: inf
ROOT
ATOM      1  C   UNL     1     146.506 158.524 162.158  1.00  0.00     0.122 A 
ATOM      2  C   UNL     1     146.014 159.835 161.995  1.00  0.00     0.094 A 
ATOM      3  C   UNL     1     146.766 160.790 161.301  1.00  0.00     0.142 A 
ATOM      4  C   UNL     1     148.022 160.438 160.763  1.00  0.00     0.018 A 
ATOM      5  C   UNL     1     148.512 159.135 160.923  1.00  0.00     0.016 A 
ATOM      6  C   UNL     1     147.755 158.187 161.617  1.00  0.00     0.047 A 
ATOM      7  C   UNL     1     148.749 161.414 160.075  1.00  0.00     0.019 A 
ATOM      8  C   UNL     1     148.218 162.697 159.942  1.00  0.00     0.094 A 
ATOM      9  C   UNL     1     146.967 162.973 160.503  1.00  0.00     0.336 A 
ATOM     10  O   UNL     1     146.471 164.125 160.394  1.00  0.00    -0.246 OA
ATOM     11  O   UNL     1     146.296 162.026 161.153  1.00  0.00    -0.423 OA
ENDROOT
BRANCH   1  12
ATOM     12  O   UNL     1     145.790 157.533 162.845  1.00  0.00    -0.497 OA
ATOM     13  C   UNL     1     146.366 156.338 163.363  1.00  0.00     0.278 C 
ENDBRANCH   1  12
TORSDOF 1
ENDMDL
MODEL 5
REMARK VINA RESULT:    -1.801     12.892     15.103
REMARK INTER + INTRA:          -1.940
REMARK INTER:                  -1.904
REMARK INTRA:                  -0.036
REMARK UNBOUND:                -0.033
REMARK SMILES COc1ccc2ccc(=O)oc2c1
REMARK SMILES IDX 3 1 13 2 12 3 6 4 5 5 4 6 7 7 8 8 9 9 10 10 11 11 2 12 1 13
REMARK H PARENT
REMARK Flexibility Score: inf
ROOT
ATOM      1  C   UNL     1     160.402 163.761 165.312  1.00  0.00     0.122 A 
ATOM      2  C   UNL     1     160.211 164.125 163.963  1.00  0.00     0.094 A 
ATOM      3  C   UNL     1     161.143 163.744 162.991  1.00  0.00     0.142 A 
ATOM      4  C   UNL     1     162.278 162.992 163.363  1.00  0.00     0.018 A 
ATOM      5  C   UNL     1     162.468 162.629 164.702  1.00  0.00     0.016 A 
ATOM      6  C   UNL     1     161.533 163.013 165.668  1.00  0.00     0.047 A 
ATOM      7  C   UNL     1     163.190 162.626 162.368  1.00  0.00     0.019 A 
ATOM      8  C   UNL     1     162.955 163.013 161.049  1.00  0.00     0.094 A 
ATOM      9  C   UNL     1     161.809 163.758 160.755  1.00  0.00     0.336 A 
ATOM     10  O   UNL     1     161.580 164.116 159.570  1.00  0.00    -0.246 OA
ATOM     11  O   UNL     1     160.957 164.093 161.720  1.00  0.00    -0.423 OA
ENDROOT
BRANCH   1  12
ATOM     12  O   UNL     1     159.497 164.119 166.322  1.00  0.00    -0.497 OA
ATOM     13  C   UNL     1     158.081 164.023 166.204  1.00  0.00     0.278 C 
ENDBRANCH   1  12
TORSDOF 1
ENDMDL
MODEL 6
REMARK VINA RESULT:    -1.602     21.889     23.485
REMARK INTER + INTRA:          -1.729
REMARK INTER:                  -1.691
REMARK INTRA:                  -0.038
REMARK UNBOUND:                -0.033
REMARK SMILES COc1ccc2ccc(=O)oc2c1
REMARK SMILES IDX 3 1 13 2 12 3 6 4 5 5 4 6 7 7 8 8 9 9 10 10 11 11 2 12 1 13
REMARK H PARENT
REMARK Flexibility Score: inf
ROOT
ATOM      1  C   UNL     1     160.626 144.621 174.672  1.00  0.00     0.122 A 
ATOM      2  C   UNL     1     159.761 144.262 173.619  1.00  0.00     0.094 A 
ATOM      3  C   UNL     1     159.804 144.952 172.403  1.00  0.00     0.142 A 
ATOM      4  C   UNL     1     160.719 146.013 172.230  1.00  0.00     0.018 A 
ATOM      5  C   UNL     1     161.580 146.370 173.276  1.00  0.00     0.016 A 
ATOM      6  C   UNL     1     161.531 145.676 174.488  1.00  0.00     0.047 A 
ATOM      7  C   UNL     1     160.739 146.683 171.003  1.00  0.00     0.019 A 
ATOM      8  C   UNL     1     159.861 146.289 169.994  1.00  0.00     0.094 A 
ATOM      9  C   UNL     1     158.981 145.229 170.237  1.00  0.00     0.336 A 
ATOM     10  O   UNL     1     158.182 144.859 169.338  1.00  0.00    -0.246 OA
ATOM     11  O   UNL     1     158.983 144.608 171.413  1.00  0.00    -0.423 OA
ENDROOT
BRANCH   1  12
ATOM     12  O   UNL     1     160.620 143.960 175.909  1.00  0.00    -0.497 OA
ATOM     13  C   UNL     1     161.732 143.904 176.797  1.00  0.00     0.278 C 
ENDBRANCH   1  12
TORSDOF 1
ENDMDL
MODEL 7
REMARK VINA RESULT:    -1.518     22.437     23.767
REMARK INTER + INTRA:          -1.640
REMARK INTER:                  -1.600
REMARK INTRA:                  -0.040
REMARK UNBOUND:                -0.033
REMARK SMILES COc1ccc2ccc(=O)oc2c1
REMARK SMILES IDX 3 1 13 2 12 3 6 4 5 5 4 6 7 7 8 8 9 9 10 10 11 11 2 12 1 13
REMARK H PARENT
REMARK Flexibility Score: inf
ROOT
ATOM      1  C   UNL     1     160.359 145.562 171.157  1.00  0.00     0.122 A 
ATOM      2  C   UNL     1     161.359 146.012 172.043  1.00  0.00     0.094 A 
ATOM      3  C   UNL     1     161.374 145.574 173.371  1.00  0.00     0.142 A 
ATOM      4  C   UNL     1     160.385 144.676 173.825  1.00  0.00     0.018 A 
ATOM      5  C   UNL     1     159.392 144.227 172.946  1.00  0.00     0.016 A 
ATOM      6  C   UNL     1     159.383 144.669 171.620  1.00  0.00     0.047 A 
ATOM      7  C   UNL     1     160.427 144.256 175.158  1.00  0.00     0.019 A 
ATOM      8  C   UNL     1     161.436 144.733 175.995  1.00  0.00     0.094 A 
ATOM      9  C   UNL     1     162.384 145.621 175.475  1.00  0.00     0.336 A 
ATOM     10  O   UNL     1     163.302 146.062 176.214  1.00  0.00    -0.246 OA
ATOM     11  O   UNL     1     162.320 146.005 174.203  1.00  0.00    -0.423 OA
ENDROOT
BRANCH   1  12
ATOM     12  O   UNL     1     160.302 145.972 169.817  1.00  0.00    -0.497 OA
ATOM     13  C   UNL     1     159.263 145.618 168.910  1.00  0.00     0.278 C 
ENDBRANCH   1  12
TORSDOF 1
ENDMDL
MODEL 8
REMARK VINA RESULT:    -0.797     20.539     22.009
REMARK INTER + INTRA:          -0.877
REMARK INTER:                  -0.837
REMARK INTRA:                  -0.039
REMARK UNBOUND:                -0.033
REMARK SMILES COc1ccc2ccc(=O)oc2c1
REMARK SMILES IDX 3 1 13 2 12 3 6 4 5 5 4 6 7 7 8 8 9 9 10 10 11 11 2 12 1 13
REMARK H PARENT
REMARK Flexibility Score: inf
ROOT
ATOM      1  C   UNL     1     160.997 145.472 171.571  1.00  0.00     0.122 A 
ATOM      2  C   UNL     1     161.512 145.484 170.259  1.00  0.00     0.094 A 
ATOM      3  C   UNL     1     160.646 145.447 169.161  1.00  0.00     0.142 A 
ATOM      4  C   UNL     1     159.251 145.397 169.368  1.00  0.00     0.018 A 
ATOM      5  C   UNL     1     158.738 145.386 170.671  1.00  0.00     0.016 A 
ATOM      6  C   UNL     1     159.609 145.424 171.764  1.00  0.00     0.047 A 
ATOM      7  C   UNL     1     158.412 145.361 168.250  1.00  0.00     0.019 A 
ATOM      8  C   UNL     1     158.972 145.373 166.973  1.00  0.00     0.094 A 
ATOM      9  C   UNL     1     160.364 145.423 166.844  1.00  0.00     0.336 A 
ATOM     10  O   UNL     1     160.888 145.435 165.700  1.00  0.00    -0.246 OA
ATOM     11  O   UNL     1     161.139 145.457 167.925  1.00  0.00    -0.423 OA
ENDROOT
BRANCH   1  12
ATOM     12  O   UNL     1     161.824 145.509 172.703  1.00  0.00    -0.497 OA
ATOM     13  C   UNL     1     161.383 145.860 174.011  1.00  0.00     0.278 C 
ENDBRANCH   1  12
TORSDOF 1
ENDMDL
