MODEL 1
REMARK VINA RESULT:    -5.935      0.000      0.000
REMARK INTER + INTRA:          -6.603
REMARK INTER:                  -6.455
REMARK INTRA:                  -0.148
REMARK UNBOUND:                -0.148
REMARK SMILES C=C(C)[C@H]1CC=C(C)[C@@H](O)C1
REMARK SMILES IDX 8 1 7 2 6 3 5 4 4 5 11 6 9 7 10 8 2 10 1 11 3 12
REMARK H PARENT 10 9
REMARK Flexibility Score: inf
ROOT
ATOM      1  C   UNL     1     138.053 117.050 137.753  1.00  0.00     0.042 C 
ATOM      2  C   UNL     1     137.494 118.330 138.310  1.00  0.00    -0.049 C 
ATOM      3  C   UNL     1     136.668 119.082 137.563  1.00  0.00    -0.025 C 
ATOM      4  C   UNL     1     136.073 120.333 138.145  1.00  0.00     0.035 C 
ATOM      5  C   UNL     1     135.539 120.055 139.568  1.00  0.00     0.021 C 
ATOM      6  C   UNL     1     136.527 119.226 140.452  1.00  0.00     0.044 C 
ATOM      7  C   UNL     1     137.815 118.773 139.722  1.00  0.00     0.140 C 
ENDROOT
BRANCH   7   8
ATOM      8  O   UNL     1     138.737 119.831 139.665  1.00  0.00    -0.389 OA
ATOM      9  H   UNL     1     139.637 119.437 139.812  1.00  0.00     0.211 HD
ENDBRANCH   7   8
BRANCH   5  10
ATOM     10  C   UNL     1     135.130 121.355 140.247  1.00  0.00    -0.077 C 
ATOM     11  C   UNL     1     133.902 121.862 140.060  1.00  0.00     0.008 C 
ATOM     12  C   UNL     1     136.099 122.106 141.124  1.00  0.00     0.039 C 
ENDBRANCH   5  10
TORSDOF 2
ENDMDL
MODEL 2
REMARK VINA RESULT:    -5.915      1.273      4.040
REMARK INTER + INTRA:          -6.582
REMARK INTER:                  -6.434
REMARK INTRA:                  -0.148
REMARK UNBOUND:                -0.148
REMARK SMILES C=C(C)[C@H]1CC=C(C)[C@@H](O)C1
REMARK SMILES IDX 8 1 7 2 6 3 5 4 4 5 11 6 9 7 10 8 2 10 1 11 3 12
REMARK H PARENT 10 9
REMARK Flexibility Score: inf
ROOT
ATOM      1  C   UNL     1     136.209 122.179 141.116  1.00  0.00     0.042 C 
ATOM      2  C   UNL     1     136.265 120.888 140.346  1.00  0.00    -0.049 C 
ATOM      3  C   UNL     1     135.126 120.261 140.005  1.00  0.00    -0.025 C 
ATOM      4  C   UNL     1     135.188 118.999 139.192  1.00  0.00     0.035 C 
ATOM      5  C   UNL     1     136.174 119.174 138.015  1.00  0.00     0.021 C 
ATOM      6  C   UNL     1     137.520 119.854 138.427  1.00  0.00     0.044 C 
ATOM      7  C   UNL     1     137.588 120.295 139.910  1.00  0.00     0.140 C 
ENDROOT
BRANCH   7   8
ATOM      8  O   UNL     1     137.882 119.193 140.730  1.00  0.00    -0.389 OA
ATOM      9  H   UNL     1     137.140 118.543 140.617  1.00  0.00     0.211 HD
ENDBRANCH   7   8
BRANCH   5  10
ATOM     10  C   UNL     1     136.407 117.843 137.313  1.00  0.00    -0.077 C 
ATOM     11  C   UNL     1     135.582 117.437 136.335  1.00  0.00     0.008 C 
ATOM     12  C   UNL     1     137.552 116.948 137.714  1.00  0.00     0.039 C 
ENDBRANCH   5  10
TORSDOF 2
ENDMDL
MODEL 3
REMARK VINA RESULT:    -5.854      1.998      2.750
REMARK INTER + INTRA:          -6.516
REMARK INTER:                  -6.379
REMARK INTRA:                  -0.137
REMARK UNBOUND:                -0.148
REMARK SMILES C=C(C)[C@H]1CC=C(C)[C@@H](O)C1
REMARK SMILES IDX 8 1 7 2 6 3 5 4 4 5 11 6 9 7 10 8 2 10 1 11 3 12
REMARK H PARENT 10 9
REMARK Flexibility Score: inf
ROOT
ATOM      1  C   UNL     1     135.376 117.378 135.875  1.00  0.00     0.042 C 
ATOM      2  C   UNL     1     136.039 117.969 137.089  1.00  0.00    -0.049 C 
ATOM      3  C   UNL     1     137.297 118.433 137.007  1.00  0.00    -0.025 C 
ATOM      4  C   UNL     1     137.934 119.068 138.210  1.00  0.00     0.035 C 
ATOM      5  C   UNL     1     136.951 120.061 138.869  1.00  0.00     0.021 C 
ATOM      6  C   UNL     1     135.500 119.497 139.013  1.00  0.00     0.044 C 
ATOM      7  C   UNL     1     135.298 118.088 138.404  1.00  0.00     0.140 C 
ENDROOT
BRANCH   7   8
ATOM      8  O   UNL     1     135.778 117.105 139.284  1.00  0.00    -0.389 OA
ATOM      9  H   UNL     1     135.252 117.186 140.122  1.00  0.00     0.211 HD
ENDBRANCH   7   8
BRANCH   5  10
ATOM     10  C   UNL     1     137.501 120.550 140.202  1.00  0.00    -0.077 C 
ATOM     11  C   UNL     1     138.248 119.739 140.968  1.00  0.00     0.008 C 
ATOM     12  C   UNL     1     137.201 121.942 140.698  1.00  0.00     0.039 C 
ENDBRANCH   5  10
TORSDOF 2
ENDMDL
MODEL 4
REMARK VINA RESULT:    -5.846      1.617      1.960
REMARK INTER + INTRA:          -6.507
REMARK INTER:                  -6.394
REMARK INTRA:                  -0.113
REMARK UNBOUND:                -0.148
REMARK SMILES C=C(C)[C@H]1CC=C(C)[C@@H](O)C1
REMARK SMILES IDX 8 1 7 2 6 3 5 4 4 5 11 6 9 7 10 8 2 10 1 11 3 12
REMARK H PARENT 10 9
REMARK Flexibility Score: inf
ROOT
ATOM      1  C   UNL     1     138.059 116.473 137.729  1.00  0.00     0.042 C 
ATOM      2  C   UNL     1     137.096 117.568 138.096  1.00  0.00    -0.049 C 
ATOM      3  C   UNL     1     136.071 117.310 138.926  1.00  0.00    -0.025 C 
ATOM      4  C   UNL     1     135.143 118.421 139.327  1.00  0.00     0.035 C 
ATOM      5  C   UNL     1     135.955 119.676 139.718  1.00  0.00     0.021 C 
ATOM      6  C   UNL     1     137.112 120.005 138.718  1.00  0.00     0.044 C 
ATOM      7  C   UNL     1     137.279 118.977 137.572  1.00  0.00     0.140 C 
ENDROOT
BRANCH   7   8
ATOM      8  O   UNL     1     136.329 119.214 136.566  1.00  0.00    -0.389 OA
ATOM      9  H   UNL     1     136.050 120.163 136.650  1.00  0.00     0.211 HD
ENDBRANCH   7   8
BRANCH   5  10
ATOM     10  C   UNL     1     135.029 120.868 139.920  1.00  0.00    -0.077 C 
ATOM     11  C   UNL     1     133.802 120.696 140.434  1.00  0.00     0.008 C 
ATOM     12  C   UNL     1     135.463 122.258 139.527  1.00  0.00     0.039 C 
ENDBRANCH   5  10
TORSDOF 2
ENDMDL
MODEL 5
REMARK VINA RESULT:    -5.678      1.528      2.270
REMARK INTER + INTRA:          -6.324
REMARK INTER:                  -6.193
REMARK INTRA:                  -0.131
REMARK UNBOUND:                -0.148
REMARK SMILES C=C(C)[C@H]1CC=C(C)[C@@H](O)C1
REMARK SMILES IDX 8 1 7 2 6 3 5 4 4 5 11 6 9 7 10 8 2 10 1 11 3 12
REMARK H PARENT 10 9
REMARK Flexibility Score: inf
ROOT
ATOM      1  C   UNL     1     138.043 116.651 137.209  1.00  0.00     0.042 C 
ATOM      2  C   UNL     1     137.521 117.678 138.177  1.00  0.00    -0.049 C 
ATOM      3  C   UNL     1     138.377 118.365 138.952  1.00  0.00    -0.025 C 
ATOM      4  C   UNL     1     137.851 119.424 139.879  1.00  0.00     0.035 C 
ATOM      5  C   UNL     1     136.831 120.318 139.140  1.00  0.00     0.021 C 
ATOM      6  C   UNL     1     135.802 119.511 138.283  1.00  0.00     0.044 C 
ATOM      7  C   UNL     1     136.040 117.981 138.270  1.00  0.00     0.140 C 
ENDROOT
BRANCH   7   8
ATOM      8  O   UNL     1     135.532 117.402 139.444  1.00  0.00    -0.389 OA
ATOM      9  H   UNL     1     134.545 117.497 139.408  1.00  0.00     0.211 HD
ENDBRANCH   7   8
BRANCH   5  10
ATOM     10  C   UNL     1     136.136 121.256 140.119  1.00  0.00    -0.077 C 
ATOM     11  C   UNL     1     136.854 122.098 140.878  1.00  0.00     0.008 C 
ATOM     12  C   UNL     1     134.636 121.242 140.269  1.00  0.00     0.039 C 
ENDBRANCH   5  10
TORSDOF 2
ENDMDL
MODEL 6
REMARK VINA RESULT:    -5.624      1.697      4.527
REMARK INTER + INTRA:          -6.265
REMARK INTER:                  -6.110
REMARK INTRA:                  -0.156
REMARK UNBOUND:                -0.148
REMARK SMILES C=C(C)[C@H]1CC=C(C)[C@@H](O)C1
REMARK SMILES IDX 8 1 7 2 6 3 5 4 4 5 11 6 9 7 10 8 2 10 1 11 3 12
REMARK H PARENT 10 9
REMARK Flexibility Score: inf
ROOT
ATOM      1  C   UNL     1     132.643 122.818 139.965  1.00  0.00     0.042 C 
ATOM      2  C   UNL     1     133.887 121.980 140.082  1.00  0.00    -0.049 C 
ATOM      3  C   UNL     1     133.790 120.677 140.398  1.00  0.00    -0.025 C 
ATOM      4  C   UNL     1     135.032 119.836 140.464  1.00  0.00     0.035 C 
ATOM      5  C   UNL     1     135.924 120.109 139.233  1.00  0.00     0.021 C 
ATOM      6  C   UNL     1     136.079 121.630 138.902  1.00  0.00     0.044 C 
ATOM      7  C   UNL     1     135.255 122.571 139.814  1.00  0.00     0.140 C 
ENDROOT
BRANCH   7   8
ATOM      8  O   UNL     1     135.915 122.759 141.039  1.00  0.00    -0.389 OA
ATOM      9  H   UNL     1     135.228 123.049 141.695  1.00  0.00     0.211 HD
ENDBRANCH   7   8
BRANCH   5  10
ATOM     10  C   UNL     1     137.277 119.427 139.392  1.00  0.00    -0.077 C 
ATOM     11  C   UNL     1     138.032 119.660 140.476  1.00  0.00     0.008 C 
ATOM     12  C   UNL     1     137.801 118.495 138.329  1.00  0.00     0.039 C 
ENDBRANCH   5  10
TORSDOF 2
ENDMDL
MODEL 7
REMARK VINA RESULT:    -5.521      1.563      4.563
REMARK INTER + INTRA:          -6.154
REMARK INTER:                  -6.003
REMARK INTRA:                  -0.151
REMARK UNBOUND:                -0.148
REMARK SMILES C=C(C)[C@H]1CC=C(C)[C@@H](O)C1
REMARK SMILES IDX 8 1 7 2 6 3 5 4 4 5 11 6 9 7 10 8 2 10 1 11 3 12
REMARK H PARENT 10 9
REMARK Flexibility Score: inf
ROOT
ATOM      1  C   UNL     1     135.667 120.623 141.421  1.00  0.00     0.042 C 
ATOM      2  C   UNL     1     136.336 119.968 140.243  1.00  0.00    -0.049 C 
ATOM      3  C   UNL     1     137.581 119.478 140.366  1.00  0.00    -0.025 C 
ATOM      4  C   UNL     1     138.222 118.781 139.200  1.00  0.00     0.035 C 
ATOM      5  C   UNL     1     137.226 117.786 138.564  1.00  0.00     0.021 C 
ATOM      6  C   UNL     1     135.792 118.378 138.372  1.00  0.00     0.044 C 
ATOM      7  C   UNL     1     135.614 119.814 138.921  1.00  0.00     0.140 C 
ENDROOT
BRANCH   7   8
ATOM      8  O   UNL     1     136.133 120.749 138.011  1.00  0.00    -0.389 OA
ATOM      9  H   UNL     1     136.805 120.272 137.459  1.00  0.00     0.211 HD
ENDBRANCH   7   8
BRANCH   5  10
ATOM     10  C   UNL     1     137.786 117.231 137.261  1.00  0.00    -0.077 C 
ATOM     11  C   UNL     1     138.404 116.040 137.239  1.00  0.00     0.008 C 
ATOM     12  C   UNL     1     137.676 118.016 135.978  1.00  0.00     0.039 C 
ENDBRANCH   5  10
TORSDOF 2
ENDMDL
MODEL 8
REMARK VINA RESULT:    -5.479      1.531      2.142
REMARK INTER + INTRA:          -6.108
REMARK INTER:                  -5.948
REMARK INTRA:                  -0.159
REMARK UNBOUND:                -0.148
REMARK SMILES C=C(C)[C@H]1CC=C(C)[C@@H](O)C1
REMARK SMILES IDX 8 1 7 2 6 3 5 4 4 5 11 6 9 7 10 8 2 10 1 11 3 12
REMARK H PARENT 10 9
REMARK Flexibility Score: inf
ROOT
ATOM      1  C   UNL     1     138.743 118.744 139.757  1.00  0.00     0.042 C 
ATOM      2  C   UNL     1     137.766 119.884 139.679  1.00  0.00    -0.049 C 
ATOM      3  C   UNL     1     136.917 119.971 138.641  1.00  0.00    -0.025 C 
ATOM      4  C   UNL     1     135.910 121.085 138.597  1.00  0.00     0.035 C 
ATOM      5  C   UNL     1     135.222 121.234 139.972  1.00  0.00     0.021 C 
ATOM      6  C   UNL     1     136.221 121.188 141.175  1.00  0.00     0.044 C 
ATOM      7  C   UNL     1     137.693 120.927 140.775  1.00  0.00     0.140 C 
ENDROOT
BRANCH   7   8
ATOM      8  O   UNL     1     138.288 122.111 140.313  1.00  0.00    -0.389 OA
ATOM      9  H   UNL     1     138.595 122.612 141.114  1.00  0.00     0.211 HD
ENDBRANCH   7   8
BRANCH   5  10
ATOM     10  C   UNL     1     134.359 122.488 140.004  1.00  0.00    -0.077 C 
ATOM     11  C   UNL     1     134.928 123.703 140.037  1.00  0.00     0.008 C 
ATOM     12  C   UNL     1     132.855 122.390 140.019  1.00  0.00     0.039 C 
ENDBRANCH   5  10
TORSDOF 2
ENDMDL
MODEL 9
REMARK VINA RESULT:    -5.310      2.034      4.491
REMARK INTER + INTRA:          -5.924
REMARK INTER:                  -5.798
REMARK INTRA:                  -0.126
REMARK UNBOUND:                -0.148
REMARK SMILES C=C(C)[C@H]1CC=C(C)[C@@H](O)C1
REMARK SMILES IDX 8 1 7 2 6 3 5 4 4 5 11 6 9 7 10 8 2 10 1 11 3 12
REMARK H PARENT 10 9
REMARK Flexibility Score: inf
ROOT
ATOM      1  C   UNL     1     136.219 124.028 141.878  1.00  0.00     0.042 C 
ATOM      2  C   UNL     1     136.210 122.903 140.879  1.00  0.00    -0.049 C 
ATOM      3  C   UNL     1     137.256 122.062 140.806  1.00  0.00    -0.025 C 
ATOM      4  C   UNL     1     137.217 120.912 139.841  1.00  0.00     0.035 C 
ATOM      5  C   UNL     1     135.852 120.194 139.925  1.00  0.00     0.021 C 
ATOM      6  C   UNL     1     134.634 121.175 139.954  1.00  0.00     0.044 C 
ATOM      7  C   UNL     1     135.020 122.674 139.971  1.00  0.00     0.140 C 
ENDROOT
BRANCH   7   8
ATOM      8  O   UNL     1     135.349 123.106 138.676  1.00  0.00    -0.389 OA
ATOM      9  H   UNL     1     134.495 123.221 138.185  1.00  0.00     0.211 HD
ENDBRANCH   7   8
BRANCH   5  10
ATOM     10  C   UNL     1     135.721 119.166 138.809  1.00  0.00    -0.077 C 
ATOM     11  C   UNL     1     135.060 118.017 139.019  1.00  0.00     0.008 C 
ATOM     12  C   UNL     1     136.346 119.408 137.459  1.00  0.00     0.039 C 
ENDBRANCH   5  10
TORSDOF 2
ENDMDL
