MODEL 1
REMARK VINA RESULT:    -5.613      0.000      0.000
REMARK INTER + INTRA:          -9.450
REMARK INTER:                  -8.730
REMARK INTRA:                  -0.721
REMARK UNBOUND:                -0.721
REMARK SMILES COc1cc(CNC(=O)CCCCC=CC(C)C)ccc1O
REMARK SMILES IDX 11 1 12 2 13 3 14 4 15 5 16 6 17 7 18 8 10 9 8 10 9 11 7 12
REMARK SMILES IDX 6 14 5 15 4 16 19 17 3 18 20 19 21 20 2 21 1 22 22 23
REMARK H PARENT 7 13 22 24
REMARK Flexibility Score: inf
ROOT
ATOM      1  C   UNL     1     140.947 136.153 140.095  1.00  0.00     0.010 C 
ENDROOT
BRANCH   1   2
ATOM      2  C   UNL     1     141.068 134.727 140.661  1.00  0.00     0.005 C 
BRANCH   2   3
ATOM      3  C   UNL     1     141.817 133.771 139.722  1.00  0.00     0.027 C 
BRANCH   3   4
ATOM      4  C   UNL     1     141.306 133.898 138.310  1.00  0.00    -0.031 C 
ATOM      5  C   UNL     1     141.707 133.136 137.274  1.00  0.00    -0.028 C 
BRANCH   5   6
ATOM      6  C   UNL     1     142.796 132.086 137.343  1.00  0.00     0.005 C 
ATOM      7  C   UNL     1     142.191 130.695 137.135  1.00  0.00     0.012 C 
ATOM      8  C   UNL     1     143.859 132.377 136.280  1.00  0.00     0.012 C 
ENDBRANCH   5   6
ENDBRANCH   3   4
ENDBRANCH   2   3
ENDBRANCH   1   2
BRANCH   1   9
ATOM      9  C   UNL     1     139.583 136.823 140.341  1.00  0.00     0.100 C 
BRANCH   9  10
ATOM     10  C   UNL     1     138.990 137.388 139.082  1.00  0.00     0.220 C 
ATOM     11  O   UNL     1     139.550 137.154 137.975  1.00  0.00    -0.275 OA
ATOM     12  N   UNL     1     137.808 138.198 139.138  1.00  0.00    -0.352 N 
ATOM     13  H   UNL     1     137.312 138.306 140.053  1.00  0.00     0.163 HD
BRANCH  12  14
ATOM     14  C   UNL     1     137.411 139.085 138.048  1.00  0.00     0.151 C 
BRANCH  14  15
ATOM     15  C   UNL     1     136.454 140.122 138.567  1.00  0.00    -0.025 A 
ATOM     16  C   UNL     1     135.966 141.123 137.713  1.00  0.00     0.056 A 
ATOM     17  C   UNL     1     136.114 140.151 139.927  1.00  0.00     0.009 A 
ATOM     18  C   UNL     1     135.141 142.151 138.212  1.00  0.00     0.160 A 
ATOM     19  C   UNL     1     135.278 141.153 140.422  1.00  0.00     0.050 A 
ATOM     20  C   UNL     1     134.794 142.154 139.570  1.00  0.00     0.157 A 
BRANCH  18  21
ATOM     21  O   UNL     1     134.661 143.187 137.396  1.00  0.00    -0.493 OA
ATOM     22  C   UNL     1     135.410 144.346 137.043  1.00  0.00     0.278 C 
ENDBRANCH  18  21
BRANCH  20  23
ATOM     23  O   UNL     1     133.974 143.165 140.069  1.00  0.00    -0.504 OA
ATOM     24  H   UNL     1     134.351 143.940 140.601  1.00  0.00     0.293 HD
ENDBRANCH  20  23
ENDBRANCH  14  15
ENDBRANCH  12  14
ENDBRANCH   9  10
ENDBRANCH   1   9
TORSDOF 10
ENDMDL
MODEL 2
REMARK VINA RESULT:    -5.592      3.125      9.351
REMARK INTER + INTRA:          -9.418
REMARK INTER:                  -8.218
REMARK INTRA:                  -1.199
REMARK UNBOUND:                -0.721
REMARK SMILES COc1cc(CNC(=O)CCCCC=CC(C)C)ccc1O
REMARK SMILES IDX 11 1 12 2 13 3 14 4 15 5 16 6 17 7 18 8 10 9 8 10 9 11 7 12
REMARK SMILES IDX 6 14 5 15 4 16 19 17 3 18 20 19 21 20 2 21 1 22 22 23
REMARK H PARENT 7 13 22 24
REMARK Flexibility Score: inf
ROOT
ATOM      1  C   UNL     1     137.567 137.903 138.290  1.00  0.00     0.010 C 
ENDROOT
BRANCH   1   2
ATOM      2  C   UNL     1     138.455 139.103 138.663  1.00  0.00     0.005 C 
BRANCH   2   3
ATOM      3  C   UNL     1     137.970 139.840 139.920  1.00  0.00     0.027 C 
BRANCH   3   4
ATOM      4  C   UNL     1     136.531 139.507 140.214  1.00  0.00    -0.031 C 
ATOM      5  C   UNL     1     135.487 140.327 139.981  1.00  0.00    -0.028 C 
BRANCH   5   6
ATOM      6  C   UNL     1     135.600 141.746 139.465  1.00  0.00     0.005 C 
ATOM      7  C   UNL     1     135.327 141.774 137.959  1.00  0.00     0.012 C 
ATOM      8  C   UNL     1     134.610 142.645 140.211  1.00  0.00     0.012 C 
ENDBRANCH   5   6
ENDBRANCH   3   4
ENDBRANCH   2   3
ENDBRANCH   1   2
BRANCH   1   9
ATOM      9  C   UNL     1     137.254 137.783 136.788  1.00  0.00     0.100 C 
BRANCH   9  10
ATOM     10  C   UNL     1     138.022 136.670 136.133  1.00  0.00     0.220 C 
ATOM     11  O   UNL     1     137.398 135.677 135.669  1.00  0.00    -0.275 OA
ATOM     12  N   UNL     1     139.453 136.730 136.051  1.00  0.00    -0.352 N 
ATOM     13  H   UNL     1     139.941 137.600 136.363  1.00  0.00     0.163 HD
BRANCH  12  14
ATOM     14  C   UNL     1     140.275 135.549 135.801  1.00  0.00     0.151 C 
BRANCH  14  15
ATOM     15  C   UNL     1     140.823 135.033 137.104  1.00  0.00    -0.025 A 
ATOM     16  C   UNL     1     141.513 133.812 137.145  1.00  0.00     0.056 A 
ATOM     17  C   UNL     1     140.569 135.723 138.298  1.00  0.00     0.009 A 
ATOM     18  C   UNL     1     141.950 133.278 138.373  1.00  0.00     0.160 A 
ATOM     19  C   UNL     1     141.021 135.210 139.514  1.00  0.00     0.050 A 
ATOM     20  C   UNL     1     141.707 133.989 139.557  1.00  0.00     0.157 A 
BRANCH  18  21
ATOM     21  O   UNL     1     142.614 132.045 138.458  1.00  0.00    -0.493 OA
ATOM     22  C   UNL     1     142.502 131.002 137.494  1.00  0.00     0.278 C 
ENDBRANCH  18  21
BRANCH  20  23
ATOM     23  O   UNL     1     142.142 133.470 140.775  1.00  0.00    -0.504 OA
ATOM     24  H   UNL     1     141.776 132.600 141.141  1.00  0.00     0.293 HD
ENDBRANCH  20  23
ENDBRANCH  14  15
ENDBRANCH  12  14
ENDBRANCH   9  10
ENDBRANCH   1   9
TORSDOF 10
ENDMDL
MODEL 3
REMARK VINA RESULT:    -5.513      2.069      9.607
REMARK INTER + INTRA:          -9.295
REMARK INTER:                  -8.408
REMARK INTRA:                  -0.888
REMARK UNBOUND:                -0.721
REMARK SMILES COc1cc(CNC(=O)CCCCC=CC(C)C)ccc1O
REMARK SMILES IDX 11 1 12 2 13 3 14 4 15 5 16 6 17 7 18 8 10 9 8 10 9 11 7 12
REMARK SMILES IDX 6 14 5 15 4 16 19 17 3 18 20 19 21 20 2 21 1 22 22 23
REMARK H PARENT 7 13 22 24
REMARK Flexibility Score: inf
ROOT
ATOM      1  C   UNL     1     135.558 140.655 139.664  1.00  0.00     0.010 C 
ENDROOT
BRANCH   1   2
ATOM      2  C   UNL     1     135.483 142.088 140.220  1.00  0.00     0.005 C 
BRANCH   2   3
ATOM      3  C   UNL     1     134.597 143.013 139.373  1.00  0.00     0.027 C 
BRANCH   3   4
ATOM      4  C   UNL     1     135.429 143.820 138.412  1.00  0.00    -0.031 C 
ATOM      5  C   UNL     1     135.475 143.623 137.080  1.00  0.00    -0.028 C 
BRANCH   5   6
ATOM      6  C   UNL     1     134.764 142.507 136.345  1.00  0.00     0.005 C 
ATOM      7  C   UNL     1     133.454 143.029 135.749  1.00  0.00     0.012 C 
ATOM      8  C   UNL     1     135.675 141.952 135.245  1.00  0.00     0.012 C 
ENDBRANCH   5   6
ENDBRANCH   3   4
ENDBRANCH   2   3
ENDBRANCH   1   2
BRANCH   1   9
ATOM      9  C   UNL     1     136.827 139.881 140.066  1.00  0.00     0.100 C 
BRANCH   9  10
ATOM     10  C   UNL     1     137.570 139.349 138.874  1.00  0.00     0.220 C 
ATOM     11  O   UNL     1     137.249 139.741 137.718  1.00  0.00    -0.275 OA
ATOM     12  N   UNL     1     138.625 138.392 139.047  1.00  0.00    -0.352 N 
ATOM     13  H   UNL     1     138.932 138.148 140.015  1.00  0.00     0.163 HD
BRANCH  12  14
ATOM     14  C   UNL     1     139.110 137.553 137.954  1.00  0.00     0.151 C 
BRANCH  14  15
ATOM     15  C   UNL     1     140.043 136.507 138.500  1.00  0.00    -0.025 A 
ATOM     16  C   UNL     1     140.495 135.466 137.677  1.00  0.00     0.056 A 
ATOM     17  C   UNL     1     140.395 136.515 139.857  1.00  0.00     0.009 A 
ATOM     18  C   UNL     1     141.297 134.433 138.203  1.00  0.00     0.160 A 
ATOM     19  C   UNL     1     141.208 135.508 140.379  1.00  0.00     0.050 A 
ATOM     20  C   UNL     1     141.657 134.465 139.558  1.00  0.00     0.157 A 
BRANCH  18  21
ATOM     21  O   UNL     1     141.741 133.357 137.418  1.00  0.00    -0.493 OA
ATOM     22  C   UNL     1     140.930 132.250 137.038  1.00  0.00     0.278 C 
ENDBRANCH  18  21
BRANCH  20  23
ATOM     23  O   UNL     1     142.454 133.450 140.084  1.00  0.00    -0.504 OA
ATOM     24  H   UNL     1     143.459 133.546 140.150  1.00  0.00     0.293 HD
ENDBRANCH  20  23
ENDBRANCH  14  15
ENDBRANCH  12  14
ENDBRANCH   9  10
ENDBRANCH   1   9
TORSDOF 10
ENDMDL
MODEL 4
REMARK VINA RESULT:    -5.394      1.580      2.586
REMARK INTER + INTRA:          -9.110
REMARK INTER:                  -8.215
REMARK INTRA:                  -0.895
REMARK UNBOUND:                -0.721
REMARK SMILES COc1cc(CNC(=O)CCCCC=CC(C)C)ccc1O
REMARK SMILES IDX 11 1 12 2 13 3 14 4 15 5 16 6 17 7 18 8 10 9 8 10 9 11 7 12
REMARK SMILES IDX 6 14 5 15 4 16 19 17 3 18 20 19 21 20 2 21 1 22 22 23
REMARK H PARENT 7 13 22 24
REMARK Flexibility Score: inf
ROOT
ATOM      1  C   UNL     1     140.033 137.478 139.921  1.00  0.00     0.010 C 
ENDROOT
BRANCH   1   2
ATOM      2  C   UNL     1     141.159 136.465 140.195  1.00  0.00     0.005 C 
BRANCH   2   3
ATOM      3  C   UNL     1     140.636 135.051 140.485  1.00  0.00     0.027 C 
BRANCH   3   4
ATOM      4  C   UNL     1     141.718 134.025 140.272  1.00  0.00    -0.031 C 
ATOM      5  C   UNL     1     141.914 133.338 139.129  1.00  0.00    -0.028 C 
BRANCH   5   6
ATOM      6  C   UNL     1     141.028 133.424 137.905  1.00  0.00     0.005 C 
ATOM      7  C   UNL     1     141.529 134.535 136.978  1.00  0.00     0.012 C 
ATOM      8  C   UNL     1     141.020 132.077 137.178  1.00  0.00     0.012 C 
ENDBRANCH   5   6
ENDBRANCH   3   4
ENDBRANCH   2   3
ENDBRANCH   1   2
BRANCH   1   9
ATOM      9  C   UNL     1     138.744 136.860 139.347  1.00  0.00     0.100 C 
BRANCH   9  10
ATOM     10  C   UNL     1     137.514 137.601 139.785  1.00  0.00     0.220 C 
ATOM     11  O   UNL     1     136.464 136.954 140.054  1.00  0.00    -0.275 OA
ATOM     12  N   UNL     1     137.527 139.032 139.884  1.00  0.00    -0.352 N 
ATOM     13  H   UNL     1     138.430 139.539 139.742  1.00  0.00     0.163 HD
BRANCH  12  14
ATOM     14  C   UNL     1     136.303 139.828 139.913  1.00  0.00     0.151 C 
BRANCH  14  15
ATOM     15  C   UNL     1     136.101 140.487 138.576  1.00  0.00    -0.025 A 
ATOM     16  C   UNL     1     135.335 141.658 138.475  1.00  0.00     0.056 A 
ATOM     17  C   UNL     1     136.599 139.886 137.411  1.00  0.00     0.009 A 
ATOM     18  C   UNL     1     135.065 142.231 137.216  1.00  0.00     0.160 A 
ATOM     19  C   UNL     1     136.355 140.462 136.164  1.00  0.00     0.050 A 
ATOM     20  C   UNL     1     135.587 141.630 136.062  1.00  0.00     0.157 A 
BRANCH  18  21
ATOM     21  O   UNL     1     134.277 143.383 137.072  1.00  0.00    -0.493 OA
ATOM     22  C   UNL     1     134.050 144.337 138.106  1.00  0.00     0.278 C 
ENDBRANCH  18  21
BRANCH  20  23
ATOM     23  O   UNL     1     135.329 142.195 134.813  1.00  0.00    -0.504 OA
ATOM     24  H   UNL     1     134.751 143.020 134.714  1.00  0.00     0.293 HD
ENDBRANCH  20  23
ENDBRANCH  14  15
ENDBRANCH  12  14
ENDBRANCH   9  10
ENDBRANCH   1   9
TORSDOF 10
ENDMDL
MODEL 5
REMARK VINA RESULT:    -5.291      3.739      6.643
REMARK INTER + INTRA:          -8.950
REMARK INTER:                  -8.156
REMARK INTRA:                  -0.794
REMARK UNBOUND:                -0.721
REMARK SMILES COc1cc(CNC(=O)CCCCC=CC(C)C)ccc1O
REMARK SMILES IDX 11 1 12 2 13 3 14 4 15 5 16 6 17 7 18 8 10 9 8 10 9 11 7 12
REMARK SMILES IDX 6 14 5 15 4 16 19 17 3 18 20 19 21 20 2 21 1 22 22 23
REMARK H PARENT 7 13 22 24
REMARK Flexibility Score: inf
ROOT
ATOM      1  C   UNL     1     135.690 140.311 140.152  1.00  0.00     0.010 C 
ENDROOT
BRANCH   1   2
ATOM      2  C   UNL     1     137.213 140.124 140.265  1.00  0.00     0.005 C 
BRANCH   2   3
ATOM      3  C   UNL     1     137.616 138.684 140.613  1.00  0.00     0.027 C 
BRANCH   3   4
ATOM      4  C   UNL     1     137.084 137.717 139.589  1.00  0.00    -0.031 C 
ATOM      5  C   UNL     1     137.783 137.244 138.539  1.00  0.00    -0.028 C 
BRANCH   5   6
ATOM      6  C   UNL     1     139.188 137.673 138.171  1.00  0.00     0.005 C 
ATOM      7  C   UNL     1     139.936 136.504 137.524  1.00  0.00     0.012 C 
ATOM      8  C   UNL     1     139.128 138.870 137.218  1.00  0.00     0.012 C 
ENDBRANCH   5   6
ENDBRANCH   3   4
ENDBRANCH   2   3
ENDBRANCH   1   2
BRANCH   1   9
ATOM      9  C   UNL     1     135.206 141.757 140.367  1.00  0.00     0.100 C 
BRANCH   9  10
ATOM     10  C   UNL     1     134.865 142.441 139.074  1.00  0.00     0.220 C 
ATOM     11  O   UNL     1     135.324 141.984 137.992  1.00  0.00    -0.275 OA
ATOM     12  N   UNL     1     134.036 143.612 139.072  1.00  0.00    -0.352 N 
ATOM     13  H   UNL     1     133.596 143.921 139.968  1.00  0.00     0.163 HD
BRANCH  12  14
ATOM     14  C   UNL     1     133.988 144.537 137.942  1.00  0.00     0.151 C 
BRANCH  14  15
ATOM     15  C   UNL     1     132.661 145.246 137.931  1.00  0.00    -0.025 A 
ATOM     16  C   UNL     1     131.692 144.944 138.899  1.00  0.00     0.056 A 
ATOM     17  C   UNL     1     132.351 146.146 136.902  1.00  0.00     0.009 A 
ATOM     18  C   UNL     1     130.415 145.537 138.843  1.00  0.00     0.160 A 
ATOM     19  C   UNL     1     131.096 146.755 136.855  1.00  0.00     0.050 A 
ATOM     20  C   UNL     1     130.126 146.451 137.819  1.00  0.00     0.157 A 
BRANCH  18  21
ATOM     21  O   UNL     1     129.408 145.235 139.774  1.00  0.00    -0.493 OA
ATOM     22  C   UNL     1     128.816 143.949 139.930  1.00  0.00     0.278 C 
ENDBRANCH  18  21
BRANCH  20  23
ATOM     23  O   UNL     1     128.867 147.045 137.761  1.00  0.00    -0.504 OA
ATOM     24  H   UNL     1     128.507 147.443 136.902  1.00  0.00     0.293 HD
ENDBRANCH  20  23
ENDBRANCH  14  15
ENDBRANCH  12  14
ENDBRANCH   9  10
ENDBRANCH   1   9
TORSDOF 10
ENDMDL
MODEL 6
REMARK VINA RESULT:    -5.279      4.362     11.518
REMARK INTER + INTRA:          -8.932
REMARK INTER:                  -8.260
REMARK INTRA:                  -0.672
REMARK UNBOUND:                -0.721
REMARK SMILES COc1cc(CNC(=O)CCCCC=CC(C)C)ccc1O
REMARK SMILES IDX 11 1 12 2 13 3 14 4 15 5 16 6 17 7 18 8 10 9 8 10 9 11 7 12
REMARK SMILES IDX 6 14 5 15 4 16 19 17 3 18 20 19 21 20 2 21 1 22 22 23
REMARK H PARENT 7 13 22 24
REMARK Flexibility Score: inf
ROOT
ATOM      1  C   UNL     1     140.480 135.331 140.591  1.00  0.00     0.010 C 
ENDROOT
BRANCH   1   2
ATOM      2  C   UNL     1     141.000 136.738 140.249  1.00  0.00     0.005 C 
BRANCH   2   3
ATOM      3  C   UNL     1     139.885 137.793 140.199  1.00  0.00     0.027 C 
BRANCH   3   4
ATOM      4  C   UNL     1     138.556 137.154 139.893  1.00  0.00    -0.031 C 
ATOM      5  C   UNL     1     137.554 137.746 139.214  1.00  0.00    -0.028 C 
BRANCH   5   6
ATOM      6  C   UNL     1     137.570 139.178 138.723  1.00  0.00     0.005 C 
ATOM      7  C   UNL     1     136.878 139.267 137.361  1.00  0.00     0.012 C 
ATOM      8  C   UNL     1     136.871 140.081 139.744  1.00  0.00     0.012 C 
ENDBRANCH   5   6
ENDBRANCH   3   4
ENDBRANCH   2   3
ENDBRANCH   1   2
BRANCH   1   9
ATOM      9  C   UNL     1     141.569 134.244 140.651  1.00  0.00     0.100 C 
BRANCH   9  10
ATOM     10  C   UNL     1     141.756 133.553 139.331  1.00  0.00     0.220 C 
ATOM     11  O   UNL     1     140.847 133.625 138.460  1.00  0.00    -0.275 OA
ATOM     12  N   UNL     1     142.952 132.805 139.069  1.00  0.00    -0.352 N 
ATOM     13  H   UNL     1     143.728 132.832 139.769  1.00  0.00     0.163 HD
BRANCH  12  14
ATOM     14  C   UNL     1     143.037 131.807 138.006  1.00  0.00     0.151 C 
BRANCH  14  15
ATOM     15  C   UNL     1     144.354 131.087 138.097  1.00  0.00    -0.025 A 
ATOM     16  C   UNL     1     145.345 131.539 138.981  1.00  0.00     0.056 A 
ATOM     17  C   UNL     1     144.635 130.017 137.236  1.00  0.00     0.009 A 
ATOM     18  C   UNL     1     146.614 130.927 139.009  1.00  0.00     0.160 A 
ATOM     19  C   UNL     1     145.882 129.391 137.276  1.00  0.00     0.050 A 
ATOM     20  C   UNL     1     146.873 129.845 138.156  1.00  0.00     0.157 A 
BRANCH  18  21
ATOM     21  O   UNL     1     147.641 131.372 139.856  1.00  0.00    -0.493 OA
ATOM     22  C   UNL     1     148.020 132.736 140.014  1.00  0.00     0.278 C 
ENDBRANCH  18  21
BRANCH  20  23
ATOM     23  O   UNL     1     148.124 129.230 138.181  1.00  0.00    -0.504 OA
ATOM     24  H   UNL     1     148.898 129.624 138.703  1.00  0.00     0.293 HD
ENDBRANCH  20  23
ENDBRANCH  14  15
ENDBRANCH  12  14
ENDBRANCH   9  10
ENDBRANCH   1   9
TORSDOF 10
ENDMDL
MODEL 7
REMARK VINA RESULT:    -5.266      1.785      2.960
REMARK INTER + INTRA:          -8.912
REMARK INTER:                  -8.042
REMARK INTRA:                  -0.869
REMARK UNBOUND:                -0.721
REMARK SMILES COc1cc(CNC(=O)CCCCC=CC(C)C)ccc1O
REMARK SMILES IDX 11 1 12 2 13 3 14 4 15 5 16 6 17 7 18 8 10 9 8 10 9 11 7 12
REMARK SMILES IDX 6 14 5 15 4 16 19 17 3 18 20 19 21 20 2 21 1 22 22 23
REMARK H PARENT 7 13 22 24
REMARK Flexibility Score: inf
ROOT
ATOM      1  C   UNL     1     140.570 135.433 137.530  1.00  0.00     0.010 C 
ENDROOT
BRANCH   1   2
ATOM      2  C   UNL     1     141.365 134.546 136.556  1.00  0.00     0.005 C 
BRANCH   2   3
ATOM      3  C   UNL     1     140.619 133.260 136.171  1.00  0.00     0.027 C 
BRANCH   3   4
ATOM      4  C   UNL     1     140.964 132.138 137.114  1.00  0.00    -0.031 C 
ATOM      5  C   UNL     1     142.032 131.326 136.989  1.00  0.00    -0.028 C 
BRANCH   5   6
ATOM      6  C   UNL     1     143.010 131.356 135.834  1.00  0.00     0.005 C 
ATOM      7  C   UNL     1     144.379 131.835 136.326  1.00  0.00     0.012 C 
ATOM      8  C   UNL     1     143.118 129.961 135.213  1.00  0.00     0.012 C 
ENDBRANCH   5   6
ENDBRANCH   3   4
ENDBRANCH   2   3
ENDBRANCH   1   2
BRANCH   1   9
ATOM      9  C   UNL     1     141.007 135.315 139.002  1.00  0.00     0.100 C 
BRANCH   9  10
ATOM     10  C   UNL     1     140.033 135.971 139.939  1.00  0.00     0.220 C 
ATOM     11  O   UNL     1     139.603 135.327 140.935  1.00  0.00    -0.275 OA
ATOM     12  N   UNL     1     139.584 137.311 139.694  1.00  0.00    -0.352 N 
ATOM     13  H   UNL     1     140.018 137.855 138.914  1.00  0.00     0.163 HD
BRANCH  12  14
ATOM     14  C   UNL     1     138.376 137.858 140.307  1.00  0.00     0.151 C 
BRANCH  14  15
ATOM     15  C   UNL     1     137.662 138.735 139.315  1.00  0.00    -0.025 A 
ATOM     16  C   UNL     1     136.874 139.807 139.760  1.00  0.00     0.056 A 
ATOM     17  C   UNL     1     137.706 138.432 137.947  1.00  0.00     0.009 A 
ATOM     18  C   UNL     1     136.131 140.577 138.843  1.00  0.00     0.160 A 
ATOM     19  C   UNL     1     136.990 139.206 137.033  1.00  0.00     0.050 A 
ATOM     20  C   UNL     1     136.200 140.275 137.476  1.00  0.00     0.157 A 
BRANCH  18  21
ATOM     21  O   UNL     1     135.306 141.637 139.253  1.00  0.00    -0.493 OA
ATOM     22  C   UNL     1     135.172 142.077 140.601  1.00  0.00     0.278 C 
ENDBRANCH  18  21
BRANCH  20  23
ATOM     23  O   UNL     1     135.472 141.036 136.563  1.00  0.00    -0.504 OA
ATOM     24  H   UNL     1     135.611 140.943 135.565  1.00  0.00     0.293 HD
ENDBRANCH  20  23
ENDBRANCH  14  15
ENDBRANCH  12  14
ENDBRANCH   9  10
ENDBRANCH   1   9
TORSDOF 10
ENDMDL
MODEL 8
REMARK VINA RESULT:    -5.220      2.502     10.403
REMARK INTER + INTRA:          -8.841
REMARK INTER:                  -8.161
REMARK INTRA:                  -0.679
REMARK UNBOUND:                -0.721
REMARK SMILES COc1cc(CNC(=O)CCCCC=CC(C)C)ccc1O
REMARK SMILES IDX 11 1 12 2 13 3 14 4 15 5 16 6 17 7 18 8 10 9 8 10 9 11 7 12
REMARK SMILES IDX 6 14 5 15 4 16 19 17 3 18 20 19 21 20 2 21 1 22 22 23
REMARK H PARENT 7 13 22 24
REMARK Flexibility Score: inf
ROOT
ATOM      1  C   UNL     1     135.396 141.486 138.930  1.00  0.00     0.010 C 
ENDROOT
BRANCH   1   2
ATOM      2  C   UNL     1     135.015 142.973 138.811  1.00  0.00     0.005 C 
BRANCH   2   3
ATOM      3  C   UNL     1     134.967 143.465 137.358  1.00  0.00     0.027 C 
BRANCH   3   4
ATOM      4  C   UNL     1     134.904 144.969 137.303  1.00  0.00    -0.031 C 
ATOM      5  C   UNL     1     133.771 145.695 137.357  1.00  0.00    -0.028 C 
BRANCH   5   6
ATOM      6  C   UNL     1     132.373 145.115 137.397  1.00  0.00     0.005 C 
ATOM      7  C   UNL     1     131.631 145.632 138.632  1.00  0.00     0.012 C 
ATOM      8  C   UNL     1     131.621 145.494 136.118  1.00  0.00     0.012 C 
ENDBRANCH   5   6
ENDBRANCH   3   4
ENDBRANCH   2   3
ENDBRANCH   1   2
BRANCH   1   9
ATOM      9  C   UNL     1     136.132 141.118 140.231  1.00  0.00     0.100 C 
BRANCH   9  10
ATOM     10  C   UNL     1     136.564 139.680 140.252  1.00  0.00     0.220 C 
ATOM     11  O   UNL     1     135.691 138.772 140.331  1.00  0.00    -0.275 OA
ATOM     12  N   UNL     1     137.958 139.342 140.200  1.00  0.00    -0.352 N 
ATOM     13  H   UNL     1     138.657 140.104 140.047  1.00  0.00     0.163 HD
BRANCH  12  14
ATOM     14  C   UNL     1     138.464 138.033 140.606  1.00  0.00     0.151 C 
BRANCH  14  15
ATOM     15  C   UNL     1     139.090 137.347 139.423  1.00  0.00    -0.025 A 
ATOM     16  C   UNL     1     139.973 136.275 139.616  1.00  0.00     0.056 A 
ATOM     17  C   UNL     1     138.866 137.832 138.127  1.00  0.00     0.009 A 
ATOM     18  C   UNL     1     140.633 135.685 138.519  1.00  0.00     0.160 A 
ATOM     19  C   UNL     1     139.498 137.237 137.035  1.00  0.00     0.050 A 
ATOM     20  C   UNL     1     140.383 136.168 137.226  1.00  0.00     0.157 A 
BRANCH  18  21
ATOM     21  O   UNL     1     141.548 134.632 138.675  1.00  0.00    -0.493 OA
ATOM     22  C   UNL     1     141.731 133.897 139.881  1.00  0.00     0.278 C 
ENDBRANCH  18  21
BRANCH  20  23
ATOM     23  O   UNL     1     141.029 135.586 136.136  1.00  0.00    -0.504 OA
ATOM     24  H   UNL     1     140.963 135.983 135.207  1.00  0.00     0.293 HD
ENDBRANCH  20  23
ENDBRANCH  14  15
ENDBRANCH  12  14
ENDBRANCH   9  10
ENDBRANCH   1   9
TORSDOF 10
ENDMDL
MODEL 9
REMARK VINA RESULT:    -5.181      1.666      2.449
REMARK INTER + INTRA:          -8.779
REMARK INTER:                  -7.818
REMARK INTRA:                  -0.961
REMARK UNBOUND:                -0.721
REMARK SMILES COc1cc(CNC(=O)CCCCC=CC(C)C)ccc1O
REMARK SMILES IDX 11 1 12 2 13 3 14 4 15 5 16 6 17 7 18 8 10 9 8 10 9 11 7 12
REMARK SMILES IDX 6 14 5 15 4 16 19 17 3 18 20 19 21 20 2 21 1 22 22 23
REMARK H PARENT 7 13 22 24
REMARK Flexibility Score: inf
ROOT
ATOM      1  C   UNL     1     141.392 135.796 140.034  1.00  0.00     0.010 C 
ENDROOT
BRANCH   1   2
ATOM      2  C   UNL     1     141.690 134.295 140.200  1.00  0.00     0.005 C 
BRANCH   2   3
ATOM      3  C   UNL     1     141.020 133.429 139.124  1.00  0.00     0.027 C 
BRANCH   3   4
ATOM      4  C   UNL     1     142.011 133.035 138.060  1.00  0.00    -0.031 C 
ATOM      5  C   UNL     1     141.840 133.230 136.738  1.00  0.00    -0.028 C 
BRANCH   5   6
ATOM      6  C   UNL     1     140.590 133.798 136.101  1.00  0.00     0.005 C 
ATOM      7  C   UNL     1     140.667 135.327 136.078  1.00  0.00     0.012 C 
ATOM      8  C   UNL     1     140.436 133.244 134.682  1.00  0.00     0.012 C 
ENDBRANCH   5   6
ENDBRANCH   3   4
ENDBRANCH   2   3
ENDBRANCH   1   2
BRANCH   1   9
ATOM      9  C   UNL     1     139.903 136.132 139.828  1.00  0.00     0.100 C 
BRANCH   9  10
ATOM     10  C   UNL     1     139.592 137.564 140.159  1.00  0.00     0.220 C 
ATOM     11  O   UNL     1     140.515 138.318 140.573  1.00  0.00    -0.275 OA
ATOM     12  N   UNL     1     138.255 138.064 140.020  1.00  0.00    -0.352 N 
ATOM     13  H   UNL     1     137.526 137.448 139.594  1.00  0.00     0.163 HD
BRANCH  12  14
ATOM     14  C   UNL     1     137.802 139.287 140.678  1.00  0.00     0.151 C 
BRANCH  14  15
ATOM     15  C   UNL     1     136.877 140.038 139.760  1.00  0.00    -0.025 A 
ATOM     16  C   UNL     1     136.878 139.768 138.383  1.00  0.00     0.056 A 
ATOM     17  C   UNL     1     136.076 141.075 140.259  1.00  0.00     0.009 A 
ATOM     18  C   UNL     1     136.081 140.529 137.504  1.00  0.00     0.160 A 
ATOM     19  C   UNL     1     135.267 141.815 139.396  1.00  0.00     0.050 A 
ATOM     20  C   UNL     1     135.269 141.548 138.021  1.00  0.00     0.157 A 
BRANCH  18  21
ATOM     21  O   UNL     1     136.079 140.310 136.118  1.00  0.00    -0.493 OA
ATOM     22  C   UNL     1     137.254 140.181 135.322  1.00  0.00     0.278 C 
ENDBRANCH  18  21
BRANCH  20  23
ATOM     23  O   UNL     1     134.474 142.301 137.158  1.00  0.00    -0.504 OA
ATOM     24  H   UNL     1     133.645 141.911 136.726  1.00  0.00     0.293 HD
ENDBRANCH  20  23
ENDBRANCH  14  15
ENDBRANCH  12  14
ENDBRANCH   9  10
ENDBRANCH   1   9
TORSDOF 10
ENDMDL
