MODEL 1
REMARK VINA RESULT:    -4.206      0.000      0.000
REMARK INTER + INTRA:          -5.831
REMARK INTER:                  -5.436
REMARK INTRA:                  -0.396
REMARK UNBOUND:                -0.396
REMARK SMILES CCO[C@@H]1O[C@@H](CO)[C@H](O)[C@H](O)[C@H]1O
REMARK SMILES IDX 4 1 13 2 11 3 9 4 6 5 5 6 3 7 2 8 1 9 14 10 12 12 7 14 8 15
REMARK SMILES IDX 10 17
REMARK H PARENT 14 11 12 13 8 16 10 18
REMARK Flexibility Score: inf
ROOT
ATOM      1  C   UNL     1      17.878  25.716  45.519  1.00  0.00     0.281 C 
ATOM      2  C   UNL     1      17.911  26.831  44.454  1.00  0.00     0.202 C 
ATOM      3  C   UNL     1      19.141  27.743  44.652  1.00  0.00     0.179 C 
ATOM      4  C   UNL     1      20.412  26.886  44.792  1.00  0.00     0.177 C 
ATOM      5  C   UNL     1      20.206  25.780  45.859  1.00  0.00     0.178 C 
ATOM      6  O   UNL     1      19.089  24.971  45.520  1.00  0.00    -0.341 OA
ENDROOT
BRANCH   1   7
ATOM      7  O   UNL     1      17.604  26.268  46.797  1.00  0.00    -0.350 OA
BRANCH   7   8
ATOM      8  C   UNL     1      16.269  26.734  46.878  1.00  0.00     0.160 C 
ATOM      9  C   UNL     1      16.121  27.704  48.043  1.00  0.00     0.035 C 
ENDBRANCH   7   8
ENDBRANCH   1   7
BRANCH   2  10
ATOM     10  O   UNL     1      17.952  26.243  43.178  1.00  0.00    -0.385 OA
ATOM     11  H   UNL     1      18.911  26.136  42.941  1.00  0.00     0.211 HD
ENDBRANCH   2  10
BRANCH   3  12
ATOM     12  O   UNL     1      18.968  28.543  45.796  1.00  0.00    -0.387 OA
ATOM     13  H   UNL     1      18.599  27.955  46.505  1.00  0.00     0.211 HD
ENDBRANCH   3  12
BRANCH   5  14
ATOM     14  C   UNL     1      21.446  24.879  45.953  1.00  0.00     0.191 C 
BRANCH  14  15
ATOM     15  O   UNL     1      22.523  25.588  46.505  1.00  0.00    -0.394 OA
ATOM     16  H   UNL     1      22.198  26.509  46.686  1.00  0.00     0.210 HD
ENDBRANCH  14  15
ENDBRANCH   5  14
BRANCH   4  17
ATOM     17  O   UNL     1      21.528  27.694  45.080  1.00  0.00    -0.387 OA
ATOM     18  H   UNL     1      21.375  28.127  45.960  1.00  0.00     0.211 HD
ENDBRANCH   4  17
TORSDOF 7
ENDMDL
MODEL 2
REMARK VINA RESULT:    -4.156     11.472     13.114
REMARK INTER + INTRA:          -5.767
REMARK INTER:                  -5.305
REMARK INTRA:                  -0.462
REMARK UNBOUND:                -0.396
REMARK SMILES CCO[C@@H]1O[C@@H](CO)[C@H](O)[C@H](O)[C@H]1O
REMARK SMILES IDX 4 1 13 2 11 3 9 4 6 5 5 6 3 7 2 8 1 9 14 10 12 12 7 14 8 15
REMARK SMILES IDX 10 17
REMARK H PARENT 14 11 12 13 8 16 10 18
REMARK Flexibility Score: inf
ROOT
ATOM      1  C   UNL     1      20.939  26.117  31.684  1.00  0.00     0.281 C 
ATOM      2  C   UNL     1      19.812  27.165  31.586  1.00  0.00     0.202 C 
ATOM      3  C   UNL     1      19.179  27.421  32.971  1.00  0.00     0.179 C 
ATOM      4  C   UNL     1      20.283  27.692  34.010  1.00  0.00     0.177 C 
ATOM      5  C   UNL     1      21.366  26.584  33.951  1.00  0.00     0.178 C 
ATOM      6  O   UNL     1      21.916  26.502  32.644  1.00  0.00    -0.341 OA
ENDROOT
BRANCH   1   7
ATOM      7  O   UNL     1      20.397  24.839  31.975  1.00  0.00    -0.350 OA
BRANCH   7   8
ATOM      8  C   UNL     1      19.862  24.233  30.812  1.00  0.00     0.160 C 
ATOM      9  C   UNL     1      18.502  23.619  31.118  1.00  0.00     0.035 C 
ENDBRANCH   7   8
ENDBRANCH   1   7
BRANCH   2  10
ATOM     10  O   UNL     1      20.342  28.361  31.073  1.00  0.00    -0.385 OA
ATOM     11  H   UNL     1      19.641  29.057  31.183  1.00  0.00     0.211 HD
ENDBRANCH   2  10
BRANCH   3  12
ATOM     12  O   UNL     1      18.409  26.311  33.361  1.00  0.00    -0.387 OA
ATOM     13  H   UNL     1      18.922  25.838  34.067  1.00  0.00     0.211 HD
ENDBRANCH   3  12
BRANCH   5  14
ATOM     14  C   UNL     1      22.504  26.886  34.936  1.00  0.00     0.191 C 
BRANCH  14  15
ATOM     15  O   UNL     1      22.128  26.531  36.240  1.00  0.00    -0.394 OA
ATOM     16  H   UNL     1      21.137  26.462  36.244  1.00  0.00     0.210 HD
ENDBRANCH  14  15
ENDBRANCH   5  14
BRANCH   4  17
ATOM     17  O   UNL     1      19.732  27.822  35.298  1.00  0.00    -0.387 OA
ATOM     18  H   UNL     1      18.783  27.531  35.257  1.00  0.00     0.211 HD
ENDBRANCH   4  17
TORSDOF 7
ENDMDL
MODEL 3
REMARK VINA RESULT:    -4.093      1.555      3.734
REMARK INTER + INTRA:          -5.685
REMARK INTER:                  -5.342
REMARK INTRA:                  -0.343
REMARK UNBOUND:                -0.396
REMARK SMILES CCO[C@@H]1O[C@@H](CO)[C@H](O)[C@H](O)[C@H]1O
REMARK SMILES IDX 4 1 13 2 11 3 9 4 6 5 5 6 3 7 2 8 1 9 14 10 12 12 7 14 8 15
REMARK SMILES IDX 10 17
REMARK H PARENT 14 11 12 13 8 16 10 18
REMARK Flexibility Score: inf
ROOT
ATOM      1  C   UNL     1      20.058  25.516  44.687  1.00  0.00     0.281 C 
ATOM      2  C   UNL     1      18.548  25.430  44.386  1.00  0.00     0.202 C 
ATOM      3  C   UNL     1      17.768  26.503  45.177  1.00  0.00     0.179 C 
ATOM      4  C   UNL     1      18.431  27.879  44.988  1.00  0.00     0.177 C 
ATOM      5  C   UNL     1      19.952  27.793  45.275  1.00  0.00     0.178 C 
ATOM      6  O   UNL     1      20.558  26.823  44.433  1.00  0.00    -0.341 OA
ENDROOT
BRANCH   1   7
ATOM      7  O   UNL     1      20.315  25.109  46.022  1.00  0.00    -0.350 OA
BRANCH   7   8
ATOM      8  C   UNL     1      21.653  24.673  46.175  1.00  0.00     0.160 C 
ATOM      9  C   UNL     1      21.717  23.509  47.157  1.00  0.00     0.035 C 
ENDBRANCH   7   8
ENDBRANCH   1   7
BRANCH   2  10
ATOM     10  O   UNL     1      18.345  25.611  43.007  1.00  0.00    -0.385 OA
ATOM     11  H   UNL     1      17.620  26.283  42.909  1.00  0.00     0.211 HD
ENDBRANCH   2  10
BRANCH   3  12
ATOM     12  O   UNL     1      17.735  26.165  46.542  1.00  0.00    -0.387 OA
ATOM     13  H   UNL     1      18.544  25.618  46.723  1.00  0.00     0.211 HD
ENDBRANCH   3  12
BRANCH   5  14
ATOM     14  C   UNL     1      20.630  29.147  45.020  1.00  0.00     0.191 C 
BRANCH  14  15
ATOM     15  O   UNL     1      19.959  29.845  44.006  1.00  0.00    -0.394 OA
ATOM     16  H   UNL     1      18.992  29.645  44.112  1.00  0.00     0.210 HD
ENDBRANCH  14  15
ENDBRANCH   5  14
BRANCH   4  17
ATOM     17  O   UNL     1      17.798  28.850  45.786  1.00  0.00    -0.387 OA
ATOM     18  H   UNL     1      16.854  28.571  45.919  1.00  0.00     0.211 HD
ENDBRANCH   4  17
TORSDOF 7
ENDMDL
MODEL 4
REMARK VINA RESULT:    -4.074      2.263      4.972
REMARK INTER + INTRA:          -5.661
REMARK INTER:                  -5.445
REMARK INTRA:                  -0.216
REMARK UNBOUND:                -0.396
REMARK SMILES CCO[C@@H]1O[C@@H](CO)[C@H](O)[C@H](O)[C@H]1O
REMARK SMILES IDX 4 1 13 2 11 3 9 4 6 5 5 6 3 7 2 8 1 9 14 10 12 12 7 14 8 15
REMARK SMILES IDX 10 17
REMARK H PARENT 14 11 12 13 8 16 10 18
REMARK Flexibility Score: inf
ROOT
ATOM      1  C   UNL     1      17.713  26.734  44.882  1.00  0.00     0.281 C 
ATOM      2  C   UNL     1      17.684  26.563  46.414  1.00  0.00     0.202 C 
ATOM      3  C   UNL     1      17.300  27.889  47.108  1.00  0.00     0.179 C 
ATOM      4  C   UNL     1      16.034  28.474  46.457  1.00  0.00     0.177 C 
ATOM      5  C   UNL     1      16.195  28.533  44.915  1.00  0.00     0.178 C 
ATOM      6  O   UNL     1      16.474  27.240  44.399  1.00  0.00    -0.341 OA
ENDROOT
BRANCH   1   7
ATOM      7  O   UNL     1      18.799  27.564  44.502  1.00  0.00    -0.350 OA
BRANCH   7   8
ATOM      8  C   UNL     1      19.926  26.793  44.127  1.00  0.00     0.160 C 
ATOM      9  C   UNL     1      19.479  25.521  43.416  1.00  0.00     0.035 C 
ENDBRANCH   7   8
ENDBRANCH   1   7
BRANCH   2  10
ATOM     10  O   UNL     1      16.754  25.563  46.746  1.00  0.00    -0.385 OA
ATOM     11  H   UNL     1      16.049  25.583  46.046  1.00  0.00     0.211 HD
ENDBRANCH   2  10
BRANCH   3  12
ATOM     12  O   UNL     1      18.362  28.806  47.013  1.00  0.00    -0.387 OA
ATOM     13  H   UNL     1      19.199  28.295  47.168  1.00  0.00     0.211 HD
ENDBRANCH   3  12
BRANCH   5  14
ATOM     14  C   UNL     1      14.909  29.051  44.256  1.00  0.00     0.191 C 
BRANCH  14  15
ATOM     15  O   UNL     1      14.765  28.505  42.972  1.00  0.00    -0.394 OA
ATOM     16  H   UNL     1      15.228  29.121  42.345  1.00  0.00     0.210 HD
ENDBRANCH  14  15
ENDBRANCH   5  14
BRANCH   4  17
ATOM     17  O   UNL     1      15.730  29.734  47.004  1.00  0.00    -0.387 OA
ATOM     18  H   UNL     1      14.853  29.665  47.464  1.00  0.00     0.211 HD
ENDBRANCH   4  17
TORSDOF 7
ENDMDL
MODEL 5
REMARK VINA RESULT:    -4.066      1.695      2.639
REMARK INTER + INTRA:          -5.650
REMARK INTER:                  -5.235
REMARK INTRA:                  -0.415
REMARK UNBOUND:                -0.396
REMARK SMILES CCO[C@@H]1O[C@@H](CO)[C@H](O)[C@H](O)[C@H]1O
REMARK SMILES IDX 4 1 13 2 11 3 9 4 6 5 5 6 3 7 2 8 1 9 14 10 12 12 7 14 8 15
REMARK SMILES IDX 10 17
REMARK H PARENT 14 11 12 13 8 16 10 18
REMARK Flexibility Score: inf
ROOT
ATOM      1  C   UNL     1      17.740  27.619  45.899  1.00  0.00     0.281 C 
ATOM      2  C   UNL     1      17.283  26.186  45.560  1.00  0.00     0.202 C 
ATOM      3  C   UNL     1      18.129  25.597  44.411  1.00  0.00     0.179 C 
ATOM      4  C   UNL     1      19.627  25.789  44.711  1.00  0.00     0.177 C 
ATOM      5  C   UNL     1      19.920  27.265  45.086  1.00  0.00     0.178 C 
ATOM      6  O   UNL     1      19.130  27.657  46.199  1.00  0.00    -0.341 OA
ENDROOT
BRANCH   1   7
ATOM      7  O   UNL     1      17.411  28.503  44.839  1.00  0.00    -0.350 OA
BRANCH   7   8
ATOM      8  C   UNL     1      16.025  28.795  44.828  1.00  0.00     0.160 C 
ATOM      9  C   UNL     1      15.764  30.130  45.514  1.00  0.00     0.035 C 
ENDBRANCH   7   8
ENDBRANCH   1   7
BRANCH   2  10
ATOM     10  O   UNL     1      17.407  25.383  46.707  1.00  0.00    -0.385 OA
ATOM     11  H   UNL     1      17.535  24.449  46.391  1.00  0.00     0.211 HD
ENDBRANCH   2  10
BRANCH   3  12
ATOM     12  O   UNL     1      17.794  26.223  43.197  1.00  0.00    -0.387 OA
ATOM     13  H   UNL     1      16.835  26.031  43.029  1.00  0.00     0.211 HD
ENDBRANCH   3  12
BRANCH   5  14
ATOM     14  C   UNL     1      21.400  27.447  45.453  1.00  0.00     0.191 C 
BRANCH  14  15
ATOM     15  O   UNL     1      21.959  26.222  45.847  1.00  0.00    -0.394 OA
ATOM     16  H   UNL     1      22.780  26.435  46.364  1.00  0.00     0.210 HD
ENDBRANCH  14  15
ENDBRANCH   5  14
BRANCH   4  17
ATOM     17  O   UNL     1      20.411  25.354  43.626  1.00  0.00    -0.387 OA
ATOM     18  H   UNL     1      21.139  24.781  43.984  1.00  0.00     0.211 HD
ENDBRANCH   4  17
TORSDOF 7
ENDMDL
MODEL 6
REMARK VINA RESULT:    -4.058      1.924      4.651
REMARK INTER + INTRA:          -5.640
REMARK INTER:                  -5.208
REMARK INTRA:                  -0.432
REMARK UNBOUND:                -0.396
REMARK SMILES CCO[C@@H]1O[C@@H](CO)[C@H](O)[C@H](O)[C@H]1O
REMARK SMILES IDX 4 1 13 2 11 3 9 4 6 5 5 6 3 7 2 8 1 9 14 10 12 12 7 14 8 15
REMARK SMILES IDX 10 17
REMARK H PARENT 14 11 12 13 8 16 10 18
REMARK Flexibility Score: inf
ROOT
ATOM      1  C   UNL     1      18.261  27.526  45.175  1.00  0.00     0.281 C 
ATOM      2  C   UNL     1      16.870  26.890  44.988  1.00  0.00     0.202 C 
ATOM      3  C   UNL     1      16.174  26.680  46.351  1.00  0.00     0.179 C 
ATOM      4  C   UNL     1      16.232  27.978  47.175  1.00  0.00     0.177 C 
ATOM      5  C   UNL     1      17.683  28.523  47.228  1.00  0.00     0.178 C 
ATOM      6  O   UNL     1      18.176  28.739  45.914  1.00  0.00    -0.341 OA
ENDROOT
BRANCH   1   7
ATOM      7  O   UNL     1      19.144  26.602  45.791  1.00  0.00    -0.350 OA
BRANCH   7   8
ATOM      8  C   UNL     1      19.627  25.655  44.856  1.00  0.00     0.160 C 
ATOM      9  C   UNL     1      20.184  26.365  43.628  1.00  0.00     0.035 C 
ENDBRANCH   7   8
ENDBRANCH   1   7
BRANCH   2  10
ATOM     10  O   UNL     1      16.088  27.730  44.176  1.00  0.00    -0.385 OA
ATOM     11  H   UNL     1      16.486  27.702  43.266  1.00  0.00     0.211 HD
ENDBRANCH   2  10
BRANCH   3  12
ATOM     12  O   UNL     1      16.797  25.632  47.053  1.00  0.00    -0.387 OA
ATOM     13  H   UNL     1      17.347  25.131  46.394  1.00  0.00     0.211 HD
ENDBRANCH   3  12
BRANCH   5  14
ATOM     14  C   UNL     1      17.734  29.855  47.990  1.00  0.00     0.191 C 
BRANCH  14  15
ATOM     15  O   UNL     1      16.512  30.533  47.871  1.00  0.00    -0.394 OA
ATOM     16  H   UNL     1      16.720  31.438  47.520  1.00  0.00     0.210 HD
ENDBRANCH  14  15
ENDBRANCH   5  14
BRANCH   4  17
ATOM     17  O   UNL     1      15.698  27.776  48.461  1.00  0.00    -0.387 OA
ATOM     18  H   UNL     1      14.846  28.283  48.523  1.00  0.00     0.211 HD
ENDBRANCH   4  17
TORSDOF 7
ENDMDL
MODEL 7
REMARK VINA RESULT:    -4.008      1.693      4.400
REMARK INTER + INTRA:          -5.576
REMARK INTER:                  -5.234
REMARK INTRA:                  -0.342
REMARK UNBOUND:                -0.396
REMARK SMILES CCO[C@@H]1O[C@@H](CO)[C@H](O)[C@H](O)[C@H]1O
REMARK SMILES IDX 4 1 13 2 11 3 9 4 6 5 5 6 3 7 2 8 1 9 14 10 12 12 7 14 8 15
REMARK SMILES IDX 10 17
REMARK H PARENT 14 11 12 13 8 16 10 18
REMARK Flexibility Score: inf
ROOT
ATOM      1  C   UNL     1      19.182  27.556  44.188  1.00  0.00     0.281 C 
ATOM      2  C   UNL     1      19.196  26.021  44.039  1.00  0.00     0.202 C 
ATOM      3  C   UNL     1      18.708  25.340  45.336  1.00  0.00     0.179 C 
ATOM      4  C   UNL     1      17.383  25.976  45.796  1.00  0.00     0.177 C 
ATOM      5  C   UNL     1      17.512  27.520  45.845  1.00  0.00     0.178 C 
ATOM      6  O   UNL     1      17.896  28.023  44.574  1.00  0.00    -0.341 OA
ENDROOT
BRANCH   1   7
ATOM      7  O   UNL     1      20.184  27.968  45.105  1.00  0.00    -0.350 OA
BRANCH   7   8
ATOM      8  C   UNL     1      20.567  29.311  44.874  1.00  0.00     0.160 C 
ATOM      9  C   UNL     1      21.877  29.614  45.591  1.00  0.00     0.035 C 
ENDBRANCH   7   8
ENDBRANCH   1   7
BRANCH   2  10
ATOM     10  O   UNL     1      18.364  25.658  42.966  1.00  0.00    -0.385 OA
ATOM     11  H   UNL     1      17.968  26.497  42.613  1.00  0.00     0.211 HD
ENDBRANCH   2  10
BRANCH   3  12
ATOM     12  O   UNL     1      19.681  25.467  46.343  1.00  0.00    -0.387 OA
ATOM     13  H   UNL     1      19.679  26.418  46.627  1.00  0.00     0.211 HD
ENDBRANCH   3  12
BRANCH   5  14
ATOM     14  C   UNL     1      16.173  28.163  46.236  1.00  0.00     0.191 C 
BRANCH  14  15
ATOM     15  O   UNL     1      15.103  27.387  45.767  1.00  0.00    -0.394 OA
ATOM     16  H   UNL     1      14.540  27.169  46.555  1.00  0.00     0.210 HD
ENDBRANCH  14  15
ENDBRANCH   5  14
BRANCH   4  17
ATOM     17  O   UNL     1      16.978  25.441  47.033  1.00  0.00    -0.387 OA
ATOM     18  H   UNL     1      16.135  24.936  46.888  1.00  0.00     0.211 HD
ENDBRANCH   4  17
TORSDOF 7
ENDMDL
MODEL 8
REMARK VINA RESULT:    -3.987     12.254     14.072
REMARK INTER + INTRA:          -5.549
REMARK INTER:                  -5.100
REMARK INTRA:                  -0.449
REMARK UNBOUND:                -0.396
REMARK SMILES CCO[C@@H]1O[C@@H](CO)[C@H](O)[C@H](O)[C@H]1O
REMARK SMILES IDX 4 1 13 2 11 3 9 4 6 5 5 6 3 7 2 8 1 9 14 10 12 12 7 14 8 15
REMARK SMILES IDX 10 17
REMARK H PARENT 14 11 12 13 8 16 10 18
REMARK Flexibility Score: inf
ROOT
ATOM      1  C   UNL     1      22.192  26.680  31.942  1.00  0.00     0.281 C 
ATOM      2  C   UNL     1      22.126  27.613  33.168  1.00  0.00     0.202 C 
ATOM      3  C   UNL     1      20.677  28.080  33.425  1.00  0.00     0.179 C 
ATOM      4  C   UNL     1      19.728  26.868  33.430  1.00  0.00     0.177 C 
ATOM      5  C   UNL     1      19.949  26.000  32.164  1.00  0.00     0.178 C 
ATOM      6  O   UNL     1      21.303  25.579  32.086  1.00  0.00    -0.341 OA
ENDROOT
BRANCH   1   7
ATOM      7  O   UNL     1      21.928  27.411  30.755  1.00  0.00    -0.350 OA
BRANCH   7   8
ATOM      8  C   UNL     1      23.065  28.147  30.344  1.00  0.00     0.160 C 
ATOM      9  C   UNL     1      24.226  27.203  30.056  1.00  0.00     0.035 C 
ENDBRANCH   7   8
ENDBRANCH   1   7
BRANCH   2  10
ATOM     10  O   UNL     1      22.614  26.925  34.293  1.00  0.00    -0.385 OA
ATOM     11  H   UNL     1      23.249  26.239  33.957  1.00  0.00     0.211 HD
ENDBRANCH   2  10
BRANCH   3  12
ATOM     12  O   UNL     1      20.284  28.998  32.435  1.00  0.00    -0.387 OA
ATOM     13  H   UNL     1      19.773  29.715  32.894  1.00  0.00     0.211 HD
ENDBRANCH   3  12
BRANCH   5  14
ATOM     14  C   UNL     1      19.055  24.753  32.198  1.00  0.00     0.191 C 
BRANCH  14  15
ATOM     15  O   UNL     1      18.913  24.290  33.515  1.00  0.00    -0.394 OA
ATOM     16  H   UNL     1      19.625  23.613  33.659  1.00  0.00     0.210 HD
ENDBRANCH  14  15
ENDBRANCH   5  14
BRANCH   4  17
ATOM     17  O   UNL     1      18.389  27.284  33.557  1.00  0.00    -0.387 OA
ATOM     18  H   UNL     1      18.028  26.901  34.399  1.00  0.00     0.211 HD
ENDBRANCH   4  17
TORSDOF 7
ENDMDL
MODEL 9
REMARK VINA RESULT:    -3.890     12.223     13.920
REMARK INTER + INTRA:          -5.423
REMARK INTER:                  -4.980
REMARK INTRA:                  -0.443
REMARK UNBOUND:                -0.396
REMARK SMILES CCO[C@@H]1O[C@@H](CO)[C@H](O)[C@H](O)[C@H]1O
REMARK SMILES IDX 4 1 13 2 11 3 9 4 6 5 5 6 3 7 2 8 1 9 14 10 12 12 7 14 8 15
REMARK SMILES IDX 10 17
REMARK H PARENT 14 11 12 13 8 16 10 18
REMARK Flexibility Score: inf
ROOT
ATOM      1  C   UNL     1      20.712  27.598  31.282  1.00  0.00     0.281 C 
ATOM      2  C   UNL     1      21.603  27.467  32.533  1.00  0.00     0.202 C 
ATOM      3  C   UNL     1      20.988  26.475  33.544  1.00  0.00     0.179 C 
ATOM      4  C   UNL     1      20.607  25.166  32.829  1.00  0.00     0.177 C 
ATOM      5  C   UNL     1      19.760  25.465  31.565  1.00  0.00     0.178 C 
ATOM      6  O   UNL     1      20.468  26.329  30.689  1.00  0.00    -0.341 OA
ENDROOT
BRANCH   1   7
ATOM      7  O   UNL     1      19.501  28.262  31.611  1.00  0.00    -0.350 OA
BRANCH   7   8
ATOM      8  C   UNL     1      19.710  29.651  31.785  1.00  0.00     0.160 C 
ATOM      9  C   UNL     1      18.741  30.201  32.825  1.00  0.00     0.035 C 
ENDBRANCH   7   8
ENDBRANCH   1   7
BRANCH   2  10
ATOM     10  O   UNL     1      22.878  27.022  32.142  1.00  0.00    -0.385 OA
ATOM     11  H   UNL     1      23.152  26.325  32.795  1.00  0.00     0.211 HD
ENDBRANCH   2  10
BRANCH   3  12
ATOM     12  O   UNL     1      19.853  27.044  34.148  1.00  0.00    -0.387 OA
ATOM     13  H   UNL     1      19.713  27.930  33.720  1.00  0.00     0.211 HD
ENDBRANCH   3  12
BRANCH   5  14
ATOM     14  C   UNL     1      19.436  24.168  30.810  1.00  0.00     0.191 C 
BRANCH  14  15
ATOM     15  O   UNL     1      18.481  23.419  31.513  1.00  0.00    -0.394 OA
ATOM     16  H   UNL     1      18.923  22.571  31.781  1.00  0.00     0.210 HD
ENDBRANCH  14  15
ENDBRANCH   5  14
BRANCH   4  17
ATOM     17  O   UNL     1      19.948  24.290  33.711  1.00  0.00    -0.387 OA
ATOM     18  H   UNL     1      18.982  24.521  33.708  1.00  0.00     0.211 HD
ENDBRANCH   4  17
TORSDOF 7
ENDMDL
