MODEL 1
REMARK VINA RESULT:    -3.370      0.000      0.000
REMARK INTER + INTRA:          -7.994
REMARK INTER:                  -6.325
REMARK INTRA:                  -1.669
REMARK UNBOUND:                -1.669
REMARK SMILES O=C([O-])CCCCCCCCCCCCCCC(=O)[O-]
REMARK SMILES IDX 10 1 9 2 8 3 7 4 6 5 5 6 4 7 2 8 1 9 3 10 11 11 12 12 13 13
REMARK SMILES IDX 14 14 15 15 16 16 17 17 18 18 19 19 20 20
REMARK H PARENT
REMARK Flexibility Score: inf
ROOT
ATOM      1  C   UNL     1    -116.235  35.606  -7.129  1.00  0.00     0.000 C 
ENDROOT
BRANCH   1   2
ATOM      2  C   UNL     1    -114.898  34.959  -7.527  1.00  0.00     0.000 C 
BRANCH   2   3
ATOM      3  C   UNL     1    -115.064  33.880  -8.609  1.00  0.00     0.000 C 
BRANCH   3   4
ATOM      4  C   UNL     1    -116.534  33.656  -9.006  1.00  0.00     0.000 C 
BRANCH   4   5
ATOM      5  C   UNL     1    -116.723  33.545 -10.527  1.00  0.00     0.000 C 
BRANCH   5   6
ATOM      6  C   UNL     1    -115.586  34.219 -11.314  1.00  0.00     0.006 C 
BRANCH   6   7
ATOM      7  C   UNL     1    -115.920  34.360 -12.805  1.00  0.00     0.053 C 
BRANCH   7   8
ATOM      8  C   UNL     1    -114.879  33.716 -13.669  1.00  0.00     0.041 C 
ATOM      9  O   UNL     1    -114.784  32.461 -13.718  1.00  0.00    -0.550 OA
ATOM     10  O   UNL     1    -114.039  34.501 -14.448  1.00  0.00    -0.550 OA
ENDBRANCH   7   8
ENDBRANCH   6   7
ENDBRANCH   5   6
ENDBRANCH   4   5
ENDBRANCH   3   4
ENDBRANCH   2   3
ENDBRANCH   1   2
BRANCH   1  11
ATOM     11  C   UNL     1    -116.454  36.980  -7.786  1.00  0.00     0.000 C 
BRANCH  11  12
ATOM     12  C   UNL     1    -115.419  37.363  -8.864  1.00  0.00     0.000 C 
BRANCH  12  13
ATOM     13  C   UNL     1    -116.011  37.723 -10.241  1.00  0.00     0.000 C 
BRANCH  13  14
ATOM     14  C   UNL     1    -115.017  38.369 -11.226  1.00  0.00     0.000 C 
BRANCH  14  15
ATOM     15  C   UNL     1    -115.030  37.777 -12.649  1.00  0.00     0.000 C 
BRANCH  15  16
ATOM     16  C   UNL     1    -113.749  38.023 -13.467  1.00  0.00     0.006 C 
BRANCH  16  17
ATOM     17  C   UNL     1    -112.726  38.894 -12.727  1.00  0.00     0.053 C 
BRANCH  17  18
ATOM     18  C   UNL     1    -111.395  38.826 -13.406  1.00  0.00     0.041 C 
ATOM     19  O   UNL     1    -110.505  39.677 -13.143  1.00  0.00    -0.550 OA
ATOM     20  O   UNL     1    -111.118  37.794 -14.294  1.00  0.00    -0.550 OA
ENDBRANCH  17  18
ENDBRANCH  16  17
ENDBRANCH  15  16
ENDBRANCH  14  15
ENDBRANCH  13  14
ENDBRANCH  12  13
ENDBRANCH  11  12
ENDBRANCH   1  11
TORSDOF 15
ENDMDL
MODEL 2
REMARK VINA RESULT:    -3.363      2.391      3.135
REMARK INTER + INTRA:          -7.981
REMARK INTER:                  -6.258
REMARK INTRA:                  -1.724
REMARK UNBOUND:                -1.669
REMARK SMILES O=C([O-])CCCCCCCCCCCCCCC(=O)[O-]
REMARK SMILES IDX 10 1 9 2 8 3 7 4 6 5 5 6 4 7 2 8 1 9 3 10 11 11 12 12 13 13
REMARK SMILES IDX 14 14 15 15 16 16 17 17 18 18 19 19 20 20
REMARK H PARENT
REMARK Flexibility Score: inf
ROOT
ATOM      1  C   UNL     1    -114.909  34.736  -7.688  1.00  0.00     0.000 C 
ENDROOT
BRANCH   1   2
ATOM      2  C   UNL     1    -115.085  33.824  -8.914  1.00  0.00     0.000 C 
BRANCH   2   3
ATOM      3  C   UNL     1    -116.563  33.539  -9.230  1.00  0.00     0.000 C 
BRANCH   3   4
ATOM      4  C   UNL     1    -116.909  33.769 -10.712  1.00  0.00     0.000 C 
BRANCH   4   5
ATOM      5  C   UNL     1    -116.001  34.816 -11.374  1.00  0.00     0.000 C 
BRANCH   5   6
ATOM      6  C   UNL     1    -115.584  34.420 -12.801  1.00  0.00     0.006 C 
BRANCH   6   7
ATOM      7  C   UNL     1    -114.775  33.117 -12.827  1.00  0.00     0.053 C 
BRANCH   7   8
ATOM      8  C   UNL     1    -115.288  32.167 -13.865  1.00  0.00     0.041 C 
ATOM      9  O   UNL     1    -115.042  32.366 -15.084  1.00  0.00    -0.550 OA
ATOM     10  O   UNL     1    -116.008  31.042 -13.483  1.00  0.00    -0.550 OA
ENDBRANCH   7   8
ENDBRANCH   6   7
ENDBRANCH   5   6
ENDBRANCH   4   5
ENDBRANCH   3   4
ENDBRANCH   2   3
ENDBRANCH   1   2
BRANCH   1  11
ATOM     11  C   UNL     1    -116.231  35.373  -7.223  1.00  0.00     0.000 C 
BRANCH  11  12
ATOM     12  C   UNL     1    -116.422  36.851  -7.622  1.00  0.00     0.000 C 
BRANCH  12  13
ATOM     13  C   UNL     1    -115.427  37.378  -8.673  1.00  0.00     0.000 C 
BRANCH  13  14
ATOM     14  C   UNL     1    -116.070  38.125  -9.858  1.00  0.00     0.000 C 
BRANCH  14  15
ATOM     15  C   UNL     1    -115.140  38.354 -11.067  1.00  0.00     0.000 C 
BRANCH  15  16
ATOM     16  C   UNL     1    -114.081  39.454 -10.873  1.00  0.00     0.006 C 
BRANCH  16  17
ATOM     17  C   UNL     1    -114.671  40.763 -10.336  1.00  0.00     0.053 C 
BRANCH  17  18
ATOM     18  C   UNL     1    -113.963  41.182  -9.087  1.00  0.00     0.041 C 
ATOM     19  O   UNL     1    -113.044  42.041  -9.137  1.00  0.00    -0.550 OA
ATOM     20  O   UNL     1    -114.351  40.659  -7.859  1.00  0.00    -0.550 OA
ENDBRANCH  17  18
ENDBRANCH  16  17
ENDBRANCH  15  16
ENDBRANCH  14  15
ENDBRANCH  13  14
ENDBRANCH  12  13
ENDBRANCH  11  12
ENDBRANCH   1  11
TORSDOF 15
ENDMDL
MODEL 3
REMARK VINA RESULT:    -3.340      1.955      3.130
REMARK INTER + INTRA:          -7.937
REMARK INTER:                  -6.025
REMARK INTRA:                  -1.912
REMARK UNBOUND:                -1.669
REMARK SMILES O=C([O-])CCCCCCCCCCCCCCC(=O)[O-]
REMARK SMILES IDX 10 1 9 2 8 3 7 4 6 5 5 6 4 7 2 8 1 9 3 10 11 11 12 12 13 13
REMARK SMILES IDX 14 14 15 15 16 16 17 17 18 18 19 19 20 20
REMARK H PARENT
REMARK Flexibility Score: inf
ROOT
ATOM      1  C   UNL     1    -115.128  33.853  -8.719  1.00  0.00     0.000 C 
ENDROOT
BRANCH   1   2
ATOM      2  C   UNL     1    -116.568  33.571  -9.179  1.00  0.00     0.000 C 
BRANCH   2   3
ATOM      3  C   UNL     1    -116.799  33.943 -10.653  1.00  0.00     0.000 C 
BRANCH   3   4
ATOM      4  C   UNL     1    -115.490  34.238 -11.405  1.00  0.00     0.000 C 
BRANCH   4   5
ATOM      5  C   UNL     1    -115.732  34.727 -12.841  1.00  0.00     0.000 C 
BRANCH   5   6
ATOM      6  C   UNL     1    -115.037  33.844 -13.891  1.00  0.00     0.006 C 
BRANCH   6   7
ATOM      7  C   UNL     1    -114.765  32.427 -13.368  1.00  0.00     0.053 C 
BRANCH   7   8
ATOM      8  C   UNL     1    -115.787  31.449 -13.859  1.00  0.00     0.041 C 
ATOM      9  O   UNL     1    -116.523  30.836 -13.042  1.00  0.00    -0.550 OA
ATOM     10  O   UNL     1    -115.952  31.242 -15.223  1.00  0.00    -0.550 OA
ENDBRANCH   7   8
ENDBRANCH   6   7
ENDBRANCH   5   6
ENDBRANCH   4   5
ENDBRANCH   3   4
ENDBRANCH   2   3
ENDBRANCH   1   2
BRANCH   1  11
ATOM     11  C   UNL     1    -115.062  34.796  -7.504  1.00  0.00     0.000 C 
BRANCH  11  12
ATOM     12  C   UNL     1    -116.395  35.477  -7.131  1.00  0.00     0.000 C 
BRANCH  12  13
ATOM     13  C   UNL     1    -116.473  36.982  -7.454  1.00  0.00     0.000 C 
BRANCH  13  14
ATOM     14  C   UNL     1    -116.968  37.315  -8.875  1.00  0.00     0.000 C 
BRANCH  14  15
ATOM     15  C   UNL     1    -115.857  37.642  -9.893  1.00  0.00     0.000 C 
BRANCH  15  16
ATOM     16  C   UNL     1    -114.642  38.388  -9.312  1.00  0.00     0.006 C 
BRANCH  16  17
ATOM     17  C   UNL     1    -114.447  39.780  -9.926  1.00  0.00     0.053 C 
BRANCH  17  18
ATOM     18  C   UNL     1    -114.244  39.676 -11.404  1.00  0.00     0.041 C 
ATOM     19  O   UNL     1    -113.226  39.095 -11.864  1.00  0.00    -0.550 OA
ATOM     20  O   UNL     1    -115.202  40.178 -12.275  1.00  0.00    -0.550 OA
ENDBRANCH  17  18
ENDBRANCH  16  17
ENDBRANCH  15  16
ENDBRANCH  14  15
ENDBRANCH  13  14
ENDBRANCH  12  13
ENDBRANCH  11  12
ENDBRANCH   1  11
TORSDOF 15
ENDMDL
MODEL 4
REMARK VINA RESULT:    -3.325      2.359      4.451
REMARK INTER + INTRA:          -7.910
REMARK INTER:                  -6.171
REMARK INTRA:                  -1.739
REMARK UNBOUND:                -1.669
REMARK SMILES O=C([O-])CCCCCCCCCCCCCCC(=O)[O-]
REMARK SMILES IDX 10 1 9 2 8 3 7 4 6 5 5 6 4 7 2 8 1 9 3 10 11 11 12 12 13 13
REMARK SMILES IDX 14 14 15 15 16 16 17 17 18 18 19 19 20 20
REMARK H PARENT
REMARK Flexibility Score: inf
ROOT
ATOM      1  C   UNL     1    -115.984  33.813  -9.560  1.00  0.00     0.000 C 
ENDROOT
BRANCH   1   2
ATOM      2  C   UNL     1    -114.894  33.857  -8.477  1.00  0.00     0.000 C 
BRANCH   2   3
ATOM      3  C   UNL     1    -115.061  35.048  -7.520  1.00  0.00     0.000 C 
BRANCH   3   4
ATOM      4  C   UNL     1    -116.454  35.697  -7.615  1.00  0.00     0.000 C 
BRANCH   4   5
ATOM      5  C   UNL     1    -116.383  37.210  -7.876  1.00  0.00     0.000 C 
BRANCH   5   6
ATOM      6  C   UNL     1    -115.835  37.543  -9.274  1.00  0.00     0.006 C 
BRANCH   6   7
ATOM      7  C   UNL     1    -114.661  38.529  -9.216  1.00  0.00     0.053 C 
BRANCH   7   8
ATOM      8  C   UNL     1    -115.080  39.858  -8.667  1.00  0.00     0.041 C 
ATOM      9  O   UNL     1    -115.984  40.523  -9.237  1.00  0.00    -0.550 OA
ATOM     10  O   UNL     1    -114.496  40.345  -7.504  1.00  0.00    -0.550 OA
ENDBRANCH   7   8
ENDBRANCH   6   7
ENDBRANCH   5   6
ENDBRANCH   4   5
ENDBRANCH   3   4
ENDBRANCH   2   3
ENDBRANCH   1   2
BRANCH   1  11
ATOM     11  C   UNL     1    -115.411  33.871 -10.988  1.00  0.00     0.000 C 
BRANCH  11  12
ATOM     12  C   UNL     1    -115.964  35.009 -11.870  1.00  0.00     0.000 C 
BRANCH  12  13
ATOM     13  C   UNL     1    -115.547  34.949 -13.352  1.00  0.00     0.000 C 
BRANCH  13  14
ATOM     14  C   UNL     1    -114.803  36.196 -13.868  1.00  0.00     0.000 C 
BRANCH  14  15
ATOM     15  C   UNL     1    -114.780  37.392 -12.895  1.00  0.00     0.000 C 
BRANCH  15  16
ATOM     16  C   UNL     1    -114.028  38.633 -13.408  1.00  0.00     0.006 C 
BRANCH  16  17
ATOM     17  C   UNL     1    -112.876  39.056 -12.487  1.00  0.00     0.053 C 
BRANCH  17  18
ATOM     18  C   UNL     1    -111.560  38.839 -13.164  1.00  0.00     0.041 C 
ATOM     19  O   UNL     1    -111.418  37.897 -13.986  1.00  0.00    -0.550 OA
ATOM     20  O   UNL     1    -110.503  39.708 -12.923  1.00  0.00    -0.550 OA
ENDBRANCH  17  18
ENDBRANCH  16  17
ENDBRANCH  15  16
ENDBRANCH  14  15
ENDBRANCH  13  14
ENDBRANCH  12  13
ENDBRANCH  11  12
ENDBRANCH   1  11
TORSDOF 15
ENDMDL
MODEL 5
REMARK VINA RESULT:    -3.288      1.588      5.570
REMARK INTER + INTRA:          -7.840
REMARK INTER:                  -6.038
REMARK INTRA:                  -1.802
REMARK UNBOUND:                -1.669
REMARK SMILES O=C([O-])CCCCCCCCCCCCCCC(=O)[O-]
REMARK SMILES IDX 10 1 9 2 8 3 7 4 6 5 5 6 4 7 2 8 1 9 3 10 11 11 12 12 13 13
REMARK SMILES IDX 14 14 15 15 16 16 17 17 18 18 19 19 20 20
REMARK H PARENT
REMARK Flexibility Score: inf
ROOT
ATOM      1  C   UNL     1    -114.953  34.999  -7.635  1.00  0.00     0.000 C 
ENDROOT
BRANCH   1   2
ATOM      2  C   UNL     1    -116.270  35.617  -7.139  1.00  0.00     0.000 C 
BRANCH   2   3
ATOM      3  C   UNL     1    -116.483  37.048  -7.659  1.00  0.00     0.000 C 
BRANCH   3   4
ATOM      4  C   UNL     1    -115.533  37.408  -8.815  1.00  0.00     0.000 C 
BRANCH   4   5
ATOM      5  C   UNL     1    -116.264  37.526 -10.162  1.00  0.00     0.000 C 
BRANCH   5   6
ATOM      6  C   UNL     1    -115.372  38.116 -11.268  1.00  0.00     0.006 C 
BRANCH   6   7
ATOM      7  C   UNL     1    -114.419  39.192 -10.731  1.00  0.00     0.053 C 
BRANCH   7   8
ATOM      8  C   UNL     1    -113.373  39.558 -11.739  1.00  0.00     0.041 C 
ATOM      9  O   UNL     1    -112.813  40.685 -11.691  1.00  0.00    -0.550 OA
ATOM     10  O   UNL     1    -112.991  38.640 -12.709  1.00  0.00    -0.550 OA
ENDBRANCH   7   8
ENDBRANCH   6   7
ENDBRANCH   5   6
ENDBRANCH   4   5
ENDBRANCH   3   4
ENDBRANCH   2   3
ENDBRANCH   1   2
BRANCH   1  11
ATOM     11  C   UNL     1    -115.172  33.830  -8.612  1.00  0.00     0.000 C 
BRANCH  11  12
ATOM     12  C   UNL     1    -116.621  33.656  -9.112  1.00  0.00     0.000 C 
BRANCH  12  13
ATOM     13  C   UNL     1    -116.824  33.889 -10.622  1.00  0.00     0.000 C 
BRANCH  13  14
ATOM     14  C   UNL     1    -115.548  34.272 -11.397  1.00  0.00     0.000 C 
BRANCH  14  15
ATOM     15  C   UNL     1    -115.767  34.628 -12.881  1.00  0.00     0.000 C 
BRANCH  15  16
ATOM     16  C   UNL     1    -114.884  33.850 -13.873  1.00  0.00     0.006 C 
BRANCH  16  17
ATOM     17  C   UNL     1    -114.689  32.382 -13.475  1.00  0.00     0.053 C 
BRANCH  17  18
ATOM     18  C   UNL     1    -115.865  31.564 -13.905  1.00  0.00     0.041 C 
ATOM     19  O   UNL     1    -116.328  30.672 -13.146  1.00  0.00    -0.550 OA
ATOM     20  O   UNL     1    -116.482  31.819 -15.123  1.00  0.00    -0.550 OA
ENDBRANCH  17  18
ENDBRANCH  16  17
ENDBRANCH  15  16
ENDBRANCH  14  15
ENDBRANCH  13  14
ENDBRANCH  12  13
ENDBRANCH  11  12
ENDBRANCH   1  11
TORSDOF 15
ENDMDL
MODEL 6
REMARK VINA RESULT:    -3.273      2.399      4.979
REMARK INTER + INTRA:          -7.812
REMARK INTER:                  -6.009
REMARK INTRA:                  -1.803
REMARK UNBOUND:                -1.669
REMARK SMILES O=C([O-])CCCCCCCCCCCCCCC(=O)[O-]
REMARK SMILES IDX 10 1 9 2 8 3 7 4 6 5 5 6 4 7 2 8 1 9 3 10 11 11 12 12 13 13
REMARK SMILES IDX 14 14 15 15 16 16 17 17 18 18 19 19 20 20
REMARK H PARENT
REMARK Flexibility Score: inf
ROOT
ATOM      1  C   UNL     1    -115.479  34.132 -10.411  1.00  0.00     0.000 C 
ENDROOT
BRANCH   1   2
ATOM      2  C   UNL     1    -116.901  34.637 -10.706  1.00  0.00     0.000 C 
BRANCH   2   3
ATOM      3  C   UNL     1    -116.943  35.634 -11.875  1.00  0.00     0.000 C 
BRANCH   3   4
ATOM      4  C   UNL     1    -115.550  35.919 -12.463  1.00  0.00     0.000 C 
BRANCH   4   5
ATOM      5  C   UNL     1    -115.189  37.413 -12.428  1.00  0.00     0.000 C 
BRANCH   5   6
ATOM      6  C   UNL     1    -114.032  37.764 -13.379  1.00  0.00     0.006 C 
BRANCH   6   7
ATOM      7  C   UNL     1    -113.111  38.843 -12.795  1.00  0.00     0.053 C 
BRANCH   7   8
ATOM      8  C   UNL     1    -111.706  38.703 -13.296  1.00  0.00     0.041 C 
ATOM      9  O   UNL     1    -111.404  37.769 -14.085  1.00  0.00    -0.550 OA
ATOM     10  O   UNL     1    -110.738  39.626 -12.920  1.00  0.00    -0.550 OA
ENDBRANCH   7   8
ENDBRANCH   6   7
ENDBRANCH   5   6
ENDBRANCH   4   5
ENDBRANCH   3   4
ENDBRANCH   2   3
ENDBRANCH   1   2
BRANCH   1  11
ATOM     11  C   UNL     1    -115.310  33.631  -8.966  1.00  0.00     0.000 C 
BRANCH  11  12
ATOM     12  C   UNL     1    -115.007  34.727  -7.924  1.00  0.00     0.000 C 
BRANCH  12  13
ATOM     13  C   UNL     1    -116.245  35.355  -7.256  1.00  0.00     0.000 C 
BRANCH  13  14
ATOM     14  C   UNL     1    -116.474  36.844  -7.582  1.00  0.00     0.000 C 
BRANCH  14  15
ATOM     15  C   UNL     1    -115.519  37.434  -8.639  1.00  0.00     0.000 C 
BRANCH  15  16
ATOM     16  C   UNL     1    -115.878  38.853  -9.118  1.00  0.00     0.006 C 
BRANCH  16  17
ATOM     17  C   UNL     1    -114.649  39.670  -9.537  1.00  0.00     0.053 C 
BRANCH  17  18
ATOM     18  C   UNL     1    -114.389  40.765  -8.552  1.00  0.00     0.041 C 
ATOM     19  O   UNL     1    -114.620  40.584  -7.327  1.00  0.00    -0.550 OA
ATOM     20  O   UNL     1    -113.846  41.970  -8.979  1.00  0.00    -0.550 OA
ENDBRANCH  17  18
ENDBRANCH  16  17
ENDBRANCH  15  16
ENDBRANCH  14  15
ENDBRANCH  13  14
ENDBRANCH  12  13
ENDBRANCH  11  12
ENDBRANCH   1  11
TORSDOF 15
ENDMDL
MODEL 7
REMARK VINA RESULT:    -3.271      0.886      5.252
REMARK INTER + INTRA:          -7.809
REMARK INTER:                  -6.103
REMARK INTRA:                  -1.705
REMARK UNBOUND:                -1.669
REMARK SMILES O=C([O-])CCCCCCCCCCCCCCC(=O)[O-]
REMARK SMILES IDX 10 1 9 2 8 3 7 4 6 5 5 6 4 7 2 8 1 9 3 10 11 11 12 12 13 13
REMARK SMILES IDX 14 14 15 15 16 16 17 17 18 18 19 19 20 20
REMARK H PARENT
REMARK Flexibility Score: inf
ROOT
ATOM      1  C   UNL     1    -115.267  37.443  -8.687  1.00  0.00     0.000 C 
ENDROOT
BRANCH   1   2
ATOM      2  C   UNL     1    -115.844  38.110  -9.947  1.00  0.00     0.000 C 
BRANCH   2   3
ATOM      3  C   UNL     1    -115.978  37.131 -11.125  1.00  0.00     0.000 C 
BRANCH   3   4
ATOM      4  C   UNL     1    -115.102  37.525 -12.328  1.00  0.00     0.000 C 
BRANCH   4   5
ATOM      5  C   UNL     1    -114.361  38.853 -12.107  1.00  0.00     0.000 C 
BRANCH   5   6
ATOM      6  C   UNL     1    -112.948  38.848 -12.715  1.00  0.00     0.006 C 
BRANCH   6   7
ATOM      7  C   UNL     1    -112.872  38.010 -13.998  1.00  0.00     0.053 C 
BRANCH   7   8
ATOM      8  C   UNL     1    -111.460  37.849 -14.472  1.00  0.00     0.041 C 
ATOM      9  O   UNL     1    -111.039  36.721 -14.840  1.00  0.00    -0.550 OA
ATOM     10  O   UNL     1    -110.619  38.953 -14.539  1.00  0.00    -0.550 OA
ENDBRANCH   7   8
ENDBRANCH   6   7
ENDBRANCH   5   6
ENDBRANCH   4   5
ENDBRANCH   3   4
ENDBRANCH   2   3
ENDBRANCH   1   2
BRANCH   1  11
ATOM     11  C   UNL     1    -116.358  36.934  -7.728  1.00  0.00     0.000 C 
BRANCH  11  12
ATOM     12  C   UNL     1    -116.321  35.420  -7.436  1.00  0.00     0.000 C 
BRANCH  12  13
ATOM     13  C   UNL     1    -115.002  34.715  -7.806  1.00  0.00     0.000 C 
BRANCH  13  14
ATOM     14  C   UNL     1    -115.120  33.664  -8.927  1.00  0.00     0.000 C 
BRANCH  14  15
ATOM     15  C   UNL     1    -116.522  33.535  -9.556  1.00  0.00     0.000 C 
BRANCH  15  16
ATOM     16  C   UNL     1    -116.543  33.497 -11.095  1.00  0.00     0.006 C 
BRANCH  16  17
ATOM     17  C   UNL     1    -115.157  33.711 -11.716  1.00  0.00     0.053 C 
BRANCH  17  18
ATOM     18  C   UNL     1    -115.189  33.408 -13.180  1.00  0.00     0.041 C 
ATOM     19  O   UNL     1    -114.821  32.281 -13.603  1.00  0.00    -0.550 OA
ATOM     20  O   UNL     1    -115.671  34.355 -14.076  1.00  0.00    -0.550 OA
ENDBRANCH  17  18
ENDBRANCH  16  17
ENDBRANCH  15  16
ENDBRANCH  14  15
ENDBRANCH  13  14
ENDBRANCH  12  13
ENDBRANCH  11  12
ENDBRANCH   1  11
TORSDOF 15
ENDMDL
MODEL 8
REMARK VINA RESULT:    -3.203      2.078      3.604
REMARK INTER + INTRA:          -7.680
REMARK INTER:                  -5.718
REMARK INTRA:                  -1.962
REMARK UNBOUND:                -1.669
REMARK SMILES O=C([O-])CCCCCCCCCCCCCCC(=O)[O-]
REMARK SMILES IDX 10 1 9 2 8 3 7 4 6 5 5 6 4 7 2 8 1 9 3 10 11 11 12 12 13 13
REMARK SMILES IDX 14 14 15 15 16 16 17 17 18 18 19 19 20 20
REMARK H PARENT
REMARK Flexibility Score: inf
ROOT
ATOM      1  C   UNL     1    -115.070  33.867  -8.703  1.00  0.00     0.000 C 
ENDROOT
BRANCH   1   2
ATOM      2  C   UNL     1    -116.502  33.484  -9.112  1.00  0.00     0.000 C 
BRANCH   2   3
ATOM      3  C   UNL     1    -116.792  33.778 -10.592  1.00  0.00     0.000 C 
BRANCH   3   4
ATOM      4  C   UNL     1    -115.600  34.433 -11.313  1.00  0.00     0.000 C 
BRANCH   4   5
ATOM      5  C   UNL     1    -115.242  33.720 -12.626  1.00  0.00     0.000 C 
BRANCH   5   6
ATOM      6  C   UNL     1    -115.052  34.700 -13.797  1.00  0.00     0.006 C 
BRANCH   6   7
ATOM      7  C   UNL     1    -115.307  36.155 -13.382  1.00  0.00     0.053 C 
BRANCH   7   8
ATOM      8  C   UNL     1    -114.206  37.062 -13.838  1.00  0.00     0.041 C 
ATOM      9  O   UNL     1    -114.053  38.192 -13.305  1.00  0.00    -0.550 OA
ATOM     10  O   UNL     1    -113.326  36.643 -14.829  1.00  0.00    -0.550 OA
ENDBRANCH   7   8
ENDBRANCH   6   7
ENDBRANCH   5   6
ENDBRANCH   4   5
ENDBRANCH   3   4
ENDBRANCH   2   3
ENDBRANCH   1   2
BRANCH   1  11
ATOM     11  C   UNL     1    -115.030  34.872  -7.537  1.00  0.00     0.000 C 
BRANCH  11  12
ATOM     12  C   UNL     1    -116.384  35.520  -7.184  1.00  0.00     0.000 C 
BRANCH  12  13
ATOM     13  C   UNL     1    -116.532  36.996  -7.604  1.00  0.00     0.000 C 
BRANCH  13  14
ATOM     14  C   UNL     1    -116.805  37.219  -9.104  1.00  0.00     0.000 C 
BRANCH  14  15
ATOM     15  C   UNL     1    -115.624  37.806  -9.903  1.00  0.00     0.000 C 
BRANCH  15  16
ATOM     16  C   UNL     1    -114.649  38.669  -9.081  1.00  0.00     0.006 C 
BRANCH  16  17
ATOM     17  C   UNL     1    -114.987  40.164  -9.130  1.00  0.00     0.053 C 
BRANCH  17  18
ATOM     18  C   UNL     1    -113.930  40.914  -9.876  1.00  0.00     0.041 C 
ATOM     19  O   UNL     1    -113.714  40.666 -11.091  1.00  0.00    -0.550 OA
ATOM     20  O   UNL     1    -113.215  41.923  -9.242  1.00  0.00    -0.550 OA
ENDBRANCH  17  18
ENDBRANCH  16  17
ENDBRANCH  15  16
ENDBRANCH  14  15
ENDBRANCH  13  14
ENDBRANCH  12  13
ENDBRANCH  11  12
ENDBRANCH   1  11
TORSDOF 15
ENDMDL
MODEL 9
REMARK VINA RESULT:    -3.163      2.400      3.982
REMARK INTER + INTRA:          -7.605
REMARK INTER:                  -5.411
REMARK INTRA:                  -2.194
REMARK UNBOUND:                -1.669
REMARK SMILES O=C([O-])CCCCCCCCCCCCCCC(=O)[O-]
REMARK SMILES IDX 10 1 9 2 8 3 7 4 6 5 5 6 4 7 2 8 1 9 3 10 11 11 12 12 13 13
REMARK SMILES IDX 14 14 15 15 16 16 17 17 18 18 19 19 20 20
REMARK H PARENT
REMARK Flexibility Score: inf
ROOT
ATOM      1  C   UNL     1    -115.493  34.200 -10.324  1.00  0.00     0.000 C 
ENDROOT
BRANCH   1   2
ATOM      2  C   UNL     1    -116.939  34.653 -10.590  1.00  0.00     0.000 C 
BRANCH   2   3
ATOM      3  C   UNL     1    -117.020  35.789 -11.623  1.00  0.00     0.000 C 
BRANCH   3   4
ATOM      4  C   UNL     1    -115.701  36.572 -11.751  1.00  0.00     0.000 C 
BRANCH   4   5
ATOM      5  C   UNL     1    -115.208  36.662 -13.203  1.00  0.00     0.000 C 
BRANCH   5   6
ATOM      6  C   UNL     1    -115.712  35.497 -14.072  1.00  0.00     0.006 C 
BRANCH   6   7
ATOM      7  C   UNL     1    -114.755  34.298 -14.044  1.00  0.00     0.053 C 
BRANCH   7   8
ATOM      8  C   UNL     1    -115.480  33.016 -13.774  1.00  0.00     0.041 C 
ATOM      9  O   UNL     1    -114.840  31.978 -13.464  1.00  0.00    -0.550 OA
ATOM     10  O   UNL     1    -116.868  32.977 -13.831  1.00  0.00    -0.550 OA
ENDBRANCH   7   8
ENDBRANCH   6   7
ENDBRANCH   5   6
ENDBRANCH   4   5
ENDBRANCH   3   4
ENDBRANCH   2   3
ENDBRANCH   1   2
BRANCH   1  11
ATOM     11  C   UNL     1    -115.241  33.843  -8.848  1.00  0.00     0.000 C 
BRANCH  11  12
ATOM     12  C   UNL     1    -115.151  35.047  -7.888  1.00  0.00     0.000 C 
BRANCH  12  13
ATOM     13  C   UNL     1    -116.431  35.340  -7.083  1.00  0.00     0.000 C 
BRANCH  13  14
ATOM     14  C   UNL     1    -116.814  36.830  -6.990  1.00  0.00     0.000 C 
BRANCH  14  15
ATOM     15  C   UNL     1    -116.708  37.614  -8.313  1.00  0.00     0.000 C 
BRANCH  15  16
ATOM     16  C   UNL     1    -115.837  38.882  -8.249  1.00  0.00     0.006 C 
BRANCH  16  17
ATOM     17  C   UNL     1    -114.612  38.811  -9.170  1.00  0.00     0.053 C 
BRANCH  17  18
ATOM     18  C   UNL     1    -114.644  39.923 -10.169  1.00  0.00     0.041 C 
ATOM     19  O   UNL     1    -115.606  40.023 -10.976  1.00  0.00    -0.550 OA
ATOM     20  O   UNL     1    -113.637  40.880 -10.178  1.00  0.00    -0.550 OA
ENDBRANCH  17  18
ENDBRANCH  16  17
ENDBRANCH  15  16
ENDBRANCH  14  15
ENDBRANCH  13  14
ENDBRANCH  12  13
ENDBRANCH  11  12
ENDBRANCH   1  11
TORSDOF 15
ENDMDL
