MODEL 1
REMARK VINA RESULT:    -6.977      0.000      0.000
REMARK INTER + INTRA:          -7.819
REMARK INTER:                  -7.589
REMARK INTRA:                  -0.230
REMARK UNBOUND:                -0.230
REMARK SMILES C=C1C[C@@]2(O)O[C@@]3(C[C@@H]2C(C)C)[C@H](C)CC[C@@H]13
REMARK SMILES IDX 14 1 13 2 15 3 16 4 17 5 7 6 8 7 9 8 4 9 6 10 3 11 2 12 1 13
REMARK SMILES IDX 10 14 11 15 12 16 5 17
REMARK H PARENT 5 18
REMARK Flexibility Score: inf
ROOT
ATOM      1  C   UNL     1      30.483  19.504 -26.200  1.00  0.00     0.011 C 
ATOM      2  C   UNL     1      29.513  18.442 -26.754  1.00  0.00     0.019 C 
ATOM      3  C   UNL     1      30.054  17.034 -26.490  1.00  0.00     0.007 C 
ATOM      4  C   UNL     1      30.830  16.612 -27.740  1.00  0.00     0.011 C 
ATOM      5  C   UNL     1      30.538  17.656 -28.829  1.00  0.00     0.047 C 
ATOM      6  C   UNL     1      29.352  18.491 -28.282  1.00  0.00     0.081 C 
ATOM      7  C   UNL     1      29.258  19.889 -28.890  1.00  0.00     0.046 C 
ATOM      8  C   UNL     1      28.583  19.629 -30.231  1.00  0.00     0.054 C 
ATOM      9  C   UNL     1      28.009  18.185 -30.021  1.00  0.00     0.173 C 
ATOM     10  O   UNL     1      28.149  17.867 -28.653  1.00  0.00    -0.342 OA
ATOM     11  C   UNL     1      28.848  17.154 -30.803  1.00  0.00     0.096 C 
ATOM     12  C   UNL     1      30.228  17.015 -30.181  1.00  0.00    -0.066 C 
ATOM     13  C   UNL     1      31.177  16.326 -30.830  1.00  0.00     0.008 C 
ENDROOT
BRANCH   8  14
ATOM     14  C   UNL     1      27.563  20.735 -30.652  1.00  0.00    -0.009 C 
ATOM     15  C   UNL     1      27.172  21.631 -29.459  1.00  0.00     0.008 C 
ATOM     16  C   UNL     1      28.152  21.639 -31.752  1.00  0.00     0.008 C 
ENDBRANCH   8  14
BRANCH   9  17
ATOM     17  O   UNL     1      26.662  18.063 -30.401  1.00  0.00    -0.365 OA
ATOM     18  H   UNL     1      26.266  18.974 -30.396  1.00  0.00     0.214 HD
ENDBRANCH   9  17
TORSDOF 2
ENDMDL
MODEL 2
REMARK VINA RESULT:    -6.926      1.959      4.105
REMARK INTER + INTRA:          -7.764
REMARK INTER:                  -7.539
REMARK INTRA:                  -0.225
REMARK UNBOUND:                -0.230
REMARK SMILES C=C1C[C@@]2(O)O[C@@]3(C[C@@H]2C(C)C)[C@H](C)CC[C@@H]13
REMARK SMILES IDX 14 1 13 2 15 3 16 4 17 5 7 6 8 7 9 8 4 9 6 10 3 11 2 12 1 13
REMARK SMILES IDX 10 14 11 15 12 16 5 17
REMARK H PARENT 5 18
REMARK Flexibility Score: inf
ROOT
ATOM      1  C   UNL     1      31.269  20.268 -31.500  1.00  0.00     0.011 C 
ATOM      2  C   UNL     1      29.783  20.373 -31.104  1.00  0.00     0.019 C 
ATOM      3  C   UNL     1      29.641  21.056 -29.740  1.00  0.00     0.007 C 
ATOM      4  C   UNL     1      29.582  19.944 -28.689  1.00  0.00     0.011 C 
ATOM      5  C   UNL     1      29.436  18.613 -29.443  1.00  0.00     0.047 C 
ATOM      6  C   UNL     1      29.101  19.010 -30.903  1.00  0.00     0.081 C 
ATOM      7  C   UNL     1      29.463  17.936 -31.927  1.00  0.00     0.046 C 
ATOM      8  C   UNL     1      28.296  16.962 -31.820  1.00  0.00     0.054 C 
ATOM      9  C   UNL     1      27.230  17.827 -31.060  1.00  0.00     0.173 C 
ATOM     10  O   UNL     1      27.708  19.155 -31.026  1.00  0.00    -0.342 OA
ATOM     11  C   UNL     1      27.108  17.363 -29.594  1.00  0.00     0.096 C 
ATOM     12  C   UNL     1      28.372  17.708 -28.823  1.00  0.00    -0.066 C 
ATOM     13  C   UNL     1      28.550  17.209 -27.592  1.00  0.00     0.008 C 
ENDROOT
BRANCH   8  14
ATOM     14  C   UNL     1      27.855  16.350 -33.188  1.00  0.00    -0.009 C 
ATOM     15  C   UNL     1      28.583  17.018 -34.371  1.00  0.00     0.008 C 
ATOM     16  C   UNL     1      28.153  14.839 -33.239  1.00  0.00     0.008 C 
ENDBRANCH   8  14
BRANCH   9  17
ATOM     17  O   UNL     1      25.960  17.795 -31.659  1.00  0.00    -0.365 OA
ATOM     18  H   UNL     1      25.294  17.628 -30.942  1.00  0.00     0.214 HD
ENDBRANCH   9  17
TORSDOF 2
ENDMDL
MODEL 3
REMARK VINA RESULT:    -6.885      2.324      4.120
REMARK INTER + INTRA:          -7.719
REMARK INTER:                  -7.514
REMARK INTRA:                  -0.206
REMARK UNBOUND:                -0.230
REMARK SMILES C=C1C[C@@]2(O)O[C@@]3(C[C@@H]2C(C)C)[C@H](C)CC[C@@H]13
REMARK SMILES IDX 14 1 13 2 15 3 16 4 17 5 7 6 8 7 9 8 4 9 6 10 3 11 2 12 1 13
REMARK SMILES IDX 10 14 11 15 12 16 5 17
REMARK H PARENT 5 18
REMARK Flexibility Score: inf
ROOT
ATOM      1  C   UNL     1      29.381  16.539 -28.802  1.00  0.00     0.011 C 
ATOM      2  C   UNL     1      30.089  17.753 -29.435  1.00  0.00     0.019 C 
ATOM      3  C   UNL     1      30.485  18.764 -28.355  1.00  0.00     0.007 C 
ATOM      4  C   UNL     1      29.351  19.790 -28.265  1.00  0.00     0.011 C 
ATOM      5  C   UNL     1      28.413  19.534 -29.455  1.00  0.00     0.047 C 
ATOM      6  C   UNL     1      29.190  18.565 -30.383  1.00  0.00     0.081 C 
ATOM      7  C   UNL     1      28.288  17.742 -31.300  1.00  0.00     0.046 C 
ATOM      8  C   UNL     1      27.970  18.719 -32.425  1.00  0.00     0.054 C 
ATOM      9  C   UNL     1      29.068  19.818 -32.209  1.00  0.00     0.173 C 
ATOM     10  O   UNL     1      29.987  19.319 -31.261  1.00  0.00    -0.342 OA
ATOM     11  C   UNL     1      28.445  21.088 -31.596  1.00  0.00     0.096 C 
ATOM     12  C   UNL     1      28.008  20.825 -30.165  1.00  0.00    -0.066 C 
ATOM     13  C   UNL     1      27.259  21.735 -29.526  1.00  0.00     0.008 C 
ENDROOT
BRANCH   8  14
ATOM     14  C   UNL     1      27.907  18.058 -33.839  1.00  0.00    -0.009 C 
ATOM     15  C   UNL     1      28.898  16.884 -33.962  1.00  0.00     0.008 C 
ATOM     16  C   UNL     1      26.493  17.520 -34.134  1.00  0.00     0.008 C 
ENDBRANCH   8  14
BRANCH   9  17
ATOM     17  O   UNL     1      29.746  20.163 -33.390  1.00  0.00    -0.365 OA
ATOM     18  H   UNL     1      29.473  19.516 -34.093  1.00  0.00     0.214 HD
ENDBRANCH   9  17
TORSDOF 2
ENDMDL
MODEL 4
REMARK VINA RESULT:    -6.763      1.727      4.902
REMARK INTER + INTRA:          -7.586
REMARK INTER:                  -7.361
REMARK INTRA:                  -0.225
REMARK UNBOUND:                -0.230
REMARK SMILES C=C1C[C@@]2(O)O[C@@]3(C[C@@H]2C(C)C)[C@H](C)CC[C@@H]13
REMARK SMILES IDX 14 1 13 2 15 3 16 4 17 5 7 6 8 7 9 8 4 9 6 10 3 11 2 12 1 13
REMARK SMILES IDX 10 14 11 15 12 16 5 17
REMARK H PARENT 5 18
REMARK Flexibility Score: inf
ROOT
ATOM      1  C   UNL     1      31.482  17.732 -32.763  1.00  0.00     0.011 C 
ATOM      2  C   UNL     1      29.945  17.638 -32.835  1.00  0.00     0.019 C 
ATOM      3  C   UNL     1      29.407  18.528 -33.958  1.00  0.00     0.007 C 
ATOM      4  C   UNL     1      29.043  19.874 -33.325  1.00  0.00     0.011 C 
ATOM      5  C   UNL     1      29.127  19.696 -31.801  1.00  0.00     0.047 C 
ATOM      6  C   UNL     1      29.236  18.166 -31.577  1.00  0.00     0.081 C 
ATOM      7  C   UNL     1      29.885  17.788 -30.247  1.00  0.00     0.046 C 
ATOM      8  C   UNL     1      28.739  17.950 -29.255  1.00  0.00     0.054 C 
ATOM      9  C   UNL     1      27.496  17.990 -30.212  1.00  0.00     0.173 C 
ATOM     10  O   UNL     1      27.941  17.625 -31.501  1.00  0.00    -0.342 OA
ATOM     11  C   UNL     1      26.949  19.427 -30.322  1.00  0.00     0.096 C 
ATOM     12  C   UNL     1      27.929  20.310 -31.077  1.00  0.00    -0.066 C 
ATOM     13  C   UNL     1      27.738  21.636 -31.101  1.00  0.00     0.008 C 
ENDROOT
BRANCH   8  14
ATOM     14  C   UNL     1      28.721  16.870 -28.127  1.00  0.00    -0.009 C 
ATOM     15  C   UNL     1      29.763  15.763 -28.384  1.00  0.00     0.008 C 
ATOM     16  C   UNL     1      29.027  17.501 -26.754  1.00  0.00     0.008 C 
ENDBRANCH   8  14
BRANCH   9  17
ATOM     17  O   UNL     1      26.459  17.133 -29.808  1.00  0.00    -0.365 OA
ATOM     18  H   UNL     1      26.720  16.736 -28.936  1.00  0.00     0.214 HD
ENDBRANCH   9  17
TORSDOF 2
ENDMDL
MODEL 5
REMARK VINA RESULT:    -6.752      1.708      4.502
REMARK INTER + INTRA:          -7.575
REMARK INTER:                  -7.363
REMARK INTRA:                  -0.212
REMARK UNBOUND:                -0.230
REMARK SMILES C=C1C[C@@]2(O)O[C@@]3(C[C@@H]2C(C)C)[C@H](C)CC[C@@H]13
REMARK SMILES IDX 14 1 13 2 15 3 16 4 17 5 7 6 8 7 9 8 4 9 6 10 3 11 2 12 1 13
REMARK SMILES IDX 10 14 11 15 12 16 5 17
REMARK H PARENT 5 18
REMARK Flexibility Score: inf
ROOT
ATOM      1  C   UNL     1      28.237  21.093 -29.370  1.00  0.00     0.011 C 
ATOM      2  C   UNL     1      29.401  20.426 -30.130  1.00  0.00     0.019 C 
ATOM      3  C   UNL     1      29.168  20.506 -31.641  1.00  0.00     0.007 C 
ATOM      4  C   UNL     1      28.482  19.202 -32.057  1.00  0.00     0.011 C 
ATOM      5  C   UNL     1      28.538  18.255 -30.848  1.00  0.00     0.047 C 
ATOM      6  C   UNL     1      29.529  18.918 -29.859  1.00  0.00     0.081 C 
ATOM      7  C   UNL     1      29.323  18.490 -28.408  1.00  0.00     0.046 C 
ATOM      8  C   UNL     1      30.021  17.136 -28.353  1.00  0.00     0.054 C 
ATOM      9  C   UNL     1      30.887  17.174 -29.661  1.00  0.00     0.173 C 
ATOM     10  O   UNL     1      30.832  18.491 -30.168  1.00  0.00    -0.342 OA
ATOM     11  C   UNL     1      30.272  16.259 -30.739  1.00  0.00     0.096 C 
ATOM     12  C   UNL     1      28.959  16.838 -31.239  1.00  0.00    -0.066 C 
ATOM     13  C   UNL     1      28.167  16.095 -32.024  1.00  0.00     0.008 C 
ENDROOT
BRANCH   8  14
ATOM     14  C   UNL     1      30.783  16.871 -27.015  1.00  0.00    -0.009 C 
ATOM     15  C   UNL     1      30.314  17.822 -25.896  1.00  0.00     0.008 C 
ATOM     16  C   UNL     1      30.562  15.424 -26.533  1.00  0.00     0.008 C 
ENDBRANCH   8  14
BRANCH   9  17
ATOM     17  O   UNL     1      32.225  16.802 -29.451  1.00  0.00    -0.365 OA
ATOM     18  H   UNL     1      32.318  16.542 -28.496  1.00  0.00     0.214 HD
ENDBRANCH   9  17
TORSDOF 2
ENDMDL
MODEL 6
REMARK VINA RESULT:    -6.577      1.556      3.494
REMARK INTER + INTRA:          -7.384
REMARK INTER:                  -7.154
REMARK INTRA:                  -0.230
REMARK UNBOUND:                -0.230
REMARK SMILES C=C1C[C@@]2(O)O[C@@]3(C[C@@H]2C(C)C)[C@H](C)CC[C@@H]13
REMARK SMILES IDX 14 1 13 2 15 3 16 4 17 5 7 6 8 7 9 8 4 9 6 10 3 11 2 12 1 13
REMARK SMILES IDX 10 14 11 15 12 16 5 17
REMARK H PARENT 5 18
REMARK Flexibility Score: inf
ROOT
ATOM      1  C   UNL     1      28.138  16.437 -31.956  1.00  0.00     0.011 C 
ATOM      2  C   UNL     1      29.421  16.930 -31.260  1.00  0.00     0.019 C 
ATOM      3  C   UNL     1      30.146  15.762 -30.584  1.00  0.00     0.007 C 
ATOM      4  C   UNL     1      29.671  15.724 -29.128  1.00  0.00     0.011 C 
ATOM      5  C   UNL     1      28.869  17.011 -28.880  1.00  0.00     0.047 C 
ATOM      6  C   UNL     1      29.158  17.913 -30.107  1.00  0.00     0.081 C 
ATOM      7  C   UNL     1      28.074  18.957 -30.367  1.00  0.00     0.046 C 
ATOM      8  C   UNL     1      28.412  20.051 -29.361  1.00  0.00     0.054 C 
ATOM      9  C   UNL     1      29.880  19.670 -28.960  1.00  0.00     0.173 C 
ATOM     10  O   UNL     1      30.317  18.667 -29.853  1.00  0.00    -0.342 OA
ATOM     11  C   UNL     1      29.908  19.049 -27.549  1.00  0.00     0.096 C 
ATOM     12  C   UNL     1      29.242  17.683 -27.559  1.00  0.00    -0.066 C 
ATOM     13  C   UNL     1      28.980  17.070 -26.396  1.00  0.00     0.008 C 
ENDROOT
BRANCH   8  14
ATOM     14  C   UNL     1      28.186  21.499 -29.901  1.00  0.00    -0.009 C 
ATOM     15  C   UNL     1      28.313  21.559 -31.436  1.00  0.00     0.008 C 
ATOM     16  C   UNL     1      26.786  22.018 -29.519  1.00  0.00     0.008 C 
ENDBRANCH   8  14
BRANCH   9  17
ATOM     17  O   UNL     1      30.766  20.759 -29.001  1.00  0.00    -0.365 OA
ATOM     18  H   UNL     1      31.303  20.740 -28.166  1.00  0.00     0.214 HD
ENDBRANCH   9  17
TORSDOF 2
ENDMDL
MODEL 7
REMARK VINA RESULT:    -6.495      2.279      4.281
REMARK INTER + INTRA:          -7.295
REMARK INTER:                  -7.066
REMARK INTRA:                  -0.229
REMARK UNBOUND:                -0.230
REMARK SMILES C=C1C[C@@]2(O)O[C@@]3(C[C@@H]2C(C)C)[C@H](C)CC[C@@H]13
REMARK SMILES IDX 14 1 13 2 15 3 16 4 17 5 7 6 8 7 9 8 4 9 6 10 3 11 2 12 1 13
REMARK SMILES IDX 10 14 11 15 12 16 5 17
REMARK H PARENT 5 18
REMARK Flexibility Score: inf
ROOT
ATOM      1  C   UNL     1      28.970  17.067 -27.728  1.00  0.00     0.011 C 
ATOM      2  C   UNL     1      30.093  17.864 -28.421  1.00  0.00     0.019 C 
ATOM      3  C   UNL     1      30.240  19.247 -27.781  1.00  0.00     0.007 C 
ATOM      4  C   UNL     1      29.388  20.214 -28.609  1.00  0.00     0.011 C 
ATOM      5  C   UNL     1      28.946  19.461 -29.873  1.00  0.00     0.047 C 
ATOM      6  C   UNL     1      29.808  18.173 -29.900  1.00  0.00     0.081 C 
ATOM      7  C   UNL     1      29.181  17.034 -30.701  1.00  0.00     0.046 C 
ATOM      8  C   UNL     1      29.519  17.407 -32.139  1.00  0.00     0.054 C 
ATOM      9  C   UNL     1      30.648  18.477 -31.931  1.00  0.00     0.173 C 
ATOM     10  O   UNL     1      31.014  18.447 -30.567  1.00  0.00    -0.342 OA
ATOM     11  C   UNL     1      30.105  19.892 -32.213  1.00  0.00     0.096 C 
ATOM     12  C   UNL     1      29.111  20.301 -31.139  1.00  0.00    -0.066 C 
ATOM     13  C   UNL     1      28.373  21.407 -31.311  1.00  0.00     0.008 C 
ENDROOT
BRANCH   8  14
ATOM     14  C   UNL     1      29.871  16.184 -33.044  1.00  0.00    -0.009 C 
ATOM     15  C   UNL     1      30.143  14.917 -32.208  1.00  0.00     0.008 C 
ATOM     16  C   UNL     1      28.721  15.871 -34.021  1.00  0.00     0.008 C 
ENDBRANCH   8  14
BRANCH   9  17
ATOM     17  O   UNL     1      31.780  18.251 -32.731  1.00  0.00    -0.365 OA
ATOM     18  H   UNL     1      32.327  17.551 -32.285  1.00  0.00     0.214 HD
ENDBRANCH   9  17
TORSDOF 2
ENDMDL
MODEL 8
REMARK VINA RESULT:    -6.314      1.851      4.715
REMARK INTER + INTRA:          -7.097
REMARK INTER:                  -7.195
REMARK INTRA:                   0.097
REMARK UNBOUND:                -0.230
REMARK SMILES C=C1C[C@@]2(O)O[C@@]3(C[C@@H]2C(C)C)[C@H](C)CC[C@@H]13
REMARK SMILES IDX 14 1 13 2 15 3 16 4 17 5 7 6 8 7 9 8 4 9 6 10 3 11 2 12 1 13
REMARK SMILES IDX 10 14 11 15 12 16 5 17
REMARK H PARENT 5 18
REMARK Flexibility Score: inf
ROOT
ATOM      1  C   UNL     1      27.949  15.712 -31.210  1.00  0.00     0.011 C 
ATOM      2  C   UNL     1      27.674  17.084 -30.564  1.00  0.00     0.019 C 
ATOM      3  C   UNL     1      27.284  18.109 -31.632  1.00  0.00     0.007 C 
ATOM      4  C   UNL     1      28.566  18.840 -32.039  1.00  0.00     0.011 C 
ATOM      5  C   UNL     1      29.660  18.427 -31.041  1.00  0.00     0.047 C 
ATOM      6  C   UNL     1      28.909  17.707 -29.892  1.00  0.00     0.081 C 
ATOM      7  C   UNL     1      29.786  16.740 -29.101  1.00  0.00     0.046 C 
ATOM      8  C   UNL     1      30.543  17.667 -28.157  1.00  0.00     0.054 C 
ATOM      9  C   UNL     1      29.688  18.979 -28.250  1.00  0.00     0.173 C 
ATOM     10  O   UNL     1      28.502  18.664 -28.947  1.00  0.00    -0.342 OA
ATOM     11  C   UNL     1      30.426  20.041 -29.089  1.00  0.00     0.096 C 
ATOM     12  C   UNL     1      30.478  19.621 -30.549  1.00  0.00    -0.066 C 
ATOM     13  C   UNL     1      31.251  20.303 -31.405  1.00  0.00     0.008 C 
ENDROOT
BRANCH   8  14
ATOM     14  C   UNL     1      30.763  17.073 -26.729  1.00  0.00    -0.009 C 
ATOM     15  C   UNL     1      29.429  16.667 -26.070  1.00  0.00     0.008 C 
ATOM     16  C   UNL     1      31.666  15.825 -26.783  1.00  0.00     0.008 C 
ENDBRANCH   8  14
BRANCH   9  17
ATOM     17  O   UNL     1      29.371  19.524 -26.995  1.00  0.00    -0.365 OA
ATOM     18  H   UNL     1      28.458  19.911 -27.058  1.00  0.00     0.214 HD
ENDBRANCH   9  17
TORSDOF 2
ENDMDL
MODEL 9
REMARK VINA RESULT:    -6.302      2.480      4.073
REMARK INTER + INTRA:          -7.084
REMARK INTER:                  -6.868
REMARK INTRA:                  -0.216
REMARK UNBOUND:                -0.230
REMARK SMILES C=C1C[C@@]2(O)O[C@@]3(C[C@@H]2C(C)C)[C@H](C)CC[C@@H]13
REMARK SMILES IDX 14 1 13 2 15 3 16 4 17 5 7 6 8 7 9 8 4 9 6 10 3 11 2 12 1 13
REMARK SMILES IDX 10 14 11 15 12 16 5 17
REMARK H PARENT 5 18
REMARK Flexibility Score: inf
ROOT
ATOM      1  C   UNL     1      31.744  17.580 -32.562  1.00  0.00     0.011 C 
ATOM      2  C   UNL     1      30.566  16.830 -31.909  1.00  0.00     0.019 C 
ATOM      3  C   UNL     1      30.158  15.626 -32.763  1.00  0.00     0.007 C 
ATOM      4  C   UNL     1      29.024  16.093 -33.679  1.00  0.00     0.011 C 
ATOM      5  C   UNL     1      28.594  17.487 -33.195  1.00  0.00     0.047 C 
ATOM      6  C   UNL     1      29.279  17.666 -31.817  1.00  0.00     0.081 C 
ATOM      7  C   UNL     1      29.470  19.127 -31.415  1.00  0.00     0.046 C 
ATOM      8  C   UNL     1      28.092  19.515 -30.891  1.00  0.00     0.054 C 
ATOM      9  C   UNL     1      27.428  18.110 -30.676  1.00  0.00     0.173 C 
ATOM     10  O   UNL     1      28.440  17.136 -30.821  1.00  0.00    -0.342 OA
ATOM     11  C   UNL     1      26.386  17.835 -31.778  1.00  0.00     0.096 C 
ATOM     12  C   UNL     1      27.074  17.632 -33.118  1.00  0.00    -0.066 C 
ATOM     13  C   UNL     1      26.338  17.586 -34.237  1.00  0.00     0.008 C 
ENDROOT
BRANCH   8  14
ATOM     14  C   UNL     1      28.131  20.469 -29.654  1.00  0.00    -0.009 C 
ATOM     15  C   UNL     1      29.556  20.995 -29.386  1.00  0.00     0.008 C 
ATOM     16  C   UNL     1      27.208  21.684 -29.865  1.00  0.00     0.008 C 
ENDBRANCH   8  14
BRANCH   9  17
ATOM     17  O   UNL     1      26.816  17.973 -29.419  1.00  0.00    -0.365 OA
ATOM     18  H   UNL     1      26.577  18.884 -29.101  1.00  0.00     0.214 HD
ENDBRANCH   9  17
TORSDOF 2
ENDMDL
