MODEL 1
REMARK VINA RESULT:    -4.384      0.000      0.000
REMARK INTER + INTRA:          -8.017
REMARK INTER:                  -6.562
REMARK INTRA:                  -1.455
REMARK UNBOUND:                -1.455
REMARK SMILES COC(=O)C1=CO[C@@H](O[C@@H]2O[C@H](CO)[C@@H](O)[C@@H](O)[C@H]2O)[C@@H]2C(CO)=CC[C@@H]12
REMARK SMILES IDX 9 1 8 2 5 3 6 4 27 5 7 6 21 7 26 8 22 9 25 10 3 11 4 12 2 13
REMARK SMILES IDX 1 14 23 15 24 16 10 18 19 19 11 20 17 21 12 22 15 23 20 24
REMARK SMILES IDX 18 26 13 28 14 29 16 31
REMARK H PARENT 24 17 20 25 18 27 14 30 16 32
REMARK Flexibility Score: inf
ROOT
ATOM      1  O   UNL     1       0.811  16.805  60.517  1.00  0.00    -0.310 OA
ENDROOT
BRANCH   1   2
ATOM      2  C   UNL     1       1.603  17.975  60.374  1.00  0.00     0.316 C 
ATOM      3  C   UNL     1       3.688  19.215  58.710  1.00  0.00     0.076 C 
ATOM      4  C   UNL     1       2.423  19.106  58.259  1.00  0.00     0.202 C 
ATOM      5  C   UNL     1       3.902  18.867  60.161  1.00  0.00     0.047 C 
ATOM      6  O   UNL     1       1.401  18.550  59.062  1.00  0.00    -0.471 OA
ATOM      7  C   UNL     1       3.092  17.623  60.511  1.00  0.00     0.094 C 
ATOM      8  C   UNL     1       5.294  18.532  60.693  1.00  0.00     0.037 C 
ATOM      9  C   UNL     1       3.688  17.255  61.832  1.00  0.00    -0.039 C 
ATOM     10  C   UNL     1       4.948  17.699  61.891  1.00  0.00    -0.024 C 
BRANCH   3  11
ATOM     11  C   UNL     1       4.737  19.843  57.874  1.00  0.00     0.337 C 
ATOM     12  O   UNL     1       5.196  19.236  56.869  1.00  0.00    -0.246 OA
BRANCH  11  13
ATOM     13  O   UNL     1       5.224  21.112  58.206  1.00  0.00    -0.466 OA
ATOM     14  C   UNL     1       6.609  21.380  58.391  1.00  0.00     0.282 C 
ENDBRANCH  11  13
ENDBRANCH   3  11
BRANCH   9  15
ATOM     15  C   UNL     1       3.083  16.352  62.859  1.00  0.00     0.187 C 
BRANCH  15  16
ATOM     16  O   UNL     1       2.711  15.141  62.258  1.00  0.00    -0.392 OA
ATOM     17  H   UNL     1       2.321  15.381  61.378  1.00  0.00     0.211 HD
ENDBRANCH  15  16
ENDBRANCH   9  15
ENDBRANCH   1   2
BRANCH   1  18
ATOM     18  C   UNL     1      -0.485  16.969  59.948  1.00  0.00     0.286 C 
ATOM     19  C   UNL     1      -0.842  15.764  59.038  1.00  0.00     0.202 C 
ATOM     20  O   UNL     1      -1.456  17.206  60.965  1.00  0.00    -0.341 OA
ATOM     21  C   UNL     1      -1.149  14.513  59.870  1.00  0.00     0.179 C 
ATOM     22  C   UNL     1      -1.812  16.073  61.757  1.00  0.00     0.178 C 
ATOM     23  C   UNL     1      -2.203  14.821  60.938  1.00  0.00     0.177 C 
BRANCH  19  24
ATOM     24  O   UNL     1      -1.899  16.066  58.156  1.00  0.00    -0.385 OA
ATOM     25  H   UNL     1      -1.612  15.854  57.229  1.00  0.00     0.211 HD
ENDBRANCH  19  24
BRANCH  21  26
ATOM     26  O   UNL     1      -1.594  13.467  59.045  1.00  0.00    -0.387 OA
ATOM     27  H   UNL     1      -0.828  12.845  58.932  1.00  0.00     0.211 HD
ENDBRANCH  21  26
BRANCH  22  28
ATOM     28  C   UNL     1      -0.790  15.774  62.866  1.00  0.00     0.191 C 
BRANCH  28  29
ATOM     29  O   UNL     1      -0.310  16.977  63.400  1.00  0.00    -0.394 OA
ATOM     30  H   UNL     1      -1.095  17.433  63.804  1.00  0.00     0.210 HD
ENDBRANCH  28  29
ENDBRANCH  22  28
BRANCH  23  31
ATOM     31  O   UNL     1      -3.463  15.028  60.349  1.00  0.00    -0.387 OA
ATOM     32  H   UNL     1      -3.325  15.605  59.554  1.00  0.00     0.211 HD
ENDBRANCH  23  31
ENDBRANCH   1  18
TORSDOF 11
ENDMDL
MODEL 2
REMARK VINA RESULT:    -4.256      7.332     12.229
REMARK INTER + INTRA:          -7.825
REMARK INTER:                  -6.649
REMARK INTRA:                  -1.176
REMARK UNBOUND:                -1.455
REMARK SMILES COC(=O)C1=CO[C@@H](O[C@@H]2O[C@H](CO)[C@@H](O)[C@@H](O)[C@H]2O)[C@@H]2C(CO)=CC[C@@H]12
REMARK SMILES IDX 9 1 8 2 5 3 6 4 27 5 7 6 21 7 26 8 22 9 25 10 3 11 4 12 2 13
REMARK SMILES IDX 1 14 23 15 24 16 10 18 19 19 11 20 17 21 12 22 15 23 20 24
REMARK SMILES IDX 18 26 13 28 14 29 16 31
REMARK H PARENT 24 17 20 25 18 27 14 30 16 32
REMARK Flexibility Score: inf
ROOT
ATOM      1  O   UNL     1      -3.405   9.192  59.808  1.00  0.00    -0.310 OA
ENDROOT
BRANCH   1   2
ATOM      2  C   UNL     1      -3.712   7.917  60.355  1.00  0.00     0.316 C 
ATOM      3  C   UNL     1      -2.755   5.140  60.528  1.00  0.00     0.076 C 
ATOM      4  C   UNL     1      -2.142   6.123  61.216  1.00  0.00     0.202 C 
ATOM      5  C   UNL     1      -4.053   5.516  59.860  1.00  0.00     0.047 C 
ATOM      6  O   UNL     1      -2.615   7.455  61.176  1.00  0.00    -0.471 OA
ATOM      7  C   UNL     1      -3.918   6.897  59.225  1.00  0.00     0.094 C 
ATOM      8  C   UNL     1      -4.628   4.670  58.726  1.00  0.00     0.037 C 
ATOM      9  C   UNL     1      -5.134   6.931  58.355  1.00  0.00    -0.039 C 
ATOM     10  C   UNL     1      -5.474   5.684  58.015  1.00  0.00    -0.024 C 
BRANCH   3  11
ATOM     11  C   UNL     1      -2.277   3.742  60.619  1.00  0.00     0.337 C 
ATOM     12  O   UNL     1      -2.797   2.945  61.446  1.00  0.00    -0.246 OA
BRANCH  11  13
ATOM     13  O   UNL     1      -1.239   3.307  59.787  1.00  0.00    -0.466 OA
ATOM     14  C   UNL     1      -1.469   2.570  58.593  1.00  0.00     0.282 C 
ENDBRANCH  11  13
ENDBRANCH   3  11
BRANCH   9  15
ATOM     15  C   UNL     1      -5.767   8.149  57.760  1.00  0.00     0.187 C 
BRANCH  15  16
ATOM     16  O   UNL     1      -5.413   8.249  56.408  1.00  0.00    -0.392 OA
ATOM     17  H   UNL     1      -4.867   9.073  56.327  1.00  0.00     0.211 HD
ENDBRANCH  15  16
ENDBRANCH   9  15
ENDBRANCH   1   2
BRANCH   1  18
ATOM     18  C   UNL     1      -2.203   9.727  60.353  1.00  0.00     0.286 C 
ATOM     19  C   UNL     1      -1.262  10.225  59.226  1.00  0.00     0.202 C 
ATOM     20  O   UNL     1      -2.493  10.733  61.322  1.00  0.00    -0.341 OA
ATOM     21  C   UNL     1      -1.787  11.522  58.597  1.00  0.00     0.179 C 
ATOM     22  C   UNL     1      -2.957  11.978  60.801  1.00  0.00     0.178 C 
ATOM     23  C   UNL     1      -2.072  12.568  59.678  1.00  0.00     0.177 C 
BRANCH  19  24
ATOM     24  O   UNL     1       0.066  10.374  59.676  1.00  0.00    -0.385 OA
ATOM     25  H   UNL     1       0.391  11.277  59.419  1.00  0.00     0.211 HD
ENDBRANCH  19  24
BRANCH  21  26
ATOM     26  O   UNL     1      -0.865  12.031  57.668  1.00  0.00    -0.387 OA
ATOM     27  H   UNL     1      -1.387  12.321  56.875  1.00  0.00     0.211 HD
ENDBRANCH  21  26
BRANCH  22  28
ATOM     28  C   UNL     1      -4.452  11.957  60.442  1.00  0.00     0.191 C 
BRANCH  28  29
ATOM     29  O   UNL     1      -5.144  11.159  61.362  1.00  0.00    -0.394 OA
ATOM     30  H   UNL     1      -6.110  11.298  61.178  1.00  0.00     0.210 HD
ENDBRANCH  28  29
ENDBRANCH  22  28
BRANCH  23  31
ATOM     31  O   UNL     1      -0.873  13.046  60.237  1.00  0.00    -0.387 OA
ATOM     32  H   UNL     1      -0.139  12.790  59.620  1.00  0.00     0.211 HD
ENDBRANCH  23  31
ENDBRANCH   1  18
TORSDOF 11
ENDMDL
MODEL 3
REMARK VINA RESULT:    -4.156     12.917     15.087
REMARK INTER + INTRA:          -7.676
REMARK INTER:                  -6.404
REMARK INTRA:                  -1.271
REMARK UNBOUND:                -1.455
REMARK SMILES COC(=O)C1=CO[C@@H](O[C@@H]2O[C@H](CO)[C@@H](O)[C@@H](O)[C@H]2O)[C@@H]2C(CO)=CC[C@@H]12
REMARK SMILES IDX 9 1 8 2 5 3 6 4 27 5 7 6 21 7 26 8 22 9 25 10 3 11 4 12 2 13
REMARK SMILES IDX 1 14 23 15 24 16 10 18 19 19 11 20 17 21 12 22 15 23 20 24
REMARK SMILES IDX 18 26 13 28 14 29 16 31
REMARK H PARENT 24 17 20 25 18 27 14 30 16 32
REMARK Flexibility Score: inf
ROOT
ATOM      1  O   UNL     1       5.268  13.498  73.154  1.00  0.00    -0.310 OA
ENDROOT
BRANCH   1   2
ATOM      2  C   UNL     1       4.139  14.296  72.827  1.00  0.00     0.316 C 
ATOM      3  C   UNL     1       2.481  16.530  73.781  1.00  0.00     0.076 C 
ATOM      4  C   UNL     1       3.720  16.750  73.298  1.00  0.00     0.202 C 
ATOM      5  C   UNL     1       1.943  15.134  73.601  1.00  0.00     0.047 C 
ATOM      6  O   UNL     1       4.513  15.692  72.797  1.00  0.00    -0.471 OA
ATOM      7  C   UNL     1       3.046  14.121  73.892  1.00  0.00     0.094 C 
ATOM      8  C   UNL     1       0.777  14.625  74.446  1.00  0.00     0.037 C 
ATOM      9  C   UNL     1       2.253  12.857  73.997  1.00  0.00    -0.039 C 
ATOM     10  C   UNL     1       1.007  13.144  74.386  1.00  0.00    -0.024 C 
BRANCH   3  11
ATOM     11  C   UNL     1       1.645  17.655  74.257  1.00  0.00     0.337 C 
ATOM     12  O   UNL     1       2.078  18.436  75.148  1.00  0.00    -0.246 OA
BRANCH  11  13
ATOM     13  O   UNL     1       0.367  17.848  73.721  1.00  0.00    -0.466 OA
ATOM     14  C   UNL     1      -0.790  18.009  74.531  1.00  0.00     0.282 C 
ENDBRANCH  11  13
ENDBRANCH   3  11
BRANCH   9  15
ATOM     15  C   UNL     1       2.787  11.463  73.903  1.00  0.00     0.187 C 
BRANCH  15  16
ATOM     16  O   UNL     1       3.945  11.352  74.685  1.00  0.00    -0.392 OA
ATOM     17  H   UNL     1       4.686  11.163  74.053  1.00  0.00     0.211 HD
ENDBRANCH  15  16
ENDBRANCH   9  15
ENDBRANCH   1   2
BRANCH   1  18
ATOM     18  C   UNL     1       5.692  12.701  72.053  1.00  0.00     0.286 C 
ATOM     19  C   UNL     1       6.680  13.488  71.152  1.00  0.00     0.202 C 
ATOM     20  O   UNL     1       6.220  11.457  72.505  1.00  0.00    -0.341 OA
ATOM     21  C   UNL     1       8.049  13.633  71.827  1.00  0.00     0.179 C 
ATOM     22  C   UNL     1       7.509  11.517  73.115  1.00  0.00     0.178 C 
ATOM     23  C   UNL     1       8.574  12.269  72.283  1.00  0.00     0.177 C 
BRANCH  19  24
ATOM     24  O   UNL     1       6.798  12.911  69.871  1.00  0.00    -0.385 OA
ATOM     25  H   UNL     1       5.896  12.634  69.561  1.00  0.00     0.211 HD
ENDBRANCH  19  24
BRANCH  21  26
ATOM     26  O   UNL     1       8.970  14.233  70.953  1.00  0.00    -0.387 OA
ATOM     27  H   UNL     1       8.937  13.720  70.103  1.00  0.00     0.211 HD
ENDBRANCH  21  26
BRANCH  22  28
ATOM     28  C   UNL     1       7.456  11.975  74.582  1.00  0.00     0.191 C 
BRANCH  28  29
ATOM     29  O   UNL     1       8.127  11.046  75.388  1.00  0.00    -0.394 OA
ATOM     30  H   UNL     1       9.090  11.127  75.161  1.00  0.00     0.210 HD
ENDBRANCH  28  29
ENDBRANCH  22  28
BRANCH  23  31
ATOM     31  O   UNL     1       8.939  11.481  71.176  1.00  0.00    -0.387 OA
ATOM     32  H   UNL     1       9.822  11.806  70.862  1.00  0.00     0.211 HD
ENDBRANCH  23  31
ENDBRANCH   1  18
TORSDOF 11
ENDMDL
MODEL 4
REMARK VINA RESULT:    -4.152     12.472     14.697
REMARK INTER + INTRA:          -7.670
REMARK INTER:                  -6.316
REMARK INTRA:                  -1.354
REMARK UNBOUND:                -1.455
REMARK SMILES COC(=O)C1=CO[C@@H](O[C@@H]2O[C@H](CO)[C@@H](O)[C@@H](O)[C@H]2O)[C@@H]2C(CO)=CC[C@@H]12
REMARK SMILES IDX 9 1 8 2 5 3 6 4 27 5 7 6 21 7 26 8 22 9 25 10 3 11 4 12 2 13
REMARK SMILES IDX 1 14 23 15 24 16 10 18 19 19 11 20 17 21 12 22 15 23 20 24
REMARK SMILES IDX 18 26 13 28 14 29 16 31
REMARK H PARENT 24 17 20 25 18 27 14 30 16 32
REMARK Flexibility Score: inf
ROOT
ATOM      1  O   UNL     1       3.327  13.056  72.884  1.00  0.00    -0.310 OA
ENDROOT
BRANCH   1   2
ATOM      2  C   UNL     1       4.429  12.418  72.255  1.00  0.00     0.316 C 
ATOM      3  C   UNL     1       6.750  10.686  72.769  1.00  0.00     0.076 C 
ATOM      4  C   UNL     1       5.500  10.183  72.783  1.00  0.00     0.202 C 
ATOM      5  C   UNL     1       6.884  12.103  72.274  1.00  0.00     0.047 C 
ATOM      6  O   UNL     1       4.377  10.994  72.497  1.00  0.00    -0.471 OA
ATOM      7  C   UNL     1       5.747  12.949  72.839  1.00  0.00     0.094 C 
ATOM      8  C   UNL     1       8.124  12.935  72.594  1.00  0.00     0.037 C 
ATOM      9  C   UNL     1       6.237  14.329  72.531  1.00  0.00    -0.039 C 
ATOM     10  C   UNL     1       7.573  14.325  72.477  1.00  0.00    -0.024 C 
BRANCH   3  11
ATOM     11  C   UNL     1       7.919   9.813  73.024  1.00  0.00     0.337 C 
ATOM     12  O   UNL     1       8.267   8.953  72.171  1.00  0.00    -0.246 OA
BRANCH  11  13
ATOM     13  O   UNL     1       8.636   9.942  74.219  1.00  0.00    -0.466 OA
ATOM     14  C   UNL     1       9.083   8.820  74.971  1.00  0.00     0.282 C 
ENDBRANCH  11  13
ENDBRANCH   3  11
BRANCH   9  15
ATOM     15  C   UNL     1       5.414  15.577  72.498  1.00  0.00     0.187 C 
BRANCH  15  16
ATOM     16  O   UNL     1       4.670  15.680  73.682  1.00  0.00    -0.392 OA
ATOM     17  H   UNL     1       3.717  15.611  73.415  1.00  0.00     0.211 HD
ENDBRANCH  15  16
ENDBRANCH   9  15
ENDBRANCH   1   2
BRANCH   1  18
ATOM     18  C   UNL     1       2.150  12.256  72.831  1.00  0.00     0.286 C 
ATOM     19  C   UNL     1       1.623  11.957  74.259  1.00  0.00     0.202 C 
ATOM     20  O   UNL     1       1.168  12.859  71.990  1.00  0.00    -0.341 OA
ATOM     21  C   UNL     1       0.986  13.203  74.887  1.00  0.00     0.179 C 
ATOM     22  C   UNL     1       0.512  14.006  72.529  1.00  0.00     0.178 C 
ATOM     23  C   UNL     1      -0.066  13.802  73.949  1.00  0.00     0.177 C 
BRANCH  19  24
ATOM     24  O   UNL     1       0.735  10.863  74.274  1.00  0.00    -0.385 OA
ATOM     25  H   UNL     1       1.249  10.032  74.102  1.00  0.00     0.211 HD
ENDBRANCH  19  24
BRANCH  21  26
ATOM     26  O   UNL     1       0.400  12.888  76.124  1.00  0.00    -0.387 OA
ATOM     27  H   UNL     1      -0.280  12.187  75.950  1.00  0.00     0.211 HD
ENDBRANCH  21  26
BRANCH  22  28
ATOM     28  C   UNL     1       1.347  15.291  72.396  1.00  0.00     0.191 C 
BRANCH  28  29
ATOM     29  O   UNL     1       2.095  15.243  71.212  1.00  0.00    -0.394 OA
ATOM     30  H   UNL     1       1.468  14.948  70.501  1.00  0.00     0.210 HD
ENDBRANCH  28  29
ENDBRANCH  22  28
BRANCH  23  31
ATOM     31  O   UNL     1      -1.198  12.971  73.873  1.00  0.00    -0.387 OA
ATOM     32  H   UNL     1      -0.979  12.132  74.355  1.00  0.00     0.211 HD
ENDBRANCH  23  31
ENDBRANCH   1  18
TORSDOF 11
ENDMDL
MODEL 5
REMARK VINA RESULT:    -4.132     13.547     15.216
REMARK INTER + INTRA:          -7.640
REMARK INTER:                  -6.450
REMARK INTRA:                  -1.190
REMARK UNBOUND:                -1.455
REMARK SMILES COC(=O)C1=CO[C@@H](O[C@@H]2O[C@H](CO)[C@@H](O)[C@@H](O)[C@H]2O)[C@@H]2C(CO)=CC[C@@H]12
REMARK SMILES IDX 9 1 8 2 5 3 6 4 27 5 7 6 21 7 26 8 22 9 25 10 3 11 4 12 2 13
REMARK SMILES IDX 1 14 23 15 24 16 10 18 19 19 11 20 17 21 12 22 15 23 20 24
REMARK SMILES IDX 18 26 13 28 14 29 16 31
REMARK H PARENT 24 17 20 25 18 27 14 30 16 32
REMARK Flexibility Score: inf
ROOT
ATOM      1  O   UNL     1       4.598  12.945  73.157  1.00  0.00    -0.310 OA
ENDROOT
BRANCH   1   2
ATOM      2  C   UNL     1       3.768  14.031  72.772  1.00  0.00     0.316 C 
ATOM      3  C   UNL     1       2.776  16.659  73.645  1.00  0.00     0.076 C 
ATOM      4  C   UNL     1       4.051  16.507  73.235  1.00  0.00     0.202 C 
ATOM      5  C   UNL     1       1.868  15.477  73.426  1.00  0.00     0.047 C 
ATOM      6  O   UNL     1       4.531  15.259  72.773  1.00  0.00    -0.471 OA
ATOM      7  C   UNL     1       2.613  14.191  73.772  1.00  0.00     0.094 C 
ATOM      8  C   UNL     1       0.559  15.335  74.200  1.00  0.00     0.037 C 
ATOM      9  C   UNL     1       1.484  13.211  73.825  1.00  0.00    -0.039 C 
ATOM     10  C   UNL     1       0.354  13.850  74.145  1.00  0.00    -0.024 C 
BRANCH   3  11
ATOM     11  C   UNL     1       2.276  17.982  74.080  1.00  0.00     0.337 C 
ATOM     12  O   UNL     1       1.530  18.660  73.323  1.00  0.00    -0.246 OA
BRANCH  11  13
ATOM     13  O   UNL     1       2.638  18.485  75.336  1.00  0.00    -0.466 OA
ATOM     14  C   UNL     1       1.942  19.553  75.966  1.00  0.00     0.282 C 
ENDBRANCH  11  13
ENDBRANCH   3  11
BRANCH   9  15
ATOM     15  C   UNL     1       1.597  11.721  73.752  1.00  0.00     0.187 C 
BRANCH  15  16
ATOM     16  O   UNL     1       2.604  11.285  74.624  1.00  0.00    -0.392 OA
ATOM     17  H   UNL     1       2.833  12.065  75.192  1.00  0.00     0.211 HD
ENDBRANCH  15  16
ENDBRANCH   9  15
ENDBRANCH   1   2
BRANCH   1  18
ATOM     18  C   UNL     1       5.910  13.061  72.614  1.00  0.00     0.286 C 
ATOM     19  C   UNL     1       6.982  12.888  73.722  1.00  0.00     0.202 C 
ATOM     20  O   UNL     1       6.085  12.159  71.524  1.00  0.00    -0.341 OA
ATOM     21  C   UNL     1       7.084  11.425  74.171  1.00  0.00     0.179 C 
ATOM     22  C   UNL     1       6.220  10.782  71.875  1.00  0.00     0.178 C 
ATOM     23  C   UNL     1       7.281  10.503  72.964  1.00  0.00     0.177 C 
BRANCH  19  24
ATOM     24  O   UNL     1       8.237  13.392  73.323  1.00  0.00    -0.385 OA
ATOM     25  H   UNL     1       8.180  13.675  72.374  1.00  0.00     0.211 HD
ENDBRANCH  19  24
BRANCH  21  26
ATOM     26  O   UNL     1       8.142  11.259  75.079  1.00  0.00    -0.387 OA
ATOM     27  H   UNL     1       7.883  10.519  75.689  1.00  0.00     0.211 HD
ENDBRANCH  21  26
BRANCH  22  28
ATOM     28  C   UNL     1       4.869  10.103  72.160  1.00  0.00     0.191 C 
BRANCH  28  29
ATOM     29  O   UNL     1       4.779   9.792  73.523  1.00  0.00    -0.394 OA
ATOM     30  H   UNL     1       5.011  10.625  74.012  1.00  0.00     0.210 HD
ENDBRANCH  28  29
ENDBRANCH  22  28
BRANCH  23  31
ATOM     31  O   UNL     1       8.565  10.671  72.414  1.00  0.00    -0.387 OA
ATOM     32  H   UNL     1       8.715  11.646  72.311  1.00  0.00     0.211 HD
ENDBRANCH  23  31
ENDBRANCH   1  18
TORSDOF 11
ENDMDL
MODEL 6
REMARK VINA RESULT:    -4.068      2.969      6.024
REMARK INTER + INTRA:          -7.544
REMARK INTER:                  -5.874
REMARK INTRA:                  -1.670
REMARK UNBOUND:                -1.455
REMARK SMILES COC(=O)C1=CO[C@@H](O[C@@H]2O[C@H](CO)[C@@H](O)[C@@H](O)[C@H]2O)[C@@H]2C(CO)=CC[C@@H]12
REMARK SMILES IDX 9 1 8 2 5 3 6 4 27 5 7 6 21 7 26 8 22 9 25 10 3 11 4 12 2 13
REMARK SMILES IDX 1 14 23 15 24 16 10 18 19 19 11 20 17 21 12 22 15 23 20 24
REMARK SMILES IDX 18 26 13 28 14 29 16 31
REMARK H PARENT 24 17 20 25 18 27 14 30 16 32
REMARK Flexibility Score: inf
ROOT
ATOM      1  O   UNL     1      -2.545  13.661  60.199  1.00  0.00    -0.310 OA
ENDROOT
BRANCH   1   2
ATOM      2  C   UNL     1      -2.001  14.801  59.549  1.00  0.00     0.316 C 
ATOM      3  C   UNL     1      -0.690  17.387  60.041  1.00  0.00     0.076 C 
ATOM      4  C   UNL     1      -0.019  16.232  60.216  1.00  0.00     0.202 C 
ATOM      5  C   UNL     1      -2.044  17.270  59.389  1.00  0.00     0.047 C 
ATOM      6  O   UNL     1      -0.623  14.982  59.944  1.00  0.00    -0.471 OA
ATOM      7  C   UNL     1      -2.780  16.060  59.957  1.00  0.00     0.094 C 
ATOM      8  C   UNL     1      -3.076  18.389  59.511  1.00  0.00     0.037 C 
ATOM      9  C   UNL     1      -4.169  16.314  59.464  1.00  0.00    -0.039 C 
ATOM     10  C   UNL     1      -4.350  17.627  59.295  1.00  0.00    -0.024 C 
BRANCH   3  11
ATOM     11  C   UNL     1      -0.029  18.689  60.285  1.00  0.00     0.337 C 
ATOM     12  O   UNL     1      -0.082  19.225  61.425  1.00  0.00    -0.246 OA
BRANCH  11  13
ATOM     13  O   UNL     1       0.651  19.330  59.243  1.00  0.00    -0.466 OA
ATOM     14  C   UNL     1       1.988  19.003  58.884  1.00  0.00     0.282 C 
ENDBRANCH  11  13
ENDBRANCH   3  11
BRANCH   9  15
ATOM     15  C   UNL     1      -5.275  15.311  59.370  1.00  0.00     0.187 C 
BRANCH  15  16
ATOM     16  O   UNL     1      -5.308  14.539  60.540  1.00  0.00    -0.392 OA
ATOM     17  H   UNL     1      -5.845  13.733  60.322  1.00  0.00     0.211 HD
ENDBRANCH  15  16
ENDBRANCH   9  15
ENDBRANCH   1   2
BRANCH   1  18
ATOM     18  C   UNL     1      -2.790  12.596  59.286  1.00  0.00     0.286 C 
ATOM     19  C   UNL     1      -1.480  11.824  58.977  1.00  0.00     0.202 C 
ATOM     20  O   UNL     1      -3.834  11.751  59.764  1.00  0.00    -0.341 OA
ATOM     21  C   UNL     1      -1.048  10.964  60.171  1.00  0.00     0.179 C 
ATOM     22  C   UNL     1      -3.489  10.899  60.856  1.00  0.00     0.178 C 
ATOM     23  C   UNL     1      -2.201  10.071  60.637  1.00  0.00     0.177 C 
BRANCH  19  24
ATOM     24  O   UNL     1      -1.587  11.054  57.801  1.00  0.00    -0.385 OA
ATOM     25  H   UNL     1      -1.721  11.665  57.030  1.00  0.00     0.211 HD
ENDBRANCH  19  24
BRANCH  21  26
ATOM     26  O   UNL     1       0.064  10.175  59.836  1.00  0.00    -0.387 OA
ATOM     27  H   UNL     1      -0.122   9.259  60.171  1.00  0.00     0.211 HD
ENDBRANCH  21  26
BRANCH  22  28
ATOM     28  C   UNL     1      -3.517  11.624  62.212  1.00  0.00     0.191 C 
BRANCH  28  29
ATOM     29  O   UNL     1      -4.595  12.517  62.245  1.00  0.00    -0.394 OA
ATOM     30  H   UNL     1      -4.828  12.704  61.298  1.00  0.00     0.210 HD
ENDBRANCH  28  29
ENDBRANCH  22  28
BRANCH  23  31
ATOM     31  O   UNL     1      -2.458   9.057  59.696  1.00  0.00    -0.387 OA
ATOM     32  H   UNL     1      -3.354   8.685  59.902  1.00  0.00     0.211 HD
ENDBRANCH  23  31
ENDBRANCH   1  18
TORSDOF 11
ENDMDL
MODEL 7
REMARK VINA RESULT:    -4.027     12.509     15.403
REMARK INTER + INTRA:          -7.483
REMARK INTER:                  -5.975
REMARK INTRA:                  -1.508
REMARK UNBOUND:                -1.455
REMARK SMILES COC(=O)C1=CO[C@@H](O[C@@H]2O[C@H](CO)[C@@H](O)[C@@H](O)[C@H]2O)[C@@H]2C(CO)=CC[C@@H]12
REMARK SMILES IDX 9 1 8 2 5 3 6 4 27 5 7 6 21 7 26 8 22 9 25 10 3 11 4 12 2 13
REMARK SMILES IDX 1 14 23 15 24 16 10 18 19 19 11 20 17 21 12 22 15 23 20 24
REMARK SMILES IDX 18 26 13 28 14 29 16 31
REMARK H PARENT 24 17 20 25 18 27 14 30 16 32
REMARK Flexibility Score: inf
ROOT
ATOM      1  O   UNL     1       5.013  14.143  73.868  1.00  0.00    -0.310 OA
ENDROOT
BRANCH   1   2
ATOM      2  C   UNL     1       3.848  13.583  74.456  1.00  0.00     0.316 C 
ATOM      3  C   UNL     1       1.515  11.882  73.895  1.00  0.00     0.076 C 
ATOM      4  C   UNL     1       2.745  11.345  74.011  1.00  0.00     0.202 C 
ATOM      5  C   UNL     1       1.391  13.334  74.276  1.00  0.00     0.047 C 
ATOM      6  O   UNL     1       3.870  12.144  74.321  1.00  0.00    -0.471 OA
ATOM      7  C   UNL     1       2.594  14.106  73.739  1.00  0.00     0.094 C 
ATOM      8  C   UNL     1       0.206  14.174  73.805  1.00  0.00     0.037 C 
ATOM      9  C   UNL     1       2.128  15.517  73.910  1.00  0.00    -0.039 C 
ATOM     10  C   UNL     1       0.792  15.554  73.864  1.00  0.00    -0.024 C 
BRANCH   3  11
ATOM     11  C   UNL     1       0.340  11.025  73.617  1.00  0.00     0.337 C 
ATOM     12  O   UNL     1      -0.093  10.903  72.439  1.00  0.00    -0.246 OA
BRANCH  11  13
ATOM     13  O   UNL     1      -0.296  10.353  74.667  1.00  0.00    -0.466 OA
ATOM     14  C   UNL     1      -0.845   9.049  74.525  1.00  0.00     0.282 C 
ENDBRANCH  11  13
ENDBRANCH   3  11
BRANCH   9  15
ATOM     15  C   UNL     1       2.987  16.741  73.915  1.00  0.00     0.187 C 
BRANCH  15  16
ATOM     16  O   UNL     1       3.772  16.758  75.076  1.00  0.00    -0.392 OA
ATOM     17  H   UNL     1       3.957  15.809  75.297  1.00  0.00     0.211 HD
ENDBRANCH  15  16
ENDBRANCH   9  15
ENDBRANCH   1   2
BRANCH   1  18
ATOM     18  C   UNL     1       5.024  13.979  72.454  1.00  0.00     0.286 C 
ATOM     19  C   UNL     1       5.624  15.230  71.760  1.00  0.00     0.202 C 
ATOM     20  O   UNL     1       5.688  12.770  72.091  1.00  0.00    -0.341 OA
ATOM     21  C   UNL     1       7.142  15.302  71.961  1.00  0.00     0.179 C 
ATOM     22  C   UNL     1       7.109  12.780  72.225  1.00  0.00     0.178 C 
ATOM     23  C   UNL     1       7.804  13.984  71.548  1.00  0.00     0.177 C 
BRANCH  19  24
ATOM     24  O   UNL     1       5.284  15.287  70.392  1.00  0.00    -0.385 OA
ATOM     25  H   UNL     1       5.686  16.104  69.997  1.00  0.00     0.211 HD
ENDBRANCH  19  24
BRANCH  21  26
ATOM     26  O   UNL     1       7.690  16.365  71.224  1.00  0.00    -0.387 OA
ATOM     27  H   UNL     1       6.975  17.048  71.133  1.00  0.00     0.211 HD
ENDBRANCH  21  26
BRANCH  22  28
ATOM     28  C   UNL     1       7.575  12.548  73.672  1.00  0.00     0.191 C 
BRANCH  28  29
ATOM     29  O   UNL     1       6.737  11.611  74.291  1.00  0.00    -0.394 OA
ATOM     30  H   UNL     1       5.932  11.539  73.715  1.00  0.00     0.210 HD
ENDBRANCH  28  29
ENDBRANCH  22  28
BRANCH  23  31
ATOM     31  O   UNL     1       7.759  13.820  70.152  1.00  0.00    -0.387 OA
ATOM     32  H   UNL     1       8.461  14.404  69.765  1.00  0.00     0.211 HD
ENDBRANCH  23  31
ENDBRANCH   1  18
TORSDOF 11
ENDMDL
MODEL 8
REMARK VINA RESULT:    -4.024     11.942     15.638
REMARK INTER + INTRA:          -7.479
REMARK INTER:                  -5.742
REMARK INTRA:                  -1.737
REMARK UNBOUND:                -1.455
REMARK SMILES COC(=O)C1=CO[C@@H](O[C@@H]2O[C@H](CO)[C@@H](O)[C@@H](O)[C@H]2O)[C@@H]2C(CO)=CC[C@@H]12
REMARK SMILES IDX 9 1 8 2 5 3 6 4 27 5 7 6 21 7 26 8 22 9 25 10 3 11 4 12 2 13
REMARK SMILES IDX 1 14 23 15 24 16 10 18 19 19 11 20 17 21 12 22 15 23 20 24
REMARK SMILES IDX 18 26 13 28 14 29 16 31
REMARK H PARENT 24 17 20 25 18 27 14 30 16 32
REMARK Flexibility Score: inf
ROOT
ATOM      1  O   UNL     1       4.414  12.972  72.775  1.00  0.00    -0.310 OA
ENDROOT
BRANCH   1   2
ATOM      2  C   UNL     1       3.448  12.470  73.687  1.00  0.00     0.316 C 
ATOM      3  C   UNL     1       0.881  11.041  73.845  1.00  0.00     0.076 C 
ATOM      4  C   UNL     1       2.013  10.388  73.516  1.00  0.00     0.202 C 
ATOM      5  C   UNL     1       1.055  12.460  74.322  1.00  0.00     0.047 C 
ATOM      6  O   UNL     1       3.261  11.052  73.477  1.00  0.00    -0.471 OA
ATOM      7  C   UNL     1       2.097  13.164  73.457  1.00  0.00     0.094 C 
ATOM      8  C   UNL     1      -0.115  13.442  74.317  1.00  0.00     0.037 C 
ATOM      9  C   UNL     1       1.876  14.591  73.847  1.00  0.00    -0.039 C 
ATOM     10  C   UNL     1       0.611  14.752  74.250  1.00  0.00    -0.024 C 
BRANCH   3  11
ATOM     11  C   UNL     1      -0.410  10.322  73.929  1.00  0.00     0.337 C 
ATOM     12  O   UNL     1      -0.750   9.750  75.000  1.00  0.00    -0.246 OA
BRANCH  11  13
ATOM     13  O   UNL     1      -1.252  10.271  72.812  1.00  0.00    -0.466 OA
ATOM     14  C   UNL     1      -2.491  10.968  72.752  1.00  0.00     0.282 C 
ENDBRANCH  11  13
ENDBRANCH   3  11
BRANCH   9  15
ATOM     15  C   UNL     1       2.824  15.728  73.630  1.00  0.00     0.187 C 
BRANCH  15  16
ATOM     16  O   UNL     1       3.269  15.720  72.301  1.00  0.00    -0.392 OA
ATOM     17  H   UNL     1       4.220  16.002  72.329  1.00  0.00     0.211 HD
ENDBRANCH  15  16
ENDBRANCH   9  15
ENDBRANCH   1   2
BRANCH   1  18
ATOM     18  C   UNL     1       5.572  13.460  73.444  1.00  0.00     0.286 C 
ATOM     19  C   UNL     1       6.566  12.305  73.737  1.00  0.00     0.202 C 
ATOM     20  O   UNL     1       6.164  14.531  72.713  1.00  0.00    -0.341 OA
ATOM     21  C   UNL     1       7.263  11.835  72.455  1.00  0.00     0.179 C 
ATOM     22  C   UNL     1       6.858  14.158  71.523  1.00  0.00     0.178 C 
ATOM     23  C   UNL     1       7.888  13.021  71.715  1.00  0.00     0.177 C 
BRANCH  19  24
ATOM     24  O   UNL     1       7.501  12.654  74.732  1.00  0.00    -0.385 OA
ATOM     25  H   UNL     1       7.168  13.455  75.216  1.00  0.00     0.211 HD
ENDBRANCH  19  24
BRANCH  21  26
ATOM     26  O   UNL     1       8.250  10.880  72.750  1.00  0.00    -0.387 OA
ATOM     27  H   UNL     1       7.867  10.275  73.438  1.00  0.00     0.211 HD
ENDBRANCH  21  26
BRANCH  22  28
ATOM     28  C   UNL     1       5.917  13.924  70.329  1.00  0.00     0.191 C 
BRANCH  28  29
ATOM     29  O   UNL     1       4.920  14.908  70.318  1.00  0.00    -0.394 OA
ATOM     30  H   UNL     1       5.134  15.510  69.558  1.00  0.00     0.210 HD
ENDBRANCH  28  29
ENDBRANCH  22  28
BRANCH  23  31
ATOM     31  O   UNL     1       9.000  13.517  72.420  1.00  0.00    -0.387 OA
ATOM     32  H   UNL     1       8.756  14.419  72.756  1.00  0.00     0.211 HD
ENDBRANCH  23  31
ENDBRANCH   1  18
TORSDOF 11
ENDMDL
MODEL 9
REMARK VINA RESULT:    -4.010     12.853     16.149
REMARK INTER + INTRA:          -7.458
REMARK INTER:                  -5.815
REMARK INTRA:                  -1.642
REMARK UNBOUND:                -1.455
REMARK SMILES COC(=O)C1=CO[C@@H](O[C@@H]2O[C@H](CO)[C@@H](O)[C@@H](O)[C@H]2O)[C@@H]2C(CO)=CC[C@@H]12
REMARK SMILES IDX 9 1 8 2 5 3 6 4 27 5 7 6 21 7 26 8 22 9 25 10 3 11 4 12 2 13
REMARK SMILES IDX 1 14 23 15 24 16 10 18 19 19 11 20 17 21 12 22 15 23 20 24
REMARK SMILES IDX 18 26 13 28 14 29 16 31
REMARK H PARENT 24 17 20 25 18 27 14 30 16 32
REMARK Flexibility Score: inf
ROOT
ATOM      1  O   UNL     1       5.016  11.252  73.034  1.00  0.00    -0.310 OA
ENDROOT
BRANCH   1   2
ATOM      2  C   UNL     1       3.805  10.661  72.586  1.00  0.00     0.316 C 
ATOM      3  C   UNL     1       1.120   9.842  73.466  1.00  0.00     0.076 C 
ATOM      4  C   UNL     1       1.424  11.145  73.304  1.00  0.00     0.202 C 
ATOM      5  C   UNL     1       2.151   8.860  72.971  1.00  0.00     0.047 C 
ATOM      6  O   UNL     1       2.696  11.553  72.842  1.00  0.00    -0.471 OA
ATOM      7  C   UNL     1       3.546   9.353  73.348  1.00  0.00     0.094 C 
ATOM      8  C   UNL     1       2.155   7.412  73.456  1.00  0.00     0.037 C 
ATOM      9  C   UNL     1       4.361   8.125  73.092  1.00  0.00    -0.039 C 
ATOM     10  C   UNL     1       3.592   7.041  73.235  1.00  0.00    -0.024 C 
BRANCH   3  11
ATOM     11  C   UNL     1      -0.232   9.430  73.904  1.00  0.00     0.337 C 
ATOM     12  O   UNL     1      -0.630   9.695  75.071  1.00  0.00    -0.246 OA
BRANCH  11  13
ATOM     13  O   UNL     1      -1.069   8.739  73.021  1.00  0.00    -0.466 OA
ATOM     14  C   UNL     1      -1.655   9.352  71.879  1.00  0.00     0.282 C 
ENDBRANCH  11  13
ENDBRANCH   3  11
BRANCH   9  15
ATOM     15  C   UNL     1       5.845   8.065  72.917  1.00  0.00     0.187 C 
BRANCH  15  16
ATOM     16  O   UNL     1       6.467   8.801  73.935  1.00  0.00    -0.392 OA
ATOM     17  H   UNL     1       5.735   9.193  74.477  1.00  0.00     0.211 HD
ENDBRANCH  15  16
ENDBRANCH   9  15
ENDBRANCH   1   2
BRANCH   1  18
ATOM     18  C   UNL     1       5.883  11.573  71.951  1.00  0.00     0.286 C 
ATOM     19  C   UNL     1       5.595  13.003  71.421  1.00  0.00     0.202 C 
ATOM     20  O   UNL     1       7.246  11.381  72.321  1.00  0.00    -0.341 OA
ATOM     21  C   UNL     1       6.102  14.069  72.400  1.00  0.00     0.179 C 
ATOM     22  C   UNL     1       7.791  12.358  73.207  1.00  0.00     0.178 C 
ATOM     23  C   UNL     1       7.570  13.821  72.755  1.00  0.00     0.177 C 
BRANCH  19  24
ATOM     24  O   UNL     1       6.121  13.201  70.128  1.00  0.00    -0.385 OA
ATOM     25  H   UNL     1       6.407  12.324  69.762  1.00  0.00     0.211 HD
ENDBRANCH  19  24
BRANCH  21  26
ATOM     26  O   UNL     1       5.951  15.354  71.853  1.00  0.00    -0.387 OA
ATOM     27  H   UNL     1       5.081  15.362  71.374  1.00  0.00     0.211 HD
ENDBRANCH  21  26
BRANCH  22  28
ATOM     28  C   UNL     1       7.405  12.116  74.676  1.00  0.00     0.191 C 
BRANCH  28  29
ATOM     29  O   UNL     1       8.046  10.961  75.144  1.00  0.00    -0.394 OA
ATOM     30  H   UNL     1       7.329  10.290  75.296  1.00  0.00     0.210 HD
ENDBRANCH  28  29
ENDBRANCH  22  28
BRANCH  23  31
ATOM     31  O   UNL     1       8.402  14.097  71.655  1.00  0.00    -0.387 OA
ATOM     32  H   UNL     1       8.636  13.227  71.239  1.00  0.00     0.211 HD
ENDBRANCH  23  31
ENDBRANCH   1  18
TORSDOF 11
ENDMDL
