MODEL 1
REMARK VINA RESULT:    -7.913      0.000      0.000
REMARK INTER + INTRA:          -8.875
REMARK INTER:                  -8.607
REMARK INTRA:                  -0.268
REMARK UNBOUND:                -0.268
REMARK SMILES C[C@H]1[C@H]2C3=CC[C@@H]4[C@]5(C)CC[C@H](O)C(C)(C)[C@@H]5CC[C@@]4(C)[C@]3(C)CC[C@@]2(C(=O)[O-])CC[C@@H]1C
REMARK SMILES IDX 26 1 30 2 25 3 3 4 31 5 24 6 4 7 2 8 32 9 22 10 5 11 1 12
REMARK SMILES IDX 33 13 23 14 20 15 6 16 7 17 19 18 21 19 8 20 18 21 17 22
REMARK SMILES IDX 10 23 9 24 14 25 11 26 12 27 15 28 16 29 27 30 28 31 29 32
REMARK SMILES IDX 13 33
REMARK H PARENT 13 34
REMARK Flexibility Score: inf
ROOT
ATOM      1  C   UNL     1      65.789   4.561  -1.084  1.00  0.00     0.017 C 
ATOM      2  C   UNL     1      65.409   5.828  -1.891  1.00  0.00     0.014 C 
ATOM      3  C   UNL     1      64.840   3.385  -1.445  1.00  0.00     0.014 C 
ATOM      4  C   UNL     1      65.755   4.879   0.468  1.00  0.00     0.030 C 
ATOM      5  C   UNL     1      66.382   6.992  -1.629  1.00  0.00     0.004 C 
ATOM      6  C   UNL     1      63.445   3.485  -0.832  1.00  0.00     0.013 C 
ATOM      7  C   UNL     1      64.724   4.082   1.305  1.00  0.00    -0.063 C 
ATOM      8  C   UNL     1      65.810   6.408   0.862  1.00  0.00    -0.003 C 
ATOM      9  C   UNL     1      66.624   7.304  -0.127  1.00  0.00    -0.011 C 
ATOM     10  C   UNL     1      63.408   3.495   0.740  1.00  0.00    -0.006 C 
ATOM     11  C   UNL     1      65.050   3.864   2.602  1.00  0.00    -0.027 C 
ATOM     12  C   UNL     1      64.446   7.064   1.144  1.00  0.00     0.008 C 
ATOM     13  C   UNL     1      68.123   7.325   0.227  1.00  0.00     0.008 C 
ATOM     14  C   UNL     1      62.266   4.494   1.127  1.00  0.00     0.017 C 
ATOM     15  C   UNL     1      63.166   2.022   1.384  1.00  0.00    -0.020 C 
ATOM     16  C   UNL     1      64.474   2.774   3.461  1.00  0.00     0.032 C 
ATOM     17  C   UNL     1      63.146   2.150   2.957  1.00  0.00     0.006 C 
ATOM     18  C   UNL     1      61.805   1.399   0.968  1.00  0.00     0.008 C 
ATOM     19  C   UNL     1      64.303   1.077   0.888  1.00  0.00     0.012 C 
ATOM     20  C   UNL     1      62.609   0.923   3.858  1.00  0.00    -0.025 C 
ATOM     21  C   UNL     1      61.548   0.044   1.629  1.00  0.00     0.005 C 
ATOM     22  C   UNL     1      61.391   0.145   3.171  1.00  0.00     0.003 C 
ATOM     23  C   UNL     1      63.766  -0.052   4.245  1.00  0.00     0.010 C 
ATOM     24  C   UNL     1      62.090   1.575   5.184  1.00  0.00     0.012 C 
ATOM     25  C   UNL     1      61.012  -1.271   3.825  1.00  0.00    -0.006 C 
ATOM     26  C   UNL     1      63.316  -1.323   4.968  1.00  0.00     0.033 C 
ATOM     27  C   UNL     1      62.285  -2.111   4.150  1.00  0.00     0.120 C 
ATOM     28  C   UNL     1      60.106  -2.126   2.886  1.00  0.00     0.014 C 
ATOM     29  C   UNL     1      60.160  -1.091   5.120  1.00  0.00     0.014 C 
ENDROOT
BRANCH   1  30
ATOM     30  C   UNL     1      67.174   4.104  -1.582  1.00  0.00     0.048 C 
ATOM     31  O   UNL     1      68.145   4.038  -0.773  1.00  0.00    -0.550 OA
ATOM     32  O   UNL     1      67.418   3.787  -2.913  1.00  0.00    -0.550 OA
ENDBRANCH   1  30
BRANCH  27  33
ATOM     33  O   UNL     1      62.890  -2.581   2.967  1.00  0.00    -0.393 OA
ATOM     34  H   UNL     1      62.829  -1.852   2.298  1.00  0.00     0.210 HD
ENDBRANCH  27  33
TORSDOF 2
ENDMDL
MODEL 2
REMARK VINA RESULT:    -7.815      3.997      6.821
REMARK INTER + INTRA:          -8.768
REMARK INTER:                  -8.497
REMARK INTRA:                  -0.271
REMARK UNBOUND:                -0.268
REMARK SMILES C[C@H]1[C@H]2C3=CC[C@@H]4[C@]5(C)CC[C@H](O)C(C)(C)[C@@H]5CC[C@@]4(C)[C@]3(C)CC[C@@]2(C(=O)[O-])CC[C@@H]1C
REMARK SMILES IDX 26 1 30 2 25 3 3 4 31 5 24 6 4 7 2 8 32 9 22 10 5 11 1 12
REMARK SMILES IDX 33 13 23 14 20 15 6 16 7 17 19 18 21 19 8 20 18 21 17 22
REMARK SMILES IDX 10 23 9 24 14 25 11 26 12 27 15 28 16 29 27 30 28 31 29 32
REMARK SMILES IDX 13 33
REMARK H PARENT 13 34
REMARK Flexibility Score: inf
ROOT
ATOM      1  C   UNL     1      62.845  -2.740   0.613  1.00  0.00     0.017 C 
ATOM      2  C   UNL     1      62.047  -2.835  -0.713  1.00  0.00     0.014 C 
ATOM      3  C   UNL     1      61.937  -2.199   1.752  1.00  0.00     0.014 C 
ATOM      4  C   UNL     1      64.125  -1.829   0.409  1.00  0.00     0.030 C 
ATOM      5  C   UNL     1      62.887  -3.451  -1.847  1.00  0.00     0.004 C 
ATOM      6  C   UNL     1      61.664  -0.699   1.686  1.00  0.00     0.013 C 
ATOM      7  C   UNL     1      64.182  -0.534   1.256  1.00  0.00    -0.063 C 
ATOM      8  C   UNL     1      64.580  -1.600  -1.086  1.00  0.00    -0.003 C 
ATOM      9  C   UNL     1      64.280  -2.797  -2.046  1.00  0.00    -0.011 C 
ATOM     10  C   UNL     1      62.939   0.215   1.791  1.00  0.00    -0.006 C 
ATOM     11  C   UNL     1      65.421  -0.082   1.571  1.00  0.00    -0.027 C 
ATOM     12  C   UNL     1      64.086  -0.291  -1.731  1.00  0.00     0.008 C 
ATOM     13  C   UNL     1      65.417  -3.836  -2.030  1.00  0.00     0.008 C 
ATOM     14  C   UNL     1      62.680   1.412   0.814  1.00  0.00     0.017 C 
ATOM     15  C   UNL     1      63.237   0.726   3.305  1.00  0.00    -0.020 C 
ATOM     16  C   UNL     1      65.735   0.839   2.716  1.00  0.00     0.032 C 
ATOM     17  C   UNL     1      64.531   1.631   3.291  1.00  0.00     0.006 C 
ATOM     18  C   UNL     1      62.089   1.596   3.885  1.00  0.00     0.008 C 
ATOM     19  C   UNL     1      63.408  -0.525   4.220  1.00  0.00     0.012 C 
ATOM     20  C   UNL     1      64.892   2.538   4.577  1.00  0.00    -0.025 C 
ATOM     21  C   UNL     1      62.401   2.133   5.283  1.00  0.00     0.005 C 
ATOM     22  C   UNL     1      63.590   3.133   5.294  1.00  0.00     0.003 C 
ATOM     23  C   UNL     1      65.800   1.766   5.587  1.00  0.00     0.010 C 
ATOM     24  C   UNL     1      65.735   3.735   4.020  1.00  0.00     0.012 C 
ATOM     25  C   UNL     1      63.824   3.764   6.750  1.00  0.00    -0.006 C 
ATOM     26  C   UNL     1      66.059   2.501   6.904  1.00  0.00     0.033 C 
ATOM     27  C   UNL     1      64.754   2.866   7.622  1.00  0.00     0.120 C 
ATOM     28  C   UNL     1      62.485   3.956   7.527  1.00  0.00     0.014 C 
ATOM     29  C   UNL     1      64.423   5.203   6.659  1.00  0.00     0.014 C 
ENDROOT
BRANCH   1  30
ATOM     30  C   UNL     1      63.184  -4.181   1.043  1.00  0.00     0.048 C 
ATOM     31  O   UNL     1      64.369  -4.477   1.374  1.00  0.00    -0.550 OA
ATOM     32  O   UNL     1      62.236  -5.196   1.052  1.00  0.00    -0.550 OA
ENDBRANCH   1  30
BRANCH  27  33
ATOM     33  O   UNL     1      64.089   1.684   8.009  1.00  0.00    -0.393 OA
ATOM     34  H   UNL     1      64.768   1.086   8.412  1.00  0.00     0.210 HD
ENDBRANCH  27  33
TORSDOF 2
ENDMDL
MODEL 3
REMARK VINA RESULT:    -7.701      2.906      4.456
REMARK INTER + INTRA:          -8.644
REMARK INTER:                  -8.390
REMARK INTRA:                  -0.254
REMARK UNBOUND:                -0.268
REMARK SMILES C[C@H]1[C@H]2C3=CC[C@@H]4[C@]5(C)CC[C@H](O)C(C)(C)[C@@H]5CC[C@@]4(C)[C@]3(C)CC[C@@]2(C(=O)[O-])CC[C@@H]1C
REMARK SMILES IDX 26 1 30 2 25 3 3 4 31 5 24 6 4 7 2 8 32 9 22 10 5 11 1 12
REMARK SMILES IDX 33 13 23 14 20 15 6 16 7 17 19 18 21 19 8 20 18 21 17 22
REMARK SMILES IDX 10 23 9 24 14 25 11 26 12 27 15 28 16 29 27 30 28 31 29 32
REMARK SMILES IDX 13 33
REMARK H PARENT 13 34
REMARK Flexibility Score: inf
ROOT
ATOM      1  C   UNL     1      65.111   1.712  -1.297  1.00  0.00     0.017 C 
ATOM      2  C   UNL     1      64.763   2.346  -2.668  1.00  0.00     0.014 C 
ATOM      3  C   UNL     1      63.837   1.601  -0.414  1.00  0.00     0.014 C 
ATOM      4  C   UNL     1      66.243   2.559  -0.581  1.00  0.00     0.030 C 
ATOM      5  C   UNL     1      65.981   2.391  -3.608  1.00  0.00     0.004 C 
ATOM      6  C   UNL     1      63.373   2.921   0.197  1.00  0.00     0.013 C 
ATOM      7  C   UNL     1      65.852   3.217   0.765  1.00  0.00    -0.063 C 
ATOM      8  C   UNL     1      67.077   3.524  -1.513  1.00  0.00    -0.003 C 
ATOM      9  C   UNL     1      67.257   3.014  -2.980  1.00  0.00    -0.011 C 
ATOM     10  C   UNL     1      64.409   3.610   1.159  1.00  0.00    -0.006 C 
ATOM     11  C   UNL     1      66.861   3.404   1.651  1.00  0.00    -0.027 C 
ATOM     12  C   UNL     1      66.604   4.990  -1.535  1.00  0.00     0.008 C 
ATOM     13  C   UNL     1      68.481   2.090  -3.114  1.00  0.00     0.008 C 
ATOM     14  C   UNL     1      64.271   5.147   0.892  1.00  0.00     0.017 C 
ATOM     15  C   UNL     1      64.168   3.245   2.725  1.00  0.00    -0.020 C 
ATOM     16  C   UNL     1      66.681   3.581   3.132  1.00  0.00     0.032 C 
ATOM     17  C   UNL     1      65.257   3.988   3.594  1.00  0.00     0.006 C 
ATOM     18  C   UNL     1      62.783   3.714   3.247  1.00  0.00     0.008 C 
ATOM     19  C   UNL     1      64.249   1.696   2.885  1.00  0.00     0.012 C 
ATOM     20  C   UNL     1      65.083   4.078   5.196  1.00  0.00    -0.025 C 
ATOM     21  C   UNL     1      62.586   3.432   4.737  1.00  0.00     0.005 C 
ATOM     22  C   UNL     1      63.554   4.245   5.639  1.00  0.00     0.003 C 
ATOM     23  C   UNL     1      65.759   2.868   5.915  1.00  0.00     0.010 C 
ATOM     24  C   UNL     1      65.862   5.366   5.628  1.00  0.00     0.012 C 
ATOM     25  C   UNL     1      63.251   4.015   7.198  1.00  0.00    -0.006 C 
ATOM     26  C   UNL     1      65.506   2.797   7.423  1.00  0.00     0.033 C 
ATOM     27  C   UNL     1      64.008   2.768   7.751  1.00  0.00     0.120 C 
ATOM     28  C   UNL     1      61.730   3.808   7.475  1.00  0.00     0.014 C 
ATOM     29  C   UNL     1      63.627   5.271   8.044  1.00  0.00     0.014 C 
ENDROOT
BRANCH   1  30
ATOM     30  C   UNL     1      65.522   0.250  -1.564  1.00  0.00     0.048 C 
ATOM     31  O   UNL     1      64.676  -0.566  -2.034  1.00  0.00    -0.550 OA
ATOM     32  O   UNL     1      66.794  -0.229  -1.277  1.00  0.00    -0.550 OA
ENDBRANCH   1  30
BRANCH  27  33
ATOM     33  O   UNL     1      63.444   1.577   7.249  1.00  0.00    -0.393 OA
ATOM     34  H   UNL     1      63.775   0.835   7.817  1.00  0.00     0.210 HD
ENDBRANCH  27  33
TORSDOF 2
ENDMDL
MODEL 4
REMARK VINA RESULT:    -7.602      3.018      8.062
REMARK INTER + INTRA:          -8.536
REMARK INTER:                  -8.266
REMARK INTRA:                  -0.271
REMARK UNBOUND:                -0.268
REMARK SMILES C[C@H]1[C@H]2C3=CC[C@@H]4[C@]5(C)CC[C@H](O)C(C)(C)[C@@H]5CC[C@@]4(C)[C@]3(C)CC[C@@]2(C(=O)[O-])CC[C@@H]1C
REMARK SMILES IDX 26 1 30 2 25 3 3 4 31 5 24 6 4 7 2 8 32 9 22 10 5 11 1 12
REMARK SMILES IDX 33 13 23 14 20 15 6 16 7 17 19 18 21 19 8 20 18 21 17 22
REMARK SMILES IDX 10 23 9 24 14 25 11 26 12 27 15 28 16 29 27 30 28 31 29 32
REMARK SMILES IDX 13 33
REMARK H PARENT 13 34
REMARK Flexibility Score: inf
ROOT
ATOM      1  C   UNL     1      65.143  -2.771  -0.425  1.00  0.00     0.017 C 
ATOM      2  C   UNL     1      65.363  -3.919   0.592  1.00  0.00     0.014 C 
ATOM      3  C   UNL     1      66.370  -1.818  -0.437  1.00  0.00     0.014 C 
ATOM      4  C   UNL     1      63.806  -1.993  -0.082  1.00  0.00     0.030 C 
ATOM      5  C   UNL     1      64.207  -4.937   0.570  1.00  0.00     0.004 C 
ATOM      6  C   UNL     1      66.455  -0.879   0.764  1.00  0.00     0.013 C 
ATOM      7  C   UNL     1      63.965  -0.500   0.299  1.00  0.00    -0.063 C 
ATOM      8  C   UNL     1      62.783  -2.754   0.850  1.00  0.00    -0.003 C 
ATOM      9  C   UNL     1      62.793  -4.309   0.690  1.00  0.00    -0.011 C 
ATOM     10  C   UNL     1      65.243   0.111   0.921  1.00  0.00    -0.006 C 
ATOM     11  C   UNL     1      62.913   0.304   0.010  1.00  0.00    -0.027 C 
ATOM     12  C   UNL     1      62.860  -2.393   2.346  1.00  0.00     0.008 C 
ATOM     13  C   UNL     1      61.855  -4.770  -0.442  1.00  0.00     0.008 C 
ATOM     14  C   UNL     1      64.987   0.219   2.462  1.00  0.00     0.017 C 
ATOM     15  C   UNL     1      65.515   1.567   0.252  1.00  0.00    -0.020 C 
ATOM     16  C   UNL     1      62.989   1.796  -0.145  1.00  0.00     0.032 C 
ATOM     17  C   UNL     1      64.242   2.474   0.469  1.00  0.00     0.006 C 
ATOM     18  C   UNL     1      66.713   2.314   0.899  1.00  0.00     0.008 C 
ATOM     19  C   UNL     1      65.834   1.359  -1.261  1.00  0.00     0.012 C 
ATOM     20  C   UNL     1      64.330   4.063   0.201  1.00  0.00    -0.025 C 
ATOM     21  C   UNL     1      66.925   3.712   0.315  1.00  0.00     0.005 C 
ATOM     22  C   UNL     1      65.748   4.678   0.621  1.00  0.00     0.003 C 
ATOM     23  C   UNL     1      63.967   4.417  -1.276  1.00  0.00     0.010 C 
ATOM     24  C   UNL     1      63.230   4.702   1.113  1.00  0.00     0.012 C 
ATOM     25  C   UNL     1      66.045   6.165   0.094  1.00  0.00    -0.006 C 
ATOM     26  C   UNL     1      64.177   5.885  -1.652  1.00  0.00     0.033 C 
ATOM     27  C   UNL     1      65.619   6.341  -1.396  1.00  0.00     0.120 C 
ATOM     28  C   UNL     1      67.558   6.532   0.201  1.00  0.00     0.014 C 
ATOM     29  C   UNL     1      65.327   7.236   0.973  1.00  0.00     0.014 C 
ENDROOT
BRANCH   1  30
ATOM     30  C   UNL     1      65.135  -3.405  -1.831  1.00  0.00     0.048 C 
ATOM     31  O   UNL     1      66.135  -4.072  -2.227  1.00  0.00    -0.550 OA
ATOM     32  O   UNL     1      64.072  -3.246  -2.712  1.00  0.00    -0.550 OA
ENDBRANCH   1  30
BRANCH  27  33
ATOM     33  O   UNL     1      66.490   5.636  -2.252  1.00  0.00    -0.393 OA
ATOM     34  H   UNL     1      66.448   4.681  -1.989  1.00  0.00     0.210 HD
ENDBRANCH  27  33
TORSDOF 2
ENDMDL
MODEL 5
REMARK VINA RESULT:    -7.514      2.865      3.634
REMARK INTER + INTRA:          -8.441
REMARK INTER:                  -8.153
REMARK INTRA:                  -0.288
REMARK UNBOUND:                -0.268
REMARK SMILES C[C@H]1[C@H]2C3=CC[C@@H]4[C@]5(C)CC[C@H](O)C(C)(C)[C@@H]5CC[C@@]4(C)[C@]3(C)CC[C@@]2(C(=O)[O-])CC[C@@H]1C
REMARK SMILES IDX 26 1 30 2 25 3 3 4 31 5 24 6 4 7 2 8 32 9 22 10 5 11 1 12
REMARK SMILES IDX 33 13 23 14 20 15 6 16 7 17 19 18 21 19 8 20 18 21 17 22
REMARK SMILES IDX 10 23 9 24 14 25 11 26 12 27 15 28 16 29 27 30 28 31 29 32
REMARK SMILES IDX 13 33
REMARK H PARENT 13 34
REMARK Flexibility Score: inf
ROOT
ATOM      1  C   UNL     1      64.732   4.485   0.065  1.00  0.00     0.017 C 
ATOM      2  C   UNL     1      63.856   5.725   0.373  1.00  0.00     0.014 C 
ATOM      3  C   UNL     1      64.022   3.565  -0.967  1.00  0.00     0.014 C 
ATOM      4  C   UNL     1      65.061   3.708   1.405  1.00  0.00     0.030 C 
ATOM      5  C   UNL     1      64.563   6.708   1.325  1.00  0.00     0.004 C 
ATOM      6  C   UNL     1      62.872   2.741  -0.395  1.00  0.00     0.013 C 
ATOM      7  C   UNL     1      64.521   2.260   1.504  1.00  0.00    -0.063 C 
ATOM      8  C   UNL     1      64.864   4.524   2.743  1.00  0.00    -0.003 C 
ATOM      9  C   UNL     1      65.135   6.058   2.613  1.00  0.00    -0.011 C 
ATOM     10  C   UNL     1      63.276   1.739   0.747  1.00  0.00    -0.006 C 
ATOM     11  C   UNL     1      65.239   1.407   2.275  1.00  0.00    -0.027 C 
ATOM     12  C   UNL     1      63.519   4.301   3.460  1.00  0.00     0.008 C 
ATOM     13  C   UNL     1      66.625   6.392   2.819  1.00  0.00     0.008 C 
ATOM     14  C   UNL     1      62.087   1.764   1.767  1.00  0.00     0.017 C 
ATOM     15  C   UNL     1      63.575   0.236   0.205  1.00  0.00    -0.020 C 
ATOM     16  C   UNL     1      65.198  -0.091   2.168  1.00  0.00     0.032 C 
ATOM     17  C   UNL     1      63.967  -0.679   1.430  1.00  0.00     0.006 C 
ATOM     18  C   UNL     1      62.337  -0.420  -0.466  1.00  0.00     0.008 C 
ATOM     19  C   UNL     1      64.716   0.315  -0.854  1.00  0.00     0.012 C 
ATOM     20  C   UNL     1      64.006  -2.283   1.256  1.00  0.00    -0.025 C 
ATOM     21  C   UNL     1      62.600  -1.859  -0.914  1.00  0.00     0.005 C 
ATOM     22  C   UNL     1      62.862  -2.823   0.275  1.00  0.00     0.003 C 
ATOM     23  C   UNL     1      65.420  -2.777   0.812  1.00  0.00     0.010 C 
ATOM     24  C   UNL     1      63.742  -2.865   2.686  1.00  0.00     0.012 C 
ATOM     25  C   UNL     1      63.023  -4.343  -0.214  1.00  0.00    -0.006 C 
ATOM     26  C   UNL     1      65.501  -4.268   0.475  1.00  0.00     0.033 C 
ATOM     27  C   UNL     1      64.496  -4.662  -0.615  1.00  0.00     0.120 C 
ATOM     28  C   UNL     1      62.117  -4.661  -1.443  1.00  0.00     0.014 C 
ATOM     29  C   UNL     1      62.550  -5.349   0.882  1.00  0.00     0.014 C 
ENDROOT
BRANCH   1  30
ATOM     30  C   UNL     1      65.989   4.990  -0.671  1.00  0.00     0.048 C 
ATOM     31  O   UNL     1      67.138   4.675  -0.245  1.00  0.00    -0.550 OA
ATOM     32  O   UNL     1      65.917   5.819  -1.784  1.00  0.00    -0.550 OA
ENDBRANCH   1  30
BRANCH  27  33
ATOM     33  O   UNL     1      64.838  -4.016  -1.820  1.00  0.00    -0.393 OA
ATOM     34  H   UNL     1      65.496  -4.593  -2.285  1.00  0.00     0.210 HD
ENDBRANCH  27  33
TORSDOF 2
ENDMDL
MODEL 6
REMARK VINA RESULT:    -7.503      3.655      5.870
REMARK INTER + INTRA:          -8.429
REMARK INTER:                  -8.140
REMARK INTRA:                  -0.288
REMARK UNBOUND:                -0.268
REMARK SMILES C[C@H]1[C@H]2C3=CC[C@@H]4[C@]5(C)CC[C@H](O)C(C)(C)[C@@H]5CC[C@@]4(C)[C@]3(C)CC[C@@]2(C(=O)[O-])CC[C@@H]1C
REMARK SMILES IDX 26 1 30 2 25 3 3 4 31 5 24 6 4 7 2 8 32 9 22 10 5 11 1 12
REMARK SMILES IDX 33 13 23 14 20 15 6 16 7 17 19 18 21 19 8 20 18 21 17 22
REMARK SMILES IDX 10 23 9 24 14 25 11 26 12 27 15 28 16 29 27 30 28 31 29 32
REMARK SMILES IDX 13 33
REMARK H PARENT 13 34
REMARK Flexibility Score: inf
ROOT
ATOM      1  C   UNL     1      64.927   3.096   4.864  1.00  0.00     0.017 C 
ATOM      2  C   UNL     1      64.338   4.509   5.100  1.00  0.00     0.014 C 
ATOM      3  C   UNL     1      65.325   2.919   3.372  1.00  0.00     0.014 C 
ATOM      4  C   UNL     1      63.886   1.992   5.322  1.00  0.00     0.030 C 
ATOM      5  C   UNL     1      64.013   4.757   6.585  1.00  0.00     0.004 C 
ATOM      6  C   UNL     1      64.149   2.702   2.424  1.00  0.00     0.013 C 
ATOM      7  C   UNL     1      63.364   1.046   4.213  1.00  0.00    -0.063 C 
ATOM      8  C   UNL     1      62.742   2.483   6.294  1.00  0.00    -0.003 C 
ATOM      9  C   UNL     1      63.159   3.646   7.252  1.00  0.00    -0.011 C 
ATOM     10  C   UNL     1      63.290   1.416   2.712  1.00  0.00    -0.006 C 
ATOM     11  C   UNL     1      63.000  -0.197   4.613  1.00  0.00    -0.027 C 
ATOM     12  C   UNL     1      61.406   2.835   5.614  1.00  0.00     0.008 C 
ATOM     13  C   UNL     1      63.806   3.113   8.544  1.00  0.00     0.008 C 
ATOM     14  C   UNL     1      61.807   1.828   2.423  1.00  0.00     0.017 C 
ATOM     15  C   UNL     1      63.743   0.131   1.826  1.00  0.00    -0.020 C 
ATOM     16  C   UNL     1      62.909  -1.397   3.714  1.00  0.00     0.032 C 
ATOM     17  C   UNL     1      62.819  -1.094   2.195  1.00  0.00     0.006 C 
ATOM     18  C   UNL     1      63.588   0.367   0.299  1.00  0.00     0.008 C 
ATOM     19  C   UNL     1      65.247  -0.161   2.121  1.00  0.00     0.012 C 
ATOM     20  C   UNL     1      62.814  -2.409   1.259  1.00  0.00    -0.025 C 
ATOM     21  C   UNL     1      63.949  -0.866  -0.530  1.00  0.00     0.005 C 
ATOM     22  C   UNL     1      62.981  -2.057  -0.294  1.00  0.00     0.003 C 
ATOM     23  C   UNL     1      63.881  -3.450   1.727  1.00  0.00     0.010 C 
ATOM     24  C   UNL     1      61.407  -3.064   1.465  1.00  0.00     0.012 C 
ATOM     25  C   UNL     1      63.315  -3.297  -1.257  1.00  0.00    -0.006 C 
ATOM     26  C   UNL     1      64.047  -4.656   0.801  1.00  0.00     0.033 C 
ATOM     27  C   UNL     1      64.395  -4.233  -0.632  1.00  0.00     0.120 C 
ATOM     28  C   UNL     1      63.840  -2.831  -2.650  1.00  0.00     0.014 C 
ATOM     29  C   UNL     1      62.034  -4.126  -1.587  1.00  0.00     0.014 C 
ENDROOT
BRANCH   1  30
ATOM     30  C   UNL     1      66.264   3.027   5.629  1.00  0.00     0.048 C 
ATOM     31  O   UNL     1      66.469   2.093   6.458  1.00  0.00    -0.550 OA
ATOM     32  O   UNL     1      67.260   3.982   5.471  1.00  0.00    -0.550 OA
ENDBRANCH   1  30
BRANCH  27  33
ATOM     33  O   UNL     1      65.661  -3.612  -0.640  1.00  0.00    -0.393 OA
ATOM     34  H   UNL     1      66.329  -4.308  -0.413  1.00  0.00     0.210 HD
ENDBRANCH  27  33
TORSDOF 2
ENDMDL
MODEL 7
REMARK VINA RESULT:    -7.435      3.673      5.377
REMARK INTER + INTRA:          -8.355
REMARK INTER:                  -8.321
REMARK INTRA:                  -0.034
REMARK UNBOUND:                -0.268
REMARK SMILES C[C@H]1[C@H]2C3=CC[C@@H]4[C@]5(C)CC[C@H](O)C(C)(C)[C@@H]5CC[C@@]4(C)[C@]3(C)CC[C@@]2(C(=O)[O-])CC[C@@H]1C
REMARK SMILES IDX 26 1 30 2 25 3 3 4 31 5 24 6 4 7 2 8 32 9 22 10 5 11 1 12
REMARK SMILES IDX 33 13 23 14 20 15 6 16 7 17 19 18 21 19 8 20 18 21 17 22
REMARK SMILES IDX 10 23 9 24 14 25 11 26 12 27 15 28 16 29 27 30 28 31 29 32
REMARK SMILES IDX 13 33
REMARK H PARENT 13 34
REMARK Flexibility Score: inf
ROOT
ATOM      1  C   UNL     1      64.931   3.443   0.573  1.00  0.00     0.017 C 
ATOM      2  C   UNL     1      66.108   4.449   0.513  1.00  0.00     0.014 C 
ATOM      3  C   UNL     1      65.229   2.325   1.611  1.00  0.00     0.014 C 
ATOM      4  C   UNL     1      64.660   2.840  -0.867  1.00  0.00     0.030 C 
ATOM      5  C   UNL     1      65.814   5.623  -0.439  1.00  0.00     0.004 C 
ATOM      6  C   UNL     1      66.238   1.279   1.144  1.00  0.00     0.013 C 
ATOM      7  C   UNL     1      64.862   1.312  -1.016  1.00  0.00    -0.063 C 
ATOM      8  C   UNL     1      65.259   3.655  -2.081  1.00  0.00    -0.003 C 
ATOM      9  C   UNL     1      65.330   5.200  -1.852  1.00  0.00    -0.011 C 
ATOM     10  C   UNL     1      65.811   0.466  -0.133  1.00  0.00    -0.006 C 
ATOM     11  C   UNL     1      64.106   0.700  -1.960  1.00  0.00    -0.027 C 
ATOM     12  C   UNL     1      66.617   3.153  -2.606  1.00  0.00     0.008 C 
ATOM     13  C   UNL     1      64.012   5.894  -2.246  1.00  0.00     0.008 C 
ATOM     14  C   UNL     1      67.126   0.258  -0.957  1.00  0.00     0.017 C 
ATOM     15  C   UNL     1      65.088  -0.947   0.219  1.00  0.00    -0.020 C 
ATOM     16  C   UNL     1      63.783  -0.767  -1.985  1.00  0.00     0.032 C 
ATOM     17  C   UNL     1      64.706  -1.673  -1.129  1.00  0.00     0.006 C 
ATOM     18  C   UNL     1      66.013  -1.917   1.004  1.00  0.00     0.008 C 
ATOM     19  C   UNL     1      63.836  -0.651   1.100  1.00  0.00     0.012 C 
ATOM     20  C   UNL     1      64.271  -3.228  -1.110  1.00  0.00    -0.025 C 
ATOM     21  C   UNL     1      65.356  -3.271   1.275  1.00  0.00     0.005 C 
ATOM     22  C   UNL     1      65.081  -4.079  -0.023  1.00  0.00     0.003 C 
ATOM     23  C   UNL     1      62.728  -3.388  -0.928  1.00  0.00     0.010 C 
ATOM     24  C   UNL     1      64.628  -3.779  -2.531  1.00  0.00     0.012 C 
ATOM     25  C   UNL     1      64.496  -5.539   0.296  1.00  0.00    -0.006 C 
ATOM     26  C   UNL     1      62.252  -4.831  -0.745  1.00  0.00     0.033 C 
ATOM     27  C   UNL     1      62.943  -5.514   0.442  1.00  0.00     0.120 C 
ATOM     28  C   UNL     1      65.087  -6.132   1.612  1.00  0.00     0.014 C 
ATOM     29  C   UNL     1      64.900  -6.569  -0.805  1.00  0.00     0.014 C 
ENDROOT
BRANCH   1  30
ATOM     30  C   UNL     1      63.719   4.196   1.157  1.00  0.00     0.048 C 
ATOM     31  O   UNL     1      62.546   3.814   0.877  1.00  0.00    -0.550 OA
ATOM     32  O   UNL     1      63.860   5.317   1.965  1.00  0.00    -0.550 OA
ENDBRANCH   1  30
BRANCH  27  33
ATOM     33  O   UNL     1      62.564  -4.870   1.637  1.00  0.00    -0.393 OA
ATOM     34  H   UNL     1      61.706  -5.274   1.927  1.00  0.00     0.210 HD
ENDBRANCH  27  33
TORSDOF 2
ENDMDL
MODEL 8
REMARK VINA RESULT:    -7.237      2.792      8.221
REMARK INTER + INTRA:          -8.139
REMARK INTER:                  -8.028
REMARK INTRA:                  -0.111
REMARK UNBOUND:                -0.268
REMARK SMILES C[C@H]1[C@H]2C3=CC[C@@H]4[C@]5(C)CC[C@H](O)C(C)(C)[C@@H]5CC[C@@]4(C)[C@]3(C)CC[C@@]2(C(=O)[O-])CC[C@@H]1C
REMARK SMILES IDX 26 1 30 2 25 3 3 4 31 5 24 6 4 7 2 8 32 9 22 10 5 11 1 12
REMARK SMILES IDX 33 13 23 14 20 15 6 16 7 17 19 18 21 19 8 20 18 21 17 22
REMARK SMILES IDX 10 23 9 24 14 25 11 26 12 27 15 28 16 29 27 30 28 31 29 32
REMARK SMILES IDX 13 33
REMARK H PARENT 13 34
REMARK Flexibility Score: inf
ROOT
ATOM      1  C   UNL     1      63.223  -2.205   0.898  1.00  0.00     0.017 C 
ATOM      2  C   UNL     1      62.110  -3.093   0.287  1.00  0.00     0.014 C 
ATOM      3  C   UNL     1      62.642  -0.828   1.325  1.00  0.00     0.014 C 
ATOM      4  C   UNL     1      64.411  -2.037  -0.138  1.00  0.00     0.030 C 
ATOM      5  C   UNL     1      62.626  -4.500  -0.068  1.00  0.00     0.004 C 
ATOM      6  C   UNL     1      62.365   0.129   0.169  1.00  0.00     0.013 C 
ATOM      7  C   UNL     1      64.688  -0.594  -0.628  1.00  0.00    -0.063 C 
ATOM      8  C   UNL     1      64.464  -3.099  -1.306  1.00  0.00    -0.003 C 
ATOM      9  C   UNL     1      63.923  -4.514  -0.921  1.00  0.00    -0.011 C 
ATOM     10  C   UNL     1      63.627   0.531  -0.679  1.00  0.00    -0.006 C 
ATOM     11  C   UNL     1      65.968  -0.322  -0.984  1.00  0.00    -0.027 C 
ATOM     12  C   UNL     1      63.825  -2.650  -2.634  1.00  0.00     0.008 C 
ATOM     13  C   UNL     1      65.022  -5.391  -0.292  1.00  0.00     0.008 C 
ATOM     14  C   UNL     1      63.128   0.613  -2.161  1.00  0.00     0.017 C 
ATOM     15  C   UNL     1      64.308   1.924  -0.193  1.00  0.00    -0.020 C 
ATOM     16  C   UNL     1      66.569   1.053  -1.044  1.00  0.00     0.032 C 
ATOM     17  C   UNL     1      65.558   2.228  -1.109  1.00  0.00     0.006 C 
ATOM     18  C   UNL     1      63.351   3.141  -0.323  1.00  0.00     0.008 C 
ATOM     19  C   UNL     1      64.705   1.779   1.308  1.00  0.00     0.012 C 
ATOM     20  C   UNL     1      66.241   3.690  -1.080  1.00  0.00    -0.025 C 
ATOM     21  C   UNL     1      64.015   4.461   0.069  1.00  0.00     0.005 C 
ATOM     22  C   UNL     1      65.170   4.864  -0.889  1.00  0.00     0.003 C 
ATOM     23  C   UNL     1      67.376   3.771  -0.010  1.00  0.00     0.010 C 
ATOM     24  C   UNL     1      66.915   3.864  -2.483  1.00  0.00     0.012 C 
ATOM     25  C   UNL     1      65.774   6.305  -0.522  1.00  0.00    -0.006 C 
ATOM     26  C   UNL     1      67.969   5.167   0.188  1.00  0.00     0.033 C 
ATOM     27  C   UNL     1      66.895   6.198   0.558  1.00  0.00     0.120 C 
ATOM     28  C   UNL     1      64.681   7.276   0.023  1.00  0.00     0.014 C 
ATOM     29  C   UNL     1      66.334   7.029  -1.786  1.00  0.00     0.014 C 
ENDROOT
BRANCH   1  30
ATOM     30  C   UNL     1      63.657  -2.866   2.220  1.00  0.00     0.048 C 
ATOM     31  O   UNL     1      62.926  -2.761   3.248  1.00  0.00    -0.550 OA
ATOM     32  O   UNL     1      64.855  -3.559   2.347  1.00  0.00    -0.550 OA
ENDBRANCH   1  30
BRANCH  27  33
ATOM     33  O   UNL     1      66.348   5.871   1.816  1.00  0.00    -0.393 OA
ATOM     34  H   UNL     1      65.433   6.251   1.844  1.00  0.00     0.210 HD
ENDBRANCH  27  33
TORSDOF 2
ENDMDL
MODEL 9
REMARK VINA RESULT:    -7.207      4.285      6.325
REMARK INTER + INTRA:          -8.107
REMARK INTER:                  -7.886
REMARK INTRA:                  -0.221
REMARK UNBOUND:                -0.268
REMARK SMILES C[C@H]1[C@H]2C3=CC[C@@H]4[C@]5(C)CC[C@H](O)C(C)(C)[C@@H]5CC[C@@]4(C)[C@]3(C)CC[C@@]2(C(=O)[O-])CC[C@@H]1C
REMARK SMILES IDX 26 1 30 2 25 3 3 4 31 5 24 6 4 7 2 8 32 9 22 10 5 11 1 12
REMARK SMILES IDX 33 13 23 14 20 15 6 16 7 17 19 18 21 19 8 20 18 21 17 22
REMARK SMILES IDX 10 23 9 24 14 25 11 26 12 27 15 28 16 29 27 30 28 31 29 32
REMARK SMILES IDX 13 33
REMARK H PARENT 13 34
REMARK Flexibility Score: inf
ROOT
ATOM      1  C   UNL     1      66.959   4.960  -0.858  1.00  0.00     0.017 C 
ATOM      2  C   UNL     1      66.308   5.933  -1.874  1.00  0.00     0.014 C 
ATOM      3  C   UNL     1      68.197   4.266  -1.492  1.00  0.00     0.014 C 
ATOM      4  C   UNL     1      65.890   3.901  -0.362  1.00  0.00     0.030 C 
ATOM      5  C   UNL     1      65.131   6.709  -1.255  1.00  0.00     0.004 C 
ATOM      6  C   UNL     1      67.861   3.163  -2.493  1.00  0.00     0.013 C 
ATOM      7  C   UNL     1      66.190   2.420  -0.701  1.00  0.00    -0.063 C 
ATOM      8  C   UNL     1      64.376   4.286  -0.596  1.00  0.00    -0.003 C 
ATOM      9  C   UNL     1      64.080   5.820  -0.537  1.00  0.00    -0.011 C 
ATOM     10  C   UNL     1      67.045   1.955  -1.903  1.00  0.00    -0.006 C 
ATOM     11  C   UNL     1      65.693   1.499   0.162  1.00  0.00    -0.027 C 
ATOM     12  C   UNL     1      63.733   3.689  -1.862  1.00  0.00     0.008 C 
ATOM     13  C   UNL     1      63.809   6.291   0.904  1.00  0.00     0.008 C 
ATOM     14  C   UNL     1      66.044   1.533  -3.032  1.00  0.00     0.017 C 
ATOM     15  C   UNL     1      67.986   0.714  -1.436  1.00  0.00    -0.020 C 
ATOM     16  C   UNL     1      66.211   0.097   0.314  1.00  0.00     0.032 C 
ATOM     17  C   UNL     1      67.067  -0.436  -0.865  1.00  0.00     0.006 C 
ATOM     18  C   UNL     1      68.797   0.098  -2.609  1.00  0.00     0.008 C 
ATOM     19  C   UNL     1      68.996   1.239  -0.371  1.00  0.00     0.012 C 
ATOM     20  C   UNL     1      67.679  -1.909  -0.623  1.00  0.00    -0.025 C 
ATOM     21  C   UNL     1      69.629  -1.112  -2.182  1.00  0.00     0.005 C 
ATOM     22  C   UNL     1      68.756  -2.317  -1.735  1.00  0.00     0.003 C 
ATOM     23  C   UNL     1      68.260  -2.059   0.819  1.00  0.00     0.010 C 
ATOM     24  C   UNL     1      66.463  -2.890  -0.736  1.00  0.00     0.012 C 
ATOM     25  C   UNL     1      69.649  -3.607  -1.400  1.00  0.00    -0.006 C 
ATOM     26  C   UNL     1      68.997  -3.375   1.078  1.00  0.00     0.033 C 
ATOM     27  C   UNL     1      70.141  -3.595   0.080  1.00  0.00     0.120 C 
ATOM     28  C   UNL     1      70.907  -3.704  -2.318  1.00  0.00     0.014 C 
ATOM     29  C   UNL     1      68.868  -4.930  -1.680  1.00  0.00     0.014 C 
ENDROOT
BRANCH   1  30
ATOM     30  C   UNL     1      67.542   5.818   0.282  1.00  0.00     0.048 C 
ATOM     31  O   UNL     1      67.410   5.443   1.484  1.00  0.00    -0.550 OA
ATOM     32  O   UNL     1      68.191   7.024   0.048  1.00  0.00    -0.550 OA
ENDBRANCH   1  30
BRANCH  27  33
ATOM     33  O   UNL     1      71.125  -2.603   0.272  1.00  0.00    -0.393 OA
ATOM     34  H   UNL     1      70.650  -1.759   0.484  1.00  0.00     0.210 HD
ENDBRANCH  27  33
TORSDOF 2
ENDMDL
