MODEL 1
REMARK VINA RESULT:    -4.324      0.000      0.000
REMARK INTER + INTRA:          -6.987
REMARK INTER:                  -6.599
REMARK INTRA:                  -0.388
REMARK UNBOUND:                -0.388
REMARK SMILES CC1=CCC[C@@H](C)C(=O)C[C@H](C(C)C)C(=O)C1
REMARK SMILES IDX 8 1 9 2 6 3 7 4 5 5 4 6 3 7 2 8 1 9 10 11 11 12 15 13 16 14
REMARK SMILES IDX 17 15 12 17 13 18 14 19
REMARK H PARENT
REMARK Flexibility Score: 70.00
ROOT
ATOM      1  C   UNL     1     121.079 178.616 126.515  1.00  0.00     0.136 C 
ATOM      2  O   UNL     1     120.966 179.771 126.131  1.00  0.00    -0.299 OA
ENDROOT
BRANCH   1   3
ATOM      3  C   UNL     1     122.435 177.939 126.465  1.00  0.00     0.053 C 
ATOM      4  C   UNL     1     123.476 178.828 127.154  1.00  0.00     0.016 C 
BRANCH   3   5
ATOM      5  C   UNL     1     122.869 177.627 125.019  1.00  0.00     0.015 C 
BRANCH   5   6
ATOM      6  C   UNL     1     122.525 176.205 124.541  1.00  0.00     0.028 C 
BRANCH   6   7
ATOM      7  C   UNL     1     122.621 175.159 125.626  1.00  0.00    -0.028 C 
ATOM      8  C   UNL     1     121.644 174.328 126.077  1.00  0.00    -0.070 CG0
ATOM      9  C   UNL     1     122.051 173.306 127.113  1.00  0.00     0.039 C 
ATOM     10  G   UNL     1     120.170 174.402 125.696  1.00  0.00     0.000 G0
ENDBRANCH   6   7
ENDBRANCH   5   6
ENDBRANCH   3   5
ENDBRANCH   1   3
BRANCH   1  11
ATOM     11  C   UNL     1     119.866 177.905 127.061  1.00  0.00     0.087 C 
BRANCH  11  12
ATOM     12  C   UNL     1     119.255 176.902 126.044  1.00  0.00     0.066 C 
BRANCH  12  13
ATOM     13  C   UNL     1     119.345 175.433 126.460  1.00  0.00     0.140 C 
ATOM     14  O   UNL     1     118.801 175.090 127.500  1.00  0.00    -0.299 OA
BRANCH  13  15
ATOM     15  C   UNL     1     120.155 174.404 125.705  1.00  0.00     0.106 CG0
ATOM     16  G   UNL     1     121.634 174.347 126.072  1.00  0.00     0.000 G0
ENDBRANCH  13  15
ENDBRANCH  12  13
BRANCH  12  17
ATOM     17  C   UNL     1     117.807 177.317 125.639  1.00  0.00    -0.006 C 
ATOM     18  C   UNL     1     116.955 177.688 126.862  1.00  0.00     0.008 C 
ATOM     19  C   UNL     1     117.758 178.453 124.603  1.00  0.00     0.008 C 
ENDBRANCH  12  17
ENDBRANCH  11  12
ENDBRANCH   1  11
TORSDOF 1
ENDMDL
MODEL 2
REMARK VINA RESULT:    -4.318      1.560      2.049
REMARK INTER + INTRA:          -6.978
REMARK INTER:                  -6.843
REMARK INTRA:                  -0.135
REMARK UNBOUND:                -0.388
REMARK SMILES CC1=CCC[C@@H](C)C(=O)C[C@H](C(C)C)C(=O)C1
REMARK SMILES IDX 8 1 9 2 6 3 7 4 5 5 4 6 3 7 2 8 1 9 10 11 11 12 15 13 16 14
REMARK SMILES IDX 17 15 12 17 13 18 14 19
REMARK H PARENT
REMARK Flexibility Score: 70.00
ROOT
ATOM      1  C   UNL     1     121.438 178.169 124.700  1.00  0.00     0.136 C 
ATOM      2  O   UNL     1     121.701 178.387 123.526  1.00  0.00    -0.299 OA
ENDROOT
BRANCH   1   3
ATOM      3  C   UNL     1     122.353 177.282 125.521  1.00  0.00     0.053 C 
ATOM      4  C   UNL     1     123.682 178.005 125.765  1.00  0.00     0.016 C 
BRANCH   3   5
ATOM      5  C   UNL     1     122.600 175.922 124.837  1.00  0.00     0.015 C 
BRANCH   5   6
ATOM      6  C   UNL     1     121.567 174.835 125.183  1.00  0.00     0.028 C 
BRANCH   6   7
ATOM      7  C   UNL     1     121.433 174.574 126.665  1.00  0.00    -0.028 C 
ATOM      8  C   UNL     1     120.358 174.810 127.463  1.00  0.00    -0.070 CG0
ATOM      9  C   UNL     1     120.470 174.357 128.900  1.00  0.00     0.039 C 
ATOM     10  G   UNL     1     119.098 175.566 127.054  1.00  0.00     0.000 G0
ENDBRANCH   6   7
ENDBRANCH   5   6
ENDBRANCH   3   5
ENDBRANCH   1   3
BRANCH   1  11
ATOM     11  C   UNL     1     120.222 178.821 125.311  1.00  0.00     0.087 C 
BRANCH  11  12
ATOM     12  C   UNL     1     119.086 177.805 125.606  1.00  0.00     0.066 C 
BRANCH  12  13
ATOM     13  C   UNL     1     119.217 177.066 126.939  1.00  0.00     0.140 C 
ATOM     14  O   UNL     1     119.530 177.710 127.931  1.00  0.00    -0.299 OA
BRANCH  13  15
ATOM     15  C   UNL     1     119.076 175.568 127.075  1.00  0.00     0.106 CG0
ATOM     16  G   UNL     1     120.356 174.830 127.454  1.00  0.00     0.000 G0
ENDBRANCH  13  15
ENDBRANCH  12  13
BRANCH  12  17
ATOM     17  C   UNL     1     117.681 178.457 125.423  1.00  0.00    -0.006 C 
ATOM     18  C   UNL     1     117.262 178.511 123.946  1.00  0.00     0.008 C 
ATOM     19  C   UNL     1     116.576 177.786 126.256  1.00  0.00     0.008 C 
ENDBRANCH  12  17
ENDBRANCH  11  12
ENDBRANCH   1  11
TORSDOF 1
ENDMDL
MODEL 3
REMARK VINA RESULT:    -4.264      6.705      8.541
REMARK INTER + INTRA:          -6.895
REMARK INTER:                  -6.645
REMARK INTRA:                  -0.250
REMARK UNBOUND:                -0.388
REMARK SMILES CC1=CCC[C@@H](C)C(=O)C[C@H](C(C)C)C(=O)C1
REMARK SMILES IDX 8 1 9 2 6 3 7 4 5 5 4 6 3 7 2 8 1 9 10 11 11 12 15 13 16 14
REMARK SMILES IDX 17 15 12 17 13 18 14 19
REMARK H PARENT
REMARK Flexibility Score: 70.00
ROOT
ATOM      1  C   UNL     1     125.084 177.495 119.960  1.00  0.00     0.136 C 
ATOM      2  O   UNL     1     124.007 176.928 119.844  1.00  0.00    -0.299 OA
ENDROOT
BRANCH   1   3
ATOM      3  C   UNL     1     125.767 178.065 118.733  1.00  0.00     0.053 C 
ATOM      4  C   UNL     1     124.733 178.270 117.620  1.00  0.00     0.016 C 
BRANCH   3   5
ATOM      5  C   UNL     1     126.913 177.158 118.239  1.00  0.00     0.015 C 
BRANCH   5   6
ATOM      6  C   UNL     1     128.260 177.386 118.948  1.00  0.00     0.028 C 
BRANCH   6   7
ATOM      7  C   UNL     1     128.942 176.111 119.382  1.00  0.00    -0.028 C 
ATOM      8  C   UNL     1     128.876 175.496 120.593  1.00  0.00    -0.070 CG0
ATOM      9  C   UNL     1     129.588 174.169 120.718  1.00  0.00     0.039 C 
ATOM     10  G   UNL     1     128.227 176.072 121.847  1.00  0.00     0.000 G0
ENDBRANCH   6   7
ENDBRANCH   5   6
ENDBRANCH   3   5
ENDBRANCH   1   3
BRANCH   1  11
ATOM     11  C   UNL     1     125.689 177.641 121.334  1.00  0.00     0.087 C 
BRANCH  11  12
ATOM     12  C   UNL     1     125.595 176.334 122.168  1.00  0.00     0.066 C 
BRANCH  12  13
ATOM     13  C   UNL     1     126.884 175.511 122.217  1.00  0.00     0.140 C 
ATOM     14  O   UNL     1     126.826 174.365 122.640  1.00  0.00    -0.299 OA
BRANCH  13  15
ATOM     15  C   UNL     1     128.242 176.074 121.863  1.00  0.00     0.106 CG0
ATOM     16  G   UNL     1     128.869 175.503 120.595  1.00  0.00     0.000 G0
ENDBRANCH  13  15
ENDBRANCH  12  13
BRANCH  12  17
ATOM     17  C   UNL     1     125.012 176.608 123.588  1.00  0.00    -0.006 C 
ATOM     18  C   UNL     1     125.955 177.474 124.437  1.00  0.00     0.008 C 
ATOM     19  C   UNL     1     123.605 177.230 123.568  1.00  0.00     0.008 C 
ENDBRANCH  12  17
ENDBRANCH  11  12
ENDBRANCH   1  11
TORSDOF 1
ENDMDL
MODEL 4
REMARK VINA RESULT:    -4.258      6.335      8.597
REMARK INTER + INTRA:          -6.887
REMARK INTER:                  -6.376
REMARK INTRA:                  -0.510
REMARK UNBOUND:                -0.388
REMARK SMILES CC1=CCC[C@@H](C)C(=O)C[C@H](C(C)C)C(=O)C1
REMARK SMILES IDX 8 1 9 2 6 3 7 4 5 5 4 6 3 7 2 8 1 9 10 11 11 12 15 13 16 14
REMARK SMILES IDX 17 15 12 17 13 18 14 19
REMARK H PARENT
REMARK Flexibility Score: 70.00
ROOT
ATOM      1  C   UNL     1     125.447 177.139 121.201  1.00  0.00     0.136 C 
ATOM      2  O   UNL     1     125.081 178.200 120.717  1.00  0.00    -0.299 OA
ENDROOT
BRANCH   1   3
ATOM      3  C   UNL     1     125.020 176.769 122.607  1.00  0.00     0.053 C 
ATOM      4  C   UNL     1     123.538 177.113 122.799  1.00  0.00     0.016 C 
BRANCH   3   5
ATOM      5  C   UNL     1     125.877 177.479 123.674  1.00  0.00     0.015 C 
BRANCH   5   6
ATOM      6  C   UNL     1     126.790 176.544 124.487  1.00  0.00     0.028 C 
BRANCH   6   7
ATOM      7  C   UNL     1     126.535 175.077 124.236  1.00  0.00    -0.028 C 
ATOM      8  C   UNL     1     127.321 174.193 123.565  1.00  0.00    -0.070 CG0
ATOM      9  C   UNL     1     126.861 172.754 123.552  1.00  0.00     0.039 C 
ATOM     10  G   UNL     1     128.565 174.547 122.757  1.00  0.00     0.000 G0
ENDBRANCH   6   7
ENDBRANCH   5   6
ENDBRANCH   3   5
ENDBRANCH   1   3
BRANCH   1  11
ATOM     11  C   UNL     1     126.291 176.208 120.366  1.00  0.00     0.087 C 
BRANCH  11  12
ATOM     12  C   UNL     1     127.784 176.213 120.794  1.00  0.00     0.066 C 
BRANCH  12  13
ATOM     13  C   UNL     1     128.315 174.865 121.286  1.00  0.00     0.140 C 
ATOM     14  O   UNL     1     128.468 173.968 120.469  1.00  0.00    -0.299 OA
BRANCH  13  15
ATOM     15  C   UNL     1     128.565 174.553 122.743  1.00  0.00     0.106 CG0
ATOM     16  G   UNL     1     127.320 174.213 123.555  1.00  0.00     0.000 G0
ENDBRANCH  13  15
ENDBRANCH  12  13
BRANCH  12  17
ATOM     17  C   UNL     1     128.688 176.840 119.688  1.00  0.00    -0.006 C 
ATOM     18  C   UNL     1     128.058 176.710 118.292  1.00  0.00     0.008 C 
ATOM     19  C   UNL     1     129.066 178.306 119.957  1.00  0.00     0.008 C 
ENDBRANCH  12  17
ENDBRANCH  11  12
ENDBRANCH   1  11
TORSDOF 1
ENDMDL
MODEL 5
REMARK VINA RESULT:    -4.203      2.269      4.023
REMARK INTER + INTRA:          -6.803
REMARK INTER:                  -6.799
REMARK INTRA:                  -0.004
REMARK UNBOUND:                -0.388
REMARK SMILES CC1=CCC[C@@H](C)C(=O)C[C@H](C(C)C)C(=O)C1
REMARK SMILES IDX 8 1 9 2 6 3 7 4 5 5 4 6 3 7 2 8 1 9 10 11 11 12 15 13 16 14
REMARK SMILES IDX 17 15 12 17 13 18 14 19
REMARK H PARENT
REMARK Flexibility Score: 70.00
ROOT
ATOM      1  C   UNL     1     122.796 178.265 127.049  1.00  0.00     0.136 C 
ATOM      2  O   UNL     1     123.737 178.894 127.511  1.00  0.00    -0.299 OA
ENDROOT
BRANCH   1   3
ATOM      3  C   UNL     1     121.737 177.710 127.981  1.00  0.00     0.053 C 
ATOM      4  C   UNL     1     121.039 178.866 128.707  1.00  0.00     0.016 C 
BRANCH   3   5
ATOM      5  C   UNL     1     122.331 176.717 129.001  1.00  0.00     0.015 C 
BRANCH   5   6
ATOM      6  C   UNL     1     121.912 175.252 128.785  1.00  0.00     0.028 C 
BRANCH   6   7
ATOM      7  C   UNL     1     120.618 175.096 128.021  1.00  0.00    -0.028 C 
ATOM      8  C   UNL     1     120.450 174.714 126.727  1.00  0.00    -0.070 CG0
ATOM      9  C   UNL     1     119.026 174.548 126.250  1.00  0.00     0.039 C 
ATOM     10  G   UNL     1     121.566 174.530 125.704  1.00  0.00     0.000 G0
ENDBRANCH   6   7
ENDBRANCH   5   6
ENDBRANCH   3   5
ENDBRANCH   1   3
BRANCH   1  11
ATOM     11  C   UNL     1     122.699 178.086 125.554  1.00  0.00     0.087 C 
BRANCH  11  12
ATOM     12  C   UNL     1     123.074 176.649 125.100  1.00  0.00     0.066 C 
BRANCH  12  13
ATOM     13  C   UNL     1     121.881 175.729 124.835  1.00  0.00     0.140 C 
ATOM     14  O   UNL     1     121.104 176.028 123.940  1.00  0.00    -0.299 OA
BRANCH  13  15
ATOM     15  C   UNL     1     121.558 174.523 125.687  1.00  0.00     0.106 CG0
ATOM     16  G   UNL     1     120.444 174.732 126.708  1.00  0.00     0.000 G0
ENDBRANCH  13  15
ENDBRANCH  12  13
BRANCH  12  17
ATOM     17  C   UNL     1     124.080 176.676 123.908  1.00  0.00    -0.006 C 
ATOM     18  C   UNL     1     123.479 177.354 122.668  1.00  0.00     0.008 C 
ATOM     19  C   UNL     1     125.431 177.323 124.256  1.00  0.00     0.008 C 
ENDBRANCH  12  17
ENDBRANCH  11  12
ENDBRANCH   1  11
TORSDOF 1
ENDMDL
MODEL 6
REMARK VINA RESULT:    -4.111      7.144      9.333
REMARK INTER + INTRA:          -6.662
REMARK INTER:                  -6.323
REMARK INTRA:                  -0.340
REMARK UNBOUND:                -0.388
REMARK SMILES CC1=CCC[C@@H](C)C(=O)C[C@H](C(C)C)C(=O)C1
REMARK SMILES IDX 8 1 9 2 6 3 7 4 5 5 4 6 3 7 2 8 1 9 10 11 11 12 15 13 16 14
REMARK SMILES IDX 17 15 12 17 13 18 14 19
REMARK H PARENT
REMARK Flexibility Score: 70.00
ROOT
ATOM      1  C   UNL     1     128.836 175.124 120.359  1.00  0.00     0.136 C 
ATOM      2  O   UNL     1     129.633 174.245 120.655  1.00  0.00    -0.299 OA
ENDROOT
BRANCH   1   3
ATOM      3  C   UNL     1     129.263 176.237 119.423  1.00  0.00     0.053 C 
ATOM      4  C   UNL     1     129.444 177.534 120.221  1.00  0.00     0.016 C 
BRANCH   3   5
ATOM      5  C   UNL     1     128.249 176.448 118.281  1.00  0.00     0.015 C 
BRANCH   5   6
ATOM      6  C   UNL     1     127.492 177.787 118.337  1.00  0.00     0.028 C 
BRANCH   6   7
ATOM      7  C   UNL     1     126.011 177.638 118.588  1.00  0.00    -0.028 C 
ATOM      8  C   UNL     1     125.333 177.847 119.748  1.00  0.00    -0.070 CG0
ATOM      9  C   UNL     1     123.829 177.715 119.685  1.00  0.00     0.039 C 
ATOM     10  G   UNL     1     125.965 178.111 121.110  1.00  0.00     0.000 G0
ENDBRANCH   6   7
ENDBRANCH   5   6
ENDBRANCH   3   5
ENDBRANCH   1   3
BRANCH   1  11
ATOM     11  C   UNL     1     127.433 175.055 120.909  1.00  0.00     0.087 C 
BRANCH  11  12
ATOM     12  C   UNL     1     127.230 175.982 122.139  1.00  0.00     0.066 C 
BRANCH  12  13
ATOM     13  C   UNL     1     126.020 176.913 122.047  1.00  0.00     0.140 C 
ATOM     14  O   UNL     1     125.024 176.636 122.700  1.00  0.00    -0.299 OA
BRANCH  13  15
ATOM     15  C   UNL     1     125.955 178.100 121.114  1.00  0.00     0.106 CG0
ATOM     16  G   UNL     1     125.330 177.820 119.752  1.00  0.00     0.000 G0
ENDBRANCH  13  15
ENDBRANCH  12  13
BRANCH  12  17
ATOM     17  C   UNL     1     127.255 175.170 123.470  1.00  0.00    -0.006 C 
ATOM     18  C   UNL     1     127.312 173.656 123.217  1.00  0.00     0.008 C 
ATOM     19  C   UNL     1     128.388 175.584 124.425  1.00  0.00     0.008 C 
ENDBRANCH  12  17
ENDBRANCH  11  12
ENDBRANCH   1  11
TORSDOF 1
ENDMDL
MODEL 7
REMARK VINA RESULT:    -4.086     11.053     13.205
REMARK INTER + INTRA:          -6.624
REMARK INTER:                  -6.269
REMARK INTRA:                  -0.355
REMARK UNBOUND:                -0.388
REMARK SMILES CC1=CCC[C@@H](C)C(=O)C[C@H](C(C)C)C(=O)C1
REMARK SMILES IDX 8 1 9 2 6 3 7 4 5 5 4 6 3 7 2 8 1 9 10 11 11 12 15 13 16 14
REMARK SMILES IDX 17 15 12 17 13 18 14 19
REMARK H PARENT
REMARK Flexibility Score: 70.00
ROOT
ATOM      1  C   UNL     1     124.639 163.495 125.515  1.00  0.00     0.136 C 
ATOM      2  O   UNL     1     123.519 163.154 125.160  1.00  0.00    -0.299 OA
ENDROOT
BRANCH   1   3
ATOM      3  C   UNL     1     125.219 162.940 126.800  1.00  0.00     0.053 C 
ATOM      4  C   UNL     1     125.208 161.408 126.747  1.00  0.00     0.016 C 
BRANCH   3   5
ATOM      5  C   UNL     1     124.451 163.438 128.041  1.00  0.00     0.015 C 
BRANCH   5   6
ATOM      6  C   UNL     1     125.167 164.547 128.833  1.00  0.00     0.028 C 
BRANCH   6   7
ATOM      7  C   UNL     1     126.652 164.623 128.565  1.00  0.00    -0.028 C 
ATOM      8  C   UNL     1     127.337 165.605 127.920  1.00  0.00    -0.070 CG0
ATOM      9  C   UNL     1     128.841 165.467 127.882  1.00  0.00     0.039 C 
ATOM     10  G   UNL     1     126.713 166.772 127.162  1.00  0.00     0.000 G0
ENDBRANCH   6   7
ENDBRANCH   5   6
ENDBRANCH   3   5
ENDBRANCH   1   3
BRANCH   1  11
ATOM     11  C   UNL     1     125.426 164.439 124.641  1.00  0.00     0.087 C 
BRANCH  11  12
ATOM     12  C   UNL     1     125.268 165.923 125.073  1.00  0.00     0.066 C 
BRANCH  12  13
ATOM     13  C   UNL     1     126.529 166.557 125.664  1.00  0.00     0.140 C 
ATOM     14  O   UNL     1     127.457 166.813 124.910  1.00  0.00    -0.299 OA
BRANCH  13  15
ATOM     15  C   UNL     1     126.726 166.790 127.144  1.00  0.00     0.106 CG0
ATOM     16  G   UNL     1     127.328 165.617 127.909  1.00  0.00     0.000 G0
ENDBRANCH  13  15
ENDBRANCH  12  13
BRANCH  12  17
ATOM     17  C   UNL     1     124.651 166.784 123.928  1.00  0.00    -0.006 C 
ATOM     18  C   UNL     1     125.273 166.451 122.563  1.00  0.00     0.008 C 
ATOM     19  C   UNL     1     123.118 166.689 123.842  1.00  0.00     0.008 C 
ENDBRANCH  12  17
ENDBRANCH  11  12
ENDBRANCH   1  11
TORSDOF 1
ENDMDL
MODEL 8
REMARK VINA RESULT:    -3.968      1.512      3.988
REMARK INTER + INTRA:          -6.444
REMARK INTER:                  -6.668
REMARK INTRA:                   0.224
REMARK UNBOUND:                -0.388
REMARK SMILES CC1=CCC[C@@H](C)C(=O)C[C@H](C(C)C)C(=O)C1
REMARK SMILES IDX 8 1 9 2 6 3 7 4 5 5 4 6 3 7 2 8 1 9 10 11 11 12 15 13 16 14
REMARK SMILES IDX 17 15 12 17 13 18 14 19
REMARK H PARENT
REMARK Flexibility Score: 70.00
ROOT
ATOM      1  C   UNL     1     119.741 178.815 125.238  1.00  0.00     0.136 C 
ATOM      2  O   UNL     1     119.503 179.943 125.645  1.00  0.00    -0.299 OA
ENDROOT
BRANCH   1   3
ATOM      3  C   UNL     1     118.615 177.807 125.121  1.00  0.00     0.053 C 
ATOM      4  C   UNL     1     117.428 178.449 124.394  1.00  0.00     0.016 C 
BRANCH   3   5
ATOM      5  C   UNL     1     118.174 177.276 126.500  1.00  0.00     0.015 C 
BRANCH   5   6
ATOM      6  C   UNL     1     119.194 176.346 127.183  1.00  0.00     0.028 C 
BRANCH   6   7
ATOM      7  C   UNL     1     119.148 174.922 126.681  1.00  0.00    -0.028 C 
ATOM      8  C   UNL     1     120.175 174.169 126.205  1.00  0.00    -0.070 CG0
ATOM      9  C   UNL     1     119.858 172.732 125.862  1.00  0.00     0.039 C 
ATOM     10  G   UNL     1     121.583 174.675 125.906  1.00  0.00     0.000 G0
ENDBRANCH   6   7
ENDBRANCH   5   6
ENDBRANCH   3   5
ENDBRANCH   1   3
BRANCH   1  11
ATOM     11  C   UNL     1     121.151 178.467 124.830  1.00  0.00     0.087 C 
BRANCH  11  12
ATOM     12  C   UNL     1     121.758 177.330 125.696  1.00  0.00     0.066 C 
BRANCH  12  13
ATOM     13  C   UNL     1     121.672 175.935 125.075  1.00  0.00     0.140 C 
ATOM     14  O   UNL     1     121.577 175.846 123.859  1.00  0.00    -0.299 OA
BRANCH  13  15
ATOM     15  C   UNL     1     121.597 174.666 125.892  1.00  0.00     0.106 CG0
ATOM     16  G   UNL     1     120.186 174.173 126.195  1.00  0.00     0.000 G0
ENDBRANCH  13  15
ENDBRANCH  12  13
BRANCH  12  17
ATOM     17  C   UNL     1     123.204 177.684 126.163  1.00  0.00    -0.006 C 
ATOM     18  C   UNL     1     124.190 177.732 124.985  1.00  0.00     0.008 C 
ATOM     19  C   UNL     1     123.290 178.991 126.970  1.00  0.00     0.008 C 
ENDBRANCH  12  17
ENDBRANCH  11  12
ENDBRANCH   1  11
TORSDOF 1
ENDMDL
MODEL 9
REMARK VINA RESULT:    -3.963      1.889      3.918
REMARK INTER + INTRA:          -6.436
REMARK INTER:                  -6.400
REMARK INTRA:                  -0.036
REMARK UNBOUND:                -0.388
REMARK SMILES CC1=CCC[C@@H](C)C(=O)C[C@H](C(C)C)C(=O)C1
REMARK SMILES IDX 8 1 9 2 6 3 7 4 5 5 4 6 3 7 2 8 1 9 10 11 11 12 15 13 16 14
REMARK SMILES IDX 17 15 12 17 13 18 14 19
REMARK H PARENT
REMARK Flexibility Score: 70.00
ROOT
ATOM      1  C   UNL     1     121.004 177.889 124.399  1.00  0.00     0.136 C 
ATOM      2  O   UNL     1     120.933 177.106 123.463  1.00  0.00    -0.299 OA
ENDROOT
BRANCH   1   3
ATOM      3  C   UNL     1     119.859 178.845 124.665  1.00  0.00     0.053 C 
ATOM      4  C   UNL     1     120.185 179.706 125.890  1.00  0.00     0.016 C 
BRANCH   3   5
ATOM      5  C   UNL     1     118.524 178.101 124.873  1.00  0.00     0.015 C 
BRANCH   5   6
ATOM      6  C   UNL     1     118.394 177.390 126.232  1.00  0.00     0.028 C 
BRANCH   6   7
ATOM      7  C   UNL     1     118.441 175.884 126.136  1.00  0.00    -0.028 C 
ATOM      8  C   UNL     1     119.250 175.026 126.814  1.00  0.00    -0.070 CG0
ATOM      9  C   UNL     1     119.011 173.551 126.590  1.00  0.00     0.039 C 
ATOM     10  G   UNL     1     120.424 175.427 127.701  1.00  0.00     0.000 G0
ENDBRANCH   6   7
ENDBRANCH   5   6
ENDBRANCH   3   5
ENDBRANCH   1   3
BRANCH   1  11
ATOM     11  C   UNL     1     122.222 177.856 125.289  1.00  0.00     0.087 C 
BRANCH  11  12
ATOM     12  C   UNL     1     121.882 177.453 126.750  1.00  0.00     0.066 C 
BRANCH  12  13
ATOM     13  C   UNL     1     121.625 175.959 126.960  1.00  0.00     0.140 C 
ATOM     14  O   UNL     1     122.383 175.160 126.429  1.00  0.00    -0.299 OA
BRANCH  13  15
ATOM     15  C   UNL     1     120.426 175.420 127.705  1.00  0.00     0.106 CG0
ATOM     16  G   UNL     1     119.246 175.017 126.827  1.00  0.00     0.000 G0
ENDBRANCH  13  15
ENDBRANCH  12  13
BRANCH  12  17
ATOM     17  C   UNL     1     122.931 178.022 127.754  1.00  0.00    -0.006 C 
ATOM     18  C   UNL     1     123.694 179.219 127.166  1.00  0.00     0.008 C 
ATOM     19  C   UNL     1     122.336 178.400 129.121  1.00  0.00     0.008 C 
ENDBRANCH  12  17
ENDBRANCH  11  12
ENDBRANCH   1  11
TORSDOF 1
ENDMDL
