MODEL 1
REMARK VINA RESULT:    -6.572      0.000      0.000
REMARK INTER + INTRA:         -11.671
REMARK INTER:                 -10.029
REMARK INTRA:                  -1.642
REMARK UNBOUND:                -1.642
REMARK SMILES CC(=O)CCC=C(C)CCC=C(C)CCC=C(C)C
REMARK SMILES IDX 10 1 11 2 12 3 13 4 14 5 15 6 16 7 18 8 17 9 19 10 9 11 7 12
REMARK SMILES IDX 6 13 8 14 5 15 4 16 2 17 3 18 1 19
REMARK H PARENT
REMARK Flexibility Score: inf
ROOT
ATOM      1  C   UNL     1      28.700  52.805  11.046  1.00  0.00     0.032 C 
ENDROOT
BRANCH   1   2
ATOM      2  C   UNL     1      29.836  53.799  11.066  1.00  0.00    -0.028 C 
ATOM      3  C   UNL     1      29.665  55.137  10.975  1.00  0.00    -0.077 C 
ATOM      4  C   UNL     1      30.888  56.017  10.971  1.00  0.00     0.039 C 
BRANCH   3   5
ATOM      5  C   UNL     1      28.294  55.787  10.898  1.00  0.00     0.034 C 
BRANCH   5   6
ATOM      6  C   UNL     1      28.388  57.313  10.756  1.00  0.00     0.032 C 
BRANCH   6   7
ATOM      7  C   UNL     1      28.078  58.021  12.053  1.00  0.00    -0.028 C 
ATOM      8  C   UNL     1      30.167  59.401  11.999  1.00  0.00     0.039 C 
ATOM      9  C   UNL     1      28.881  58.936  12.640  1.00  0.00    -0.080 C 
ATOM     10  C   UNL     1      28.458  59.518  13.963  1.00  0.00     0.039 C 
ENDBRANCH   6   7
ENDBRANCH   5   6
ENDBRANCH   3   5
ENDBRANCH   1   2
BRANCH   1  11
ATOM     11  C   UNL     1      28.437  52.293   9.625  1.00  0.00     0.034 C 
BRANCH  11  12
ATOM     12  C   UNL     1      27.003  52.554   9.214  1.00  0.00    -0.077 C 
ATOM     13  C   UNL     1      26.696  52.594   7.897  1.00  0.00    -0.028 C 
ATOM     14  C   UNL     1      25.960  52.776  10.283  1.00  0.00     0.039 C 
BRANCH  13  15
ATOM     15  C   UNL     1      25.305  52.807   7.351  1.00  0.00     0.035 C 
BRANCH  15  16
ATOM     16  C   UNL     1      25.117  54.256   6.896  1.00  0.00     0.079 C 
BRANCH  16  17
ATOM     17  C   UNL     1      24.530  55.090   8.003  1.00  0.00     0.130 C 
ATOM     18  O   UNL     1      23.426  54.812   8.445  1.00  0.00    -0.300 OA
ATOM     19  C   UNL     1      25.275  56.256   8.583  1.00  0.00     0.087 C 
ENDBRANCH  16  17
ENDBRANCH  15  16
ENDBRANCH  13  15
ENDBRANCH  11  12
ENDBRANCH   1  11
TORSDOF 9
ENDMDL
MODEL 2
REMARK VINA RESULT:    -6.292      2.485      6.570
REMARK INTER + INTRA:         -11.246
REMARK INTER:                  -9.137
REMARK INTRA:                  -2.109
REMARK UNBOUND:                -1.642
REMARK SMILES CC(=O)CCC=C(C)CCC=C(C)CCC=C(C)C
REMARK SMILES IDX 10 1 11 2 12 3 13 4 14 5 15 6 16 7 18 8 17 9 19 10 9 11 7 12
REMARK SMILES IDX 6 13 8 14 5 15 4 16 2 17 3 18 1 19
REMARK H PARENT
REMARK Flexibility Score: inf
ROOT
ATOM      1  C   UNL     1      25.510  56.210   8.951  1.00  0.00     0.032 C 
ENDROOT
BRANCH   1   2
ATOM      2  C   UNL     1      24.433  55.157   8.851  1.00  0.00    -0.028 C 
ATOM      3  C   UNL     1      24.578  53.996   8.173  1.00  0.00    -0.077 C 
ATOM      4  C   UNL     1      23.410  53.045   8.121  1.00  0.00     0.039 C 
BRANCH   3   5
ATOM      5  C   UNL     1      25.874  53.604   7.482  1.00  0.00     0.034 C 
BRANCH   5   6
ATOM      6  C   UNL     1      26.378  52.229   7.944  1.00  0.00     0.032 C 
BRANCH   6   7
ATOM      7  C   UNL     1      27.702  52.326   8.663  1.00  0.00    -0.028 C 
ATOM      8  C   UNL     1      26.654  52.765  10.894  1.00  0.00     0.039 C 
ATOM      9  C   UNL     1      27.844  52.597   9.979  1.00  0.00    -0.080 C 
ATOM     10  C   UNL     1      29.236  52.712  10.543  1.00  0.00     0.039 C 
ENDBRANCH   6   7
ENDBRANCH   5   6
ENDBRANCH   3   5
ENDBRANCH   1   2
BRANCH   1  11
ATOM     11  C   UNL     1      25.283  57.120  10.163  1.00  0.00     0.034 C 
BRANCH  11  12
ATOM     12  C   UNL     1      26.457  57.051  11.117  1.00  0.00    -0.077 C 
ATOM     13  C   UNL     1      27.575  56.392  10.734  1.00  0.00    -0.028 C 
ATOM     14  C   UNL     1      26.343  57.706  12.474  1.00  0.00     0.039 C 
BRANCH  13  15
ATOM     15  C   UNL     1      28.828  56.280  11.568  1.00  0.00     0.035 C 
BRANCH  15  16
ATOM     16  C   UNL     1      30.076  56.424  10.694  1.00  0.00     0.079 C 
BRANCH  16  17
ATOM     17  C   UNL     1      30.858  57.651  11.080  1.00  0.00     0.130 C 
ATOM     18  O   UNL     1      32.067  57.673  10.907  1.00  0.00    -0.300 OA
ATOM     19  C   UNL     1      30.183  58.855  11.667  1.00  0.00     0.087 C 
ENDBRANCH  16  17
ENDBRANCH  15  16
ENDBRANCH  13  15
ENDBRANCH  11  12
ENDBRANCH   1  11
TORSDOF 9
ENDMDL
MODEL 3
REMARK VINA RESULT:    -6.222      8.111     10.405
REMARK INTER + INTRA:         -11.137
REMARK INTER:                  -9.101
REMARK INTRA:                  -2.036
REMARK UNBOUND:                -1.642
REMARK SMILES CC(=O)CCC=C(C)CCC=C(C)CCC=C(C)C
REMARK SMILES IDX 10 1 11 2 12 3 13 4 14 5 15 6 16 7 18 8 17 9 19 10 9 11 7 12
REMARK SMILES IDX 6 13 8 14 5 15 4 16 2 17 3 18 1 19
REMARK H PARENT
REMARK Flexibility Score: inf
ROOT
ATOM      1  C   UNL     1      26.908  54.801  18.420  1.00  0.00     0.032 C 
ENDROOT
BRANCH   1   2
ATOM      2  C   UNL     1      26.781  54.218  19.807  1.00  0.00    -0.028 C 
ATOM      3  C   UNL     1      25.598  53.979  20.416  1.00  0.00    -0.077 C 
ATOM      4  C   UNL     1      25.612  53.428  21.818  1.00  0.00     0.039 C 
BRANCH   3   5
ATOM      5  C   UNL     1      24.261  54.223  19.737  1.00  0.00     0.034 C 
BRANCH   5   6
ATOM      6  C   UNL     1      23.485  52.918  19.509  1.00  0.00     0.032 C 
BRANCH   6   7
ATOM      7  C   UNL     1      24.157  52.033  18.487  1.00  0.00    -0.028 C 
ATOM      8  C   UNL     1      24.914  50.354  20.185  1.00  0.00     0.039 C 
ATOM      9  C   UNL     1      24.829  50.897  18.778  1.00  0.00    -0.080 C 
ATOM     10  C   UNL     1      25.493  50.148  17.652  1.00  0.00     0.039 C 
ENDBRANCH   6   7
ENDBRANCH   5   6
ENDBRANCH   3   5
ENDBRANCH   1   2
BRANCH   1  11
ATOM     11  C   UNL     1      28.229  54.386  17.763  1.00  0.00     0.034 C 
BRANCH  11  12
ATOM     12  C   UNL     1      28.036  53.167  16.885  1.00  0.00    -0.077 C 
ATOM     13  C   UNL     1      28.937  52.161  16.952  1.00  0.00    -0.028 C 
ATOM     14  C   UNL     1      26.851  53.115  15.950  1.00  0.00     0.039 C 
BRANCH  13  15
ATOM     15  C   UNL     1      28.845  50.877  16.164  1.00  0.00     0.035 C 
BRANCH  15  16
ATOM     16  C   UNL     1      29.294  49.686  17.013  1.00  0.00     0.079 C 
BRANCH  16  17
ATOM     17  C   UNL     1      30.470  48.992  16.378  1.00  0.00     0.130 C 
ATOM     18  O   UNL     1      31.597  49.427  16.564  1.00  0.00    -0.300 OA
ATOM     19  C   UNL     1      30.290  47.772  15.523  1.00  0.00     0.087 C 
ENDBRANCH  16  17
ENDBRANCH  15  16
ENDBRANCH  13  15
ENDBRANCH  11  12
ENDBRANCH   1  11
TORSDOF 9
ENDMDL
MODEL 4
REMARK VINA RESULT:    -6.215      2.860      7.226
REMARK INTER + INTRA:         -11.127
REMARK INTER:                  -9.574
REMARK INTRA:                  -1.554
REMARK UNBOUND:                -1.642
REMARK SMILES CC(=O)CCC=C(C)CCC=C(C)CCC=C(C)C
REMARK SMILES IDX 10 1 11 2 12 3 13 4 14 5 15 6 16 7 18 8 17 9 19 10 9 11 7 12
REMARK SMILES IDX 6 13 8 14 5 15 4 16 2 17 3 18 1 19
REMARK H PARENT
REMARK Flexibility Score: inf
ROOT
ATOM      1  C   UNL     1      25.687  55.956  11.377  1.00  0.00     0.032 C 
ENDROOT
BRANCH   1   2
ATOM      2  C   UNL     1      25.662  56.502   9.970  1.00  0.00    -0.028 C 
ATOM      3  C   UNL     1      24.713  56.189   9.059  1.00  0.00    -0.077 C 
ATOM      4  C   UNL     1      24.826  56.776   7.676  1.00  0.00     0.039 C 
BRANCH   3   5
ATOM      5  C   UNL     1      23.531  55.290   9.381  1.00  0.00     0.034 C 
BRANCH   5   6
ATOM      6  C   UNL     1      23.534  54.011   8.531  1.00  0.00     0.032 C 
BRANCH   6   7
ATOM      7  C   UNL     1      24.822  53.237   8.682  1.00  0.00    -0.028 C 
ATOM      8  C   UNL     1      25.506  53.575   6.296  1.00  0.00     0.039 C 
ATOM      9  C   UNL     1      25.701  53.006   7.681  1.00  0.00    -0.080 C 
ATOM     10  C   UNL     1      26.919  52.170   7.976  1.00  0.00     0.039 C 
ENDBRANCH   6   7
ENDBRANCH   5   6
ENDBRANCH   3   5
ENDBRANCH   1   2
BRANCH   1  11
ATOM     11  C   UNL     1      25.739  57.087  12.410  1.00  0.00     0.034 C 
BRANCH  11  12
ATOM     12  C   UNL     1      27.162  57.335  12.867  1.00  0.00    -0.077 C 
ATOM     13  C   UNL     1      27.648  58.598  12.841  1.00  0.00    -0.028 C 
ATOM     14  C   UNL     1      28.001  56.167  13.326  1.00  0.00     0.039 C 
BRANCH  13  15
ATOM     15  C   UNL     1      29.030  58.990  13.303  1.00  0.00     0.035 C 
BRANCH  15  16
ATOM     16  C   UNL     1      29.899  59.410  12.115  1.00  0.00     0.079 C 
BRANCH  16  17
ATOM     17  C   UNL     1      30.720  58.249  11.618  1.00  0.00     0.130 C 
ATOM     18  O   UNL     1      31.819  58.037  12.106  1.00  0.00    -0.300 OA
ATOM     19  C   UNL     1      30.213  57.340  10.538  1.00  0.00     0.087 C 
ENDBRANCH  16  17
ENDBRANCH  15  16
ENDBRANCH  13  15
ENDBRANCH  11  12
ENDBRANCH   1  11
TORSDOF 9
ENDMDL
MODEL 5
REMARK VINA RESULT:    -6.183      7.429      9.975
REMARK INTER + INTRA:         -11.078
REMARK INTER:                  -9.212
REMARK INTRA:                  -1.866
REMARK UNBOUND:                -1.642
REMARK SMILES CC(=O)CCC=C(C)CCC=C(C)CCC=C(C)C
REMARK SMILES IDX 10 1 11 2 12 3 13 4 14 5 15 6 16 7 18 8 17 9 19 10 9 11 7 12
REMARK SMILES IDX 6 13 8 14 5 15 4 16 2 17 3 18 1 19
REMARK H PARENT
REMARK Flexibility Score: inf
ROOT
ATOM      1  C   UNL     1      29.281  53.464  16.997  1.00  0.00     0.032 C 
ENDROOT
BRANCH   1   2
ATOM      2  C   UNL     1      29.211  52.976  15.570  1.00  0.00    -0.028 C 
ATOM      3  C   UNL     1      28.339  52.037  15.139  1.00  0.00    -0.077 C 
ATOM      4  C   UNL     1      28.399  51.613  13.694  1.00  0.00     0.039 C 
BRANCH   3   5
ATOM      5  C   UNL     1      27.291  51.412  16.044  1.00  0.00     0.034 C 
BRANCH   5   6
ATOM      6  C   UNL     1      27.918  50.468  17.082  1.00  0.00     0.032 C 
BRANCH   6   7
ATOM      7  C   UNL     1      28.513  49.239  16.439  1.00  0.00    -0.028 C 
ATOM      8  C   UNL     1      30.864  49.844  17.057  1.00  0.00     0.039 C 
ATOM      9  C   UNL     1      29.835  48.960  16.392  1.00  0.00    -0.080 C 
ATOM     10  C   UNL     1      30.281  47.716  15.668  1.00  0.00     0.039 C 
ENDBRANCH   6   7
ENDBRANCH   5   6
ENDBRANCH   3   5
ENDBRANCH   1   2
BRANCH   1  11
ATOM     11  C   UNL     1      28.523  54.786  17.168  1.00  0.00     0.034 C 
BRANCH  11  12
ATOM     12  C   UNL     1      27.499  54.681  18.279  1.00  0.00    -0.077 C 
ATOM     13  C   UNL     1      26.289  54.142  18.006  1.00  0.00    -0.028 C 
ATOM     14  C   UNL     1      27.852  55.194  19.655  1.00  0.00     0.039 C 
BRANCH  13  15
ATOM     15  C   UNL     1      25.194  53.943  19.025  1.00  0.00     0.035 C 
BRANCH  15  16
ATOM     16  C   UNL     1      24.848  52.458  19.166  1.00  0.00     0.079 C 
BRANCH  16  17
ATOM     17  C   UNL     1      25.241  51.947  20.527  1.00  0.00     0.130 C 
ATOM     18  O   UNL     1      25.233  50.745  20.744  1.00  0.00    -0.300 OA
ATOM     19  C   UNL     1      25.649  52.884  21.626  1.00  0.00     0.087 C 
ENDBRANCH  16  17
ENDBRANCH  15  16
ENDBRANCH  13  15
ENDBRANCH  11  12
ENDBRANCH   1  11
TORSDOF 9
ENDMDL
MODEL 6
REMARK VINA RESULT:    -6.098      1.575      2.525
REMARK INTER + INTRA:         -10.948
REMARK INTER:                  -8.817
REMARK INTRA:                  -2.131
REMARK UNBOUND:                -1.642
REMARK SMILES CC(=O)CCC=C(C)CCC=C(C)CCC=C(C)C
REMARK SMILES IDX 10 1 11 2 12 3 13 4 14 5 15 6 16 7 18 8 17 9 19 10 9 11 7 12
REMARK SMILES IDX 6 13 8 14 5 15 4 16 2 17 3 18 1 19
REMARK H PARENT
REMARK Flexibility Score: inf
ROOT
ATOM      1  C   UNL     1      29.272  54.264  11.659  1.00  0.00     0.032 C 
ENDROOT
BRANCH   1   2
ATOM      2  C   UNL     1      30.371  55.252  11.353  1.00  0.00    -0.028 C 
ATOM      3  C   UNL     1      30.152  56.484  10.838  1.00  0.00    -0.077 C 
ATOM      4  C   UNL     1      31.343  57.360  10.545  1.00  0.00     0.039 C 
BRANCH   3   5
ATOM      5  C   UNL     1      28.759  57.024  10.565  1.00  0.00     0.034 C 
BRANCH   5   6
ATOM      6  C   UNL     1      28.208  57.822  11.756  1.00  0.00     0.032 C 
BRANCH   6   7
ATOM      7  C   UNL     1      27.347  56.970  12.657  1.00  0.00    -0.028 C 
ATOM      8  C   UNL     1      25.261  57.370  11.328  1.00  0.00     0.039 C 
ATOM      9  C   UNL     1      26.018  56.783  12.496  1.00  0.00    -0.080 C 
ATOM     10  C   UNL     1      25.284  55.944  13.510  1.00  0.00     0.039 C 
ENDBRANCH   6   7
ENDBRANCH   5   6
ENDBRANCH   3   5
ENDBRANCH   1   2
BRANCH   1  11
ATOM     11  C   UNL     1      29.247  53.127  10.630  1.00  0.00     0.034 C 
BRANCH  11  12
ATOM     12  C   UNL     1      27.912  53.075   9.916  1.00  0.00    -0.077 C 
ATOM     13  C   UNL     1      26.886  53.817  10.391  1.00  0.00    -0.028 C 
ATOM     14  C   UNL     1      27.761  52.187   8.704  1.00  0.00     0.039 C 
BRANCH  13  15
ATOM     15  C   UNL     1      25.519  53.888   9.756  1.00  0.00     0.035 C 
BRANCH  15  16
ATOM     16  C   UNL     1      25.502  54.910   8.617  1.00  0.00     0.079 C 
BRANCH  16  17
ATOM     17  C   UNL     1      24.919  54.305   7.367  1.00  0.00     0.130 C 
ATOM     18  O   UNL     1      23.860  53.699   7.430  1.00  0.00    -0.300 OA
ATOM     19  C   UNL     1      25.609  54.435   6.041  1.00  0.00     0.087 C 
ENDBRANCH  16  17
ENDBRANCH  15  16
ENDBRANCH  13  15
ENDBRANCH  11  12
ENDBRANCH   1  11
TORSDOF 9
ENDMDL
MODEL 7
REMARK VINA RESULT:    -6.096      2.117      5.541
REMARK INTER + INTRA:         -10.946
REMARK INTER:                  -8.300
REMARK INTRA:                  -2.646
REMARK UNBOUND:                -1.642
REMARK SMILES CC(=O)CCC=C(C)CCC=C(C)CCC=C(C)C
REMARK SMILES IDX 10 1 11 2 12 3 13 4 14 5 15 6 16 7 18 8 17 9 19 10 9 11 7 12
REMARK SMILES IDX 6 13 8 14 5 15 4 16 2 17 3 18 1 19
REMARK H PARENT
REMARK Flexibility Score: inf
ROOT
ATOM      1  C   UNL     1      27.453  52.998   9.540  1.00  0.00     0.032 C 
ENDROOT
BRANCH   1   2
ATOM      2  C   UNL     1      26.270  52.390   8.825  1.00  0.00    -0.028 C 
ATOM      3  C   UNL     1      25.591  53.012   7.834  1.00  0.00    -0.077 C 
ATOM      4  C   UNL     1      24.404  52.308   7.229  1.00  0.00     0.039 C 
BRANCH   3   5
ATOM      5  C   UNL     1      25.988  54.376   7.297  1.00  0.00     0.034 C 
BRANCH   5   6
ATOM      6  C   UNL     1      24.922  55.443   7.591  1.00  0.00     0.032 C 
BRANCH   6   7
ATOM      7  C   UNL     1      25.313  56.326   8.752  1.00  0.00    -0.028 C 
ATOM      8  C   UNL     1      23.988  55.011  10.421  1.00  0.00     0.039 C 
ATOM      9  C   UNL     1      24.878  56.164  10.021  1.00  0.00    -0.080 C 
ATOM     10  C   UNL     1      25.316  57.160  11.062  1.00  0.00     0.039 C 
ENDBRANCH   6   7
ENDBRANCH   5   6
ENDBRANCH   3   5
ENDBRANCH   1   2
BRANCH   1  11
ATOM     11  C   UNL     1      27.139  53.245  11.020  1.00  0.00     0.034 C 
BRANCH  11  12
ATOM     12  C   UNL     1      27.917  54.433  11.545  1.00  0.00    -0.077 C 
ATOM     13  C   UNL     1      28.837  55.019  10.745  1.00  0.00    -0.028 C 
ATOM     14  C   UNL     1      27.656  54.920  12.951  1.00  0.00     0.039 C 
BRANCH  13  15
ATOM     15  C   UNL     1      29.653  56.230  11.128  1.00  0.00     0.035 C 
BRANCH  15  16
ATOM     16  C   UNL     1      28.939  57.519  10.714  1.00  0.00     0.079 C 
BRANCH  16  17
ATOM     17  C   UNL     1      28.979  58.532  11.827  1.00  0.00     0.130 C 
ATOM     18  O   UNL     1      28.002  58.675  12.546  1.00  0.00    -0.300 OA
ATOM     19  C   UNL     1      30.199  59.368  12.079  1.00  0.00     0.087 C 
ENDBRANCH  16  17
ENDBRANCH  15  16
ENDBRANCH  13  15
ENDBRANCH  11  12
ENDBRANCH   1  11
TORSDOF 9
ENDMDL
MODEL 8
REMARK VINA RESULT:    -6.042      1.832      4.440
REMARK INTER + INTRA:         -10.864
REMARK INTER:                  -8.899
REMARK INTRA:                  -1.965
REMARK UNBOUND:                -1.642
REMARK SMILES CC(=O)CCC=C(C)CCC=C(C)CCC=C(C)C
REMARK SMILES IDX 10 1 11 2 12 3 13 4 14 5 15 6 16 7 18 8 17 9 19 10 9 11 7 12
REMARK SMILES IDX 6 13 8 14 5 15 4 16 2 17 3 18 1 19
REMARK H PARENT
REMARK Flexibility Score: inf
ROOT
ATOM      1  C   UNL     1      29.410  56.892  10.641  1.00  0.00     0.032 C 
ENDROOT
BRANCH   1   2
ATOM      2  C   UNL     1      29.360  58.057  11.601  1.00  0.00    -0.028 C 
ATOM      3  C   UNL     1      28.447  58.176  12.591  1.00  0.00    -0.077 C 
ATOM      4  C   UNL     1      28.487  59.409  13.457  1.00  0.00     0.039 C 
BRANCH   3   5
ATOM      5  C   UNL     1      27.402  57.112  12.877  1.00  0.00     0.034 C 
BRANCH   5   6
ATOM      6  C   UNL     1      25.995  57.560  12.455  1.00  0.00     0.032 C 
BRANCH   6   7
ATOM      7  C   UNL     1      25.776  57.411  10.969  1.00  0.00    -0.028 C 
ATOM      8  C   UNL     1      24.655  55.182  11.183  1.00  0.00     0.039 C 
ATOM      9  C   UNL     1      25.206  56.337  10.380  1.00  0.00    -0.080 C 
ATOM     10  C   UNL     1      25.104  56.312   8.877  1.00  0.00     0.039 C 
ENDBRANCH   6   7
ENDBRANCH   5   6
ENDBRANCH   3   5
ENDBRANCH   1   2
BRANCH   1  11
ATOM     11  C   UNL     1      30.493  55.886  11.047  1.00  0.00     0.034 C 
BRANCH  11  12
ATOM     12  C   UNL     1      29.945  54.474  11.043  1.00  0.00    -0.077 C 
ATOM     13  C   UNL     1      28.663  54.269  10.662  1.00  0.00    -0.028 C 
ATOM     14  C   UNL     1      30.840  53.337  11.478  1.00  0.00     0.039 C 
BRANCH  13  15
ATOM     15  C   UNL     1      28.005  52.914  10.576  1.00  0.00     0.035 C 
BRANCH  15  16
ATOM     16  C   UNL     1      26.705  52.993   9.771  1.00  0.00     0.079 C 
BRANCH  16  17
ATOM     17  C   UNL     1      26.936  52.573   8.344  1.00  0.00     0.130 C 
ATOM     18  O   UNL     1      27.836  51.789   8.085  1.00  0.00    -0.300 OA
ATOM     19  C   UNL     1      26.078  53.094   7.228  1.00  0.00     0.087 C 
ENDBRANCH  16  17
ENDBRANCH  15  16
ENDBRANCH  13  15
ENDBRANCH  11  12
ENDBRANCH   1  11
TORSDOF 9
ENDMDL
MODEL 9
REMARK VINA RESULT:    -6.013      1.445      4.014
REMARK INTER + INTRA:         -10.819
REMARK INTER:                  -8.732
REMARK INTRA:                  -2.087
REMARK UNBOUND:                -1.642
REMARK SMILES CC(=O)CCC=C(C)CCC=C(C)CCC=C(C)C
REMARK SMILES IDX 10 1 11 2 12 3 13 4 14 5 15 6 16 7 18 8 17 9 19 10 9 11 7 12
REMARK SMILES IDX 6 13 8 14 5 15 4 16 2 17 3 18 1 19
REMARK H PARENT
REMARK Flexibility Score: inf
ROOT
ATOM      1  C   UNL     1      26.834  57.200  12.277  1.00  0.00     0.032 C 
ENDROOT
BRANCH   1   2
ATOM      2  C   UNL     1      27.895  58.247  12.515  1.00  0.00    -0.028 C 
ATOM      3  C   UNL     1      29.023  58.354  11.777  1.00  0.00    -0.077 C 
ATOM      4  C   UNL     1      30.020  59.422  12.143  1.00  0.00     0.039 C 
BRANCH   3   5
ATOM      5  C   UNL     1      29.313  57.458  10.584  1.00  0.00     0.034 C 
BRANCH   5   6
ATOM      6  C   UNL     1      30.230  56.283  10.958  1.00  0.00     0.032 C 
BRANCH   6   7
ATOM      7  C   UNL     1      29.494  54.965  10.939  1.00  0.00    -0.028 C 
ATOM      8  C   UNL     1      29.424  54.772  13.435  1.00  0.00     0.039 C 
ATOM      9  C   UNL     1      29.153  54.260  12.040  1.00  0.00    -0.080 C 
ATOM     10  C   UNL     1      28.465  52.932  11.857  1.00  0.00     0.039 C 
ENDBRANCH   6   7
ENDBRANCH   5   6
ENDBRANCH   3   5
ENDBRANCH   1   2
BRANCH   1  11
ATOM     11  C   UNL     1      26.016  57.516  11.020  1.00  0.00     0.034 C 
BRANCH  11  12
ATOM     12  C   UNL     1      25.430  56.252  10.425  1.00  0.00    -0.077 C 
ATOM     13  C   UNL     1      24.921  56.292   9.172  1.00  0.00    -0.028 C 
ATOM     14  C   UNL     1      25.419  54.987  11.251  1.00  0.00     0.039 C 
BRANCH  13  15
ATOM     15  C   UNL     1      24.343  55.101   8.448  1.00  0.00     0.035 C 
BRANCH  15  16
ATOM     16  C   UNL     1      25.371  54.502   7.484  1.00  0.00     0.079 C 
BRANCH  16  17
ATOM     17  C   UNL     1      25.598  53.045   7.787  1.00  0.00     0.130 C 
ATOM     18  O   UNL     1      24.709  52.238   7.562  1.00  0.00    -0.300 OA
ATOM     19  C   UNL     1      26.899  52.558   8.355  1.00  0.00     0.087 C 
ENDBRANCH  16  17
ENDBRANCH  15  16
ENDBRANCH  13  15
ENDBRANCH  11  12
ENDBRANCH   1  11
TORSDOF 9
ENDMDL
