MODEL 1
REMARK VINA RESULT:    -3.793      0.000      0.000
REMARK INTER + INTRA:         -16.340
REMARK INTER:                 -10.001
REMARK INTRA:                  -6.339
REMARK UNBOUND:                -6.339
REMARK SMILES CCCCCCCCCCCCCCCCCCCCCCCCCCCCCC(=O)[O-]
REMARK SMILES IDX 16 1 17 2 18 3 19 4 20 5 21 6 22 7 23 8 24 9 25 10 26 11
REMARK SMILES IDX 27 12 28 13 29 14 30 15 31 16 32 17 15 18 14 19 13 20 12 21
REMARK SMILES IDX 11 22 10 23 9 24 8 25 7 26 6 27 5 28 4 29 3 30 2 31 1 32
REMARK H PARENT
REMARK Flexibility Score: inf
ROOT
ATOM      1  C   UNL     1      29.948   6.929  29.912  1.00  0.00     0.000 C 
ENDROOT
BRANCH   1   2
ATOM      2  C   UNL     1      30.585   7.445  28.610  1.00  0.00     0.000 C 
BRANCH   2   3
ATOM      3  C   UNL     1      30.016   8.782  28.099  1.00  0.00     0.000 C 
BRANCH   3   4
ATOM      4  C   UNL     1      31.022   9.952  28.178  1.00  0.00     0.000 C 
BRANCH   4   5
ATOM      5  C   UNL     1      30.595  11.029  29.186  1.00  0.00     0.000 C 
BRANCH   5   6
ATOM      6  C   UNL     1      29.227  10.741  29.829  1.00  0.00     0.000 C 
BRANCH   6   7
ATOM      7  C   UNL     1      29.043  11.395  31.216  1.00  0.00     0.000 C 
BRANCH   7   8
ATOM      8  C   UNL     1      30.254  11.155  32.135  1.00  0.00     0.000 C 
BRANCH   8   9
ATOM      9  C   UNL     1      29.849  10.864  33.588  1.00  0.00     0.000 C 
BRANCH   9  10
ATOM     10  C   UNL     1      31.042  10.463  34.468  1.00  0.00     0.000 C 
BRANCH  10  11
ATOM     11  C   UNL     1      32.260  11.349  34.164  1.00  0.00     0.000 C 
BRANCH  11  12
ATOM     12  C   UNL     1      32.272  12.657  34.978  1.00  0.00     0.000 C 
BRANCH  12  13
ATOM     13  C   UNL     1      32.396  13.942  34.140  1.00  0.00     0.006 C 
BRANCH  13  14
ATOM     14  C   UNL     1      32.849  13.678  32.697  1.00  0.00     0.053 C 
BRANCH  14  15
ATOM     15  C   UNL     1      32.215  14.653  31.755  1.00  0.00     0.041 C 
ATOM     16  O   UNL     1      32.384  15.892  31.917  1.00  0.00    -0.550 OA
ATOM     17  O   UNL     1      31.454  14.195  30.686  1.00  0.00    -0.550 OA
ENDBRANCH  14  15
ENDBRANCH  13  14
ENDBRANCH  12  13
ENDBRANCH  11  12
ENDBRANCH  10  11
ENDBRANCH   9  10
ENDBRANCH   8   9
ENDBRANCH   7   8
ENDBRANCH   6   7
ENDBRANCH   5   6
ENDBRANCH   4   5
ENDBRANCH   3   4
ENDBRANCH   2   3
ENDBRANCH   1   2
BRANCH   1  18
ATOM     18  C   UNL     1      30.590   7.463  31.210  1.00  0.00     0.000 C 
BRANCH  18  19
ATOM     19  C   UNL     1      32.128   7.469  31.225  1.00  0.00     0.000 C 
BRANCH  19  20
ATOM     20  C   UNL     1      32.717   8.826  31.637  1.00  0.00     0.000 C 
BRANCH  20  21
ATOM     21  C   UNL     1      33.592   9.407  30.520  1.00  0.00     0.000 C 
BRANCH  21  22
ATOM     22  C   UNL     1      34.325  10.670  30.994  1.00  0.00     0.000 C 
BRANCH  22  23
ATOM     23  C   UNL     1      35.852  10.546  30.858  1.00  0.00     0.000 C 
BRANCH  23  24
ATOM     24  C   UNL     1      36.279   9.209  30.230  1.00  0.00    -0.000 C 
BRANCH  24  25
ATOM     25  C   UNL     1      37.540   8.615  30.885  1.00  0.00    -0.000 C 
BRANCH  25  26
ATOM     26  C   UNL     1      37.284   7.768  32.145  1.00  0.00    -0.000 C 
BRANCH  26  27
ATOM     27  C   UNL     1      35.920   7.055  32.121  1.00  0.00    -0.000 C 
BRANCH  27  28
ATOM     28  C   UNL     1      35.364   6.793  33.530  1.00  0.00    -0.000 C 
BRANCH  28  29
ATOM     29  C   UNL     1      34.912   8.081  34.242  1.00  0.00    -0.000 C 
BRANCH  29  30
ATOM     30  C   UNL     1      33.680   7.862  35.133  1.00  0.00    -0.000 C 
BRANCH  30  31
ATOM     31  C   UNL     1      32.824   6.672  34.676  1.00  0.00    -0.003 C 
ATOM     32  C   UNL     1      31.381   6.818  35.151  1.00  0.00     0.004 C 
ENDBRANCH  30  31
ENDBRANCH  29  30
ENDBRANCH  28  29
ENDBRANCH  27  28
ENDBRANCH  26  27
ENDBRANCH  25  26
ENDBRANCH  24  25
ENDBRANCH  23  24
ENDBRANCH  22  23
ENDBRANCH  21  22
ENDBRANCH  20  21
ENDBRANCH  19  20
ENDBRANCH  18  19
ENDBRANCH   1  18
TORSDOF 28
ENDMDL
MODEL 2
REMARK VINA RESULT:    -3.780      1.831      3.616
REMARK INTER + INTRA:         -16.307
REMARK INTER:                  -9.954
REMARK INTRA:                  -6.352
REMARK UNBOUND:                -6.339
REMARK SMILES CCCCCCCCCCCCCCCCCCCCCCCCCCCCCC(=O)[O-]
REMARK SMILES IDX 16 1 17 2 18 3 19 4 20 5 21 6 22 7 23 8 24 9 25 10 26 11
REMARK SMILES IDX 27 12 28 13 29 14 30 15 31 16 32 17 15 18 14 19 13 20 12 21
REMARK SMILES IDX 11 22 10 23 9 24 8 25 7 26 6 27 5 28 4 29 3 30 2 31 1 32
REMARK H PARENT
REMARK Flexibility Score: inf
ROOT
ATOM      1  C   UNL     1      32.044   9.107  28.175  1.00  0.00     0.000 C 
ENDROOT
BRANCH   1   2
ATOM      2  C   UNL     1      30.758   8.261  28.172  1.00  0.00     0.000 C 
BRANCH   2   3
ATOM      3  C   UNL     1      30.118   8.056  29.557  1.00  0.00     0.000 C 
BRANCH   3   4
ATOM      4  C   UNL     1      30.235   6.608  30.083  1.00  0.00     0.000 C 
BRANCH   4   5
ATOM      5  C   UNL     1      30.967   6.528  31.431  1.00  0.00     0.000 C 
BRANCH   5   6
ATOM      6  C   UNL     1      31.024   7.878  32.165  1.00  0.00     0.000 C 
BRANCH   6   7
ATOM      7  C   UNL     1      31.385   7.757  33.661  1.00  0.00     0.000 C 
BRANCH   7   8
ATOM      8  C   UNL     1      31.404   9.126  34.364  1.00  0.00     0.000 C 
BRANCH   8   9
ATOM      9  C   UNL     1      32.531  10.039  33.857  1.00  0.00     0.000 C 
BRANCH   9  10
ATOM     10  C   UNL     1      32.072  11.491  33.654  1.00  0.00     0.000 C 
BRANCH  10  11
ATOM     11  C   UNL     1      32.219  11.904  32.182  1.00  0.00     0.000 C 
BRANCH  11  12
ATOM     12  C   UNL     1      31.123  11.310  31.278  1.00  0.00     0.000 C 
BRANCH  12  13
ATOM     13  C   UNL     1      29.698  11.372  31.857  1.00  0.00     0.006 C 
BRANCH  13  14
ATOM     14  C   UNL     1      28.612  11.067  30.816  1.00  0.00     0.053 C 
BRANCH  14  15
ATOM     15  C   UNL     1      28.591  12.114  29.747  1.00  0.00     0.041 C 
ATOM     16  O   UNL     1      28.390  13.322  30.047  1.00  0.00    -0.550 OA
ATOM     17  O   UNL     1      28.815  11.761  28.421  1.00  0.00    -0.550 OA
ENDBRANCH  14  15
ENDBRANCH  13  14
ENDBRANCH  12  13
ENDBRANCH  11  12
ENDBRANCH  10  11
ENDBRANCH   9  10
ENDBRANCH   8   9
ENDBRANCH   7   8
ENDBRANCH   6   7
ENDBRANCH   5   6
ENDBRANCH   4   5
ENDBRANCH   3   4
ENDBRANCH   2   3
ENDBRANCH   1   2
BRANCH   1  18
ATOM     18  C   UNL     1      33.240   8.477  28.920  1.00  0.00     0.000 C 
BRANCH  18  19
ATOM     19  C   UNL     1      33.828   9.332  30.056  1.00  0.00     0.000 C 
BRANCH  19  20
ATOM     20  C   UNL     1      34.538   8.493  31.129  1.00  0.00     0.000 C 
BRANCH  20  21
ATOM     21  C   UNL     1      35.696   7.692  30.521  1.00  0.00     0.000 C 
BRANCH  21  22
ATOM     22  C   UNL     1      37.050   8.207  31.031  1.00  0.00     0.000 C 
BRANCH  22  23
ATOM     23  C   UNL     1      37.742   9.135  30.019  1.00  0.00     0.000 C 
BRANCH  23  24
ATOM     24  C   UNL     1      38.019  10.533  30.598  1.00  0.00    -0.000 C 
BRANCH  24  25
ATOM     25  C   UNL     1      36.774  11.441  30.592  1.00  0.00    -0.000 C 
BRANCH  25  26
ATOM     26  C   UNL     1      36.483  12.159  31.922  1.00  0.00    -0.000 C 
BRANCH  26  27
ATOM     27  C   UNL     1      35.821  11.241  32.965  1.00  0.00    -0.000 C 
BRANCH  27  28
ATOM     28  C   UNL     1      36.737  10.953  34.167  1.00  0.00    -0.000 C 
BRANCH  28  29
ATOM     29  C   UNL     1      37.197   9.485  34.227  1.00  0.00    -0.000 C 
BRANCH  29  30
ATOM     30  C   UNL     1      36.206   8.587  34.983  1.00  0.00    -0.000 C 
BRANCH  30  31
ATOM     31  C   UNL     1      36.272   7.121  34.530  1.00  0.00    -0.003 C 
ATOM     32  C   UNL     1      34.892   6.607  34.129  1.00  0.00     0.004 C 
ENDBRANCH  30  31
ENDBRANCH  29  30
ENDBRANCH  28  29
ENDBRANCH  27  28
ENDBRANCH  26  27
ENDBRANCH  25  26
ENDBRANCH  24  25
ENDBRANCH  23  24
ENDBRANCH  22  23
ENDBRANCH  21  22
ENDBRANCH  20  21
ENDBRANCH  19  20
ENDBRANCH  18  19
ENDBRANCH   1  18
TORSDOF 28
ENDMDL
MODEL 3
REMARK VINA RESULT:    -3.772      1.695      5.252
REMARK INTER + INTRA:         -16.284
REMARK INTER:                  -9.536
REMARK INTRA:                  -6.748
REMARK UNBOUND:                -6.339
REMARK SMILES CCCCCCCCCCCCCCCCCCCCCCCCCCCCCC(=O)[O-]
REMARK SMILES IDX 16 1 17 2 18 3 19 4 20 5 21 6 22 7 23 8 24 9 25 10 26 11
REMARK SMILES IDX 27 12 28 13 29 14 30 15 31 16 32 17 15 18 14 19 13 20 12 21
REMARK SMILES IDX 11 22 10 23 9 24 8 25 7 26 6 27 5 28 4 29 3 30 2 31 1 32
REMARK H PARENT
REMARK Flexibility Score: inf
ROOT
ATOM      1  C   UNL     1      34.630   9.127  29.996  1.00  0.00     0.000 C 
ENDROOT
BRANCH   1   2
ATOM      2  C   UNL     1      34.430  10.371  30.881  1.00  0.00     0.000 C 
BRANCH   2   3
ATOM      3  C   UNL     1      33.605  10.127  32.158  1.00  0.00     0.000 C 
BRANCH   3   4
ATOM      4  C   UNL     1      34.324  10.574  33.451  1.00  0.00     0.000 C 
BRANCH   4   5
ATOM      5  C   UNL     1      33.378  10.633  34.660  1.00  0.00     0.000 C 
BRANCH   5   6
ATOM      6  C   UNL     1      31.936  11.009  34.277  1.00  0.00     0.000 C 
BRANCH   6   7
ATOM      7  C   UNL     1      31.381  12.218  35.061  1.00  0.00     0.000 C 
BRANCH   7   8
ATOM      8  C   UNL     1      32.480  13.240  35.404  1.00  0.00     0.000 C 
BRANCH   8   9
ATOM      9  C   UNL     1      32.636  14.327  34.328  1.00  0.00     0.000 C 
BRANCH   9  10
ATOM     10  C   UNL     1      33.866  14.106  33.437  1.00  0.00     0.000 C 
BRANCH  10  11
ATOM     11  C   UNL     1      33.509  14.321  31.958  1.00  0.00     0.000 C 
BRANCH  11  12
ATOM     12  C   UNL     1      31.997  14.224  31.683  1.00  0.00     0.000 C 
BRANCH  12  13
ATOM     13  C   UNL     1      31.514  12.849  31.189  1.00  0.00     0.006 C 
BRANCH  13  14
ATOM     14  C   UNL     1      30.288  12.937  30.268  1.00  0.00     0.053 C 
BRANCH  14  15
ATOM     15  C   UNL     1      29.103  12.274  30.896  1.00  0.00     0.041 C 
ATOM     16  O   UNL     1      27.937  12.571  30.520  1.00  0.00    -0.550 OA
ATOM     17  O   UNL     1      29.285  11.311  31.882  1.00  0.00    -0.550 OA
ENDBRANCH  14  15
ENDBRANCH  13  14
ENDBRANCH  12  13
ENDBRANCH  11  12
ENDBRANCH  10  11
ENDBRANCH   9  10
ENDBRANCH   8   9
ENDBRANCH   7   8
ENDBRANCH   6   7
ENDBRANCH   5   6
ENDBRANCH   4   5
ENDBRANCH   3   4
ENDBRANCH   2   3
ENDBRANCH   1   2
BRANCH   1  18
ATOM     18  C   UNL     1      35.124   7.868  30.739  1.00  0.00     0.000 C 
BRANCH  18  19
ATOM     19  C   UNL     1      36.612   7.883  31.131  1.00  0.00     0.000 C 
BRANCH  19  20
ATOM     20  C   UNL     1      36.911   7.029  32.372  1.00  0.00     0.000 C 
BRANCH  20  21
ATOM     21  C   UNL     1      37.119   7.912  33.608  1.00  0.00     0.000 C 
BRANCH  21  22
ATOM     22  C   UNL     1      36.100   7.574  34.706  1.00  0.00     0.000 C 
BRANCH  22  23
ATOM     23  C   UNL     1      35.051   6.553  34.236  1.00  0.00     0.000 C 
BRANCH  23  24
ATOM     24  C   UNL     1      33.612   7.015  34.522  1.00  0.00    -0.000 C 
BRANCH  24  25
ATOM     25  C   UNL     1      32.659   6.774  33.336  1.00  0.00    -0.000 C 
BRANCH  25  26
ATOM     26  C   UNL     1      31.298   7.485  33.437  1.00  0.00    -0.000 C 
BRANCH  26  27
ATOM     27  C   UNL     1      30.771   7.968  32.074  1.00  0.00    -0.000 C 
BRANCH  27  28
ATOM     28  C   UNL     1      31.134   7.011  30.926  1.00  0.00    -0.000 C 
BRANCH  28  29
ATOM     29  C   UNL     1      31.177   7.713  29.557  1.00  0.00    -0.000 C 
BRANCH  29  30
ATOM     30  C   UNL     1      31.001   9.235  29.668  1.00  0.00    -0.000 C 
BRANCH  30  31
ATOM     31  C   UNL     1      31.046   9.937  28.303  1.00  0.00    -0.003 C 
ATOM     32  C   UNL     1      29.643  10.111  27.729  1.00  0.00     0.004 C 
ENDBRANCH  30  31
ENDBRANCH  29  30
ENDBRANCH  28  29
ENDBRANCH  27  28
ENDBRANCH  26  27
ENDBRANCH  25  26
ENDBRANCH  24  25
ENDBRANCH  23  24
ENDBRANCH  22  23
ENDBRANCH  21  22
ENDBRANCH  20  21
ENDBRANCH  19  20
ENDBRANCH  18  19
ENDBRANCH   1  18
TORSDOF 28
ENDMDL
MODEL 4
REMARK VINA RESULT:    -3.754      1.795      6.129
REMARK INTER + INTRA:         -16.237
REMARK INTER:                  -9.988
REMARK INTRA:                  -6.249
REMARK UNBOUND:                -6.339
REMARK SMILES CCCCCCCCCCCCCCCCCCCCCCCCCCCCCC(=O)[O-]
REMARK SMILES IDX 16 1 17 2 18 3 19 4 20 5 21 6 22 7 23 8 24 9 25 10 26 11
REMARK SMILES IDX 27 12 28 13 29 14 30 15 31 16 32 17 15 18 14 19 13 20 12 21
REMARK SMILES IDX 11 22 10 23 9 24 8 25 7 26 6 27 5 28 4 29 3 30 2 31 1 32
REMARK H PARENT
REMARK Flexibility Score: inf
ROOT
ATOM      1  C   UNL     1      34.602   8.757  30.131  1.00  0.00     0.000 C 
ENDROOT
BRANCH   1   2
ATOM      2  C   UNL     1      35.837   8.013  30.671  1.00  0.00     0.000 C 
BRANCH   2   3
ATOM      3  C   UNL     1      35.551   7.056  31.844  1.00  0.00     0.000 C 
BRANCH   3   4
ATOM      4  C   UNL     1      36.217   7.488  33.169  1.00  0.00     0.000 C 
BRANCH   4   5
ATOM      5  C   UNL     1      35.228   8.162  34.133  1.00  0.00     0.000 C 
BRANCH   5   6
ATOM      6  C   UNL     1      33.928   7.361  34.315  1.00  0.00     0.000 C 
BRANCH   6   7
ATOM      7  C   UNL     1      32.685   8.049  33.709  1.00  0.00     0.000 C 
BRANCH   7   8
ATOM      8  C   UNL     1      31.718   7.038  33.068  1.00  0.00     0.000 C 
BRANCH   8   9
ATOM      9  C   UNL     1      30.948   7.627  31.875  1.00  0.00     0.000 C 
BRANCH   9  10
ATOM     10  C   UNL     1      30.992   6.720  30.636  1.00  0.00     0.000 C 
BRANCH  10  11
ATOM     11  C   UNL     1      30.350   7.422  29.430  1.00  0.00     0.000 C 
BRANCH  11  12
ATOM     12  C   UNL     1      31.325   8.351  28.684  1.00  0.00     0.000 C 
BRANCH  12  13
ATOM     13  C   UNL     1      30.872   9.819  28.578  1.00  0.00     0.006 C 
BRANCH  13  14
ATOM     14  C   UNL     1      29.433  10.040  29.066  1.00  0.00     0.053 C 
BRANCH  14  15
ATOM     15  C   UNL     1      28.802  11.194  28.351  1.00  0.00     0.041 C 
ATOM     16  O   UNL     1      28.382  12.189  29.001  1.00  0.00    -0.550 OA
ATOM     17  O   UNL     1      28.695  11.181  26.965  1.00  0.00    -0.550 OA
ENDBRANCH  14  15
ENDBRANCH  13  14
ENDBRANCH  12  13
ENDBRANCH  11  12
ENDBRANCH  10  11
ENDBRANCH   9  10
ENDBRANCH   8   9
ENDBRANCH   7   8
ENDBRANCH   6   7
ENDBRANCH   5   6
ENDBRANCH   4   5
ENDBRANCH   3   4
ENDBRANCH   2   3
ENDBRANCH   1   2
BRANCH   1  18
ATOM     18  C   UNL     1      34.178   9.997  30.947  1.00  0.00     0.000 C 
BRANCH  18  19
ATOM     19  C   UNL     1      35.308  10.997  31.252  1.00  0.00     0.000 C 
BRANCH  19  20
ATOM     20  C   UNL     1      34.964  11.953  32.404  1.00  0.00     0.000 C 
BRANCH  20  21
ATOM     21  C   UNL     1      34.603  13.345  31.871  1.00  0.00     0.000 C 
BRANCH  21  22
ATOM     22  C   UNL     1      34.864  14.426  32.931  1.00  0.00     0.000 C 
BRANCH  22  23
ATOM     23  C   UNL     1      34.194  14.100  34.276  1.00  0.00     0.000 C 
BRANCH  23  24
ATOM     24  C   UNL     1      32.684  14.391  34.265  1.00  0.00    -0.000 C 
BRANCH  24  25
ATOM     25  C   UNL     1      31.880  13.418  35.148  1.00  0.00    -0.000 C 
BRANCH  25  26
ATOM     26  C   UNL     1      32.560  12.062  35.411  1.00  0.00    -0.000 C 
BRANCH  26  27
ATOM     27  C   UNL     1      31.558  10.949  35.768  1.00  0.00    -0.000 C 
BRANCH  27  28
ATOM     28  C   UNL     1      30.144  11.232  35.236  1.00  0.00    -0.000 C 
BRANCH  28  29
ATOM     29  C   UNL     1      29.775  10.352  34.028  1.00  0.00    -0.000 C 
BRANCH  29  30
ATOM     30  C   UNL     1      29.690  11.152  32.719  1.00  0.00    -0.000 C 
BRANCH  30  31
ATOM     31  C   UNL     1      31.065  11.375  32.072  1.00  0.00    -0.003 C 
ATOM     32  C   UNL     1      31.097  12.682  31.286  1.00  0.00     0.004 C 
ENDBRANCH  30  31
ENDBRANCH  29  30
ENDBRANCH  28  29
ENDBRANCH  27  28
ENDBRANCH  26  27
ENDBRANCH  25  26
ENDBRANCH  24  25
ENDBRANCH  23  24
ENDBRANCH  22  23
ENDBRANCH  21  22
ENDBRANCH  20  21
ENDBRANCH  19  20
ENDBRANCH  18  19
ENDBRANCH   1  18
TORSDOF 28
ENDMDL
MODEL 5
REMARK VINA RESULT:    -3.738      2.647      6.309
REMARK INTER + INTRA:         -16.194
REMARK INTER:                 -10.434
REMARK INTRA:                  -5.760
REMARK UNBOUND:                -6.339
REMARK SMILES CCCCCCCCCCCCCCCCCCCCCCCCCCCCCC(=O)[O-]
REMARK SMILES IDX 16 1 17 2 18 3 19 4 20 5 21 6 22 7 23 8 24 9 25 10 26 11
REMARK SMILES IDX 27 12 28 13 29 14 30 15 31 16 32 17 15 18 14 19 13 20 12 21
REMARK SMILES IDX 11 22 10 23 9 24 8 25 7 26 6 27 5 28 4 29 3 30 2 31 1 32
REMARK H PARENT
REMARK Flexibility Score: inf
ROOT
ATOM      1  C   UNL     1      34.217   9.732  30.655  1.00  0.00     0.000 C 
ENDROOT
BRANCH   1   2
ATOM      2  C   UNL     1      33.616   8.886  29.518  1.00  0.00     0.000 C 
BRANCH   2   3
ATOM      3  C   UNL     1      32.176   9.265  29.124  1.00  0.00     0.000 C 
BRANCH   3   4
ATOM      4  C   UNL     1      31.606   8.409  27.971  1.00  0.00     0.000 C 
BRANCH   4   5
ATOM      5  C   UNL     1      30.445   7.511  28.423  1.00  0.00     0.000 C 
BRANCH   5   6
ATOM      6  C   UNL     1      30.109   7.669  29.916  1.00  0.00     0.000 C 
BRANCH   6   7
ATOM      7  C   UNL     1      30.550   6.469  30.782  1.00  0.00     0.000 C 
BRANCH   7   8
ATOM      8  C   UNL     1      31.428   6.903  31.969  1.00  0.00     0.000 C 
BRANCH   8   9
ATOM      9  C   UNL     1      30.959   8.222  32.604  1.00  0.00     0.000 C 
BRANCH   9  10
ATOM     10  C   UNL     1      30.947   8.169  34.139  1.00  0.00     0.000 C 
BRANCH  10  11
ATOM     11  C   UNL     1      32.137   7.352  34.662  1.00  0.00     0.000 C 
BRANCH  11  12
ATOM     12  C   UNL     1      33.294   8.231  35.171  1.00  0.00     0.000 C 
BRANCH  12  13
ATOM     13  C   UNL     1      34.701   7.754  34.765  1.00  0.00     0.006 C 
BRANCH  13  14
ATOM     14  C   UNL     1      34.752   7.173  33.345  1.00  0.00     0.053 C 
BRANCH  14  15
ATOM     15  C   UNL     1      36.125   7.307  32.766  1.00  0.00     0.041 C 
ATOM     16  O   UNL     1      37.067   7.764  33.468  1.00  0.00    -0.550 OA
ATOM     17  O   UNL     1      36.372   6.907  31.458  1.00  0.00    -0.550 OA
ENDBRANCH  14  15
ENDBRANCH  13  14
ENDBRANCH  12  13
ENDBRANCH  11  12
ENDBRANCH  10  11
ENDBRANCH   9  10
ENDBRANCH   8   9
ENDBRANCH   7   8
ENDBRANCH   6   7
ENDBRANCH   5   6
ENDBRANCH   4   5
ENDBRANCH   3   4
ENDBRANCH   2   3
ENDBRANCH   1   2
BRANCH   1  18
ATOM     18  C   UNL     1      33.254  10.759  31.285  1.00  0.00     0.000 C 
BRANCH  18  19
ATOM     19  C   UNL     1      33.519  11.081  32.767  1.00  0.00     0.000 C 
BRANCH  19  20
ATOM     20  C   UNL     1      32.257  11.540  33.513  1.00  0.00     0.000 C 
BRANCH  20  21
ATOM     21  C   UNL     1      32.617  12.163  34.867  1.00  0.00     0.000 C 
BRANCH  21  22
ATOM     22  C   UNL     1      33.389  13.478  34.681  1.00  0.00     0.000 C 
BRANCH  22  23
ATOM     23  C   UNL     1      32.544  14.560  33.989  1.00  0.00     0.000 C 
BRANCH  23  24
ATOM     24  C   UNL     1      33.060  14.895  32.579  1.00  0.00    -0.000 C 
BRANCH  24  25
ATOM     25  C   UNL     1      32.146  15.880  31.826  1.00  0.00    -0.000 C 
BRANCH  25  26
ATOM     26  C   UNL     1      31.271  15.249  30.728  1.00  0.00    -0.000 C 
BRANCH  26  27
ATOM     27  C   UNL     1      31.430  13.720  30.640  1.00  0.00    -0.000 C 
BRANCH  27  28
ATOM     28  C   UNL     1      30.215  13.034  29.996  1.00  0.00    -0.000 C 
BRANCH  28  29
ATOM     29  C   UNL     1      29.686  11.853  30.829  1.00  0.00    -0.000 C 
BRANCH  29  30
ATOM     30  C   UNL     1      28.799  10.903  30.009  1.00  0.00    -0.000 C 
BRANCH  30  31
ATOM     31  C   UNL     1      28.286  11.544  28.712  1.00  0.00    -0.003 C 
ATOM     32  C   UNL     1      28.771  10.774  27.488  1.00  0.00     0.004 C 
ENDBRANCH  30  31
ENDBRANCH  29  30
ENDBRANCH  28  29
ENDBRANCH  27  28
ENDBRANCH  26  27
ENDBRANCH  25  26
ENDBRANCH  24  25
ENDBRANCH  23  24
ENDBRANCH  22  23
ENDBRANCH  21  22
ENDBRANCH  20  21
ENDBRANCH  19  20
ENDBRANCH  18  19
ENDBRANCH   1  18
TORSDOF 28
ENDMDL
MODEL 6
REMARK VINA RESULT:    -3.717      1.765      5.185
REMARK INTER + INTRA:         -16.140
REMARK INTER:                  -9.975
REMARK INTRA:                  -6.164
REMARK UNBOUND:                -6.339
REMARK SMILES CCCCCCCCCCCCCCCCCCCCCCCCCCCCCC(=O)[O-]
REMARK SMILES IDX 16 1 17 2 18 3 19 4 20 5 21 6 22 7 23 8 24 9 25 10 26 11
REMARK SMILES IDX 27 12 28 13 29 14 30 15 31 16 32 17 15 18 14 19 13 20 12 21
REMARK SMILES IDX 11 22 10 23 9 24 8 25 7 26 6 27 5 28 4 29 3 30 2 31 1 32
REMARK H PARENT
REMARK Flexibility Score: inf
ROOT
ATOM      1  C   UNL     1      35.855  11.016  33.390  1.00  0.00     0.000 C 
ENDROOT
BRANCH   1   2
ATOM      2  C   UNL     1      35.376  11.924  32.243  1.00  0.00     0.000 C 
BRANCH   2   3
ATOM      3  C   UNL     1      35.063  13.374  32.658  1.00  0.00     0.000 C 
BRANCH   3   4
ATOM      4  C   UNL     1      33.814  13.960  31.962  1.00  0.00     0.000 C 
BRANCH   4   5
ATOM      5  C   UNL     1      32.930  14.770  32.922  1.00  0.00     0.000 C 
BRANCH   5   6
ATOM      6  C   UNL     1      33.175  14.424  34.400  1.00  0.00     0.000 C 
BRANCH   6   7
ATOM      7  C   UNL     1      31.890  14.061  35.175  1.00  0.00     0.000 C 
BRANCH   7   8
ATOM      8  C   UNL     1      32.004  12.698  35.881  1.00  0.00     0.000 C 
BRANCH   8   9
ATOM      9  C   UNL     1      32.480  11.580  34.940  1.00  0.00     0.000 C 
BRANCH   9  10
ATOM     10  C   UNL     1      31.358  11.049  34.036  1.00  0.00     0.000 C 
BRANCH  10  11
ATOM     11  C   UNL     1      31.864  10.868  32.596  1.00  0.00     0.000 C 
BRANCH  11  12
ATOM     12  C   UNL     1      30.753  11.036  31.542  1.00  0.00     0.000 C 
BRANCH  12  13
ATOM     13  C   UNL     1      30.874  12.296  30.667  1.00  0.00     0.006 C 
BRANCH  13  14
ATOM     14  C   UNL     1      30.186  12.148  29.302  1.00  0.00     0.053 C 
BRANCH  14  15
ATOM     15  C   UNL     1      28.699  12.094  29.461  1.00  0.00     0.041 C 
ATOM     16  O   UNL     1      28.024  11.241  28.823  1.00  0.00    -0.550 OA
ATOM     17  O   UNL     1      28.057  12.971  30.328  1.00  0.00    -0.550 OA
ENDBRANCH  14  15
ENDBRANCH  13  14
ENDBRANCH  12  13
ENDBRANCH  11  12
ENDBRANCH  10  11
ENDBRANCH   9  10
ENDBRANCH   8   9
ENDBRANCH   7   8
ENDBRANCH   6   7
ENDBRANCH   5   6
ENDBRANCH   4   5
ENDBRANCH   3   4
ENDBRANCH   2   3
ENDBRANCH   1   2
BRANCH   1  18
ATOM     18  C   UNL     1      37.071  10.126  33.054  1.00  0.00     0.000 C 
BRANCH  18  19
ATOM     19  C   UNL     1      36.759   8.629  32.886  1.00  0.00     0.000 C 
BRANCH  19  20
ATOM     20  C   UNL     1      36.986   8.130  31.451  1.00  0.00     0.000 C 
BRANCH  20  21
ATOM     21  C   UNL     1      35.650   7.865  30.745  1.00  0.00     0.000 C 
BRANCH  21  22
ATOM     22  C   UNL     1      35.134   9.132  30.049  1.00  0.00     0.000 C 
BRANCH  22  23
ATOM     23  C   UNL     1      33.600   9.153  29.934  1.00  0.00     0.000 C 
BRANCH  23  24
ATOM     24  C   UNL     1      33.093   8.380  28.705  1.00  0.00    -0.000 C 
BRANCH  24  25
ATOM     25  C   UNL     1      31.904   9.072  28.011  1.00  0.00    -0.000 C 
BRANCH  25  26
ATOM     26  C   UNL     1      30.520   8.732  28.594  1.00  0.00    -0.000 C 
BRANCH  26  27
ATOM     27  C   UNL     1      30.482   7.355  29.280  1.00  0.00    -0.000 C 
BRANCH  27  28
ATOM     28  C   UNL     1      30.086   7.444  30.763  1.00  0.00    -0.000 C 
BRANCH  28  29
ATOM     29  C   UNL     1      30.966   6.562  31.668  1.00  0.00    -0.000 C 
BRANCH  29  30
ATOM     30  C   UNL     1      31.499   7.322  32.893  1.00  0.00    -0.000 C 
BRANCH  30  31
ATOM     31  C   UNL     1      33.016   7.164  33.072  1.00  0.00    -0.003 C 
ATOM     32  C   UNL     1      33.525   8.019  34.229  1.00  0.00     0.004 C 
ENDBRANCH  30  31
ENDBRANCH  29  30
ENDBRANCH  28  29
ENDBRANCH  27  28
ENDBRANCH  26  27
ENDBRANCH  25  26
ENDBRANCH  24  25
ENDBRANCH  23  24
ENDBRANCH  22  23
ENDBRANCH  21  22
ENDBRANCH  20  21
ENDBRANCH  19  20
ENDBRANCH  18  19
ENDBRANCH   1  18
TORSDOF 28
ENDMDL
MODEL 7
REMARK VINA RESULT:    -3.700      1.826      5.119
REMARK INTER + INTRA:         -16.095
REMARK INTER:                  -9.636
REMARK INTRA:                  -6.459
REMARK UNBOUND:                -6.339
REMARK SMILES CCCCCCCCCCCCCCCCCCCCCCCCCCCCCC(=O)[O-]
REMARK SMILES IDX 16 1 17 2 18 3 19 4 20 5 21 6 22 7 23 8 24 9 25 10 26 11
REMARK SMILES IDX 27 12 28 13 29 14 30 15 31 16 32 17 15 18 14 19 13 20 12 21
REMARK SMILES IDX 11 22 10 23 9 24 8 25 7 26 6 27 5 28 4 29 3 30 2 31 1 32
REMARK H PARENT
REMARK Flexibility Score: inf
ROOT
ATOM      1  C   UNL     1      32.133   8.300  33.268  1.00  0.00     0.000 C 
ENDROOT
BRANCH   1   2
ATOM      2  C   UNL     1      31.020   7.446  33.900  1.00  0.00     0.000 C 
BRANCH   2   3
ATOM      3  C   UNL     1      30.587   7.891  35.310  1.00  0.00     0.000 C 
BRANCH   3   4
ATOM      4  C   UNL     1      31.242   9.213  35.768  1.00  0.00     0.000 C 
BRANCH   4   5
ATOM      5  C   UNL     1      32.346   8.992  36.813  1.00  0.00     0.000 C 
BRANCH   5   6
ATOM      6  C   UNL     1      33.617   9.809  36.527  1.00  0.00     0.000 C 
BRANCH   6   7
ATOM      7  C   UNL     1      33.427  10.895  35.446  1.00  0.00     0.000 C 
BRANCH   7   8
ATOM      8  C   UNL     1      34.744  11.230  34.724  1.00  0.00     0.000 C 
BRANCH   8   9
ATOM      9  C   UNL     1      34.541  11.541  33.232  1.00  0.00     0.000 C 
BRANCH   9  10
ATOM     10  C   UNL     1      33.299  12.407  32.971  1.00  0.00     0.000 C 
BRANCH  10  11
ATOM     11  C   UNL     1      32.417  11.773  31.884  1.00  0.00     0.000 C 
BRANCH  11  12
ATOM     12  C   UNL     1      30.947  11.618  32.316  1.00  0.00     0.000 C 
BRANCH  12  13
ATOM     13  C   UNL     1      30.065  10.816  31.343  1.00  0.00     0.006 C 
BRANCH  13  14
ATOM     14  C   UNL     1      29.973  11.454  29.949  1.00  0.00     0.053 C 
BRANCH  14  15
ATOM     15  C   UNL     1      28.598  11.988  29.700  1.00  0.00     0.041 C 
ATOM     16  O   UNL     1      27.727  11.263  29.148  1.00  0.00    -0.550 OA
ATOM     17  O   UNL     1      28.270  13.280  30.094  1.00  0.00    -0.550 OA
ENDBRANCH  14  15
ENDBRANCH  13  14
ENDBRANCH  12  13
ENDBRANCH  11  12
ENDBRANCH  10  11
ENDBRANCH   9  10
ENDBRANCH   8   9
ENDBRANCH   7   8
ENDBRANCH   6   7
ENDBRANCH   5   6
ENDBRANCH   4   5
ENDBRANCH   3   4
ENDBRANCH   2   3
ENDBRANCH   1   2
BRANCH   1  18
ATOM     18  C   UNL     1      33.473   7.567  33.044  1.00  0.00     0.000 C 
BRANCH  18  19
ATOM     19  C   UNL     1      33.904   6.629  34.185  1.00  0.00     0.000 C 
BRANCH  19  20
ATOM     20  C   UNL     1      35.428   6.572  34.368  1.00  0.00     0.000 C 
BRANCH  20  21
ATOM     21  C   UNL     1      36.037   7.979  34.338  1.00  0.00     0.000 C 
BRANCH  21  22
ATOM     22  C   UNL     1      37.189   8.060  33.326  1.00  0.00     0.000 C 
BRANCH  22  23
ATOM     23  C   UNL     1      37.087   6.979  32.236  1.00  0.00     0.000 C 
BRANCH  23  24
ATOM     24  C   UNL     1      36.405   7.496  30.958  1.00  0.00    -0.000 C 
BRANCH  24  25
ATOM     25  C   UNL     1      36.331   9.034  30.899  1.00  0.00    -0.000 C 
BRANCH  25  26
ATOM     26  C   UNL     1      35.023   9.603  30.321  1.00  0.00    -0.000 C 
BRANCH  26  27
ATOM     27  C   UNL     1      34.216   8.559  29.527  1.00  0.00    -0.000 C 
BRANCH  27  28
ATOM     28  C   UNL     1      32.699   8.796  29.610  1.00  0.00    -0.000 C 
BRANCH  28  29
ATOM     29  C   UNL     1      31.950   8.302  28.359  1.00  0.00    -0.000 C 
BRANCH  29  30
ATOM     30  C   UNL     1      30.502   7.888  28.665  1.00  0.00    -0.000 C 
BRANCH  30  31
ATOM     31  C   UNL     1      30.292   7.514  30.139  1.00  0.00    -0.003 C 
ATOM     32  C   UNL     1      30.248   5.999  30.321  1.00  0.00     0.004 C 
ENDBRANCH  30  31
ENDBRANCH  29  30
ENDBRANCH  28  29
ENDBRANCH  27  28
ENDBRANCH  26  27
ENDBRANCH  25  26
ENDBRANCH  24  25
ENDBRANCH  23  24
ENDBRANCH  22  23
ENDBRANCH  21  22
ENDBRANCH  20  21
ENDBRANCH  19  20
ENDBRANCH  18  19
ENDBRANCH   1  18
TORSDOF 28
ENDMDL
MODEL 8
REMARK VINA RESULT:    -3.688      1.783      5.931
REMARK INTER + INTRA:         -16.063
REMARK INTER:                  -9.445
REMARK INTRA:                  -6.618
REMARK UNBOUND:                -6.339
REMARK SMILES CCCCCCCCCCCCCCCCCCCCCCCCCCCCCC(=O)[O-]
REMARK SMILES IDX 16 1 17 2 18 3 19 4 20 5 21 6 22 7 23 8 24 9 25 10 26 11
REMARK SMILES IDX 27 12 28 13 29 14 30 15 31 16 32 17 15 18 14 19 13 20 12 21
REMARK SMILES IDX 11 22 10 23 9 24 8 25 7 26 6 27 5 28 4 29 3 30 2 31 1 32
REMARK H PARENT
REMARK Flexibility Score: inf
ROOT
ATOM      1  C   UNL     1      34.906   8.514  30.422  1.00  0.00     0.000 C 
ENDROOT
BRANCH   1   2
ATOM      2  C   UNL     1      34.505   9.999  30.386  1.00  0.00     0.000 C 
BRANCH   2   3
ATOM      3  C   UNL     1      33.744  10.492  31.632  1.00  0.00     0.000 C 
BRANCH   3   4
ATOM      4  C   UNL     1      32.298  10.946  31.332  1.00  0.00     0.000 C 
BRANCH   4   5
ATOM      5  C   UNL     1      31.258  10.189  32.171  1.00  0.00     0.000 C 
BRANCH   5   6
ATOM      6  C   UNL     1      31.845   8.966  32.896  1.00  0.00     0.000 C 
BRANCH   6   7
ATOM      7  C   UNL     1      31.049   7.664  32.660  1.00  0.00     0.000 C 
BRANCH   7   8
ATOM      8  C   UNL     1      31.348   7.043  31.284  1.00  0.00     0.000 C 
BRANCH   8   9
ATOM      9  C   UNL     1      30.096   6.928  30.400  1.00  0.00     0.000 C 
BRANCH   9  10
ATOM     10  C   UNL     1      30.376   7.265  28.928  1.00  0.00     0.000 C 
BRANCH  10  11
ATOM     11  C   UNL     1      31.680   8.066  28.795  1.00  0.00     0.000 C 
BRANCH  11  12
ATOM     12  C   UNL     1      31.470   9.459  28.173  1.00  0.00     0.000 C 
BRANCH  12  13
ATOM     13  C   UNL     1      30.038  10.012  28.284  1.00  0.00     0.006 C 
BRANCH  13  14
ATOM     14  C   UNL     1      29.994  11.536  28.467  1.00  0.00     0.053 C 
BRANCH  14  15
ATOM     15  C   UNL     1      29.003  11.915  29.523  1.00  0.00     0.041 C 
ATOM     16  O   UNL     1      29.327  12.724  30.434  1.00  0.00    -0.550 OA
ATOM     17  O   UNL     1      27.716  11.393  29.491  1.00  0.00    -0.550 OA
ENDBRANCH  14  15
ENDBRANCH  13  14
ENDBRANCH  12  13
ENDBRANCH  11  12
ENDBRANCH  10  11
ENDBRANCH   9  10
ENDBRANCH   8   9
ENDBRANCH   7   8
ENDBRANCH   6   7
ENDBRANCH   5   6
ENDBRANCH   4   5
ENDBRANCH   3   4
ENDBRANCH   2   3
ENDBRANCH   1   2
BRANCH   1  18
ATOM     18  C   UNL     1      35.794   8.105  31.616  1.00  0.00     0.000 C 
BRANCH  18  19
ATOM     19  C   UNL     1      35.243   6.953  32.476  1.00  0.00     0.000 C 
BRANCH  19  20
ATOM     20  C   UNL     1      34.971   7.370  33.929  1.00  0.00     0.000 C 
BRANCH  20  21
ATOM     21  C   UNL     1      35.435   8.810  34.183  1.00  0.00     0.000 C 
BRANCH  21  22
ATOM     22  C   UNL     1      34.619   9.463  35.308  1.00  0.00     0.000 C 
BRANCH  22  23
ATOM     23  C   UNL     1      34.611  10.997  35.210  1.00  0.00     0.000 C 
BRANCH  23  24
ATOM     24  C   UNL     1      33.187  11.575  35.160  1.00  0.00    -0.000 C 
BRANCH  24  25
ATOM     25  C   UNL     1      33.025  12.845  36.018  1.00  0.00    -0.000 C 
BRANCH  25  26
ATOM     26  C   UNL     1      32.543  14.091  35.254  1.00  0.00    -0.000 C 
BRANCH  26  27
ATOM     27  C   UNL     1      32.196  13.796  33.784  1.00  0.00    -0.000 C 
BRANCH  27  28
ATOM     28  C   UNL     1      32.925  14.730  32.804  1.00  0.00    -0.000 C 
BRANCH  28  29
ATOM     29  C   UNL     1      34.170  14.079  32.174  1.00  0.00    -0.000 C 
BRANCH  29  30
ATOM     30  C   UNL     1      35.480  14.706  32.676  1.00  0.00    -0.000 C 
BRANCH  30  31
ATOM     31  C   UNL     1      36.376  13.697  33.408  1.00  0.00    -0.003 C 
ATOM     32  C   UNL     1      36.703  12.503  32.515  1.00  0.00     0.004 C 
ENDBRANCH  30  31
ENDBRANCH  29  30
ENDBRANCH  28  29
ENDBRANCH  27  28
ENDBRANCH  26  27
ENDBRANCH  25  26
ENDBRANCH  24  25
ENDBRANCH  23  24
ENDBRANCH  22  23
ENDBRANCH  21  22
ENDBRANCH  20  21
ENDBRANCH  19  20
ENDBRANCH  18  19
ENDBRANCH   1  18
TORSDOF 28
ENDMDL
MODEL 9
REMARK VINA RESULT:    -3.635      2.837      7.083
REMARK INTER + INTRA:         -15.925
REMARK INTER:                  -9.175
REMARK INTRA:                  -6.750
REMARK UNBOUND:                -6.339
REMARK SMILES CCCCCCCCCCCCCCCCCCCCCCCCCCCCCC(=O)[O-]
REMARK SMILES IDX 16 1 17 2 18 3 19 4 20 5 21 6 22 7 23 8 24 9 25 10 26 11
REMARK SMILES IDX 27 12 28 13 29 14 30 15 31 16 32 17 15 18 14 19 13 20 12 21
REMARK SMILES IDX 11 22 10 23 9 24 8 25 7 26 6 27 5 28 4 29 3 30 2 31 1 32
REMARK H PARENT
REMARK Flexibility Score: inf
ROOT
ATOM      1  C   UNL     1      31.615  13.188  32.466  1.00  0.00     0.000 C 
ENDROOT
BRANCH   1   2
ATOM      2  C   UNL     1      32.489  13.730  33.612  1.00  0.00     0.000 C 
BRANCH   2   3
ATOM      3  C   UNL     1      32.713  12.744  34.774  1.00  0.00     0.000 C 
BRANCH   3   4
ATOM      4  C   UNL     1      34.177  12.272  34.910  1.00  0.00     0.000 C 
BRANCH   4   5
ATOM      5  C   UNL     1      34.341  10.772  34.624  1.00  0.00     0.000 C 
BRANCH   5   6
ATOM      6  C   UNL     1      35.375  10.479  33.523  1.00  0.00     0.000 C 
BRANCH   6   7
ATOM      7  C   UNL     1      35.835  11.736  32.753  1.00  0.00     0.000 C 
BRANCH   7   8
ATOM      8  C   UNL     1      35.863  11.506  31.232  1.00  0.00     0.000 C 
BRANCH   8   9
ATOM      9  C   UNL     1      36.357  10.101  30.853  1.00  0.00     0.000 C 
BRANCH   9  10
ATOM     10  C   UNL     1      35.285   9.269  30.133  1.00  0.00     0.000 C 
BRANCH  10  11
ATOM     11  C   UNL     1      35.432   7.780  30.479  1.00  0.00     0.000 C 
BRANCH  11  12
ATOM     12  C   UNL     1      36.449   7.521  31.607  1.00  0.00     0.000 C 
BRANCH  12  13
ATOM     13  C   UNL     1      35.842   6.998  32.921  1.00  0.00     0.006 C 
BRANCH  13  14
ATOM     14  C   UNL     1      36.831   7.029  34.095  1.00  0.00     0.053 C 
BRANCH  14  15
ATOM     15  C   UNL     1      36.103   7.065  35.402  1.00  0.00     0.041 C 
ATOM     16  O   UNL     1      36.738   6.945  36.484  1.00  0.00    -0.550 OA
ATOM     17  O   UNL     1      34.726   7.253  35.428  1.00  0.00    -0.550 OA
ENDBRANCH  14  15
ENDBRANCH  13  14
ENDBRANCH  12  13
ENDBRANCH  11  12
ENDBRANCH  10  11
ENDBRANCH   9  10
ENDBRANCH   8   9
ENDBRANCH   7   8
ENDBRANCH   6   7
ENDBRANCH   5   6
ENDBRANCH   4   5
ENDBRANCH   3   4
ENDBRANCH   2   3
ENDBRANCH   1   2
BRANCH   1  18
ATOM     18  C   UNL     1      32.367  12.348  31.412  1.00  0.00     0.000 C 
BRANCH  18  19
ATOM     19  C   UNL     1      32.172  10.826  31.527  1.00  0.00     0.000 C 
BRANCH  19  20
ATOM     20  C   UNL     1      30.954  10.443  32.381  1.00  0.00     0.000 C 
BRANCH  20  21
ATOM     21  C   UNL     1      31.165   9.085  33.060  1.00  0.00     0.000 C 
BRANCH  21  22
ATOM     22  C   UNL     1      32.413   8.381  32.509  1.00  0.00     0.000 C 
BRANCH  22  23
ATOM     23  C   UNL     1      32.067   7.108  31.719  1.00  0.00     0.000 C 
BRANCH  23  24
ATOM     24  C   UNL     1      30.627   7.126  31.179  1.00  0.00    -0.000 C 
BRANCH  24  25
ATOM     25  C   UNL     1      30.542   7.600  29.716  1.00  0.00    -0.000 C 
BRANCH  25  26
ATOM     26  C   UNL     1      31.872   8.082  29.108  1.00  0.00    -0.000 C 
BRANCH  26  27
ATOM     27  C   UNL     1      31.685   9.216  28.084  1.00  0.00    -0.000 C 
BRANCH  27  28
ATOM     28  C   UNL     1      30.214   9.633  27.923  1.00  0.00    -0.000 C 
BRANCH  28  29
ATOM     29  C   UNL     1      29.929  11.040  28.479  1.00  0.00    -0.000 C 
BRANCH  29  30
ATOM     30  C   UNL     1      28.784  11.048  29.504  1.00  0.00    -0.000 C 
BRANCH  30  31
ATOM     31  C   UNL     1      28.670  12.384  30.253  1.00  0.00    -0.003 C 
ATOM     32  C   UNL     1      27.399  12.434  31.096  1.00  0.00     0.004 C 
ENDBRANCH  30  31
ENDBRANCH  29  30
ENDBRANCH  28  29
ENDBRANCH  27  28
ENDBRANCH  26  27
ENDBRANCH  25  26
ENDBRANCH  24  25
ENDBRANCH  23  24
ENDBRANCH  22  23
ENDBRANCH  21  22
ENDBRANCH  20  21
ENDBRANCH  19  20
ENDBRANCH  18  19
ENDBRANCH   1  18
TORSDOF 28
ENDMDL
