MODEL 1
REMARK VINA RESULT:    -4.749      0.000      0.000
REMARK INTER + INTRA:          -7.217
REMARK INTER:                  -7.248
REMARK INTRA:                   0.032
REMARK UNBOUND:                 0.032
REMARK SMILES CC1=CCC[C@@H](C)C(=O)C[C@@H](C(C)C)C(=O)C1
REMARK SMILES IDX 8 1 9 2 6 3 7 4 5 5 4 6 3 7 2 8 1 9 10 11 11 12 15 13 16 14
REMARK SMILES IDX 17 15 12 17 13 18 14 19
REMARK H PARENT
REMARK Flexibility Score: 70.00
ROOT
ATOM      1  C   UNL     1     -11.711 -18.044  31.735  1.00  0.00     0.136 C 
ATOM      2  O   UNL     1     -10.560 -18.452  31.657  1.00  0.00    -0.299 OA
ENDROOT
BRANCH   1   3
ATOM      3  C   UNL     1     -12.872 -19.007  31.541  1.00  0.00     0.053 C 
ATOM      4  C   UNL     1     -12.608 -20.373  32.196  1.00  0.00     0.016 C 
BRANCH   3   5
ATOM      5  C   UNL     1     -13.250 -19.171  30.051  1.00  0.00     0.015 C 
BRANCH   5   6
ATOM      6  C   UNL     1     -12.137 -18.752  29.059  1.00  0.00     0.028 C 
BRANCH   6   7
ATOM      7  C   UNL     1     -12.700 -17.897  27.947  1.00  0.00    -0.028 C 
ATOM      8  C   UNL     1     -12.893 -16.557  28.004  1.00  0.00    -0.070 CG0
ATOM      9  C   UNL     1     -13.600 -15.895  26.848  1.00  0.00     0.039 C 
ATOM     10  G   UNL     1     -12.431 -15.691  29.167  1.00  0.00     0.000 G0
ENDBRANCH   6   7
ENDBRANCH   5   6
ENDBRANCH   3   5
ENDBRANCH   1   3
BRANCH   1  11
ATOM     11  C   UNL     1     -11.941 -16.572  31.992  1.00  0.00     0.087 C 
BRANCH  11  12
ATOM     12  C   UNL     1     -13.388 -16.125  31.647  1.00  0.00     0.066 C 
BRANCH  12  13
ATOM     13  C   UNL     1     -13.460 -15.458  30.276  1.00  0.00     0.140 C 
ATOM     14  O   UNL     1     -14.379 -14.685  30.047  1.00  0.00    -0.299 OA
BRANCH  13  15
ATOM     15  C   UNL     1     -12.441 -15.671  29.172  1.00  0.00     0.106 CG0
ATOM     16  G   UNL     1     -12.892 -16.552  28.016  1.00  0.00     0.000 G0
ENDBRANCH  13  15
ENDBRANCH  12  13
BRANCH  12  17
ATOM     17  C   UNL     1     -14.057 -15.236  32.742  1.00  0.00    -0.006 C 
ATOM     18  C   UNL     1     -15.496 -15.689  33.038  1.00  0.00     0.008 C 
ATOM     19  C   UNL     1     -13.263 -15.140  34.057  1.00  0.00     0.008 C 
ENDBRANCH  12  17
ENDBRANCH  11  12
ENDBRANCH   1  11
TORSDOF 1
ENDMDL
MODEL 2
REMARK VINA RESULT:    -4.696      1.764      3.808
REMARK INTER + INTRA:          -7.135
REMARK INTER:                  -7.602
REMARK INTRA:                   0.466
REMARK UNBOUND:                 0.032
REMARK SMILES CC1=CCC[C@@H](C)C(=O)C[C@@H](C(C)C)C(=O)C1
REMARK SMILES IDX 8 1 9 2 6 3 7 4 5 5 4 6 3 7 2 8 1 9 10 11 11 12 15 13 16 14
REMARK SMILES IDX 17 15 12 17 13 18 14 19
REMARK H PARENT
REMARK Flexibility Score: 70.00
ROOT
ATOM      1  C   UNL     1     -12.890 -15.630  29.518  1.00  0.00     0.136 C 
ATOM      2  O   UNL     1     -13.300 -14.939  28.595  1.00  0.00    -0.299 OA
ENDROOT
BRANCH   1   3
ATOM      3  C   UNL     1     -11.673 -16.520  29.318  1.00  0.00     0.053 C 
ATOM      4  C   UNL     1     -10.423 -15.713  28.930  1.00  0.00     0.016 C 
BRANCH   3   5
ATOM      5  C   UNL     1     -11.940 -17.652  28.299  1.00  0.00     0.015 C 
BRANCH   5   6
ATOM      6  C   UNL     1     -13.222 -18.474  28.578  1.00  0.00     0.028 C 
BRANCH   6   7
ATOM      7  C   UNL     1     -12.913 -19.674  29.444  1.00  0.00    -0.028 C 
ATOM      8  C   UNL     1     -12.961 -19.703  30.799  1.00  0.00    -0.070 CG0
ATOM      9  C   UNL     1     -12.480 -20.950  31.496  1.00  0.00     0.039 C 
ATOM     10  G   UNL     1     -13.477 -18.548  31.644  1.00  0.00     0.000 G0
ENDBRANCH   6   7
ENDBRANCH   5   6
ENDBRANCH   3   5
ENDBRANCH   1   3
BRANCH   1  11
ATOM     11  C   UNL     1     -13.638 -15.601  30.832  1.00  0.00     0.087 C 
BRANCH  11  12
ATOM     12  C   UNL     1     -12.746 -16.005  32.037  1.00  0.00     0.066 C 
BRANCH  12  13
ATOM     13  C   UNL     1     -12.462 -17.505  32.050  1.00  0.00     0.140 C 
ATOM     14  O   UNL     1     -11.362 -17.891  32.416  1.00  0.00    -0.299 OA
BRANCH  13  15
ATOM     15  C   UNL     1     -13.476 -18.566  31.660  1.00  0.00     0.106 CG0
ATOM     16  G   UNL     1     -12.948 -19.696  30.789  1.00  0.00     0.000 G0
ENDBRANCH  13  15
ENDBRANCH  12  13
BRANCH  12  17
ATOM     17  C   UNL     1     -13.286 -15.522  33.419  1.00  0.00    -0.006 C 
ATOM     18  C   UNL     1     -12.179 -14.869  34.262  1.00  0.00     0.008 C 
ATOM     19  C   UNL     1     -14.498 -14.577  33.334  1.00  0.00     0.008 C 
ENDBRANCH  12  17
ENDBRANCH  11  12
ENDBRANCH   1  11
TORSDOF 1
ENDMDL
MODEL 3
REMARK VINA RESULT:    -4.433      1.676      4.592
REMARK INTER + INTRA:          -6.734
REMARK INTER:                  -7.155
REMARK INTRA:                   0.421
REMARK UNBOUND:                 0.032
REMARK SMILES CC1=CCC[C@@H](C)C(=O)C[C@@H](C(C)C)C(=O)C1
REMARK SMILES IDX 8 1 9 2 6 3 7 4 5 5 4 6 3 7 2 8 1 9 10 11 11 12 15 13 16 14
REMARK SMILES IDX 17 15 12 17 13 18 14 19
REMARK H PARENT
REMARK Flexibility Score: 70.00
ROOT
ATOM      1  C   UNL     1     -13.823 -15.162  30.579  1.00  0.00     0.136 C 
ATOM      2  O   UNL     1     -14.740 -14.353  30.631  1.00  0.00    -0.299 OA
ENDROOT
BRANCH   1   3
ATOM      3  C   UNL     1     -13.579 -16.109  31.744  1.00  0.00     0.053 C 
ATOM      4  C   UNL     1     -14.734 -16.088  32.759  1.00  0.00     0.016 C 
BRANCH   3   5
ATOM      5  C   UNL     1     -12.224 -15.842  32.439  1.00  0.00     0.015 C 
BRANCH   5   6
ATOM      6  C   UNL     1     -11.216 -17.013  32.347  1.00  0.00     0.028 C 
BRANCH   6   7
ATOM      7  C   UNL     1     -11.922 -18.304  32.002  1.00  0.00    -0.028 C 
ATOM      8  C   UNL     1     -11.880 -18.929  30.800  1.00  0.00    -0.070 CG0
ATOM      9  C   UNL     1     -12.764 -20.134  30.599  1.00  0.00     0.039 C 
ATOM     10  G   UNL     1     -10.988 -18.480  29.652  1.00  0.00     0.000 G0
ENDBRANCH   6   7
ENDBRANCH   5   6
ENDBRANCH   3   5
ENDBRANCH   1   3
BRANCH   1  11
ATOM     11  C   UNL     1     -12.931 -15.168  29.358  1.00  0.00     0.087 C 
BRANCH  11  12
ATOM     12  C   UNL     1     -12.708 -16.595  28.789  1.00  0.00     0.066 C 
BRANCH  12  13
ATOM     13  C   UNL     1     -11.298 -17.103  29.077  1.00  0.00     0.140 C 
ATOM     14  O   UNL     1     -10.351 -16.359  28.865  1.00  0.00    -0.299 OA
BRANCH  13  15
ATOM     15  C   UNL     1     -10.988 -18.477  29.642  1.00  0.00     0.106 CG0
ATOM     16  G   UNL     1     -11.877 -18.938  30.787  1.00  0.00     0.000 G0
ENDBRANCH  13  15
ENDBRANCH  12  13
BRANCH  12  17
ATOM     17  C   UNL     1     -13.059 -16.738  27.275  1.00  0.00    -0.006 C 
ATOM     18  C   UNL     1     -13.911 -15.559  26.777  1.00  0.00     0.008 C 
ATOM     19  C   UNL     1     -11.841 -16.922  26.352  1.00  0.00     0.008 C 
ENDBRANCH  12  17
ENDBRANCH  11  12
ENDBRANCH   1  11
TORSDOF 1
ENDMDL
MODEL 4
REMARK VINA RESULT:    -3.982      1.858      3.935
REMARK INTER + INTRA:          -6.045
REMARK INTER:                  -5.987
REMARK INTRA:                  -0.059
REMARK UNBOUND:                 0.032
REMARK SMILES CC1=CCC[C@@H](C)C(=O)C[C@@H](C(C)C)C(=O)C1
REMARK SMILES IDX 8 1 9 2 6 3 7 4 5 5 4 6 3 7 2 8 1 9 10 11 11 12 15 13 16 14
REMARK SMILES IDX 17 15 12 17 13 18 14 19
REMARK H PARENT
REMARK Flexibility Score: 70.00
ROOT
ATOM      1  C   UNL     1     -11.770 -15.948  30.901  1.00  0.00     0.136 C 
ATOM      2  O   UNL     1     -10.780 -15.817  31.608  1.00  0.00    -0.299 OA
ENDROOT
BRANCH   1   3
ATOM      3  C   UNL     1     -13.020 -16.610  31.460  1.00  0.00     0.053 C 
ATOM      4  C   UNL     1     -13.934 -15.605  32.180  1.00  0.00     0.016 C 
BRANCH   3   5
ATOM      5  C   UNL     1     -12.684 -17.809  32.375  1.00  0.00     0.015 C 
BRANCH   5   6
ATOM      6  C   UNL     1     -12.196 -19.072  31.623  1.00  0.00     0.028 C 
BRANCH   6   7
ATOM      7  C   UNL     1     -13.202 -19.496  30.577  1.00  0.00    -0.028 C 
ATOM      8  C   UNL     1     -13.053 -19.358  29.237  1.00  0.00    -0.070 CG0
ATOM      9  C   UNL     1     -14.226 -19.708  28.356  1.00  0.00     0.039 C 
ATOM     10  G   UNL     1     -11.768 -18.873  28.582  1.00  0.00     0.000 G0
ENDBRANCH   6   7
ENDBRANCH   5   6
ENDBRANCH   3   5
ENDBRANCH   1   3
BRANCH   1  11
ATOM     11  C   UNL     1     -11.704 -15.472  29.467  1.00  0.00     0.087 C 
BRANCH  11  12
ATOM     12  C   UNL     1     -12.623 -16.292  28.522  1.00  0.00     0.066 C 
BRANCH  12  13
ATOM     13  C   UNL     1     -11.888 -17.484  27.916  1.00  0.00     0.140 C 
ATOM     14  O   UNL     1     -11.323 -17.342  26.842  1.00  0.00    -0.299 OA
BRANCH  13  15
ATOM     15  C   UNL     1     -11.788 -18.847  28.577  1.00  0.00     0.106 CG0
ATOM     16  G   UNL     1     -13.056 -19.349  29.253  1.00  0.00     0.000 G0
ENDBRANCH  13  15
ENDBRANCH  12  13
BRANCH  12  17
ATOM     17  C   UNL     1     -13.322 -15.439  27.417  1.00  0.00    -0.006 C 
ATOM     18  C   UNL     1     -14.148 -16.317  26.463  1.00  0.00     0.008 C 
ATOM     19  C   UNL     1     -14.196 -14.292  27.953  1.00  0.00     0.008 C 
ENDBRANCH  12  17
ENDBRANCH  11  12
ENDBRANCH   1  11
TORSDOF 1
ENDMDL
MODEL 5
REMARK VINA RESULT:    -3.746      1.416      4.136
REMARK INTER + INTRA:          -5.686
REMARK INTER:                  -6.041
REMARK INTRA:                   0.355
REMARK UNBOUND:                 0.032
REMARK SMILES CC1=CCC[C@@H](C)C(=O)C[C@@H](C(C)C)C(=O)C1
REMARK SMILES IDX 8 1 9 2 6 3 7 4 5 5 4 6 3 7 2 8 1 9 10 11 11 12 15 13 16 14
REMARK SMILES IDX 17 15 12 17 13 18 14 19
REMARK H PARENT
REMARK Flexibility Score: 70.00
ROOT
ATOM      1  C   UNL     1     -12.025 -19.001  29.408  1.00  0.00     0.136 C 
ATOM      2  O   UNL     1     -10.820 -18.812  29.511  1.00  0.00    -0.299 OA
ENDROOT
BRANCH   1   3
ATOM      3  C   UNL     1     -12.685 -20.128  30.186  1.00  0.00     0.053 C 
ATOM      4  C   UNL     1     -13.902 -20.708  29.446  1.00  0.00     0.016 C 
BRANCH   3   5
ATOM      5  C   UNL     1     -13.063 -19.701  31.623  1.00  0.00     0.015 C 
BRANCH   5   6
ATOM      6  C   UNL     1     -12.425 -18.367  32.082  1.00  0.00     0.028 C 
BRANCH   6   7
ATOM      7  C   UNL     1     -13.470 -17.281  32.191  1.00  0.00    -0.028 C 
ATOM      8  C   UNL     1     -13.394 -16.053  31.622  1.00  0.00    -0.070 CG0
ATOM      9  C   UNL     1     -14.467 -15.050  31.960  1.00  0.00     0.039 C 
ATOM     10  G   UNL     1     -12.288 -15.642  30.661  1.00  0.00     0.000 G0
ENDBRANCH   6   7
ENDBRANCH   5   6
ENDBRANCH   3   5
ENDBRANCH   1   3
BRANCH   1  11
ATOM     11  C   UNL     1     -12.819 -18.116  28.474  1.00  0.00     0.087 C 
BRANCH  11  12
ATOM     12  C   UNL     1     -12.128 -16.751  28.211  1.00  0.00     0.066 C 
BRANCH  12  13
ATOM     13  C   UNL     1     -12.614 -15.677  29.181  1.00  0.00     0.140 C 
ATOM     14  O   UNL     1     -13.342 -14.791  28.758  1.00  0.00    -0.299 OA
BRANCH  13  15
ATOM     15  C   UNL     1     -12.271 -15.648  30.659  1.00  0.00     0.106 CG0
ATOM     16  G   UNL     1     -13.395 -16.040  31.607  1.00  0.00     0.000 G0
ENDBRANCH  13  15
ENDBRANCH  12  13
BRANCH  12  17
ATOM     17  C   UNL     1     -12.227 -16.262  26.733  1.00  0.00    -0.006 C 
ATOM     18  C   UNL     1     -11.216 -16.985  25.828  1.00  0.00     0.008 C 
ATOM     19  C   UNL     1     -13.635 -16.364  26.120  1.00  0.00     0.008 C 
ENDBRANCH  12  17
ENDBRANCH  11  12
ENDBRANCH   1  11
TORSDOF 1
ENDMDL
MODEL 6
REMARK VINA RESULT:    -3.720      1.709      4.786
REMARK INTER + INTRA:          -5.646
REMARK INTER:                  -6.431
REMARK INTRA:                   0.785
REMARK UNBOUND:                 0.032
REMARK SMILES CC1=CCC[C@@H](C)C(=O)C[C@@H](C(C)C)C(=O)C1
REMARK SMILES IDX 8 1 9 2 6 3 7 4 5 5 4 6 3 7 2 8 1 9 10 11 11 12 15 13 16 14
REMARK SMILES IDX 17 15 12 17 13 18 14 19
REMARK H PARENT
REMARK Flexibility Score: 70.00
ROOT
ATOM      1  C   UNL     1     -13.791 -15.220  30.491  1.00  0.00     0.136 C 
ATOM      2  O   UNL     1     -14.506 -14.355  30.001  1.00  0.00    -0.299 OA
ENDROOT
BRANCH   1   3
ATOM      3  C   UNL     1     -13.954 -15.600  31.955  1.00  0.00     0.053 C 
ATOM      4  C   UNL     1     -15.260 -15.052  32.554  1.00  0.00     0.016 C 
BRANCH   3   5
ATOM      5  C   UNL     1     -12.734 -15.178  32.806  1.00  0.00     0.015 C 
BRANCH   5   6
ATOM      6  C   UNL     1     -11.826 -16.351  33.248  1.00  0.00     0.028 C 
BRANCH   6   7
ATOM      7  C   UNL     1     -10.843 -16.711  32.157  1.00  0.00    -0.028 C 
ATOM      8  C   UNL     1     -11.029 -17.664  31.211  1.00  0.00    -0.070 CG0
ATOM      9  C   UNL     1      -9.876 -17.981  30.292  1.00  0.00     0.039 C 
ATOM     10  G   UNL     1     -12.336 -18.422  31.029  1.00  0.00     0.000 G0
ENDBRANCH   6   7
ENDBRANCH   5   6
ENDBRANCH   3   5
ENDBRANCH   1   3
BRANCH   1  11
ATOM     11  C   UNL     1     -12.735 -15.863  29.623  1.00  0.00     0.087 C 
BRANCH  11  12
ATOM     12  C   UNL     1     -13.260 -17.117  28.873  1.00  0.00     0.066 C 
BRANCH  12  13
ATOM     13  C   UNL     1     -12.910 -18.405  29.614  1.00  0.00     0.140 C 
ATOM     14  O   UNL     1     -13.096 -19.475  29.053  1.00  0.00    -0.299 OA
BRANCH  13  15
ATOM     15  C   UNL     1     -12.313 -18.448  31.009  1.00  0.00     0.106 CG0
ATOM     16  G   UNL     1     -11.033 -17.649  31.206  1.00  0.00     0.000 G0
ENDBRANCH  13  15
ENDBRANCH  12  13
BRANCH  12  17
ATOM     17  C   UNL     1     -12.824 -17.193  27.376  1.00  0.00    -0.006 C 
ATOM     18  C   UNL     1     -13.599 -16.187  26.510  1.00  0.00     0.008 C 
ATOM     19  C   UNL     1     -11.313 -17.021  27.143  1.00  0.00     0.008 C 
ENDBRANCH  12  17
ENDBRANCH  11  12
ENDBRANCH   1  11
TORSDOF 1
ENDMDL
MODEL 7
REMARK VINA RESULT:    -3.595      1.482      3.881
REMARK INTER + INTRA:          -5.455
REMARK INTER:                  -5.732
REMARK INTRA:                   0.277
REMARK UNBOUND:                 0.032
REMARK SMILES CC1=CCC[C@@H](C)C(=O)C[C@@H](C(C)C)C(=O)C1
REMARK SMILES IDX 8 1 9 2 6 3 7 4 5 5 4 6 3 7 2 8 1 9 10 11 11 12 15 13 16 14
REMARK SMILES IDX 17 15 12 17 13 18 14 19
REMARK H PARENT
REMARK Flexibility Score: 70.00
ROOT
ATOM      1  C   UNL     1     -13.252 -16.149  32.178  1.00  0.00     0.136 C 
ATOM      2  O   UNL     1     -12.480 -16.067  33.123  1.00  0.00    -0.299 OA
ENDROOT
BRANCH   1   3
ATOM      3  C   UNL     1     -14.139 -14.967  31.817  1.00  0.00     0.053 C 
ATOM      4  C   UNL     1     -15.272 -14.760  32.835  1.00  0.00     0.016 C 
BRANCH   3   5
ATOM      5  C   UNL     1     -14.699 -15.076  30.379  1.00  0.00     0.015 C 
BRANCH   5   6
ATOM      6  C   UNL     1     -13.833 -14.380  29.301  1.00  0.00     0.028 C 
BRANCH   6   7
ATOM      7  C   UNL     1     -13.265 -15.391  28.331  1.00  0.00    -0.028 C 
ATOM      8  C   UNL     1     -12.114 -16.087  28.501  1.00  0.00    -0.070 CG0
ATOM      9  C   UNL     1     -11.634 -16.946  27.359  1.00  0.00     0.039 C 
ATOM     10  G   UNL     1     -11.291 -16.047  29.780  1.00  0.00     0.000 G0
ENDBRANCH   6   7
ENDBRANCH   5   6
ENDBRANCH   3   5
ENDBRANCH   1   3
BRANCH   1  11
ATOM     11  C   UNL     1     -13.324 -17.451  31.412  1.00  0.00     0.087 C 
BRANCH  11  12
ATOM     12  C   UNL     1     -11.947 -18.163  31.315  1.00  0.00     0.066 C 
BRANCH  12  13
ATOM     13  C   UNL     1     -10.976 -17.392  30.425  1.00  0.00     0.140 C 
ATOM     14  O   UNL     1      -9.883 -17.884  30.186  1.00  0.00    -0.299 OA
BRANCH  13  15
ATOM     15  C   UNL     1     -11.287 -16.050  29.788  1.00  0.00     0.106 CG0
ATOM     16  G   UNL     1     -12.105 -16.101  28.506  1.00  0.00     0.000 G0
ENDBRANCH  13  15
ENDBRANCH  12  13
BRANCH  12  17
ATOM     17  C   UNL     1     -12.035 -19.661  30.887  1.00  0.00    -0.006 C 
ATOM     18  C   UNL     1     -12.605 -20.539  32.013  1.00  0.00     0.008 C 
ATOM     19  C   UNL     1     -12.824 -19.908  29.588  1.00  0.00     0.008 C 
ENDBRANCH  12  17
ENDBRANCH  11  12
ENDBRANCH   1  11
TORSDOF 1
ENDMDL
MODEL 8
REMARK VINA RESULT:    -3.579      2.036      5.039
REMARK INTER + INTRA:          -5.431
REMARK INTER:                  -5.784
REMARK INTRA:                   0.353
REMARK UNBOUND:                 0.032
REMARK SMILES CC1=CCC[C@@H](C)C(=O)C[C@@H](C(C)C)C(=O)C1
REMARK SMILES IDX 8 1 9 2 6 3 7 4 5 5 4 6 3 7 2 8 1 9 10 11 11 12 15 13 16 14
REMARK SMILES IDX 17 15 12 17 13 18 14 19
REMARK H PARENT
REMARK Flexibility Score: 70.00
ROOT
ATOM      1  C   UNL     1     -12.173 -17.069  27.567  1.00  0.00     0.136 C 
ATOM      2  O   UNL     1     -11.760 -17.113  26.415  1.00  0.00    -0.299 OA
ENDROOT
BRANCH   1   3
ATOM      3  C   UNL     1     -13.387 -16.219  27.906  1.00  0.00     0.053 C 
ATOM      4  C   UNL     1     -13.950 -15.494  26.672  1.00  0.00     0.016 C 
BRANCH   3   5
ATOM      5  C   UNL     1     -13.098 -15.220  29.050  1.00  0.00     0.015 C 
BRANCH   5   6
ATOM      6  C   UNL     1     -13.933 -15.458  30.333  1.00  0.00     0.028 C 
BRANCH   6   7
ATOM      7  C   UNL     1     -13.129 -15.123  31.568  1.00  0.00    -0.028 C 
ATOM      8  C   UNL     1     -12.636 -16.022  32.455  1.00  0.00    -0.070 CG0
ATOM      9  C   UNL     1     -11.980 -15.494  33.706  1.00  0.00     0.039 C 
ATOM     10  G   UNL     1     -12.708 -17.528  32.251  1.00  0.00     0.000 G0
ENDBRANCH   6   7
ENDBRANCH   5   6
ENDBRANCH   3   5
ENDBRANCH   1   3
BRANCH   1  11
ATOM     11  C   UNL     1     -11.431 -17.844  28.631  1.00  0.00     0.087 C 
BRANCH  11  12
ATOM     12  C   UNL     1     -12.374 -18.405  29.730  1.00  0.00     0.066 C 
BRANCH  12  13
ATOM     13  C   UNL     1     -11.847 -18.109  31.131  1.00  0.00     0.140 C 
ATOM     14  O   UNL     1     -10.665 -18.312  31.369  1.00  0.00    -0.299 OA
BRANCH  13  15
ATOM     15  C   UNL     1     -12.695 -17.548  32.258  1.00  0.00     0.106 CG0
ATOM     16  G   UNL     1     -12.619 -16.041  32.455  1.00  0.00     0.000 G0
ENDBRANCH  13  15
ENDBRANCH  12  13
BRANCH  12  17
ATOM     17  C   UNL     1     -12.715 -19.919  29.564  1.00  0.00    -0.006 C 
ATOM     18  C   UNL     1     -12.803 -20.632  30.923  1.00  0.00     0.008 C 
ATOM     19  C   UNL     1     -13.989 -20.200  28.748  1.00  0.00     0.008 C 
ENDBRANCH  12  17
ENDBRANCH  11  12
ENDBRANCH   1  11
TORSDOF 1
ENDMDL
MODEL 9
REMARK VINA RESULT:    -3.543      2.119      4.574
REMARK INTER + INTRA:          -5.375
REMARK INTER:                  -5.438
REMARK INTRA:                   0.063
REMARK UNBOUND:                 0.032
REMARK SMILES CC1=CCC[C@@H](C)C(=O)C[C@@H](C(C)C)C(=O)C1
REMARK SMILES IDX 8 1 9 2 6 3 7 4 5 5 4 6 3 7 2 8 1 9 10 11 11 12 15 13 16 14
REMARK SMILES IDX 17 15 12 17 13 18 14 19
REMARK H PARENT
REMARK Flexibility Score: 70.00
ROOT
ATOM      1  C   UNL     1     -13.900 -15.263  31.048  1.00  0.00     0.136 C 
ATOM      2  O   UNL     1     -14.763 -14.460  31.376  1.00  0.00    -0.299 OA
ENDROOT
BRANCH   1   3
ATOM      3  C   UNL     1     -13.289 -16.189  32.089  1.00  0.00     0.053 C 
ATOM      4  C   UNL     1     -14.299 -17.226  32.607  1.00  0.00     0.016 C 
BRANCH   3   5
ATOM      5  C   UNL     1     -12.649 -15.407  33.259  1.00  0.00     0.015 C 
BRANCH   5   6
ATOM      6  C   UNL     1     -11.106 -15.517  33.334  1.00  0.00     0.028 C 
BRANCH   6   7
ATOM      7  C   UNL     1     -10.630 -16.815  32.722  1.00  0.00    -0.028 C 
ATOM      8  C   UNL     1     -10.192 -16.973  31.448  1.00  0.00    -0.070 CG0
ATOM      9  C   UNL     1      -9.893 -18.371  30.973  1.00  0.00     0.039 C 
ATOM     10  G   UNL     1      -9.985 -15.814  30.484  1.00  0.00     0.000 G0
ENDBRANCH   6   7
ENDBRANCH   5   6
ENDBRANCH   3   5
ENDBRANCH   1   3
BRANCH   1  11
ATOM     11  C   UNL     1     -13.442 -15.285  29.608  1.00  0.00     0.087 C 
BRANCH  11  12
ATOM     12  C   UNL     1     -12.366 -16.372  29.339  1.00  0.00     0.066 C 
BRANCH  12  13
ATOM     13  C   UNL     1     -10.960 -15.778  29.311  1.00  0.00     0.140 C 
ATOM     14  O   UNL     1     -10.584 -15.209  28.296  1.00  0.00    -0.299 OA
BRANCH  13  15
ATOM     15  C   UNL     1      -9.994 -15.823  30.480  1.00  0.00     0.106 CG0
ATOM     16  G   UNL     1     -10.186 -16.977  31.453  1.00  0.00     0.000 G0
ENDBRANCH  13  15
ENDBRANCH  12  13
BRANCH  12  17
ATOM     17  C   UNL     1     -12.638 -17.237  28.069  1.00  0.00    -0.006 C 
ATOM     18  C   UNL     1     -13.116 -18.650  28.438  1.00  0.00     0.008 C 
ATOM     19  C   UNL     1     -13.618 -16.604  27.065  1.00  0.00     0.008 C 
ENDBRANCH  12  17
ENDBRANCH  11  12
ENDBRANCH   1  11
TORSDOF 1
ENDMDL
