MODEL 1
REMARK VINA RESULT:    -3.816      0.000      0.000
REMARK INTER + INTRA:          -4.562
REMARK INTER:                  -4.485
REMARK INTRA:                  -0.077
REMARK UNBOUND:                -0.077
REMARK SMILES O=C([O-])CCC(=O)[O-]
REMARK SMILES IDX 4 1 2 2 1 3 3 4 5 5 6 6 7 7 8 8
REMARK H PARENT
REMARK Flexibility Score: inf
ROOT
ATOM      1  C   UNL     1     -16.976 -30.982  23.664  1.00  0.00     0.059 C 
ENDROOT
BRANCH   1   2
ATOM      2  C   UNL     1     -16.479 -30.306  22.425  1.00  0.00     0.042 C 
ATOM      3  O   UNL     1     -15.875 -30.969  21.540  1.00  0.00    -0.550 OA
ATOM      4  O   UNL     1     -16.725 -28.954  22.224  1.00  0.00    -0.550 OA
ENDBRANCH   1   2
BRANCH   1   5
ATOM      5  C   UNL     1     -18.308 -30.376  24.106  1.00  0.00     0.059 C 
BRANCH   5   6
ATOM      6  C   UNL     1     -19.448 -31.241  23.669  1.00  0.00     0.042 C 
ATOM      7  O   UNL     1     -19.232 -32.274  22.983  1.00  0.00    -0.550 OA
ATOM      8  O   UNL     1     -20.745 -30.934  24.062  1.00  0.00    -0.550 OA
ENDBRANCH   5   6
ENDBRANCH   1   5
TORSDOF 3
ENDMDL
MODEL 2
REMARK VINA RESULT:    -3.785      0.105      3.761
REMARK INTER + INTRA:          -4.525
REMARK INTER:                  -4.439
REMARK INTRA:                  -0.086
REMARK UNBOUND:                -0.077
REMARK SMILES O=C([O-])CCC(=O)[O-]
REMARK SMILES IDX 4 1 2 2 1 3 3 4 5 5 6 6 7 7 8 8
REMARK H PARENT
REMARK Flexibility Score: inf
ROOT
ATOM      1  C   UNL     1     -18.368 -30.401  24.049  1.00  0.00     0.059 C 
ENDROOT
BRANCH   1   2
ATOM      2  C   UNL     1     -19.496 -31.297  23.643  1.00  0.00     0.042 C 
ATOM      3  O   UNL     1     -20.682 -30.998  23.941  1.00  0.00    -0.550 OA
ATOM      4  O   UNL     1     -19.241 -32.439  22.894  1.00  0.00    -0.550 OA
ENDBRANCH   1   2
BRANCH   1   5
ATOM      5  C   UNL     1     -17.027 -31.009  23.637  1.00  0.00     0.059 C 
BRANCH   5   6
ATOM      6  C   UNL     1     -16.510 -30.346  22.400  1.00  0.00     0.042 C 
ATOM      7  O   UNL     1     -15.875 -31.012  21.542  1.00  0.00    -0.550 OA
ATOM      8  O   UNL     1     -16.772 -29.000  22.170  1.00  0.00    -0.550 OA
ENDBRANCH   5   6
ENDBRANCH   1   5
TORSDOF 3
ENDMDL
MODEL 3
REMARK VINA RESULT:    -3.705      0.342      1.191
REMARK INTER + INTRA:          -4.432
REMARK INTER:                  -4.344
REMARK INTRA:                  -0.088
REMARK UNBOUND:                -0.077
REMARK SMILES O=C([O-])CCC(=O)[O-]
REMARK SMILES IDX 4 1 2 2 1 3 3 4 5 5 6 6 7 7 8 8
REMARK H PARENT
REMARK Flexibility Score: inf
ROOT
ATOM      1  C   UNL     1     -17.230 -30.992  23.622  1.00  0.00     0.059 C 
ENDROOT
BRANCH   1   2
ATOM      2  C   UNL     1     -16.714 -30.310  22.393  1.00  0.00     0.042 C 
ATOM      3  O   UNL     1     -17.003 -29.105  22.169  1.00  0.00    -0.550 OA
ATOM      4  O   UNL     1     -15.875 -30.991  21.521  1.00  0.00    -0.550 OA
ENDBRANCH   1   2
BRANCH   1   5
ATOM      5  C   UNL     1     -18.451 -30.253  24.171  1.00  0.00     0.059 C 
BRANCH   5   6
ATOM      6  C   UNL     1     -19.704 -31.008  23.857  1.00  0.00     0.042 C 
ATOM      7  O   UNL     1     -19.649 -32.087  23.212  1.00  0.00    -0.550 OA
ATOM      8  O   UNL     1     -20.930 -30.544  24.319  1.00  0.00    -0.550 OA
ENDBRANCH   5   6
ENDBRANCH   1   5
TORSDOF 3
ENDMDL
MODEL 4
REMARK VINA RESULT:    -3.491      1.154      3.666
REMARK INTER + INTRA:          -4.180
REMARK INTER:                  -4.073
REMARK INTRA:                  -0.107
REMARK UNBOUND:                -0.077
REMARK SMILES O=C([O-])CCC(=O)[O-]
REMARK SMILES IDX 4 1 2 2 1 3 3 4 5 5 6 6 7 7 8 8
REMARK H PARENT
REMARK Flexibility Score: inf
ROOT
ATOM      1  C   UNL     1     -18.848 -30.203  24.319  1.00  0.00     0.059 C 
ENDROOT
BRANCH   1   2
ATOM      2  C   UNL     1     -20.076 -30.808  23.714  1.00  0.00     0.042 C 
ATOM      3  O   UNL     1     -20.075 -32.015  23.352  1.00  0.00    -0.550 OA
ATOM      4  O   UNL     1     -21.236 -30.054  23.595  1.00  0.00    -0.550 OA
ENDBRANCH   1   2
BRANCH   1   5
ATOM      5  C   UNL     1     -17.936 -29.641  23.228  1.00  0.00     0.059 C 
BRANCH   5   6
ATOM      6  C   UNL     1     -16.897 -30.647  22.844  1.00  0.00     0.042 C 
ATOM      7  O   UNL     1     -16.371 -31.381  23.720  1.00  0.00    -0.550 OA
ATOM      8  O   UNL     1     -16.546 -30.808  21.509  1.00  0.00    -0.550 OA
ENDBRANCH   5   6
ENDBRANCH   1   5
TORSDOF 3
ENDMDL
MODEL 5
REMARK VINA RESULT:    -3.424      1.548      1.935
REMARK INTER + INTRA:          -4.101
REMARK INTER:                  -4.047
REMARK INTRA:                  -0.054
REMARK UNBOUND:                -0.077
REMARK SMILES O=C([O-])CCC(=O)[O-]
REMARK SMILES IDX 4 1 2 2 1 3 3 4 5 5 6 6 7 7 8 8
REMARK H PARENT
REMARK Flexibility Score: inf
ROOT
ATOM      1  C   UNL     1     -18.663 -30.337  24.225  1.00  0.00     0.059 C 
ENDROOT
BRANCH   1   2
ATOM      2  C   UNL     1     -17.374 -30.331  23.464  1.00  0.00     0.042 C 
ATOM      3  O   UNL     1     -16.529 -31.247  23.642  1.00  0.00    -0.550 OA
ATOM      4  O   UNL     1     -17.128 -29.339  22.523  1.00  0.00    -0.550 OA
ENDBRANCH   1   2
BRANCH   1   5
ATOM      5  C   UNL     1     -19.635 -31.352  23.622  1.00  0.00     0.059 C 
BRANCH   5   6
ATOM      6  C   UNL     1     -21.022 -30.791  23.587  1.00  0.00     0.042 C 
ATOM      7  O   UNL     1     -21.212 -29.592  23.257  1.00  0.00    -0.550 OA
ATOM      8  O   UNL     1     -22.110 -31.608  23.870  1.00  0.00    -0.550 OA
ENDBRANCH   5   6
ENDBRANCH   1   5
TORSDOF 3
ENDMDL
MODEL 6
REMARK VINA RESULT:    -3.380      9.262     10.502
REMARK INTER + INTRA:          -4.050
REMARK INTER:                  -3.900
REMARK INTRA:                  -0.150
REMARK UNBOUND:                -0.077
REMARK SMILES O=C([O-])CCC(=O)[O-]
REMARK SMILES IDX 4 1 2 2 1 3 3 4 5 5 6 6 7 7 8 8
REMARK H PARENT
REMARK Flexibility Score: inf
ROOT
ATOM      1  C   UNL     1     -27.884 -32.752  22.025  1.00  0.00     0.059 C 
ENDROOT
BRANCH   1   2
ATOM      2  C   UNL     1     -28.645 -31.480  22.238  1.00  0.00     0.042 C 
ATOM      3  O   UNL     1     -29.903 -31.483  22.213  1.00  0.00    -0.550 OA
ATOM      4  O   UNL     1     -27.964 -30.301  22.513  1.00  0.00    -0.550 OA
ENDBRANCH   1   2
BRANCH   1   5
ATOM      5  C   UNL     1     -28.006 -33.659  23.249  1.00  0.00     0.059 C 
BRANCH   5   6
ATOM      6  C   UNL     1     -27.289 -33.060  24.418  1.00  0.00     0.042 C 
ATOM      7  O   UNL     1     -27.842 -33.020  25.548  1.00  0.00    -0.550 OA
ATOM      8  O   UNL     1     -25.989 -32.590  24.271  1.00  0.00    -0.550 OA
ENDBRANCH   5   6
ENDBRANCH   1   5
TORSDOF 3
ENDMDL
MODEL 7
REMARK VINA RESULT:    -3.362      9.304     10.519
REMARK INTER + INTRA:          -4.028
REMARK INTER:                  -3.872
REMARK INTRA:                  -0.156
REMARK UNBOUND:                -0.077
REMARK SMILES O=C([O-])CCC(=O)[O-]
REMARK SMILES IDX 4 1 2 2 1 3 3 4 5 5 6 6 7 7 8 8
REMARK H PARENT
REMARK Flexibility Score: inf
ROOT
ATOM      1  C   UNL     1     -27.879 -32.672  22.074  1.00  0.00     0.059 C 
ENDROOT
BRANCH   1   2
ATOM      2  C   UNL     1     -28.588 -31.381  22.345  1.00  0.00     0.042 C 
ATOM      3  O   UNL     1     -27.932 -30.314  22.475  1.00  0.00    -0.550 OA
ATOM      4  O   UNL     1     -29.975 -31.350  22.405  1.00  0.00    -0.550 OA
ENDBRANCH   1   2
BRANCH   1   5
ATOM      5  C   UNL     1     -27.996 -33.608  23.277  1.00  0.00     0.059 C 
BRANCH   5   6
ATOM      6  C   UNL     1     -27.336 -33.004  24.476  1.00  0.00     0.042 C 
ATOM      7  O   UNL     1     -27.984 -32.846  25.543  1.00  0.00    -0.550 OA
ATOM      8  O   UNL     1     -25.990 -32.660  24.431  1.00  0.00    -0.550 OA
ENDBRANCH   5   6
ENDBRANCH   1   5
TORSDOF 3
ENDMDL
MODEL 8
REMARK VINA RESULT:    -3.342      9.241     10.465
REMARK INTER + INTRA:          -4.004
REMARK INTER:                  -3.851
REMARK INTRA:                  -0.153
REMARK UNBOUND:                -0.077
REMARK SMILES O=C([O-])CCC(=O)[O-]
REMARK SMILES IDX 4 1 2 2 1 3 3 4 5 5 6 6 7 7 8 8
REMARK H PARENT
REMARK Flexibility Score: inf
ROOT
ATOM      1  C   UNL     1     -27.938 -33.588  23.340  1.00  0.00     0.059 C 
ENDROOT
BRANCH   1   2
ATOM      2  C   UNL     1     -27.272 -32.961  24.525  1.00  0.00     0.042 C 
ATOM      3  O   UNL     1     -27.906 -32.812  25.603  1.00  0.00    -0.550 OA
ATOM      4  O   UNL     1     -25.937 -32.585  24.453  1.00  0.00    -0.550 OA
ENDBRANCH   1   2
BRANCH   1   5
ATOM      5  C   UNL     1     -27.852 -32.662  22.126  1.00  0.00     0.059 C 
BRANCH   5   6
ATOM      6  C   UNL     1     -28.586 -31.385  22.389  1.00  0.00     0.042 C 
ATOM      7  O   UNL     1     -27.953 -30.304  22.510  1.00  0.00    -0.550 OA
ATOM      8  O   UNL     1     -29.974 -31.381  22.451  1.00  0.00    -0.550 OA
ENDBRANCH   5   6
ENDBRANCH   1   5
TORSDOF 3
ENDMDL
MODEL 9
REMARK VINA RESULT:    -3.298      9.337     10.316
REMARK INTER + INTRA:          -3.953
REMARK INTER:                  -3.872
REMARK INTRA:                  -0.081
REMARK UNBOUND:                -0.077
REMARK SMILES O=C([O-])CCC(=O)[O-]
REMARK SMILES IDX 4 1 2 2 1 3 3 4 5 5 6 6 7 7 8 8
REMARK H PARENT
REMARK Flexibility Score: inf
ROOT
ATOM      1  C   UNL     1     -26.684 -32.937  24.345  1.00  0.00     0.059 C 
ENDROOT
BRANCH   1   2
ATOM      2  C   UNL     1     -27.218 -32.559  25.691  1.00  0.00     0.042 C 
ATOM      3  O   UNL     1     -26.770 -33.114  26.729  1.00  0.00    -0.550 OA
ATOM      4  O   UNL     1     -28.174 -31.558  25.803  1.00  0.00    -0.550 OA
ENDBRANCH   1   2
BRANCH   1   5
ATOM      5  C   UNL     1     -27.824 -33.354  23.416  1.00  0.00     0.059 C 
BRANCH   5   6
ATOM      6  C   UNL     1     -28.075 -32.296  22.387  1.00  0.00     0.042 C 
ATOM      7  O   UNL     1     -27.113 -31.656  21.889  1.00  0.00    -0.550 OA
ATOM      8  O   UNL     1     -29.369 -32.051  21.943  1.00  0.00    -0.550 OA
ENDBRANCH   5   6
ENDBRANCH   1   5
TORSDOF 3
ENDMDL
