MODEL 1
REMARK VINA RESULT:    -3.998      0.000      0.000
REMARK INTER + INTRA:          -9.314
REMARK INTER:                  -7.270
REMARK INTRA:                  -2.044
REMARK UNBOUND:                -2.044
REMARK SMILES CCCCCCCCCCCCCCCC(=O)[O-]
REMARK SMILES IDX 9 1 10 2 11 3 12 4 13 5 14 6 15 7 16 8 17 9 18 10 8 11 7 12
REMARK SMILES IDX 6 13 5 14 4 15 3 16 2 17 1 18
REMARK H PARENT
REMARK Flexibility Score: inf
ROOT
ATOM      1  C   UNL     1      18.633   2.868  -4.048  1.00  0.00     0.000 C 
ENDROOT
BRANCH   1   2
ATOM      2  C   UNL     1      19.338   4.215  -3.813  1.00  0.00     0.000 C 
BRANCH   2   3
ATOM      3  C   UNL     1      19.769   4.417  -2.350  1.00  0.00     0.000 C 
BRANCH   3   4
ATOM      4  C   UNL     1      19.030   5.596  -1.683  1.00  0.00     0.000 C 
BRANCH   4   5
ATOM      5  C   UNL     1      17.940   5.157  -0.690  1.00  0.00     0.000 C 
BRANCH   5   6
ATOM      6  C   UNL     1      18.120   3.708  -0.208  1.00  0.00     0.006 C 
BRANCH   6   7
ATOM      7  C   UNL     1      16.903   2.832  -0.534  1.00  0.00     0.053 C 
BRANCH   7   8
ATOM      8  C   UNL     1      15.914   2.810   0.592  1.00  0.00     0.041 C 
ATOM      9  O   UNL     1      14.704   3.082   0.379  1.00  0.00    -0.550 OA
ATOM     10  O   UNL     1      16.336   2.516   1.882  1.00  0.00    -0.550 OA
ENDBRANCH   7   8
ENDBRANCH   6   7
ENDBRANCH   5   6
ENDBRANCH   4   5
ENDBRANCH   3   4
ENDBRANCH   2   3
ENDBRANCH   1   2
BRANCH   1  11
ATOM     11  C   UNL     1      17.116   2.963  -4.311  1.00  0.00     0.000 C 
BRANCH  11  12
ATOM     12  C   UNL     1      16.588   2.036  -5.421  1.00  0.00    -0.000 C 
BRANCH  12  13
ATOM     13  C   UNL     1      15.888   2.799  -6.554  1.00  0.00    -0.000 C 
BRANCH  13  14
ATOM     14  C   UNL     1      15.609   4.252  -6.144  1.00  0.00    -0.000 C 
BRANCH  14  15
ATOM     15  C   UNL     1      16.223   5.276  -7.115  1.00  0.00    -0.000 C 
BRANCH  15  16
ATOM     16  C   UNL     1      17.756   5.417  -7.034  1.00  0.00    -0.000 C 
BRANCH  16  17
ATOM     17  C   UNL     1      18.533   4.719  -8.165  1.00  0.00    -0.003 C 
ATOM     18  C   UNL     1      19.387   3.554  -7.667  1.00  0.00     0.004 C 
ENDBRANCH  16  17
ENDBRANCH  15  16
ENDBRANCH  14  15
ENDBRANCH  13  14
ENDBRANCH  12  13
ENDBRANCH  11  12
ENDBRANCH   1  11
TORSDOF 14
ENDMDL
MODEL 2
REMARK VINA RESULT:    -3.922      3.276      7.223
REMARK INTER + INTRA:          -9.176
REMARK INTER:                  -7.631
REMARK INTRA:                  -1.545
REMARK UNBOUND:                -2.044
REMARK SMILES CCCCCCCCCCCCCCCC(=O)[O-]
REMARK SMILES IDX 9 1 10 2 11 3 12 4 13 5 14 6 15 7 16 8 17 9 18 10 8 11 7 12
REMARK SMILES IDX 6 13 5 14 4 15 3 16 2 17 1 18
REMARK H PARENT
REMARK Flexibility Score: inf
ROOT
ATOM      1  C   UNL     1      19.293   3.687  -1.756  1.00  0.00     0.000 C 
ENDROOT
BRANCH   1   2
ATOM      2  C   UNL     1      17.836   3.445  -2.189  1.00  0.00     0.000 C 
BRANCH   2   3
ATOM      3  C   UNL     1      17.702   2.319  -3.229  1.00  0.00     0.000 C 
BRANCH   3   4
ATOM      4  C   UNL     1      17.766   2.853  -4.676  1.00  0.00     0.000 C 
BRANCH   4   5
ATOM      5  C   UNL     1      16.992   1.988  -5.686  1.00  0.00     0.000 C 
BRANCH   5   6
ATOM      6  C   UNL     1      15.888   2.769  -6.417  1.00  0.00     0.006 C 
BRANCH   6   7
ATOM      7  C   UNL     1      15.546   4.088  -5.713  1.00  0.00     0.053 C 
BRANCH   7   8
ATOM      8  C   UNL     1      15.544   5.245  -6.666  1.00  0.00     0.041 C 
ATOM      9  O   UNL     1      14.595   6.073  -6.656  1.00  0.00    -0.550 OA
ATOM     10  O   UNL     1      16.575   5.392  -7.584  1.00  0.00    -0.550 OA
ENDBRANCH   7   8
ENDBRANCH   6   7
ENDBRANCH   5   6
ENDBRANCH   4   5
ENDBRANCH   3   4
ENDBRANCH   2   3
ENDBRANCH   1   2
BRANCH   1  11
ATOM     11  C   UNL     1      19.528   4.983  -0.954  1.00  0.00     0.000 C 
BRANCH  11  12
ATOM     12  C   UNL     1      18.249   5.731  -0.534  1.00  0.00    -0.000 C 
BRANCH  12  13
ATOM     13  C   UNL     1      18.261   6.155   0.941  1.00  0.00    -0.000 C 
BRANCH  13  14
ATOM     14  C   UNL     1      18.763   5.012   1.834  1.00  0.00    -0.000 C 
BRANCH  14  15
ATOM     15  C   UNL     1      17.621   4.155   2.409  1.00  0.00    -0.000 C 
BRANCH  15  16
ATOM     16  C   UNL     1      17.460   2.763   1.766  1.00  0.00    -0.000 C 
BRANCH  16  17
ATOM     17  C   UNL     1      16.005   2.331   1.510  1.00  0.00    -0.003 C 
ATOM     18  C   UNL     1      15.349   3.101   0.365  1.00  0.00     0.004 C 
ENDBRANCH  16  17
ENDBRANCH  15  16
ENDBRANCH  14  15
ENDBRANCH  13  14
ENDBRANCH  12  13
ENDBRANCH  11  12
ENDBRANCH   1  11
TORSDOF 14
ENDMDL
MODEL 3
REMARK VINA RESULT:    -3.817      3.062      7.161
REMARK INTER + INTRA:          -8.986
REMARK INTER:                  -7.249
REMARK INTRA:                  -1.736
REMARK UNBOUND:                -2.044
REMARK SMILES CCCCCCCCCCCCCCCC(=O)[O-]
REMARK SMILES IDX 9 1 10 2 11 3 12 4 13 5 14 6 15 7 16 8 17 9 18 10 8 11 7 12
REMARK SMILES IDX 6 13 5 14 4 15 3 16 2 17 1 18
REMARK H PARENT
REMARK Flexibility Score: inf
ROOT
ATOM      1  C   UNL     1      18.212   5.583  -0.550  1.00  0.00     0.000 C 
ENDROOT
BRANCH   1   2
ATOM      2  C   UNL     1      19.575   5.213  -1.162  1.00  0.00     0.000 C 
BRANCH   2   3
ATOM      3  C   UNL     1      19.540   3.884  -1.938  1.00  0.00     0.000 C 
BRANCH   3   4
ATOM      4  C   UNL     1      18.241   3.721  -2.754  1.00  0.00     0.000 C 
BRANCH   4   5
ATOM      5  C   UNL     1      17.919   2.260  -3.112  1.00  0.00     0.000 C 
BRANCH   5   6
ATOM      6  C   UNL     1      17.148   2.125  -4.435  1.00  0.00     0.006 C 
BRANCH   6   7
ATOM      7  C   UNL     1      17.158   3.427  -5.247  1.00  0.00     0.053 C 
BRANCH   7   8
ATOM      8  C   UNL     1      15.924   3.571  -6.086  1.00  0.00     0.041 C 
ATOM      9  O   UNL     1      15.339   2.551  -6.533  1.00  0.00    -0.550 OA
ATOM     10  O   UNL     1      15.439   4.835  -6.399  1.00  0.00    -0.550 OA
ENDBRANCH   7   8
ENDBRANCH   6   7
ENDBRANCH   5   6
ENDBRANCH   4   5
ENDBRANCH   3   4
ENDBRANCH   2   3
ENDBRANCH   1   2
BRANCH   1  11
ATOM     11  C   UNL     1      18.271   6.135   0.888  1.00  0.00     0.000 C 
BRANCH  11  12
ATOM     12  C   UNL     1      19.480   5.664   1.718  1.00  0.00    -0.000 C 
BRANCH  12  13
ATOM     13  C   UNL     1      19.075   4.852   2.956  1.00  0.00    -0.000 C 
BRANCH  13  14
ATOM     14  C   UNL     1      17.560   4.605   2.976  1.00  0.00    -0.000 C 
BRANCH  14  15
ATOM     15  C   UNL     1      17.195   3.111   2.914  1.00  0.00    -0.000 C 
BRANCH  15  16
ATOM     16  C   UNL     1      17.692   2.368   1.658  1.00  0.00    -0.000 C 
BRANCH  16  17
ATOM     17  C   UNL     1      16.813   2.550   0.407  1.00  0.00    -0.003 C 
ATOM     18  C   UNL     1      15.338   2.761   0.743  1.00  0.00     0.004 C 
ENDBRANCH  16  17
ENDBRANCH  15  16
ENDBRANCH  14  15
ENDBRANCH  13  14
ENDBRANCH  12  13
ENDBRANCH  11  12
ENDBRANCH   1  11
TORSDOF 14
ENDMDL
MODEL 4
REMARK VINA RESULT:    -3.782      1.470      2.466
REMARK INTER + INTRA:          -8.921
REMARK INTER:                  -7.426
REMARK INTRA:                  -1.495
REMARK UNBOUND:                -2.044
REMARK SMILES CCCCCCCCCCCCCCCC(=O)[O-]
REMARK SMILES IDX 9 1 10 2 11 3 12 4 13 5 14 6 15 7 16 8 17 9 18 10 8 11 7 12
REMARK SMILES IDX 6 13 5 14 4 15 3 16 2 17 1 18
REMARK H PARENT
REMARK Flexibility Score: inf
ROOT
ATOM      1  C   UNL     1      17.489   2.564  -3.453  1.00  0.00     0.000 C 
ENDROOT
BRANCH   1   2
ATOM      2  C   UNL     1      18.655   3.566  -3.521  1.00  0.00     0.000 C 
BRANCH   2   3
ATOM      3  C   UNL     1      19.783   3.237  -2.527  1.00  0.00     0.000 C 
BRANCH   3   4
ATOM      4  C   UNL     1      19.408   2.074  -1.584  1.00  0.00     0.000 C 
BRANCH   4   5
ATOM      5  C   UNL     1      19.424   2.460  -0.095  1.00  0.00     0.000 C 
BRANCH   5   6
ATOM      6  C   UNL     1      18.056   2.281   0.583  1.00  0.00     0.006 C 
BRANCH   6   7
ATOM      7  C   UNL     1      17.310   3.613   0.744  1.00  0.00     0.053 C 
BRANCH   7   8
ATOM      8  C   UNL     1      16.021   3.627  -0.021  1.00  0.00     0.041 C 
ATOM      9  O   UNL     1      15.924   4.291  -1.086  1.00  0.00    -0.550 OA
ATOM     10  O   UNL     1      14.919   2.931   0.458  1.00  0.00    -0.550 OA
ENDBRANCH   7   8
ENDBRANCH   6   7
ENDBRANCH   5   6
ENDBRANCH   4   5
ENDBRANCH   3   4
ENDBRANCH   2   3
ENDBRANCH   1   2
BRANCH   1  11
ATOM     11  C   UNL     1      17.061   1.970  -4.810  1.00  0.00     0.000 C 
BRANCH  11  12
ATOM     12  C   UNL     1      17.966   2.342  -5.999  1.00  0.00    -0.000 C 
BRANCH  12  13
ATOM     13  C   UNL     1      17.257   2.210  -7.354  1.00  0.00    -0.000 C 
BRANCH  13  14
ATOM     14  C   UNL     1      17.424   3.489  -8.186  1.00  0.00    -0.000 C 
BRANCH  14  15
ATOM     15  C   UNL     1      17.706   4.732  -7.323  1.00  0.00    -0.000 C 
BRANCH  15  16
ATOM     16  C   UNL     1      16.522   5.710  -7.179  1.00  0.00    -0.000 C 
BRANCH  16  17
ATOM     17  C   UNL     1      15.303   5.147  -6.427  1.00  0.00    -0.003 C 
ATOM     18  C   UNL     1      14.011   5.896  -6.745  1.00  0.00     0.004 C 
ENDBRANCH  16  17
ENDBRANCH  15  16
ENDBRANCH  14  15
ENDBRANCH  13  14
ENDBRANCH  12  13
ENDBRANCH  11  12
ENDBRANCH   1  11
TORSDOF 14
ENDMDL
MODEL 5
REMARK VINA RESULT:    -3.741      1.965      3.482
REMARK INTER + INTRA:          -8.847
REMARK INTER:                  -7.637
REMARK INTRA:                  -1.210
REMARK UNBOUND:                -2.044
REMARK SMILES CCCCCCCCCCCCCCCC(=O)[O-]
REMARK SMILES IDX 9 1 10 2 11 3 12 4 13 5 14 6 15 7 16 8 17 9 18 10 8 11 7 12
REMARK SMILES IDX 6 13 5 14 4 15 3 16 2 17 1 18
REMARK H PARENT
REMARK Flexibility Score: inf
ROOT
ATOM      1  C   UNL     1      17.628   4.415  -0.749  1.00  0.00     0.000 C 
ENDROOT
BRANCH   1   2
ATOM      2  C   UNL     1      18.464   5.672  -0.451  1.00  0.00     0.000 C 
BRANCH   2   3
ATOM      3  C   UNL     1      18.241   6.215   0.972  1.00  0.00     0.000 C 
BRANCH   3   4
ATOM      4  C   UNL     1      19.492   6.051   1.860  1.00  0.00     0.000 C 
BRANCH   4   5
ATOM      5  C   UNL     1      19.244   5.205   3.121  1.00  0.00     0.000 C 
BRANCH   5   6
ATOM      6  C   UNL     1      17.864   4.528   3.124  1.00  0.00     0.006 C 
BRANCH   6   7
ATOM      7  C   UNL     1      17.954   3.026   2.821  1.00  0.00     0.053 C 
BRANCH   7   8
ATOM      8  C   UNL     1      16.600   2.389   2.745  1.00  0.00     0.041 C 
ATOM      9  O   UNL     1      15.984   2.339   1.649  1.00  0.00    -0.550 OA
ATOM     10  O   UNL     1      16.007   1.876   3.892  1.00  0.00    -0.550 OA
ENDBRANCH   7   8
ENDBRANCH   6   7
ENDBRANCH   5   6
ENDBRANCH   4   5
ENDBRANCH   3   4
ENDBRANCH   2   3
ENDBRANCH   1   2
BRANCH   1  11
ATOM     11  C   UNL     1      18.440   3.114  -0.909  1.00  0.00     0.000 C 
BRANCH  11  12
ATOM     12  C   UNL     1      18.483   2.545  -2.339  1.00  0.00    -0.000 C 
BRANCH  12  13
ATOM     13  C   UNL     1      17.212   2.852  -3.142  1.00  0.00    -0.000 C 
BRANCH  13  14
ATOM     14  C   UNL     1      17.540   3.058  -4.628  1.00  0.00    -0.000 C 
BRANCH  14  15
ATOM     15  C   UNL     1      16.589   2.290  -5.564  1.00  0.00    -0.000 C 
BRANCH  15  16
ATOM     16  C   UNL     1      15.609   3.170  -6.366  1.00  0.00    -0.000 C 
BRANCH  16  17
ATOM     17  C   UNL     1      15.934   4.674  -6.362  1.00  0.00    -0.003 C 
ATOM     18  C   UNL     1      14.708   5.548  -6.619  1.00  0.00     0.004 C 
ENDBRANCH  16  17
ENDBRANCH  15  16
ENDBRANCH  14  15
ENDBRANCH  13  14
ENDBRANCH  12  13
ENDBRANCH  11  12
ENDBRANCH   1  11
TORSDOF 14
ENDMDL
MODEL 6
REMARK VINA RESULT:    -3.740      2.345      3.702
REMARK INTER + INTRA:          -8.845
REMARK INTER:                  -7.635
REMARK INTRA:                  -1.210
REMARK UNBOUND:                -2.044
REMARK SMILES CCCCCCCCCCCCCCCC(=O)[O-]
REMARK SMILES IDX 9 1 10 2 11 3 12 4 13 5 14 6 15 7 16 8 17 9 18 10 8 11 7 12
REMARK SMILES IDX 6 13 5 14 4 15 3 16 2 17 1 18
REMARK H PARENT
REMARK Flexibility Score: inf
ROOT
ATOM      1  C   UNL     1      17.716   3.240  -0.761  1.00  0.00     0.000 C 
ENDROOT
BRANCH   1   2
ATOM      2  C   UNL     1      17.166   4.678  -0.751  1.00  0.00     0.000 C 
BRANCH   2   3
ATOM      3  C   UNL     1      18.262   5.735  -0.532  1.00  0.00     0.000 C 
BRANCH   3   4
ATOM      4  C   UNL     1      18.258   6.288   0.909  1.00  0.00     0.000 C 
BRANCH   4   5
ATOM      5  C   UNL     1      19.430   5.781   1.765  1.00  0.00     0.000 C 
BRANCH   5   6
ATOM      6  C   UNL     1      19.096   4.490   2.530  1.00  0.00     0.006 C 
BRANCH   6   7
ATOM      7  C   UNL     1      17.645   4.470   3.030  1.00  0.00     0.053 C 
BRANCH   7   8
ATOM      8  C   UNL     1      17.552   4.014   4.454  1.00  0.00     0.041 C 
ATOM      9  O   UNL     1      16.560   3.343   4.841  1.00  0.00    -0.550 OA
ATOM     10  O   UNL     1      18.547   4.356   5.361  1.00  0.00    -0.550 OA
ENDBRANCH   7   8
ENDBRANCH   6   7
ENDBRANCH   5   6
ENDBRANCH   4   5
ENDBRANCH   3   4
ENDBRANCH   2   3
ENDBRANCH   1   2
BRANCH   1  11
ATOM     11  C   UNL     1      19.052   3.059  -1.510  1.00  0.00     0.000 C 
BRANCH  11  12
ATOM     12  C   UNL     1      18.935   2.410  -2.902  1.00  0.00    -0.000 C 
BRANCH  12  13
ATOM     13  C   UNL     1      18.519   3.407  -3.992  1.00  0.00    -0.000 C 
BRANCH  13  14
ATOM     14  C   UNL     1      17.164   3.019  -4.600  1.00  0.00    -0.000 C 
BRANCH  14  15
ATOM     15  C   UNL     1      16.853   3.776  -5.904  1.00  0.00    -0.000 C 
BRANCH  15  16
ATOM     16  C   UNL     1      15.388   4.227  -6.066  1.00  0.00    -0.000 C 
BRANCH  16  17
ATOM     17  C   UNL     1      15.204   5.665  -6.581  1.00  0.00    -0.003 C 
ATOM     18  C   UNL     1      13.741   6.021  -6.841  1.00  0.00     0.004 C 
ENDBRANCH  16  17
ENDBRANCH  15  16
ENDBRANCH  14  15
ENDBRANCH  13  14
ENDBRANCH  12  13
ENDBRANCH  11  12
ENDBRANCH   1  11
TORSDOF 14
ENDMDL
MODEL 7
REMARK VINA RESULT:    -3.708      9.153     11.249
REMARK INTER + INTRA:          -8.787
REMARK INTER:                  -6.947
REMARK INTRA:                  -1.840
REMARK UNBOUND:                -2.044
REMARK SMILES CCCCCCCCCCCCCCCC(=O)[O-]
REMARK SMILES IDX 9 1 10 2 11 3 12 4 13 5 14 6 15 7 16 8 17 9 18 10 8 11 7 12
REMARK SMILES IDX 6 13 5 14 4 15 3 16 2 17 1 18
REMARK H PARENT
REMARK Flexibility Score: inf
ROOT
ATOM      1  C   UNL     1      16.370  12.908  -9.013  1.00  0.00     0.000 C 
ENDROOT
BRANCH   1   2
ATOM      2  C   UNL     1      14.894  13.130  -8.636  1.00  0.00     0.000 C 
BRANCH   2   3
ATOM      3  C   UNL     1      14.674  13.222  -7.115  1.00  0.00     0.000 C 
BRANCH   3   4
ATOM      4  C   UNL     1      15.977  13.553  -6.357  1.00  0.00     0.000 C 
BRANCH   4   5
ATOM      5  C   UNL     1      16.034  14.999  -5.835  1.00  0.00     0.000 C 
BRANCH   5   6
ATOM      6  C   UNL     1      17.361  15.328  -5.132  1.00  0.00     0.006 C 
BRANCH   6   7
ATOM      7  C   UNL     1      18.144  14.064  -4.751  1.00  0.00     0.053 C 
BRANCH   7   8
ATOM      8  C   UNL     1      19.378  14.388  -3.965  1.00  0.00     0.041 C 
ATOM      9  O   UNL     1      19.960  13.492  -3.300  1.00  0.00    -0.550 OA
ATOM     10  O   UNL     1      19.869  15.688  -3.945  1.00  0.00    -0.550 OA
ENDBRANCH   7   8
ENDBRANCH   6   7
ENDBRANCH   5   6
ENDBRANCH   4   5
ENDBRANCH   3   4
ENDBRANCH   2   3
ENDBRANCH   1   2
BRANCH   1  11
ATOM     11  C   UNL     1      16.908  13.842 -10.115  1.00  0.00     0.000 C 
BRANCH  11  12
ATOM     12  C   UNL     1      17.565  15.139  -9.607  1.00  0.00    -0.000 C 
BRANCH  12  13
ATOM     13  C   UNL     1      18.553  14.897  -8.457  1.00  0.00    -0.000 C 
BRANCH  13  14
ATOM     14  C   UNL     1      19.778  14.113  -8.945  1.00  0.00    -0.000 C 
BRANCH  14  15
ATOM     15  C   UNL     1      20.125  12.918  -8.038  1.00  0.00    -0.000 C 
BRANCH  15  16
ATOM     16  C   UNL     1      19.299  11.642  -8.294  1.00  0.00    -0.000 C 
BRANCH  16  17
ATOM     17  C   UNL     1      19.445  10.548  -7.222  1.00  0.00    -0.003 C 
ATOM     18  C   UNL     1      19.724  11.113  -5.830  1.00  0.00     0.004 C 
ENDBRANCH  16  17
ENDBRANCH  15  16
ENDBRANCH  14  15
ENDBRANCH  13  14
ENDBRANCH  12  13
ENDBRANCH  11  12
ENDBRANCH   1  11
TORSDOF 14
ENDMDL
MODEL 8
REMARK VINA RESULT:    -3.669      1.652      2.866
REMARK INTER + INTRA:          -8.717
REMARK INTER:                  -7.310
REMARK INTRA:                  -1.407
REMARK UNBOUND:                -2.044
REMARK SMILES CCCCCCCCCCCCCCCC(=O)[O-]
REMARK SMILES IDX 9 1 10 2 11 3 12 4 13 5 14 6 15 7 16 8 17 9 18 10 8 11 7 12
REMARK SMILES IDX 6 13 5 14 4 15 3 16 2 17 1 18
REMARK H PARENT
REMARK Flexibility Score: inf
ROOT
ATOM      1  C   UNL     1      17.384   2.923  -3.931  1.00  0.00     0.000 C 
ENDROOT
BRANCH   1   2
ATOM      2  C   UNL     1      18.609   3.850  -3.849  1.00  0.00     0.000 C 
BRANCH   2   3
ATOM      3  C   UNL     1      19.711   3.304  -2.924  1.00  0.00     0.000 C 
BRANCH   3   4
ATOM      4  C   UNL     1      19.413   3.582  -1.436  1.00  0.00     0.000 C 
BRANCH   4   5
ATOM      5  C   UNL     1      19.504   5.070  -1.057  1.00  0.00     0.000 C 
BRANCH   5   6
ATOM      6  C   UNL     1      18.207   5.608  -0.431  1.00  0.00     0.006 C 
BRANCH   6   7
ATOM      7  C   UNL     1      18.417   6.099   1.007  1.00  0.00     0.053 C 
BRANCH   7   8
ATOM      8  C   UNL     1      18.002   5.070   2.015  1.00  0.00     0.041 C 
ATOM      9  O   UNL     1      18.378   5.166   3.212  1.00  0.00    -0.550 OA
ATOM     10  O   UNL     1      17.222   3.989   1.624  1.00  0.00    -0.550 OA
ENDBRANCH   7   8
ENDBRANCH   6   7
ENDBRANCH   5   6
ENDBRANCH   4   5
ENDBRANCH   3   4
ENDBRANCH   2   3
ENDBRANCH   1   2
BRANCH   1  11
ATOM     11  C   UNL     1      17.241   2.147  -5.255  1.00  0.00     0.000 C 
BRANCH  11  12
ATOM     12  C   UNL     1      18.423   2.299  -6.230  1.00  0.00    -0.000 C 
BRANCH  12  13
ATOM     13  C   UNL     1      17.979   2.651  -7.657  1.00  0.00    -0.000 C 
BRANCH  13  14
ATOM     14  C   UNL     1      18.252   4.130  -7.965  1.00  0.00    -0.000 C 
BRANCH  14  15
ATOM     15  C   UNL     1      16.963   4.950  -8.149  1.00  0.00    -0.000 C 
BRANCH  15  16
ATOM     16  C   UNL     1      16.400   5.582  -6.860  1.00  0.00    -0.000 C 
BRANCH  16  17
ATOM     17  C   UNL     1      15.008   5.076  -6.443  1.00  0.00    -0.003 C 
ATOM     18  C   UNL     1      13.883   6.025  -6.854  1.00  0.00     0.004 C 
ENDBRANCH  16  17
ENDBRANCH  15  16
ENDBRANCH  14  15
ENDBRANCH  13  14
ENDBRANCH  12  13
ENDBRANCH  11  12
ENDBRANCH   1  11
TORSDOF 14
ENDMDL
MODEL 9
REMARK VINA RESULT:    -3.634      3.076      7.549
REMARK INTER + INTRA:          -8.653
REMARK INTER:                  -7.087
REMARK INTRA:                  -1.566
REMARK UNBOUND:                -2.044
REMARK SMILES CCCCCCCCCCCCCCCC(=O)[O-]
REMARK SMILES IDX 9 1 10 2 11 3 12 4 13 5 14 6 15 7 16 8 17 9 18 10 8 11 7 12
REMARK SMILES IDX 6 13 5 14 4 15 3 16 2 17 1 18
REMARK H PARENT
REMARK Flexibility Score: inf
ROOT
ATOM      1  C   UNL     1      17.670   4.986  -0.775  1.00  0.00     0.000 C 
ENDROOT
BRANCH   1   2
ATOM      2  C   UNL     1      18.411   3.934  -1.620  1.00  0.00     0.000 C 
BRANCH   2   3
ATOM      3  C   UNL     1      17.496   2.786  -2.080  1.00  0.00     0.000 C 
BRANCH   3   4
ATOM      4  C   UNL     1      17.740   2.403  -3.555  1.00  0.00     0.000 C 
BRANCH   4   5
ATOM      5  C   UNL     1      18.353   3.538  -4.392  1.00  0.00     0.000 C 
BRANCH   5   6
ATOM      6  C   UNL     1      18.045   3.407  -5.893  1.00  0.00     0.006 C 
BRANCH   6   7
ATOM      7  C   UNL     1      17.134   4.533  -6.399  1.00  0.00     0.053 C 
BRANCH   7   8
ATOM      8  C   UNL     1      15.691   4.130  -6.389  1.00  0.00     0.041 C 
ATOM      9  O   UNL     1      15.372   2.913  -6.420  1.00  0.00    -0.550 OA
ATOM     10  O   UNL     1      14.697   5.101  -6.375  1.00  0.00    -0.550 OA
ENDBRANCH   7   8
ENDBRANCH   6   7
ENDBRANCH   5   6
ENDBRANCH   4   5
ENDBRANCH   3   4
ENDBRANCH   2   3
ENDBRANCH   1   2
BRANCH   1  11
ATOM     11  C   UNL     1      18.581   5.965  -0.007  1.00  0.00     0.000 C 
BRANCH  11  12
ATOM     12  C   UNL     1      18.254   6.120   1.490  1.00  0.00    -0.000 C 
BRANCH  12  13
ATOM     13  C   UNL     1      19.300   5.462   2.401  1.00  0.00    -0.000 C 
BRANCH  13  14
ATOM     14  C   UNL     1      18.648   4.927   3.684  1.00  0.00    -0.000 C 
BRANCH  14  15
ATOM     15  C   UNL     1      17.581   3.851   3.410  1.00  0.00    -0.000 C 
BRANCH  15  16
ATOM     16  C   UNL     1      18.121   2.528   2.832  1.00  0.00    -0.000 C 
BRANCH  16  17
ATOM     17  C   UNL     1      17.456   2.073   1.521  1.00  0.00    -0.003 C 
ATOM     18  C   UNL     1      15.999   2.519   1.408  1.00  0.00     0.004 C 
ENDBRANCH  16  17
ENDBRANCH  15  16
ENDBRANCH  14  15
ENDBRANCH  13  14
ENDBRANCH  12  13
ENDBRANCH  11  12
ENDBRANCH   1  11
TORSDOF 14
ENDMDL
