MODEL 1
REMARK VINA RESULT:    -3.760      0.000      0.000
REMARK INTER + INTRA:          -5.014
REMARK INTER:                  -4.859
REMARK INTRA:                  -0.154
REMARK UNBOUND:                -0.154
REMARK SMILES CCCCCCC=O
REMARK SMILES IDX 4 1 3 2 2 3 1 4 5 5 6 6 7 7 8 8
REMARK H PARENT
REMARK Flexibility Score: inf
ROOT
ATOM      1  C   UNL     1      25.725  56.550  -8.627  1.00  0.00     0.000 C 
ENDROOT
BRANCH   1   2
ATOM      2  C   UNL     1      24.940  57.866  -8.752  1.00  0.00    -0.000 C 
BRANCH   2   3
ATOM      3  C   UNL     1      25.817  59.034  -9.227  1.00  0.00    -0.003 C 
ATOM      4  C   UNL     1      26.935  58.545 -10.143  1.00  0.00     0.004 C 
ENDBRANCH   2   3
ENDBRANCH   1   2
BRANCH   1   5
ATOM      5  C   UNL     1      24.836  55.367  -8.215  1.00  0.00     0.008 C 
BRANCH   5   6
ATOM      6  C   UNL     1      23.666  55.839  -7.345  1.00  0.00     0.072 C 
BRANCH   6   7
ATOM      7  C   UNL     1      22.675  54.735  -7.118  1.00  0.00     0.224 C 
ATOM      8  O   UNL     1      22.231  54.536  -5.999  1.00  0.00    -0.303 OA
ENDBRANCH   6   7
ENDBRANCH   5   6
ENDBRANCH   1   5
TORSDOF 5
ENDMDL
MODEL 2
REMARK VINA RESULT:    -3.596      3.611      5.709
REMARK INTER + INTRA:          -4.802
REMARK INTER:                  -4.751
REMARK INTRA:                  -0.051
REMARK UNBOUND:                -0.154
REMARK SMILES CCCCCCC=O
REMARK SMILES IDX 4 1 3 2 2 3 1 4 5 5 6 6 7 7 8 8
REMARK H PARENT
REMARK Flexibility Score: inf
ROOT
ATOM      1  C   UNL     1      25.852  57.168  -8.978  1.00  0.00     0.000 C 
ENDROOT
BRANCH   1   2
ATOM      2  C   UNL     1      24.444  56.865  -8.440  1.00  0.00    -0.000 C 
BRANCH   2   3
ATOM      3  C   UNL     1      24.220  55.368  -8.181  1.00  0.00    -0.003 C 
ATOM      4  C   UNL     1      23.108  55.147  -7.161  1.00  0.00     0.004 C 
ENDBRANCH   2   3
ENDBRANCH   1   2
BRANCH   1   5
ATOM      5  C   UNL     1      26.023  58.636  -9.396  1.00  0.00     0.008 C 
BRANCH   5   6
ATOM      6  C   UNL     1      27.195  58.795 -10.370  1.00  0.00     0.072 C 
BRANCH   6   7
ATOM      7  C   UNL     1      28.013  60.010 -10.043  1.00  0.00     0.224 C 
ATOM      8  O   UNL     1      28.024  60.960 -10.809  1.00  0.00    -0.303 OA
ENDBRANCH   6   7
ENDBRANCH   5   6
ENDBRANCH   1   5
TORSDOF 5
ENDMDL
MODEL 3
REMARK VINA RESULT:    -3.532      1.361      2.253
REMARK INTER + INTRA:          -4.719
REMARK INTER:                  -4.611
REMARK INTRA:                  -0.108
REMARK UNBOUND:                -0.154
REMARK SMILES CCCCCCC=O
REMARK SMILES IDX 4 1 3 2 2 3 1 4 5 5 6 6 7 7 8 8
REMARK H PARENT
REMARK Flexibility Score: inf
ROOT
ATOM      1  C   UNL     1      26.049  58.569  -9.368  1.00  0.00     0.000 C 
ENDROOT
BRANCH   1   2
ATOM      2  C   UNL     1      27.165  58.736 -10.412  1.00  0.00    -0.000 C 
BRANCH   2   3
ATOM      3  C   UNL     1      27.756  60.153 -10.426  1.00  0.00    -0.003 C 
ATOM      4  C   UNL     1      27.120  61.024  -9.347  1.00  0.00     0.004 C 
ENDBRANCH   2   3
ENDBRANCH   1   2
BRANCH   1   5
ATOM      5  C   UNL     1      25.814  57.102  -8.982  1.00  0.00     0.008 C 
BRANCH   5   6
ATOM      6  C   UNL     1      24.357  56.871  -8.567  1.00  0.00     0.072 C 
BRANCH   6   7
ATOM      7  C   UNL     1      24.179  55.526  -7.927  1.00  0.00     0.224 C 
ATOM      8  O   UNL     1      23.263  55.342  -7.143  1.00  0.00    -0.303 OA
ENDBRANCH   6   7
ENDBRANCH   5   6
ENDBRANCH   1   5
TORSDOF 5
ENDMDL
MODEL 4
REMARK VINA RESULT:    -3.400     15.291     16.683
REMARK INTER + INTRA:          -4.549
REMARK INTER:                  -4.286
REMARK INTRA:                  -0.263
REMARK UNBOUND:                -0.154
REMARK SMILES CCCCCCC=O
REMARK SMILES IDX 4 1 3 2 2 3 1 4 5 5 6 6 7 7 8 8
REMARK H PARENT
REMARK Flexibility Score: inf
ROOT
ATOM      1  C   UNL     1      18.414  45.537  -0.327  1.00  0.00     0.000 C 
ENDROOT
BRANCH   1   2
ATOM      2  C   UNL     1      17.400  44.444   0.049  1.00  0.00    -0.000 C 
BRANCH   2   3
ATOM      3  C   UNL     1      16.063  45.020   0.538  1.00  0.00    -0.003 C 
ATOM      4  C   UNL     1      15.784  44.612   1.981  1.00  0.00     0.004 C 
ENDBRANCH   2   3
ENDBRANCH   1   2
BRANCH   1   5
ATOM      5  C   UNL     1      19.855  45.161   0.046  1.00  0.00     0.008 C 
BRANCH   5   6
ATOM      6  C   UNL     1      19.900  44.436   1.396  1.00  0.00     0.072 C 
BRANCH   6   7
ATOM      7  C   UNL     1      20.742  43.197   1.321  1.00  0.00     0.224 C 
ATOM      8  O   UNL     1      20.601  42.420   0.392  1.00  0.00    -0.303 OA
ENDBRANCH   6   7
ENDBRANCH   5   6
ENDBRANCH   1   5
TORSDOF 5
ENDMDL
MODEL 5
REMARK VINA RESULT:    -3.342     14.991     16.143
REMARK INTER + INTRA:          -4.473
REMARK INTER:                  -4.301
REMARK INTRA:                  -0.172
REMARK UNBOUND:                -0.154
REMARK SMILES CCCCCCC=O
REMARK SMILES IDX 4 1 3 2 2 3 1 4 5 5 6 6 7 7 8 8
REMARK H PARENT
REMARK Flexibility Score: inf
ROOT
ATOM      1  C   UNL     1      19.846  45.012   0.008  1.00  0.00     0.000 C 
ENDROOT
BRANCH   1   2
ATOM      2  C   UNL     1      19.866  44.467   1.445  1.00  0.00    -0.000 C 
BRANCH   2   3
ATOM      3  C   UNL     1      20.117  42.954   1.500  1.00  0.00    -0.003 C 
ATOM      4  C   UNL     1      21.175  42.535   0.485  1.00  0.00     0.004 C 
ENDBRANCH   2   3
ENDBRANCH   1   2
BRANCH   1   5
ATOM      5  C   UNL     1      18.502  45.656  -0.363  1.00  0.00     0.008 C 
BRANCH   5   6
ATOM      6  C   UNL     1      17.333  44.742   0.020  1.00  0.00     0.072 C 
BRANCH   6   7
ATOM      7  C   UNL     1      16.015  45.359  -0.348  1.00  0.00     0.224 C 
ATOM      8  O   UNL     1      15.932  46.073  -1.333  1.00  0.00    -0.303 OA
ENDBRANCH   6   7
ENDBRANCH   5   6
ENDBRANCH   1   5
TORSDOF 5
ENDMDL
MODEL 6
REMARK VINA RESULT:    -3.315     15.123     16.175
REMARK INTER + INTRA:          -4.439
REMARK INTER:                  -4.248
REMARK INTRA:                  -0.191
REMARK UNBOUND:                -0.154
REMARK SMILES CCCCCCC=O
REMARK SMILES IDX 4 1 3 2 2 3 1 4 5 5 6 6 7 7 8 8
REMARK H PARENT
REMARK Flexibility Score: inf
ROOT
ATOM      1  C   UNL     1      32.466  44.790   1.907  1.00  0.00     0.000 C 
ENDROOT
BRANCH   1   2
ATOM      2  C   UNL     1      32.598  46.307   2.118  1.00  0.00    -0.000 C 
BRANCH   2   3
ATOM      3  C   UNL     1      32.796  46.683   3.594  1.00  0.00    -0.003 C 
ATOM      4  C   UNL     1      32.178  48.044   3.902  1.00  0.00     0.004 C 
ENDBRANCH   2   3
ENDBRANCH   1   2
BRANCH   1   5
ATOM      5  C   UNL     1      31.232  44.414   1.073  1.00  0.00     0.008 C 
BRANCH   5   6
ATOM      6  C   UNL     1      30.194  45.541   1.092  1.00  0.00     0.072 C 
BRANCH   6   7
ATOM      7  C   UNL     1      29.177  45.363   0.003  1.00  0.00     0.224 C 
ATOM      8  O   UNL     1      28.406  46.270  -0.264  1.00  0.00    -0.303 OA
ENDBRANCH   6   7
ENDBRANCH   5   6
ENDBRANCH   1   5
TORSDOF 5
ENDMDL
MODEL 7
REMARK VINA RESULT:    -3.251     16.086     17.184
REMARK INTER + INTRA:          -4.356
REMARK INTER:                  -4.156
REMARK INTRA:                  -0.200
REMARK UNBOUND:                -0.154
REMARK SMILES CCCCCCC=O
REMARK SMILES IDX 4 1 3 2 2 3 1 4 5 5 6 6 7 7 8 8
REMARK H PARENT
REMARK Flexibility Score: inf
ROOT
ATOM      1  C   UNL     1      18.025  43.582   1.319  1.00  0.00     0.000 C 
ENDROOT
BRANCH   1   2
ATOM      2  C   UNL     1      16.667  44.102   1.817  1.00  0.00    -0.000 C 
BRANCH   2   3
ATOM      3  C   UNL     1      15.940  44.957   0.768  1.00  0.00    -0.003 C 
ATOM      4  C   UNL     1      16.888  45.376  -0.352  1.00  0.00     0.004 C 
ENDBRANCH   2   3
ENDBRANCH   1   2
BRANCH   1   5
ATOM      5  C   UNL     1      19.186  43.985   2.239  1.00  0.00     0.008 C 
BRANCH   5   6
ATOM      6  C   UNL     1      20.525  43.908   1.498  1.00  0.00     0.072 C 
BRANCH   6   7
ATOM      7  C   UNL     1      20.502  42.841   0.442  1.00  0.00     0.224 C 
ATOM      8  O   UNL     1      21.445  42.075   0.331  1.00  0.00    -0.303 OA
ENDBRANCH   6   7
ENDBRANCH   5   6
ENDBRANCH   1   5
TORSDOF 5
ENDMDL
MODEL 8
REMARK VINA RESULT:    -3.250     14.989     16.210
REMARK INTER + INTRA:          -4.354
REMARK INTER:                  -4.258
REMARK INTRA:                  -0.096
REMARK UNBOUND:                -0.154
REMARK SMILES CCCCCCC=O
REMARK SMILES IDX 4 1 3 2 2 3 1 4 5 5 6 6 7 7 8 8
REMARK H PARENT
REMARK Flexibility Score: inf
ROOT
ATOM      1  C   UNL     1      31.835  45.524   0.943  1.00  0.00     0.000 C 
ENDROOT
BRANCH   1   2
ATOM      2  C   UNL     1      30.315  45.454   1.160  1.00  0.00    -0.000 C 
BRANCH   2   3
ATOM      3  C   UNL     1      29.558  45.006  -0.099  1.00  0.00    -0.003 C 
ATOM      4  C   UNL     1      28.411  45.959  -0.420  1.00  0.00     0.004 C 
ENDBRANCH   2   3
ENDBRANCH   1   2
BRANCH   1   5
ATOM      5  C   UNL     1      32.621  45.536   2.263  1.00  0.00     0.008 C 
BRANCH   5   6
ATOM      6  C   UNL     1      33.051  46.960   2.631  1.00  0.00     0.072 C 
BRANCH   6   7
ATOM      7  C   UNL     1      32.203  47.516   3.738  1.00  0.00     0.224 C 
ATOM      8  O   UNL     1      32.045  48.721   3.837  1.00  0.00    -0.303 OA
ENDBRANCH   6   7
ENDBRANCH   5   6
ENDBRANCH   1   5
TORSDOF 5
ENDMDL
MODEL 9
REMARK VINA RESULT:    -3.239     15.156     16.684
REMARK INTER + INTRA:          -4.340
REMARK INTER:                  -4.094
REMARK INTRA:                  -0.246
REMARK UNBOUND:                -0.154
REMARK SMILES CCCCCCC=O
REMARK SMILES IDX 4 1 3 2 2 3 1 4 5 5 6 6 7 7 8 8
REMARK H PARENT
REMARK Flexibility Score: inf
ROOT
ATOM      1  C   UNL     1      17.482  43.876   1.231  1.00  0.00     0.000 C 
ENDROOT
BRANCH   1   2
ATOM      2  C   UNL     1      18.730  44.014   2.117  1.00  0.00    -0.000 C 
BRANCH   2   3
ATOM      3  C   UNL     1      19.987  44.381   1.315  1.00  0.00    -0.003 C 
ATOM      4  C   UNL     1      19.624  45.128   0.036  1.00  0.00     0.004 C 
ENDBRANCH   2   3
ENDBRANCH   1   2
BRANCH   1   5
ATOM      5  C   UNL     1      16.225  44.470   1.883  1.00  0.00     0.008 C 
BRANCH   5   6
ATOM      6  C   UNL     1      15.399  45.259   0.861  1.00  0.00     0.072 C 
BRANCH   6   7
ATOM      7  C   UNL     1      16.023  45.204  -0.502  1.00  0.00     0.224 C 
ATOM      8  O   UNL     1      15.829  46.110  -1.297  1.00  0.00    -0.303 OA
ENDBRANCH   6   7
ENDBRANCH   5   6
ENDBRANCH   1   5
TORSDOF 5
ENDMDL
