MODEL 1
REMARK VINA RESULT:     0.954      0.000      0.000
REMARK INTER + INTRA:           0.831
REMARK INTER:                   1.010
REMARK INTRA:                  -0.179
REMARK UNBOUND:                -0.179
REMARK SMILES CC(C)[C@H]1CC[C@@H](C)CC1=O
REMARK SMILES IDX 8 1 7 2 6 3 5 4 4 5 10 6 11 7 9 8 2 9 1 10 3 11
REMARK H PARENT
REMARK Flexibility Score: inf
ROOT
ATOM      1  C   UNL     1      15.435  95.821   7.396  1.00  0.00     0.008 C 
ATOM      2  C   UNL     1      16.124  95.514   8.736  1.00  0.00    -0.007 C 
ATOM      3  C   UNL     1      15.891  96.631   9.778  1.00  0.00     0.004 C 
ATOM      4  C   UNL     1      16.630  97.931   9.423  1.00  0.00     0.012 C 
ATOM      5  C   UNL     1      18.151  97.697   9.249  1.00  0.00     0.058 C 
ATOM      6  C   UNL     1      18.388  96.522   8.316  1.00  0.00     0.136 C 
ATOM      7  O   UNL     1      19.254  96.558   7.454  1.00  0.00    -0.299 OA
ATOM      8  C   UNL     1      17.627  95.244   8.546  1.00  0.00     0.079 C 
ENDROOT
BRANCH   5   9
ATOM      9  C   UNL     1      18.931  98.983   8.828  1.00  0.00    -0.007 C 
ATOM     10  C   UNL     1      19.771  99.544   9.985  1.00  0.00     0.008 C 
ATOM     11  C   UNL     1      18.032 100.087   8.244  1.00  0.00     0.008 C 
ENDBRANCH   5   9
TORSDOF 1
ENDMDL
MODEL 2
REMARK VINA RESULT:     1.145      1.588      2.681
REMARK INTER + INTRA:           1.033
REMARK INTER:                   1.216
REMARK INTRA:                  -0.183
REMARK UNBOUND:                -0.179
REMARK SMILES CC(C)[C@H]1CC[C@@H](C)CC1=O
REMARK SMILES IDX 8 1 7 2 6 3 5 4 4 5 10 6 11 7 9 8 2 9 1 10 3 11
REMARK H PARENT
REMARK Flexibility Score: inf
ROOT
ATOM      1  C   UNL     1      18.074  93.901   9.380  1.00  0.00     0.008 C 
ATOM      2  C   UNL     1      17.330  94.483   8.167  1.00  0.00    -0.007 C 
ATOM      3  C   UNL     1      18.271  95.277   7.234  1.00  0.00     0.004 C 
ATOM      4  C   UNL     1      18.757  96.591   7.867  1.00  0.00     0.012 C 
ATOM      5  C   UNL     1      17.575  97.493   8.296  1.00  0.00     0.058 C 
ATOM      6  C   UNL     1      16.582  96.687   9.117  1.00  0.00     0.136 C 
ATOM      7  O   UNL     1      16.067  97.148  10.125  1.00  0.00    -0.299 OA
ATOM      8  C   UNL     1      16.133  95.346   8.604  1.00  0.00     0.079 C 
ENDROOT
BRANCH   5   9
ATOM      9  C   UNL     1      18.026  98.812   9.000  1.00  0.00    -0.007 C 
ATOM     10  C   UNL     1      18.036 100.002   8.028  1.00  0.00     0.008 C 
ATOM     11  C   UNL     1      19.386  98.699   9.710  1.00  0.00     0.008 C 
ENDBRANCH   5   9
TORSDOF 1
ENDMDL
MODEL 3
REMARK VINA RESULT:     2.488      1.993      4.048
REMARK INTER + INTRA:           2.455
REMARK INTER:                   2.635
REMARK INTRA:                  -0.180
REMARK UNBOUND:                -0.179
REMARK SMILES CC(C)[C@H]1CC[C@@H](C)CC1=O
REMARK SMILES IDX 8 1 7 2 6 3 5 4 4 5 10 6 11 7 9 8 2 9 1 10 3 11
REMARK H PARENT
REMARK Flexibility Score: inf
ROOT
ATOM      1  C   UNL     1      15.986  97.935   7.430  1.00  0.00     0.008 C 
ATOM      2  C   UNL     1      16.506  97.816   8.872  1.00  0.00    -0.007 C 
ATOM      3  C   UNL     1      18.039  97.628   8.923  1.00  0.00     0.004 C 
ATOM      4  C   UNL     1      18.482  96.254   8.397  1.00  0.00     0.012 C 
ATOM      5  C   UNL     1      17.794  95.097   9.163  1.00  0.00     0.058 C 
ATOM      6  C   UNL     1      16.295  95.336   9.220  1.00  0.00     0.136 C 
ATOM      7  O   UNL     1      15.498  94.427   9.038  1.00  0.00    -0.299 OA
ATOM      8  C   UNL     1      15.788  96.691   9.637  1.00  0.00     0.079 C 
ENDROOT
BRANCH   5   9
ATOM      9  C   UNL     1      18.171  93.683   8.619  1.00  0.00    -0.007 C 
ATOM     10  C   UNL     1      19.157  92.959   9.547  1.00  0.00     0.008 C 
ATOM     11  C   UNL     1      18.717  93.701   7.180  1.00  0.00     0.008 C 
ENDBRANCH   5   9
TORSDOF 1
ENDMDL
MODEL 4
REMARK VINA RESULT:     3.330      1.178      4.030
REMARK INTER + INTRA:           3.345
REMARK INTER:                   3.178
REMARK INTRA:                   0.167
REMARK UNBOUND:                -0.179
REMARK SMILES CC(C)[C@H]1CC[C@@H](C)CC1=O
REMARK SMILES IDX 8 1 7 2 6 3 5 4 4 5 10 6 11 7 9 8 2 9 1 10 3 11
REMARK H PARENT
REMARK Flexibility Score: inf
ROOT
ATOM      1  C   UNL     1      19.122  98.532   9.897  1.00  0.00     0.008 C 
ATOM      2  C   UNL     1      18.062  98.614   8.786  1.00  0.00    -0.007 C 
ATOM      3  C   UNL     1      16.682  98.107   9.261  1.00  0.00     0.004 C 
ATOM      4  C   UNL     1      16.661  96.589   9.498  1.00  0.00     0.012 C 
ATOM      5  C   UNL     1      17.091  95.805   8.234  1.00  0.00     0.058 C 
ATOM      6  C   UNL     1      18.390  96.376   7.690  1.00  0.00     0.136 C 
ATOM      7  O   UNL     1      19.288  95.648   7.293  1.00  0.00    -0.299 OA
ATOM      8  C   UNL     1      18.516  97.866   7.520  1.00  0.00     0.079 C 
ENDROOT
BRANCH   5   9
ATOM      9  C   UNL     1      17.142  94.259   8.450  1.00  0.00    -0.007 C 
ATOM     10  C   UNL     1      15.795  93.708   8.941  1.00  0.00     0.008 C 
ATOM     11  C   UNL     1      18.272  93.805   9.391  1.00  0.00     0.008 C 
ENDBRANCH   5   9
TORSDOF 1
ENDMDL
MODEL 5
REMARK VINA RESULT:     3.766      1.709      4.286
REMARK INTER + INTRA:           3.808
REMARK INTER:                   3.296
REMARK INTRA:                   0.512
REMARK UNBOUND:                -0.179
REMARK SMILES CC(C)[C@H]1CC[C@@H](C)CC1=O
REMARK SMILES IDX 8 1 7 2 6 3 5 4 4 5 10 6 11 7 9 8 2 9 1 10 3 11
REMARK H PARENT
REMARK Flexibility Score: inf
ROOT
ATOM      1  C   UNL     1      17.738  99.612   7.759  1.00  0.00     0.008 C 
ATOM      2  C   UNL     1      18.424  98.929   8.953  1.00  0.00    -0.007 C 
ATOM      3  C   UNL     1      19.562  97.984   8.508  1.00  0.00     0.004 C 
ATOM      4  C   UNL     1      19.039  96.731   7.787  1.00  0.00     0.012 C 
ATOM      5  C   UNL     1      18.028  95.947   8.659  1.00  0.00     0.058 C 
ATOM      6  C   UNL     1      16.970  96.893   9.200  1.00  0.00     0.136 C 
ATOM      7  O   UNL     1      15.788  96.581   9.223  1.00  0.00    -0.299 OA
ATOM      8  C   UNL     1      17.405  98.186   9.836  1.00  0.00     0.079 C 
ENDROOT
BRANCH   5   9
ATOM      9  C   UNL     1      17.426  94.699   7.939  1.00  0.00    -0.007 C 
ATOM     10  C   UNL     1      16.438  93.943   8.839  1.00  0.00     0.008 C 
ATOM     11  C   UNL     1      18.489  93.729   7.392  1.00  0.00     0.008 C 
ENDBRANCH   5   9
TORSDOF 1
ENDMDL
