MODEL 1
REMARK VINA RESULT:    -3.267      0.000      0.000
REMARK INTER + INTRA:          -3.830
REMARK INTER:                  -4.031
REMARK INTRA:                   0.201
REMARK UNBOUND:                 0.201
REMARK SMILES O=c1c(O)c(-c2cc(O)c(O)c(O)c2)oc2cc(O)cc(O)c12
REMARK SMILES IDX 5 1 3 2 2 3 1 4 23 5 21 6 20 7 18 8 17 9 16 10 15 11 6 12
REMARK SMILES IDX 7 13 8 14 14 15 10 16 12 17 9 18 11 20 13 22 4 24 22 26
REMARK SMILES IDX 19 28
REMARK H PARENT 9 19 11 21 13 23 4 25 22 27 19 29
REMARK Flexibility Score: inf
ROOT
ATOM      1  C   UNL     1      -4.314 -11.840  31.274  1.00  0.00     0.180 A 
ATOM      2  C   UNL     1      -3.396 -10.829  30.939  1.00  0.00     0.208 A 
ATOM      3  C   UNL     1      -2.924 -10.748  29.619  1.00  0.00     0.238 A 
ATOM      4  O   UNL     1      -2.062  -9.875  29.337  1.00  0.00    -0.285 OA
ATOM      5  C   UNL     1      -3.388 -11.668  28.647  1.00  0.00     0.111 A 
ATOM      6  C   UNL     1      -3.008 -11.654  27.271  1.00  0.00     0.134 A 
ATOM      7  C   UNL     1      -3.426 -12.691  26.429  1.00  0.00     0.093 A 
ATOM      8  C   UNL     1      -4.264 -13.706  26.898  1.00  0.00     0.123 A 
ATOM      9  C   UNL     1      -4.689 -13.695  28.224  1.00  0.00     0.094 A 
ATOM     10  C   UNL     1      -4.259 -12.694  29.098  1.00  0.00     0.146 A 
ATOM     11  O   UNL     1      -4.678 -12.727  30.357  1.00  0.00    -0.452 OA
ENDROOT
BRANCH   1  12
ATOM     12  C   UNL     1      -4.874 -11.973  32.639  1.00  0.00     0.029 A 
ATOM     13  C   UNL     1      -5.272 -13.237  33.101  1.00  0.00     0.062 A 
ATOM     14  C   UNL     1      -5.825 -13.389  34.376  1.00  0.00     0.162 A 
ATOM     15  C   UNL     1      -5.070 -10.851  33.461  1.00  0.00     0.062 A 
ATOM     16  C   UNL     1      -5.999 -12.267  35.204  1.00  0.00     0.200 A 
ATOM     17  C   UNL     1      -5.624 -10.994  34.740  1.00  0.00     0.162 A 
BRANCH  14  18
ATOM     18  O   UNL     1      -6.194 -14.664  34.804  1.00  0.00    -0.504 OA
ATOM     19  H   UNL     1      -6.859 -14.810  35.553  1.00  0.00     0.293 HD
ENDBRANCH  14  18
BRANCH  16  20
ATOM     20  O   UNL     1      -6.548 -12.428  36.477  1.00  0.00    -0.502 OA
ATOM     21  H   UNL     1      -6.223 -13.141  37.119  1.00  0.00     0.293 HD
ENDBRANCH  16  20
BRANCH  17  22
ATOM     22  O   UNL     1      -5.808  -9.875  35.551  1.00  0.00    -0.504 OA
ATOM     23  H   UNL     1      -5.284  -9.020  35.404  1.00  0.00     0.293 HD
ENDBRANCH  17  22
ENDBRANCH   1  12
BRANCH   2  24
ATOM     24  O   UNL     1      -2.935  -9.945  31.918  1.00  0.00    -0.502 OA
ATOM     25  H   UNL     1      -1.956  -9.702  32.015  1.00  0.00     0.293 HD
ENDBRANCH   2  24
BRANCH   6  26
ATOM     26  O   UNL     1      -2.249 -10.638  26.682  1.00  0.00    -0.507 OA
ATOM     27  H   UNL     1      -2.373 -10.301  25.739  1.00  0.00     0.293 HD
ENDBRANCH   6  26
BRANCH   8  28
ATOM     28  O   UNL     1      -4.689 -14.725  26.048  1.00  0.00    -0.508 OA
ATOM     29  H   UNL     1      -5.412 -15.379  26.324  1.00  0.00     0.293 HD
ENDBRANCH   8  28
TORSDOF 7
ENDMDL
MODEL 2
REMARK VINA RESULT:    -2.945      1.986      2.342
REMARK INTER + INTRA:          -3.432
REMARK INTER:                  -3.332
REMARK INTRA:                  -0.101
REMARK UNBOUND:                 0.201
REMARK SMILES O=c1c(O)c(-c2cc(O)c(O)c(O)c2)oc2cc(O)cc(O)c12
REMARK SMILES IDX 5 1 3 2 2 3 1 4 23 5 21 6 20 7 18 8 17 9 16 10 15 11 6 12
REMARK SMILES IDX 7 13 8 14 14 15 10 16 12 17 9 18 11 20 13 22 4 24 22 26
REMARK SMILES IDX 19 28
REMARK H PARENT 9 19 11 21 13 23 4 25 22 27 19 29
REMARK Flexibility Score: inf
ROOT
ATOM      1  C   UNL     1      -4.499 -11.859  32.374  1.00  0.00     0.180 A 
ATOM      2  C   UNL     1      -4.763 -10.864  31.417  1.00  0.00     0.208 A 
ATOM      3  C   UNL     1      -4.030 -10.860  30.219  1.00  0.00     0.238 A 
ATOM      4  O   UNL     1      -4.233  -9.935  29.389  1.00  0.00    -0.285 OA
ATOM      5  C   UNL     1      -3.053 -11.858  29.987  1.00  0.00     0.111 A 
ATOM      6  C   UNL     1      -2.279 -11.973  28.793  1.00  0.00     0.134 A 
ATOM      7  C   UNL     1      -1.250 -12.921  28.727  1.00  0.00     0.093 A 
ATOM      8  C   UNL     1      -1.011 -13.800  29.786  1.00  0.00     0.123 A 
ATOM      9  C   UNL     1      -1.800 -13.735  30.931  1.00  0.00     0.094 A 
ATOM     10  C   UNL     1      -2.810 -12.777  31.042  1.00  0.00     0.146 A 
ATOM     11  O   UNL     1      -3.531 -12.741  32.156  1.00  0.00    -0.452 OA
ENDROOT
BRANCH   1  12
ATOM     12  C   UNL     1      -5.248 -11.943  33.649  1.00  0.00     0.029 A 
ATOM     13  C   UNL     1      -5.981 -13.102  33.944  1.00  0.00     0.062 A 
ATOM     14  C   UNL     1      -6.715 -13.200  35.130  1.00  0.00     0.162 A 
ATOM     15  C   UNL     1      -5.287 -10.862  34.546  1.00  0.00     0.062 A 
ATOM     16  C   UNL     1      -6.735 -12.125  36.035  1.00  0.00     0.200 A 
ATOM     17  C   UNL     1      -6.021 -10.951  35.737  1.00  0.00     0.162 A 
BRANCH  14  18
ATOM     18  O   UNL     1      -7.419 -14.375  35.392  1.00  0.00    -0.504 OA
ATOM     19  H   UNL     1      -7.695 -15.014  34.656  1.00  0.00     0.293 HD
ENDBRANCH  14  18
BRANCH  16  20
ATOM     20  O   UNL     1      -7.467 -12.232  37.218  1.00  0.00    -0.502 OA
ATOM     21  H   UNL     1      -8.199 -12.922  37.340  1.00  0.00     0.293 HD
ENDBRANCH  16  20
BRANCH  17  22
ATOM     22  O   UNL     1      -6.047  -9.876  36.623  1.00  0.00    -0.504 OA
ATOM     23  H   UNL     1      -6.443  -9.962  37.553  1.00  0.00     0.293 HD
ENDBRANCH  17  22
ENDBRANCH   1  12
BRANCH   2  24
ATOM     24  O   UNL     1      -5.716  -9.875  31.674  1.00  0.00    -0.502 OA
ATOM     25  H   UNL     1      -6.622  -9.859  31.219  1.00  0.00     0.293 HD
ENDBRANCH   2  24
BRANCH   6  26
ATOM     26  O   UNL     1      -2.497 -11.206  27.645  1.00  0.00    -0.507 OA
ATOM     27  H   UNL     1      -3.023 -11.512  26.841  1.00  0.00     0.293 HD
ENDBRANCH   6  26
BRANCH   8  28
ATOM     28  O   UNL     1       0.005 -14.750  29.704  1.00  0.00    -0.508 OA
ATOM     29  H   UNL     1      -0.104 -15.678  30.097  1.00  0.00     0.293 HD
ENDBRANCH   8  28
TORSDOF 7
ENDMDL
MODEL 3
REMARK VINA RESULT:    -2.771      2.078      7.522
REMARK INTER + INTRA:          -3.217
REMARK INTER:                  -2.865
REMARK INTRA:                  -0.353
REMARK UNBOUND:                 0.201
REMARK SMILES O=c1c(O)c(-c2cc(O)c(O)c(O)c2)oc2cc(O)cc(O)c12
REMARK SMILES IDX 5 1 3 2 2 3 1 4 23 5 21 6 20 7 18 8 17 9 16 10 15 11 6 12
REMARK SMILES IDX 7 13 8 14 14 15 10 16 12 17 9 18 11 20 13 22 4 24 22 26
REMARK SMILES IDX 19 28
REMARK H PARENT 9 19 11 21 13 23 4 25 22 27 19 29
REMARK Flexibility Score: inf
ROOT
ATOM      1  C   UNL     1      -4.623 -12.435  32.568  1.00  0.00     0.180 A 
ATOM      2  C   UNL     1      -5.144 -13.733  32.708  1.00  0.00     0.208 A 
ATOM      3  C   UNL     1      -5.973 -14.020  33.805  1.00  0.00     0.238 A 
ATOM      4  O   UNL     1      -6.392 -15.197  33.955  1.00  0.00    -0.285 OA
ATOM      5  C   UNL     1      -6.282 -13.002  34.739  1.00  0.00     0.111 A 
ATOM      6  C   UNL     1      -7.142 -13.170  35.866  1.00  0.00     0.134 A 
ATOM      7  C   UNL     1      -7.272 -12.131  36.796  1.00  0.00     0.093 A 
ATOM      8  C   UNL     1      -6.624 -10.908  36.605  1.00  0.00     0.123 A 
ATOM      9  C   UNL     1      -5.831 -10.714  35.478  1.00  0.00     0.094 A 
ATOM     10  C   UNL     1      -5.652 -11.744  34.551  1.00  0.00     0.146 A 
ATOM     11  O   UNL     1      -4.878 -11.521  33.496  1.00  0.00    -0.452 OA
ENDROOT
BRANCH   1  12
ATOM     12  C   UNL     1      -3.764 -12.051  31.424  1.00  0.00     0.029 A 
ATOM     13  C   UNL     1      -4.351 -11.514  30.269  1.00  0.00     0.062 A 
ATOM     14  C   UNL     1      -3.566 -11.163  29.166  1.00  0.00     0.162 A 
ATOM     15  C   UNL     1      -2.376 -12.266  31.450  1.00  0.00     0.062 A 
ATOM     16  C   UNL     1      -2.175 -11.360  29.203  1.00  0.00     0.200 A 
ATOM     17  C   UNL     1      -1.581 -11.919  30.349  1.00  0.00     0.162 A 
BRANCH  14  18
ATOM     18  O   UNL     1      -4.187 -10.619  28.042  1.00  0.00    -0.504 OA
ATOM     19  H   UNL     1      -5.099 -10.181  28.089  1.00  0.00     0.293 HD
ENDBRANCH  14  18
BRANCH  16  20
ATOM     20  O   UNL     1      -1.399 -11.004  28.100  1.00  0.00    -0.502 OA
ATOM     21  H   UNL     1      -1.797 -10.573  27.274  1.00  0.00     0.293 HD
ENDBRANCH  16  20
BRANCH  17  22
ATOM     22  O   UNL     1      -0.204 -12.130  30.386  1.00  0.00    -0.504 OA
ATOM     23  H   UNL     1       0.317 -12.089  31.255  1.00  0.00     0.293 HD
ENDBRANCH  17  22
ENDBRANCH   1  12
BRANCH   2  24
ATOM     24  O   UNL     1      -4.809 -14.728  31.786  1.00  0.00    -0.502 OA
ATOM     25  H   UNL     1      -3.910 -14.759  31.320  1.00  0.00     0.293 HD
ENDBRANCH   2  24
BRANCH   6  26
ATOM     26  O   UNL     1      -7.905 -14.318  36.101  1.00  0.00    -0.507 OA
ATOM     27  H   UNL     1      -8.208 -14.963  35.387  1.00  0.00     0.293 HD
ENDBRANCH   6  26
BRANCH   8  28
ATOM     28  O   UNL     1      -6.772  -9.875  37.528  1.00  0.00    -0.508 OA
ATOM     29  H   UNL     1      -6.739  -8.902  37.245  1.00  0.00     0.293 HD
ENDBRANCH   8  28
TORSDOF 7
ENDMDL
MODEL 4
REMARK VINA RESULT:    -2.681      2.550      4.064
REMARK INTER + INTRA:          -3.106
REMARK INTER:                  -2.873
REMARK INTRA:                  -0.234
REMARK UNBOUND:                 0.201
REMARK SMILES O=c1c(O)c(-c2cc(O)c(O)c(O)c2)oc2cc(O)cc(O)c12
REMARK SMILES IDX 5 1 3 2 2 3 1 4 23 5 21 6 20 7 18 8 17 9 16 10 15 11 6 12
REMARK SMILES IDX 7 13 8 14 14 15 10 16 12 17 9 18 11 20 13 22 4 24 22 26
REMARK SMILES IDX 19 28
REMARK H PARENT 9 19 11 21 13 23 4 25 22 27 19 29
REMARK Flexibility Score: inf
ROOT
ATOM      1  C   UNL     1      -3.712 -12.854  32.003  1.00  0.00     0.180 A 
ATOM      2  C   UNL     1      -4.042 -13.290  30.708  1.00  0.00     0.208 A 
ATOM      3  C   UNL     1      -3.015 -13.477  29.769  1.00  0.00     0.238 A 
ATOM      4  O   UNL     1      -3.322 -13.816  28.596  1.00  0.00    -0.285 OA
ATOM      5  C   UNL     1      -1.669 -13.240  30.140  1.00  0.00     0.111 A 
ATOM      6  C   UNL     1      -0.545 -13.435  29.283  1.00  0.00     0.134 A 
ATOM      7  C   UNL     1       0.728 -13.044  29.714  1.00  0.00     0.093 A 
ATOM      8  C   UNL     1       0.927 -12.526  30.997  1.00  0.00     0.123 A 
ATOM      9  C   UNL     1      -0.155 -12.389  31.862  1.00  0.00     0.094 A 
ATOM     10  C   UNL     1      -1.443 -12.736  31.448  1.00  0.00     0.146 A 
ATOM     11  O   UNL     1      -2.448 -12.577  32.300  1.00  0.00    -0.452 OA
ENDROOT
BRANCH   1  12
ATOM     12  C   UNL     1      -4.737 -12.658  33.053  1.00  0.00     0.029 A 
ATOM     13  C   UNL     1      -4.946 -11.377  33.585  1.00  0.00     0.062 A 
ATOM     14  C   UNL     1      -5.892 -11.167  34.593  1.00  0.00     0.162 A 
ATOM     15  C   UNL     1      -5.467 -13.740  33.572  1.00  0.00     0.062 A 
ATOM     16  C   UNL     1      -6.635 -12.248  35.094  1.00  0.00     0.200 A 
ATOM     17  C   UNL     1      -6.417 -13.540  34.583  1.00  0.00     0.162 A 
BRANCH  14  18
ATOM     18  O   UNL     1      -6.079  -9.875  35.084  1.00  0.00    -0.504 OA
ATOM     19  H   UNL     1      -6.082  -9.670  36.076  1.00  0.00     0.293 HD
ENDBRANCH  14  18
BRANCH  16  20
ATOM     20  O   UNL     1      -7.580 -12.030  36.097  1.00  0.00    -0.502 OA
ATOM     21  H   UNL     1      -8.509 -12.433  36.062  1.00  0.00     0.293 HD
ENDBRANCH  16  20
BRANCH  17  22
ATOM     22  O   UNL     1      -7.140 -14.620  35.086  1.00  0.00    -0.504 OA
ATOM     23  H   UNL     1      -6.860 -15.578  34.908  1.00  0.00     0.293 HD
ENDBRANCH  17  22
ENDBRANCH   1  12
BRANCH   2  24
ATOM     24  O   UNL     1      -5.378 -13.497  30.356  1.00  0.00    -0.502 OA
ATOM     25  H   UNL     1      -5.901 -14.312  30.657  1.00  0.00     0.293 HD
ENDBRANCH   2  24
BRANCH   6  26
ATOM     26  O   UNL     1      -0.622 -14.028  28.019  1.00  0.00    -0.507 OA
ATOM     27  H   UNL     1      -0.608 -13.524  27.145  1.00  0.00     0.293 HD
ENDBRANCH   6  26
BRANCH   8  28
ATOM     28  O   UNL     1       2.200 -12.155  31.423  1.00  0.00    -0.508 OA
ATOM     29  H   UNL     1       2.850 -11.681  30.806  1.00  0.00     0.293 HD
ENDBRANCH   8  28
TORSDOF 7
ENDMDL
MODEL 5
REMARK VINA RESULT:    -2.668      2.246      7.460
REMARK INTER + INTRA:          -3.091
REMARK INTER:                  -2.800
REMARK INTRA:                  -0.290
REMARK UNBOUND:                 0.201
REMARK SMILES O=c1c(O)c(-c2cc(O)c(O)c(O)c2)oc2cc(O)cc(O)c12
REMARK SMILES IDX 5 1 3 2 2 3 1 4 23 5 21 6 20 7 18 8 17 9 16 10 15 11 6 12
REMARK SMILES IDX 7 13 8 14 14 15 10 16 12 17 9 18 11 20 13 22 4 24 22 26
REMARK SMILES IDX 19 28
REMARK H PARENT 9 19 11 21 13 23 4 25 22 27 19 29
REMARK Flexibility Score: inf
ROOT
ATOM      1  C   UNL     1      -4.070 -13.360  32.302  1.00  0.00     0.180 A 
ATOM      2  C   UNL     1      -4.771 -14.558  32.527  1.00  0.00     0.208 A 
ATOM      3  C   UNL     1      -5.772 -14.586  33.511  1.00  0.00     0.238 A 
ATOM      4  O   UNL     1      -6.359 -15.675  33.746  1.00  0.00    -0.285 OA
ATOM      5  C   UNL     1      -6.071 -13.414  34.247  1.00  0.00     0.111 A 
ATOM      6  C   UNL     1      -7.092 -13.318  35.240  1.00  0.00     0.134 A 
ATOM      7  C   UNL     1      -7.211 -12.145  35.997  1.00  0.00     0.093 A 
ATOM      8  C   UNL     1      -6.388 -11.043  35.751  1.00  0.00     0.123 A 
ATOM      9  C   UNL     1      -5.429 -11.106  34.744  1.00  0.00     0.094 A 
ATOM     10  C   UNL     1      -5.262 -12.275  33.996  1.00  0.00     0.146 A 
ATOM     11  O   UNL     1      -4.328 -12.297  33.054  1.00  0.00    -0.452 OA
ENDROOT
BRANCH   1  12
ATOM     12  C   UNL     1      -3.018 -13.246  31.265  1.00  0.00     0.029 A 
ATOM     13  C   UNL     1      -1.679 -13.094  31.654  1.00  0.00     0.062 A 
ATOM     14  C   UNL     1      -0.668 -12.962  30.697  1.00  0.00     0.162 A 
ATOM     15  C   UNL     1      -3.340 -13.230  29.898  1.00  0.00     0.062 A 
ATOM     16  C   UNL     1      -0.991 -12.967  29.330  1.00  0.00     0.200 A 
ATOM     17  C   UNL     1      -2.334 -13.096  28.932  1.00  0.00     0.162 A 
BRANCH  14  18
ATOM     18  O   UNL     1       0.652 -12.828  31.125  1.00  0.00    -0.504 OA
ATOM     19  H   UNL     1       0.947 -13.092  32.057  1.00  0.00     0.293 HD
ENDBRANCH  14  18
BRANCH  16  20
ATOM     20  O   UNL     1       0.023 -12.839  28.381  1.00  0.00    -0.502 OA
ATOM     21  H   UNL     1       0.940 -12.475  28.614  1.00  0.00     0.293 HD
ENDBRANCH  16  20
BRANCH  17  22
ATOM     22  O   UNL     1      -2.663 -13.088  27.577  1.00  0.00    -0.504 OA
ATOM     23  H   UNL     1      -2.264 -12.410  26.937  1.00  0.00     0.293 HD
ENDBRANCH  17  22
ENDBRANCH   1  12
BRANCH   2  24
ATOM     24  O   UNL     1      -4.446 -15.709  31.805  1.00  0.00    -0.502 OA
ATOM     25  H   UNL     1      -4.966 -16.574  31.897  1.00  0.00     0.293 HD
ENDBRANCH   2  24
BRANCH   6  26
ATOM     26  O   UNL     1      -8.024 -14.327  35.501  1.00  0.00    -0.507 OA
ATOM     27  H   UNL     1      -8.393 -14.547  36.414  1.00  0.00     0.293 HD
ENDBRANCH   6  26
BRANCH   8  28
ATOM     28  O   UNL     1      -6.525  -9.875  36.497  1.00  0.00    -0.508 OA
ATOM     29  H   UNL     1      -6.136  -8.994  36.181  1.00  0.00     0.293 HD
ENDBRANCH   8  28
TORSDOF 7
ENDMDL
MODEL 6
REMARK VINA RESULT:    -2.617      1.797      2.794
REMARK INTER + INTRA:          -3.028
REMARK INTER:                  -2.808
REMARK INTRA:                  -0.220
REMARK UNBOUND:                 0.201
REMARK SMILES O=c1c(O)c(-c2cc(O)c(O)c(O)c2)oc2cc(O)cc(O)c12
REMARK SMILES IDX 5 1 3 2 2 3 1 4 23 5 21 6 20 7 18 8 17 9 16 10 15 11 6 12
REMARK SMILES IDX 7 13 8 14 14 15 10 16 12 17 9 18 11 20 13 22 4 24 22 26
REMARK SMILES IDX 19 28
REMARK H PARENT 9 19 11 21 13 23 4 25 22 27 19 29
REMARK Flexibility Score: inf
ROOT
ATOM      1  C   UNL     1      -3.996 -12.721  31.727  1.00  0.00     0.180 A 
ATOM      2  C   UNL     1      -2.812 -13.478  31.761  1.00  0.00     0.208 A 
ATOM      3  C   UNL     1      -2.027 -13.567  30.600  1.00  0.00     0.238 A 
ATOM      4  O   UNL     1      -0.997 -14.290  30.620  1.00  0.00    -0.285 OA
ATOM      5  C   UNL     1      -2.427 -12.886  29.425  1.00  0.00     0.111 A 
ATOM      6  C   UNL     1      -1.688 -12.874  28.203  1.00  0.00     0.134 A 
ATOM      7  C   UNL     1      -2.244 -12.276  27.066  1.00  0.00     0.093 A 
ATOM      8  C   UNL     1      -3.483 -11.631  27.124  1.00  0.00     0.123 A 
ATOM      9  C   UNL     1      -4.183 -11.585  28.326  1.00  0.00     0.094 A 
ATOM     10  C   UNL     1      -3.672 -12.205  29.469  1.00  0.00     0.146 A 
ATOM     11  O   UNL     1      -4.377 -12.149  30.592  1.00  0.00    -0.452 OA
ENDROOT
BRANCH   1  12
ATOM     12  C   UNL     1      -4.862 -12.560  32.918  1.00  0.00     0.029 A 
ATOM     13  C   UNL     1      -4.934 -11.312  33.555  1.00  0.00     0.062 A 
ATOM     14  C   UNL     1      -5.726 -11.137  34.694  1.00  0.00     0.162 A 
ATOM     15  C   UNL     1      -5.570 -13.646  33.458  1.00  0.00     0.062 A 
ATOM     16  C   UNL     1      -6.450 -12.221  35.219  1.00  0.00     0.200 A 
ATOM     17  C   UNL     1      -6.366 -13.480  34.599  1.00  0.00     0.162 A 
BRANCH  14  18
ATOM     18  O   UNL     1      -5.782  -9.878  35.290  1.00  0.00    -0.504 OA
ATOM     19  H   UNL     1      -4.993  -9.480  35.786  1.00  0.00     0.293 HD
ENDBRANCH  14  18
BRANCH  16  20
ATOM     20  O   UNL     1      -7.241 -12.038  36.353  1.00  0.00    -0.502 OA
ATOM     21  H   UNL     1      -7.347 -11.133  36.798  1.00  0.00     0.293 HD
ENDBRANCH  16  20
BRANCH  17  22
ATOM     22  O   UNL     1      -7.070 -14.563  35.123  1.00  0.00    -0.504 OA
ATOM     23  H   UNL     1      -6.857 -15.517  34.853  1.00  0.00     0.293 HD
ENDBRANCH  17  22
ENDBRANCH   1  12
BRANCH   2  24
ATOM     24  O   UNL     1      -2.447 -14.160  32.924  1.00  0.00    -0.502 OA
ATOM     25  H   UNL     1      -1.505 -14.499  33.084  1.00  0.00     0.293 HD
ENDBRANCH   2  24
BRANCH   6  26
ATOM     26  O   UNL     1      -0.404 -13.409  28.063  1.00  0.00    -0.507 OA
ATOM     27  H   UNL     1       0.334 -12.996  27.512  1.00  0.00     0.293 HD
ENDBRANCH   6  26
BRANCH   8  28
ATOM     28  O   UNL     1      -4.020 -11.024  25.992  1.00  0.00    -0.508 OA
ATOM     29  H   UNL     1      -4.310 -10.053  25.997  1.00  0.00     0.293 HD
ENDBRANCH   8  28
TORSDOF 7
ENDMDL
MODEL 7
REMARK VINA RESULT:    -2.249      2.515      3.645
REMARK INTER + INTRA:          -2.573
REMARK INTER:                  -2.387
REMARK INTRA:                  -0.187
REMARK UNBOUND:                 0.201
REMARK SMILES O=c1c(O)c(-c2cc(O)c(O)c(O)c2)oc2cc(O)cc(O)c12
REMARK SMILES IDX 5 1 3 2 2 3 1 4 23 5 21 6 20 7 18 8 17 9 16 10 15 11 6 12
REMARK SMILES IDX 7 13 8 14 14 15 10 16 12 17 9 18 11 20 13 22 4 24 22 26
REMARK SMILES IDX 19 28
REMARK H PARENT 9 19 11 21 13 23 4 25 22 27 19 29
REMARK Flexibility Score: inf
ROOT
ATOM      1  C   UNL     1      -3.758 -12.830  32.073  1.00  0.00     0.180 A 
ATOM      2  C   UNL     1      -4.122 -13.277  30.792  1.00  0.00     0.208 A 
ATOM      3  C   UNL     1      -3.119 -13.479  29.830  1.00  0.00     0.238 A 
ATOM      4  O   UNL     1      -3.456 -13.828  28.668  1.00  0.00    -0.285 OA
ATOM      5  C   UNL     1      -1.764 -13.246  30.166  1.00  0.00     0.111 A 
ATOM      6  C   UNL     1      -0.662 -13.456  29.283  1.00  0.00     0.134 A 
ATOM      7  C   UNL     1       0.624 -13.067  29.679  1.00  0.00     0.093 A 
ATOM      8  C   UNL     1       0.856 -12.538  30.951  1.00  0.00     0.123 A 
ATOM      9  C   UNL     1      -0.203 -12.386  31.841  1.00  0.00     0.094 A 
ATOM     10  C   UNL     1      -1.503 -12.730  31.462  1.00  0.00     0.146 A 
ATOM     11  O   UNL     1      -2.486 -12.557  32.337  1.00  0.00    -0.452 OA
ENDROOT
BRANCH   1  12
ATOM     12  C   UNL     1      -4.756 -12.619  33.147  1.00  0.00     0.029 A 
ATOM     13  C   UNL     1      -5.494 -13.711  33.629  1.00  0.00     0.062 A 
ATOM     14  C   UNL     1      -6.458 -13.537  34.626  1.00  0.00     0.162 A 
ATOM     15  C   UNL     1      -5.022 -11.336  33.654  1.00  0.00     0.062 A 
ATOM     16  C   UNL     1      -6.707 -12.255  35.147  1.00  0.00     0.200 A 
ATOM     17  C   UNL     1      -5.988 -11.152  34.653  1.00  0.00     0.162 A 
BRANCH  14  18
ATOM     18  O   UNL     1      -7.159 -14.650  35.088  1.00  0.00    -0.504 OA
ATOM     19  H   UNL     1      -6.708 -15.542  35.251  1.00  0.00     0.293 HD
ENDBRANCH  14  18
BRANCH  16  20
ATOM     20  O   UNL     1      -7.668 -12.090  36.144  1.00  0.00    -0.502 OA
ATOM     21  H   UNL     1      -7.447 -11.681  37.045  1.00  0.00     0.293 HD
ENDBRANCH  16  20
BRANCH  17  22
ATOM     22  O   UNL     1      -6.240  -9.876  35.155  1.00  0.00    -0.504 OA
ATOM     23  H   UNL     1      -6.524  -9.113  34.550  1.00  0.00     0.293 HD
ENDBRANCH  17  22
ENDBRANCH   1  12
BRANCH   2  24
ATOM     24  O   UNL     1      -5.468 -13.480  30.474  1.00  0.00    -0.502 OA
ATOM     25  H   UNL     1      -5.963 -12.902  29.805  1.00  0.00     0.293 HD
ENDBRANCH   2  24
BRANCH   6  26
ATOM     26  O   UNL     1      -0.773 -14.061  28.027  1.00  0.00    -0.507 OA
ATOM     27  H   UNL     1      -0.475 -13.642  27.159  1.00  0.00     0.293 HD
ENDBRANCH   6  26
BRANCH   8  28
ATOM     28  O   UNL     1       2.141 -12.170  31.342  1.00  0.00    -0.508 OA
ATOM     29  H   UNL     1       2.828 -11.844  30.672  1.00  0.00     0.293 HD
ENDBRANCH   8  28
TORSDOF 7
ENDMDL
MODEL 8
REMARK VINA RESULT:    -0.379      1.665      6.938
REMARK INTER + INTRA:          -0.266
REMARK INTER:                  -0.243
REMARK INTRA:                  -0.023
REMARK UNBOUND:                 0.201
REMARK SMILES O=c1c(O)c(-c2cc(O)c(O)c(O)c2)oc2cc(O)cc(O)c12
REMARK SMILES IDX 5 1 3 2 2 3 1 4 23 5 21 6 20 7 18 8 17 9 16 10 15 11 6 12
REMARK SMILES IDX 7 13 8 14 14 15 10 16 12 17 9 18 11 20 13 22 4 24 22 26
REMARK SMILES IDX 19 28
REMARK H PARENT 9 19 11 21 13 23 4 25 22 27 19 29
REMARK Flexibility Score: inf
ROOT
ATOM      1  C   UNL     1      -4.502 -12.741  31.287  1.00  0.00     0.180 A 
ATOM      2  C   UNL     1      -4.095 -11.470  31.730  1.00  0.00     0.208 A 
ATOM      3  C   UNL     1      -4.490 -11.035  33.005  1.00  0.00     0.238 A 
ATOM      4  O   UNL     1      -4.168  -9.875  33.375  1.00  0.00    -0.285 OA
ATOM      5  C   UNL     1      -5.273 -11.880  33.828  1.00  0.00     0.111 A 
ATOM      6  C   UNL     1      -5.697 -11.557  35.152  1.00  0.00     0.134 A 
ATOM      7  C   UNL     1      -6.578 -12.414  35.823  1.00  0.00     0.093 A 
ATOM      8  C   UNL     1      -6.998 -13.613  35.243  1.00  0.00     0.123 A 
ATOM      9  C   UNL     1      -6.543 -13.966  33.975  1.00  0.00     0.094 A 
ATOM     10  C   UNL     1      -5.692 -13.114  33.266  1.00  0.00     0.146 A 
ATOM     11  O   UNL     1      -5.291 -13.482  32.055  1.00  0.00    -0.452 OA
ENDROOT
BRANCH   1  12
ATOM     12  C   UNL     1      -4.105 -13.279  29.966  1.00  0.00     0.029 A 
ATOM     13  C   UNL     1      -2.753 -13.260  29.591  1.00  0.00     0.062 A 
ATOM     14  C   UNL     1      -2.352 -13.741  28.341  1.00  0.00     0.162 A 
ATOM     15  C   UNL     1      -5.061 -13.756  29.054  1.00  0.00     0.062 A 
ATOM     16  C   UNL     1      -3.309 -14.237  27.439  1.00  0.00     0.200 A 
ATOM     17  C   UNL     1      -4.668 -14.239  27.798  1.00  0.00     0.162 A 
BRANCH  14  18
ATOM     18  O   UNL     1      -0.997 -13.718  28.012  1.00  0.00    -0.504 OA
ATOM     19  H   UNL     1      -0.271 -13.856  28.705  1.00  0.00     0.293 HD
ENDBRANCH  14  18
BRANCH  16  20
ATOM     20  O   UNL     1      -2.900 -14.719  26.196  1.00  0.00    -0.502 OA
ATOM     21  H   UNL     1      -2.642 -14.102  25.435  1.00  0.00     0.293 HD
ENDBRANCH  16  20
BRANCH  17  22
ATOM     22  O   UNL     1      -5.624 -14.717  26.904  1.00  0.00    -0.504 OA
ATOM     23  H   UNL     1      -5.384 -14.966  25.951  1.00  0.00     0.293 HD
ENDBRANCH  17  22
ENDBRANCH   1  12
BRANCH   2  24
ATOM     24  O   UNL     1      -3.341 -10.643  30.894  1.00  0.00    -0.502 OA
ATOM     25  H   UNL     1      -3.717 -10.237  30.045  1.00  0.00     0.293 HD
ENDBRANCH   2  24
BRANCH   6  26
ATOM     26  O   UNL     1      -5.263 -10.431  35.857  1.00  0.00    -0.507 OA
ATOM     27  H   UNL     1      -4.301 -10.139  35.940  1.00  0.00     0.293 HD
ENDBRANCH   6  26
BRANCH   8  28
ATOM     28  O   UNL     1      -7.862 -14.467  35.925  1.00  0.00    -0.508 OA
ATOM     29  H   UNL     1      -7.546 -15.027  36.708  1.00  0.00     0.293 HD
ENDBRANCH   8  28
TORSDOF 7
ENDMDL
MODEL 9
REMARK VINA RESULT:    -0.356      1.181      7.486
REMARK INTER + INTRA:          -0.238
REMARK INTER:                  -0.633
REMARK INTRA:                   0.395
REMARK UNBOUND:                 0.201
REMARK SMILES O=c1c(O)c(-c2cc(O)c(O)c(O)c2)oc2cc(O)cc(O)c12
REMARK SMILES IDX 5 1 3 2 2 3 1 4 23 5 21 6 20 7 18 8 17 9 16 10 15 11 6 12
REMARK SMILES IDX 7 13 8 14 14 15 10 16 12 17 9 18 11 20 13 22 4 24 22 26
REMARK SMILES IDX 19 28
REMARK H PARENT 9 19 11 21 13 23 4 25 22 27 19 29
REMARK Flexibility Score: inf
ROOT
ATOM      1  C   UNL     1      -4.609 -12.948  30.961  1.00  0.00     0.180 A 
ATOM      2  C   UNL     1      -5.010 -14.236  31.358  1.00  0.00     0.208 A 
ATOM      3  C   UNL     1      -5.552 -14.416  32.641  1.00  0.00     0.238 A 
ATOM      4  O   UNL     1      -5.859 -15.580  33.010  1.00  0.00    -0.285 OA
ATOM      5  C   UNL     1      -5.701 -13.305  33.505  1.00  0.00     0.111 A 
ATOM      6  C   UNL     1      -6.274 -13.364  34.811  1.00  0.00     0.134 A 
ATOM      7  C   UNL     1      -6.251 -12.227  35.628  1.00  0.00     0.093 A 
ATOM      8  C   UNL     1      -5.734 -11.016  35.161  1.00  0.00     0.123 A 
ATOM      9  C   UNL     1      -5.228 -10.932  33.867  1.00  0.00     0.094 A 
ATOM     10  C   UNL     1      -5.203 -12.059  33.041  1.00  0.00     0.146 A 
ATOM     11  O   UNL     1      -4.700 -11.939  31.819  1.00  0.00    -0.452 OA
ENDROOT
BRANCH   1  12
ATOM     12  C   UNL     1      -4.052 -12.676  29.616  1.00  0.00     0.029 A 
ATOM     13  C   UNL     1      -3.487 -11.421  29.344  1.00  0.00     0.062 A 
ATOM     14  C   UNL     1      -2.973 -11.129  28.077  1.00  0.00     0.162 A 
ATOM     15  C   UNL     1      -4.130 -13.629  28.588  1.00  0.00     0.062 A 
ATOM     16  C   UNL     1      -3.034 -12.092  27.056  1.00  0.00     0.200 A 
ATOM     17  C   UNL     1      -3.619 -13.344  27.314  1.00  0.00     0.162 A 
BRANCH  14  18
ATOM     18  O   UNL     1      -2.407  -9.875  27.851  1.00  0.00    -0.504 OA
ATOM     19  H   UNL     1      -2.968  -9.035  27.779  1.00  0.00     0.293 HD
ENDBRANCH  14  18
BRANCH  16  20
ATOM     20  O   UNL     1      -2.516 -11.795  25.795  1.00  0.00    -0.502 OA
ATOM     21  H   UNL     1      -2.124 -10.887  25.572  1.00  0.00     0.293 HD
ENDBRANCH  16  20
BRANCH  17  22
ATOM     22  O   UNL     1      -3.695 -14.300  26.301  1.00  0.00    -0.504 OA
ATOM     23  H   UNL     1      -4.002 -14.060  25.365  1.00  0.00     0.293 HD
ENDBRANCH  17  22
ENDBRANCH   1  12
BRANCH   2  24
ATOM     24  O   UNL     1      -4.834 -15.323  30.497  1.00  0.00    -0.502 OA
ATOM     25  H   UNL     1      -4.571 -15.211  29.525  1.00  0.00     0.293 HD
ENDBRANCH   2  24
BRANCH   6  26
ATOM     26  O   UNL     1      -6.897 -14.499  35.338  1.00  0.00    -0.507 OA
ATOM     27  H   UNL     1      -7.802 -14.843  35.053  1.00  0.00     0.293 HD
ENDBRANCH   6  26
BRANCH   8  28
ATOM     28  O   UNL     1      -5.731  -9.885  35.975  1.00  0.00    -0.508 OA
ATOM     29  H   UNL     1      -6.343  -9.808  36.779  1.00  0.00     0.293 HD
ENDBRANCH   8  28
TORSDOF 7
ENDMDL
