MODEL 1
REMARK VINA RESULT:     6.261      0.000      0.000
REMARK INTER + INTRA:           6.609
REMARK INTER:                   6.627
REMARK INTRA:                  -0.018
REMARK UNBOUND:                -0.018
REMARK SMILES O=C([O-])c1cccnc1
REMARK SMILES IDX 4 1 5 2 9 3 6 4 8 5 7 6 2 7 1 8 3 9
REMARK H PARENT
REMARK Flexibility Score: inf
ROOT
ATOM      1  C   UNL     1      28.898   7.567  15.342  1.00  0.00     0.016 A 
ATOM      2  C   UNL     1      28.947   6.278  14.785  1.00  0.00     0.013 A 
ATOM      3  C   UNL     1      29.991   8.426  15.139  1.00  0.00     0.120 A 
ATOM      4  C   UNL     1      30.063   5.876  14.049  1.00  0.00     0.021 A 
ATOM      5  N   UNL     1      31.067   8.008  14.419  1.00  0.00    -0.264 NA
ATOM      6  C   UNL     1      31.125   6.764  13.875  1.00  0.00     0.111 A 
ENDROOT
BRANCH   1   7
ATOM      7  C   UNL     1      27.724   8.013  16.125  1.00  0.00     0.073 C 
ATOM      8  O   UNL     1      27.346   7.364  17.137  1.00  0.00    -0.545 OA
ATOM      9  O   UNL     1      27.022   9.153  15.753  1.00  0.00    -0.545 OA
ENDBRANCH   1   7
TORSDOF 1
ENDMDL
MODEL 2
REMARK VINA RESULT:     8.804     15.379     16.027
REMARK INTER + INTRA:           9.300
REMARK INTER:                   9.316
REMARK INTRA:                  -0.016
REMARK UNBOUND:                -0.018
REMARK SMILES O=C([O-])c1cccnc1
REMARK SMILES IDX 4 1 5 2 9 3 6 4 8 5 7 6 2 7 1 8 3 9
REMARK H PARENT
REMARK Flexibility Score: inf
ROOT
ATOM      1  C   UNL     1      18.120  17.465  19.987  1.00  0.00     0.016 A 
ATOM      2  C   UNL     1      17.615  16.320  20.627  1.00  0.00     0.013 A 
ATOM      3  C   UNL     1      17.342  18.069  18.984  1.00  0.00     0.120 A 
ATOM      4  C   UNL     1      16.368  15.807  20.263  1.00  0.00     0.021 A 
ATOM      5  N   UNL     1      16.131  17.548  18.649  1.00  0.00    -0.264 NA
ATOM      6  C   UNL     1      15.633  16.442  19.261  1.00  0.00     0.111 A 
ENDROOT
BRANCH   1   7
ATOM      7  C   UNL     1      19.439  18.024  20.358  1.00  0.00     0.073 C 
ATOM      8  O   UNL     1      19.560  18.757  21.375  1.00  0.00    -0.545 OA
ATOM      9  O   UNL     1      20.561  17.748  19.586  1.00  0.00    -0.545 OA
ENDBRANCH   1   7
TORSDOF 1
ENDMDL
