MODEL 1
REMARK VINA RESULT:    -5.165      0.000      0.000
REMARK INTER + INTRA:         -13.421
REMARK INTER:                 -11.204
REMARK INTRA:                  -2.217
REMARK UNBOUND:                -2.217
REMARK SMILES CCCCCCCCCCCCCCCCCCCCCC(=O)[O-]
REMARK SMILES IDX 12 1 11 2 10 3 9 4 8 5 7 6 6 7 5 8 4 9 3 10 2 11 1 12 13 13
REMARK SMILES IDX 14 14 15 15 16 16 17 17 18 18 19 19 20 20 21 21 22 22 23 23
REMARK SMILES IDX 24 24
REMARK H PARENT
REMARK Flexibility Score: inf
ROOT
ATOM      1  C   UNL     1      -5.654   4.587  16.902  1.00  0.00     0.000 C 
ENDROOT
BRANCH   1   2
ATOM      2  C   UNL     1      -5.027   5.898  16.403  1.00  0.00     0.000 C 
BRANCH   2   3
ATOM      3  C   UNL     1      -5.890   7.125  16.734  1.00  0.00     0.000 C 
BRANCH   3   4
ATOM      4  C   UNL     1      -7.358   6.943  16.309  1.00  0.00    -0.000 C 
BRANCH   4   5
ATOM      5  C   UNL     1      -7.519   6.702  14.796  1.00  0.00    -0.000 C 
BRANCH   5   6
ATOM      6  C   UNL     1      -8.887   6.139  14.370  1.00  0.00    -0.000 C 
BRANCH   6   7
ATOM      7  C   UNL     1      -8.770   4.984  13.359  1.00  0.00    -0.000 C 
BRANCH   7   8
ATOM      8  C   UNL     1      -7.378   4.315  13.403  1.00  0.00    -0.000 C 
BRANCH   8   9
ATOM      9  C   UNL     1      -6.674   4.270  12.036  1.00  0.00    -0.000 C 
BRANCH   9  10
ATOM     10  C   UNL     1      -5.428   5.164  11.977  1.00  0.00    -0.000 C 
BRANCH  10  11
ATOM     11  C   UNL     1      -5.550   6.206  10.860  1.00  0.00    -0.003 C 
ATOM     12  C   UNL     1      -4.249   6.322  10.073  1.00  0.00     0.004 C 
ENDBRANCH  10  11
ENDBRANCH   9  10
ENDBRANCH   8   9
ENDBRANCH   7   8
ENDBRANCH   6   7
ENDBRANCH   5   6
ENDBRANCH   4   5
ENDBRANCH   3   4
ENDBRANCH   2   3
ENDBRANCH   1   2
BRANCH   1  13
ATOM     13  C   UNL     1      -5.102   3.384  16.123  1.00  0.00     0.000 C 
BRANCH  13  14
ATOM     14  C   UNL     1      -4.269   2.440  17.005  1.00  0.00     0.000 C 
BRANCH  14  15
ATOM     15  C   UNL     1      -2.758   2.620  16.797  1.00  0.00     0.000 C 
BRANCH  15  16
ATOM     16  C   UNL     1      -2.466   3.339  15.475  1.00  0.00     0.000 C 
BRANCH  16  17
ATOM     17  C   UNL     1      -1.559   4.559  15.703  1.00  0.00     0.000 C 
BRANCH  17  18
ATOM     18  C   UNL     1      -0.815   4.501  17.046  1.00  0.00     0.000 C 
BRANCH  18  19
ATOM     19  C   UNL     1      -0.775   5.859  17.763  1.00  0.00     0.000 C 
BRANCH  19  20
ATOM     20  C   UNL     1       0.176   5.814  18.968  1.00  0.00     0.006 C 
BRANCH  20  21
ATOM     21  C   UNL     1       0.124   7.103  19.799  1.00  0.00     0.053 C 
BRANCH  21  22
ATOM     22  C   UNL     1       0.364   6.840  21.254  1.00  0.00     0.041 C 
ATOM     23  O   UNL     1      -0.609   6.671  22.036  1.00  0.00    -0.550 OA
ATOM     24  O   UNL     1       1.663   6.756  21.742  1.00  0.00    -0.550 OA
ENDBRANCH  21  22
ENDBRANCH  20  21
ENDBRANCH  19  20
ENDBRANCH  18  19
ENDBRANCH  17  18
ENDBRANCH  16  17
ENDBRANCH  15  16
ENDBRANCH  14  15
ENDBRANCH  13  14
ENDBRANCH   1  13
TORSDOF 20
ENDMDL
MODEL 2
REMARK VINA RESULT:    -5.102      1.474      2.812
REMARK INTER + INTRA:         -13.284
REMARK INTER:                  -9.925
REMARK INTRA:                  -3.359
REMARK UNBOUND:                -2.217
REMARK SMILES CCCCCCCCCCCCCCCCCCCCCC(=O)[O-]
REMARK SMILES IDX 12 1 11 2 10 3 9 4 8 5 7 6 6 7 5 8 4 9 3 10 2 11 1 12 13 13
REMARK SMILES IDX 14 14 15 15 16 16 17 17 18 18 19 19 20 20 21 21 22 22 23 23
REMARK SMILES IDX 24 24
REMARK H PARENT
REMARK Flexibility Score: inf
ROOT
ATOM      1  C   UNL     1      -6.330   7.373  16.057  1.00  0.00     0.000 C 
ENDROOT
BRANCH   1   2
ATOM      2  C   UNL     1      -7.393   7.085  14.986  1.00  0.00     0.000 C 
BRANCH   2   3
ATOM      3  C   UNL     1      -7.998   5.678  15.121  1.00  0.00     0.000 C 
BRANCH   3   4
ATOM      4  C   UNL     1      -7.894   4.865  13.818  1.00  0.00    -0.000 C 
BRANCH   4   5
ATOM      5  C   UNL     1      -6.552   4.120  13.682  1.00  0.00    -0.000 C 
BRANCH   5   6
ATOM      6  C   UNL     1      -6.039   3.963  12.239  1.00  0.00    -0.000 C 
BRANCH   6   7
ATOM      7  C   UNL     1      -6.835   4.807  11.227  1.00  0.00    -0.000 C 
BRANCH   7   8
ATOM      8  C   UNL     1      -6.001   5.982  10.671  1.00  0.00    -0.000 C 
BRANCH   8   9
ATOM      9  C   UNL     1      -6.043   7.240  11.555  1.00  0.00    -0.000 C 
BRANCH   9  10
ATOM     10  C   UNL     1      -4.647   7.718  11.979  1.00  0.00    -0.000 C 
BRANCH  10  11
ATOM     11  C   UNL     1      -4.119   6.898  13.161  1.00  0.00    -0.003 C 
ATOM     12  C   UNL     1      -2.806   7.471  13.685  1.00  0.00     0.004 C 
ENDBRANCH  10  11
ENDBRANCH   9  10
ENDBRANCH   8   9
ENDBRANCH   7   8
ENDBRANCH   6   7
ENDBRANCH   5   6
ENDBRANCH   4   5
ENDBRANCH   3   4
ENDBRANCH   2   3
ENDBRANCH   1   2
BRANCH   1  13
ATOM     13  C   UNL     1      -6.029   6.113  16.883  1.00  0.00     0.000 C 
BRANCH  13  14
ATOM     14  C   UNL     1      -4.605   5.582  16.654  1.00  0.00     0.000 C 
BRANCH  14  15
ATOM     15  C   UNL     1      -4.566   4.057  16.475  1.00  0.00     0.000 C 
BRANCH  15  16
ATOM     16  C   UNL     1      -3.322   3.626  15.689  1.00  0.00     0.000 C 
BRANCH  16  17
ATOM     17  C   UNL     1      -2.387   2.778  16.566  1.00  0.00     0.000 C 
BRANCH  17  18
ATOM     18  C   UNL     1      -1.105   3.527  16.963  1.00  0.00     0.000 C 
BRANCH  18  19
ATOM     19  C   UNL     1      -0.890   4.811  16.148  1.00  0.00     0.000 C 
BRANCH  19  20
ATOM     20  C   UNL     1      -0.173   5.878  16.988  1.00  0.00     0.006 C 
BRANCH  20  21
ATOM     21  C   UNL     1      -0.243   5.579  18.491  1.00  0.00     0.053 C 
BRANCH  21  22
ATOM     22  C   UNL     1       0.092   6.782  19.317  1.00  0.00     0.041 C 
ATOM     23  O   UNL     1       0.541   7.823  18.768  1.00  0.00    -0.550 OA
ATOM     24  O   UNL     1      -0.116   6.764  20.692  1.00  0.00    -0.550 OA
ENDBRANCH  21  22
ENDBRANCH  20  21
ENDBRANCH  19  20
ENDBRANCH  18  19
ENDBRANCH  17  18
ENDBRANCH  16  17
ENDBRANCH  15  16
ENDBRANCH  14  15
ENDBRANCH  13  14
ENDBRANCH   1  13
TORSDOF 20
ENDMDL
MODEL 3
REMARK VINA RESULT:    -4.962      3.824      9.327
REMARK INTER + INTRA:         -12.980
REMARK INTER:                 -11.349
REMARK INTRA:                  -1.631
REMARK UNBOUND:                -2.217
REMARK SMILES CCCCCCCCCCCCCCCCCCCCCC(=O)[O-]
REMARK SMILES IDX 12 1 11 2 10 3 9 4 8 5 7 6 6 7 5 8 4 9 3 10 2 11 1 12 13 13
REMARK SMILES IDX 14 14 15 15 16 16 17 17 18 18 19 19 20 20 21 21 22 22 23 23
REMARK SMILES IDX 24 24
REMARK H PARENT
REMARK Flexibility Score: inf
ROOT
ATOM      1  C   UNL     1      -3.962   3.647  16.622  1.00  0.00     0.000 C 
ENDROOT
BRANCH   1   2
ATOM      2  C   UNL     1      -2.860   3.042  15.739  1.00  0.00     0.000 C 
BRANCH   2   3
ATOM      3  C   UNL     1      -1.667   3.993  15.554  1.00  0.00     0.000 C 
BRANCH   3   4
ATOM      4  C   UNL     1      -0.897   4.232  16.866  1.00  0.00    -0.000 C 
BRANCH   4   5
ATOM      5  C   UNL     1      -0.154   5.582  16.887  1.00  0.00    -0.000 C 
BRANCH   5   6
ATOM      6  C   UNL     1      -0.113   6.279  18.259  1.00  0.00    -0.000 C 
BRANCH   6   7
ATOM      7  C   UNL     1       0.693   7.590  18.239  1.00  0.00    -0.000 C 
BRANCH   7   8
ATOM      8  C   UNL     1       0.765   8.247  19.636  1.00  0.00    -0.000 C 
BRANCH   8   9
ATOM      9  C   UNL     1       0.287   7.328  20.773  1.00  0.00    -0.000 C 
BRANCH   9  10
ATOM     10  C   UNL     1       1.425   6.896  21.709  1.00  0.00    -0.000 C 
BRANCH  10  11
ATOM     11  C   UNL     1       0.878   6.423  23.059  1.00  0.00    -0.003 C 
ATOM     12  C   UNL     1      -0.646   6.479  23.085  1.00  0.00     0.004 C 
ENDBRANCH  10  11
ENDBRANCH   9  10
ENDBRANCH   8   9
ENDBRANCH   7   8
ENDBRANCH   6   7
ENDBRANCH   5   6
ENDBRANCH   4   5
ENDBRANCH   3   4
ENDBRANCH   2   3
ENDBRANCH   1   2
BRANCH   1  13
ATOM     13  C   UNL     1      -4.533   4.925  15.988  1.00  0.00     0.000 C 
BRANCH  13  14
ATOM     14  C   UNL     1      -5.129   5.886  17.030  1.00  0.00     0.000 C 
BRANCH  14  15
ATOM     15  C   UNL     1      -5.726   7.149  16.392  1.00  0.00     0.000 C 
BRANCH  15  16
ATOM     16  C   UNL     1      -6.526   6.804  15.131  1.00  0.00     0.000 C 
BRANCH  16  17
ATOM     17  C   UNL     1      -7.987   6.480  15.481  1.00  0.00     0.000 C 
BRANCH  17  18
ATOM     18  C   UNL     1      -8.618   5.465  14.513  1.00  0.00     0.000 C 
BRANCH  18  19
ATOM     19  C   UNL     1      -7.592   4.482  13.931  1.00  0.00     0.000 C 
BRANCH  19  20
ATOM     20  C   UNL     1      -7.478   4.648  12.408  1.00  0.00     0.006 C 
BRANCH  20  21
ATOM     21  C   UNL     1      -6.023   4.600  11.924  1.00  0.00     0.053 C 
BRANCH  21  22
ATOM     22  C   UNL     1      -5.764   5.592  10.833  1.00  0.00     0.041 C 
ATOM     23  O   UNL     1      -6.656   5.842   9.979  1.00  0.00    -0.550 OA
ATOM     24  O   UNL     1      -4.547   6.261  10.773  1.00  0.00    -0.550 OA
ENDBRANCH  21  22
ENDBRANCH  20  21
ENDBRANCH  19  20
ENDBRANCH  18  19
ENDBRANCH  17  18
ENDBRANCH  16  17
ENDBRANCH  15  16
ENDBRANCH  14  15
ENDBRANCH  13  14
ENDBRANCH   1  13
TORSDOF 20
ENDMDL
MODEL 4
REMARK VINA RESULT:    -4.950      2.719      8.549
REMARK INTER + INTRA:         -12.955
REMARK INTER:                 -11.218
REMARK INTRA:                  -1.737
REMARK UNBOUND:                -2.217
REMARK SMILES CCCCCCCCCCCCCCCCCCCCCC(=O)[O-]
REMARK SMILES IDX 12 1 11 2 10 3 9 4 8 5 7 6 6 7 5 8 4 9 3 10 2 11 1 12 13 13
REMARK SMILES IDX 14 14 15 15 16 16 17 17 18 18 19 19 20 20 21 21 22 22 23 23
REMARK SMILES IDX 24 24
REMARK H PARENT
REMARK Flexibility Score: inf
ROOT
ATOM      1  C   UNL     1      -4.083   4.372  16.499  1.00  0.00     0.000 C 
ENDROOT
BRANCH   1   2
ATOM      2  C   UNL     1      -3.284   3.101  16.173  1.00  0.00     0.000 C 
BRANCH   2   3
ATOM      3  C   UNL     1      -1.799   3.393  15.905  1.00  0.00     0.000 C 
BRANCH   3   4
ATOM      4  C   UNL     1      -1.065   3.900  17.159  1.00  0.00    -0.000 C 
BRANCH   4   5
ATOM      5  C   UNL     1      -0.484   5.317  16.982  1.00  0.00    -0.000 C 
BRANCH   5   6
ATOM      6  C   UNL     1      -0.147   6.049  18.294  1.00  0.00    -0.000 C 
BRANCH   6   7
ATOM      7  C   UNL     1       0.627   7.359  18.065  1.00  0.00    -0.000 C 
BRANCH   7   8
ATOM      8  C   UNL     1       0.781   8.176  19.367  1.00  0.00    -0.000 C 
BRANCH   8   9
ATOM      9  C   UNL     1       0.258   7.446  20.616  1.00  0.00    -0.000 C 
BRANCH   9  10
ATOM     10  C   UNL     1       1.382   6.834  21.464  1.00  0.00    -0.000 C 
BRANCH  10  11
ATOM     11  C   UNL     1       0.981   6.762  22.941  1.00  0.00    -0.003 C 
ATOM     12  C   UNL     1      -0.497   6.417  23.093  1.00  0.00     0.004 C 
ENDBRANCH  10  11
ENDBRANCH   9  10
ENDBRANCH   8   9
ENDBRANCH   7   8
ENDBRANCH   6   7
ENDBRANCH   5   6
ENDBRANCH   4   5
ENDBRANCH   3   4
ENDBRANCH   2   3
ENDBRANCH   1   2
BRANCH   1  13
ATOM     13  C   UNL     1      -4.629   5.021  15.218  1.00  0.00     0.000 C 
BRANCH  13  14
ATOM     14  C   UNL     1      -4.958   3.989  14.126  1.00  0.00     0.000 C 
BRANCH  14  15
ATOM     15  C   UNL     1      -6.390   4.132  13.593  1.00  0.00     0.000 C 
BRANCH  15  16
ATOM     16  C   UNL     1      -6.409   4.898  12.264  1.00  0.00     0.000 C 
BRANCH  16  17
ATOM     17  C   UNL     1      -7.449   6.029  12.298  1.00  0.00     0.000 C 
BRANCH  17  18
ATOM     18  C   UNL     1      -8.390   5.933  13.509  1.00  0.00     0.000 C 
BRANCH  18  19
ATOM     19  C   UNL     1      -8.468   7.243  14.308  1.00  0.00     0.000 C 
BRANCH  19  20
ATOM     20  C   UNL     1      -8.722   6.962  15.796  1.00  0.00     0.006 C 
BRANCH  20  21
ATOM     21  C   UNL     1      -7.469   6.439  16.512  1.00  0.00     0.053 C 
BRANCH  21  22
ATOM     22  C   UNL     1      -6.676   7.548  17.131  1.00  0.00     0.041 C 
ATOM     23  O   UNL     1      -5.840   8.191  16.442  1.00  0.00    -0.550 OA
ATOM     24  O   UNL     1      -6.877   7.889  18.464  1.00  0.00    -0.550 OA
ENDBRANCH  21  22
ENDBRANCH  20  21
ENDBRANCH  19  20
ENDBRANCH  18  19
ENDBRANCH  17  18
ENDBRANCH  16  17
ENDBRANCH  15  16
ENDBRANCH  14  15
ENDBRANCH  13  14
ENDBRANCH   1  13
TORSDOF 20
ENDMDL
MODEL 5
REMARK VINA RESULT:    -4.932      3.635      8.397
REMARK INTER + INTRA:         -12.916
REMARK INTER:                 -10.201
REMARK INTRA:                  -2.715
REMARK UNBOUND:                -2.217
REMARK SMILES CCCCCCCCCCCCCCCCCCCCCC(=O)[O-]
REMARK SMILES IDX 12 1 11 2 10 3 9 4 8 5 7 6 6 7 5 8 4 9 3 10 2 11 1 12 13 13
REMARK SMILES IDX 14 14 15 15 16 16 17 17 18 18 19 19 20 20 21 21 22 22 23 23
REMARK SMILES IDX 24 24
REMARK H PARENT
REMARK Flexibility Score: inf
ROOT
ATOM      1  C   UNL     1      -4.769   6.023  15.687  1.00  0.00     0.000 C 
ENDROOT
BRANCH   1   2
ATOM      2  C   UNL     1      -5.346   5.139  16.803  1.00  0.00     0.000 C 
BRANCH   2   3
ATOM      3  C   UNL     1      -5.182   3.639  16.509  1.00  0.00     0.000 C 
BRANCH   3   4
ATOM      4  C   UNL     1      -3.857   3.323  15.792  1.00  0.00    -0.000 C 
BRANCH   4   5
ATOM      5  C   UNL     1      -2.829   2.632  16.709  1.00  0.00    -0.000 C 
BRANCH   5   6
ATOM      6  C   UNL     1      -1.443   3.301  16.751  1.00  0.00    -0.000 C 
BRANCH   6   7
ATOM      7  C   UNL     1      -1.507   4.824  16.541  1.00  0.00    -0.000 C 
BRANCH   7   8
ATOM      8  C   UNL     1      -0.184   5.519  16.932  1.00  0.00    -0.000 C 
BRANCH   8   9
ATOM      9  C   UNL     1      -0.167   6.039  18.380  1.00  0.00    -0.000 C 
BRANCH   9  10
ATOM     10  C   UNL     1       0.630   7.341  18.537  1.00  0.00    -0.000 C 
BRANCH  10  11
ATOM     11  C   UNL     1       0.391   7.971  19.913  1.00  0.00    -0.003 C 
ATOM     12  C   UNL     1       0.109   6.903  20.964  1.00  0.00     0.004 C 
ENDBRANCH  10  11
ENDBRANCH   9  10
ENDBRANCH   8   9
ENDBRANCH   7   8
ENDBRANCH   6   7
ENDBRANCH   5   6
ENDBRANCH   4   5
ENDBRANCH   3   4
ENDBRANCH   2   3
ENDBRANCH   1   2
BRANCH   1  13
ATOM     13  C   UNL     1      -5.605   7.300  15.512  1.00  0.00     0.000 C 
BRANCH  13  14
ATOM     14  C   UNL     1      -7.039   7.146  16.045  1.00  0.00     0.000 C 
BRANCH  14  15
ATOM     15  C   UNL     1      -8.088   7.151  14.924  1.00  0.00     0.000 C 
BRANCH  15  16
ATOM     16  C   UNL     1      -8.891   5.845  14.915  1.00  0.00     0.000 C 
BRANCH  16  17
ATOM     17  C   UNL     1      -8.674   5.077  13.602  1.00  0.00     0.000 C 
BRANCH  17  18
ATOM     18  C   UNL     1      -7.367   4.268  13.597  1.00  0.00     0.000 C 
BRANCH  18  19
ATOM     19  C   UNL     1      -6.703   4.218  12.213  1.00  0.00     0.000 C 
BRANCH  19  20
ATOM     20  C   UNL     1      -5.412   5.050  12.196  1.00  0.00     0.006 C 
BRANCH  20  21
ATOM     21  C   UNL     1      -5.426   6.123  11.099  1.00  0.00     0.053 C 
BRANCH  21  22
ATOM     22  C   UNL     1      -6.424   7.202  11.387  1.00  0.00     0.041 C 
ATOM     23  O   UNL     1      -7.581   7.145  10.891  1.00  0.00    -0.550 OA
ATOM     24  O   UNL     1      -6.086   8.260  12.223  1.00  0.00    -0.550 OA
ENDBRANCH  21  22
ENDBRANCH  20  21
ENDBRANCH  19  20
ENDBRANCH  18  19
ENDBRANCH  17  18
ENDBRANCH  16  17
ENDBRANCH  15  16
ENDBRANCH  14  15
ENDBRANCH  13  14
ENDBRANCH   1  13
TORSDOF 20
ENDMDL
MODEL 6
REMARK VINA RESULT:    -4.884      1.288      1.965
REMARK INTER + INTRA:         -12.810
REMARK INTER:                 -10.952
REMARK INTRA:                  -1.858
REMARK UNBOUND:                -2.217
REMARK SMILES CCCCCCCCCCCCCCCCCCCCCC(=O)[O-]
REMARK SMILES IDX 12 1 11 2 10 3 9 4 8 5 7 6 6 7 5 8 4 9 3 10 2 11 1 12 13 13
REMARK SMILES IDX 14 14 15 15 16 16 17 17 18 18 19 19 20 20 21 21 22 22 23 23
REMARK SMILES IDX 24 24
REMARK H PARENT
REMARK Flexibility Score: inf
ROOT
ATOM      1  C   UNL     1      -5.443   3.765  16.400  1.00  0.00     0.000 C 
ENDROOT
BRANCH   1   2
ATOM      2  C   UNL     1      -5.140   5.250  16.150  1.00  0.00     0.000 C 
BRANCH   2   3
ATOM      3  C   UNL     1      -5.839   6.171  17.163  1.00  0.00     0.000 C 
BRANCH   3   4
ATOM      4  C   UNL     1      -6.909   7.061  16.507  1.00  0.00    -0.000 C 
BRANCH   4   5
ATOM      5  C   UNL     1      -8.106   6.258  15.962  1.00  0.00    -0.000 C 
BRANCH   5   6
ATOM      6  C   UNL     1      -9.109   7.073  15.126  1.00  0.00    -0.000 C 
BRANCH   6   7
ATOM      7  C   UNL     1      -8.443   7.826  13.960  1.00  0.00    -0.000 C 
BRANCH   7   8
ATOM      8  C   UNL     1      -8.979   7.360  12.589  1.00  0.00    -0.000 C 
BRANCH   8   9
ATOM      9  C   UNL     1      -8.695   5.878  12.289  1.00  0.00    -0.000 C 
BRANCH   9  10
ATOM     10  C   UNL     1      -7.284   5.641  11.731  1.00  0.00    -0.000 C 
BRANCH  10  11
ATOM     11  C   UNL     1      -6.315   5.224  12.841  1.00  0.00    -0.003 C 
ATOM     12  C   UNL     1      -5.659   3.884  12.523  1.00  0.00     0.004 C 
ENDBRANCH  10  11
ENDBRANCH   9  10
ENDBRANCH   8   9
ENDBRANCH   7   8
ENDBRANCH   6   7
ENDBRANCH   5   6
ENDBRANCH   4   5
ENDBRANCH   3   4
ENDBRANCH   2   3
ENDBRANCH   1   2
BRANCH   1  13
ATOM     13  C   UNL     1      -4.151   2.978  16.666  1.00  0.00     0.000 C 
BRANCH  13  14
ATOM     14  C   UNL     1      -2.956   3.515  15.862  1.00  0.00     0.000 C 
BRANCH  14  15
ATOM     15  C   UNL     1      -1.608   3.199  16.527  1.00  0.00     0.000 C 
BRANCH  15  16
ATOM     16  C   UNL     1      -0.629   4.368  16.368  1.00  0.00     0.000 C 
BRANCH  16  17
ATOM     17  C   UNL     1      -1.029   5.545  17.272  1.00  0.00     0.000 C 
BRANCH  17  18
ATOM     18  C   UNL     1      -0.078   5.726  18.466  1.00  0.00     0.000 C 
BRANCH  18  19
ATOM     19  C   UNL     1       0.333   7.191  18.681  1.00  0.00     0.000 C 
BRANCH  19  20
ATOM     20  C   UNL     1       0.563   7.481  20.172  1.00  0.00     0.006 C 
BRANCH  20  21
ATOM     21  C   UNL     1      -0.432   6.733  21.070  1.00  0.00     0.053 C 
BRANCH  21  22
ATOM     22  C   UNL     1       0.011   6.716  22.501  1.00  0.00     0.041 C 
ATOM     23  O   UNL     1      -0.838   6.803  23.428  1.00  0.00    -0.550 OA
ATOM     24  O   UNL     1       1.358   6.577  22.812  1.00  0.00    -0.550 OA
ENDBRANCH  21  22
ENDBRANCH  20  21
ENDBRANCH  19  20
ENDBRANCH  18  19
ENDBRANCH  17  18
ENDBRANCH  16  17
ENDBRANCH  15  16
ENDBRANCH  14  15
ENDBRANCH  13  14
ENDBRANCH   1  13
TORSDOF 20
ENDMDL
MODEL 7
REMARK VINA RESULT:    -4.848      1.772      2.426
REMARK INTER + INTRA:         -12.732
REMARK INTER:                  -9.617
REMARK INTRA:                  -3.115
REMARK UNBOUND:                -2.217
REMARK SMILES CCCCCCCCCCCCCCCCCCCCCC(=O)[O-]
REMARK SMILES IDX 12 1 11 2 10 3 9 4 8 5 7 6 6 7 5 8 4 9 3 10 2 11 1 12 13 13
REMARK SMILES IDX 14 14 15 15 16 16 17 17 18 18 19 19 20 20 21 21 22 22 23 23
REMARK SMILES IDX 24 24
REMARK H PARENT
REMARK Flexibility Score: inf
ROOT
ATOM      1  C   UNL     1      -5.503   5.956  17.031  1.00  0.00     0.000 C 
ENDROOT
BRANCH   1   2
ATOM      2  C   UNL     1      -6.799   6.775  17.130  1.00  0.00     0.000 C 
BRANCH   2   3
ATOM      3  C   UNL     1      -7.397   7.097  15.752  1.00  0.00     0.000 C 
BRANCH   3   4
ATOM      4  C   UNL     1      -8.803   6.498  15.566  1.00  0.00    -0.000 C 
BRANCH   4   5
ATOM      5  C   UNL     1      -8.974   5.776  14.216  1.00  0.00    -0.000 C 
BRANCH   5   6
ATOM      6  C   UNL     1      -8.015   4.595  13.985  1.00  0.00    -0.000 C 
BRANCH   6   7
ATOM      7  C   UNL     1      -7.507   4.511  12.534  1.00  0.00    -0.000 C 
BRANCH   7   8
ATOM      8  C   UNL     1      -7.372   5.906  11.886  1.00  0.00    -0.000 C 
BRANCH   8   9
ATOM      9  C   UNL     1      -5.993   6.554  12.103  1.00  0.00    -0.000 C 
BRANCH   9  10
ATOM     10  C   UNL     1      -6.085   8.035  12.495  1.00  0.00    -0.000 C 
BRANCH  10  11
ATOM     11  C   UNL     1      -7.473   8.603  12.182  1.00  0.00    -0.003 C 
ATOM     12  C   UNL     1      -7.507   9.236  10.795  1.00  0.00     0.004 C 
ENDBRANCH  10  11
ENDBRANCH   9  10
ENDBRANCH   8   9
ENDBRANCH   7   8
ENDBRANCH   6   7
ENDBRANCH   5   6
ENDBRANCH   4   5
ENDBRANCH   3   4
ENDBRANCH   2   3
ENDBRANCH   1   2
BRANCH   1  13
ATOM     13  C   UNL     1      -4.856   6.119  15.647  1.00  0.00     0.000 C 
BRANCH  13  14
ATOM     14  C   UNL     1      -4.457   4.773  15.019  1.00  0.00     0.000 C 
BRANCH  14  15
ATOM     15  C   UNL     1      -4.909   3.572  15.863  1.00  0.00     0.000 C 
BRANCH  15  16
ATOM     16  C   UNL     1      -3.719   2.924  16.579  1.00  0.00     0.000 C 
BRANCH  16  17
ATOM     17  C   UNL     1      -2.414   3.171  15.807  1.00  0.00     0.000 C 
BRANCH  17  18
ATOM     18  C   UNL     1      -1.284   3.701  16.704  1.00  0.00     0.000 C 
BRANCH  18  19
ATOM     19  C   UNL     1      -1.326   5.227  16.875  1.00  0.00     0.000 C 
BRANCH  19  20
ATOM     20  C   UNL     1       0.007   5.753  17.427  1.00  0.00     0.006 C 
BRANCH  20  21
ATOM     21  C   UNL     1      -0.147   6.384  18.817  1.00  0.00     0.053 C 
BRANCH  21  22
ATOM     22  C   UNL     1       0.487   7.739  18.888  1.00  0.00     0.041 C 
ATOM     23  O   UNL     1       0.593   8.331  19.995  1.00  0.00    -0.550 OA
ATOM     24  O   UNL     1       0.985   8.337  17.737  1.00  0.00    -0.550 OA
ENDBRANCH  21  22
ENDBRANCH  20  21
ENDBRANCH  19  20
ENDBRANCH  18  19
ENDBRANCH  17  18
ENDBRANCH  16  17
ENDBRANCH  15  16
ENDBRANCH  14  15
ENDBRANCH  13  14
ENDBRANCH   1  13
TORSDOF 20
ENDMDL
MODEL 8
REMARK VINA RESULT:    -4.800      2.755      5.026
REMARK INTER + INTRA:         -12.628
REMARK INTER:                  -8.610
REMARK INTRA:                  -4.018
REMARK UNBOUND:                -2.217
REMARK SMILES CCCCCCCCCCCCCCCCCCCCCC(=O)[O-]
REMARK SMILES IDX 12 1 11 2 10 3 9 4 8 5 7 6 6 7 5 8 4 9 3 10 2 11 1 12 13 13
REMARK SMILES IDX 14 14 15 15 16 16 17 17 18 18 19 19 20 20 21 21 22 22 23 23
REMARK SMILES IDX 24 24
REMARK H PARENT
REMARK Flexibility Score: inf
ROOT
ATOM      1  C   UNL     1      -6.093   4.627  13.521  1.00  0.00     0.000 C 
ENDROOT
BRANCH   1   2
ATOM      2  C   UNL     1      -5.881   4.256  12.046  1.00  0.00     0.000 C 
BRANCH   2   3
ATOM      3  C   UNL     1      -7.134   4.503  11.191  1.00  0.00     0.000 C 
BRANCH   3   4
ATOM      4  C   UNL     1      -6.882   5.507  10.053  1.00  0.00    -0.000 C 
BRANCH   4   5
ATOM      5  C   UNL     1      -7.951   6.615   9.983  1.00  0.00    -0.000 C 
BRANCH   5   6
ATOM      6  C   UNL     1      -8.924   6.655  11.175  1.00  0.00    -0.000 C 
BRANCH   6   7
ATOM      7  C   UNL     1      -8.631   7.812  12.147  1.00  0.00    -0.000 C 
BRANCH   7   8
ATOM      8  C   UNL     1      -7.585   8.796  11.578  1.00  0.00    -0.000 C 
BRANCH   8   9
ATOM      9  C   UNL     1      -6.445   9.116  12.560  1.00  0.00    -0.000 C 
BRANCH   9  10
ATOM     10  C   UNL     1      -5.300   8.094  12.498  1.00  0.00    -0.000 C 
BRANCH  10  11
ATOM     11  C   UNL     1      -4.335   8.277  13.674  1.00  0.00    -0.003 C 
ATOM     12  C   UNL     1      -3.304   7.154  13.718  1.00  0.00     0.004 C 
ENDBRANCH  10  11
ENDBRANCH   9  10
ENDBRANCH   8   9
ENDBRANCH   7   8
ENDBRANCH   6   7
ENDBRANCH   5   6
ENDBRANCH   4   5
ENDBRANCH   3   4
ENDBRANCH   2   3
ENDBRANCH   1   2
BRANCH   1  13
ATOM     13  C   UNL     1      -7.577   4.524  13.904  1.00  0.00     0.000 C 
BRANCH  13  14
ATOM     14  C   UNL     1      -7.991   5.571  14.952  1.00  0.00     0.000 C 
BRANCH  14  15
ATOM     15  C   UNL     1      -6.825   6.479  15.370  1.00  0.00     0.000 C 
BRANCH  15  16
ATOM     16  C   UNL     1      -6.931   6.863  16.851  1.00  0.00     0.000 C 
BRANCH  16  17
ATOM     17  C   UNL     1      -5.859   6.140  17.682  1.00  0.00     0.000 C 
BRANCH  17  18
ATOM     18  C   UNL     1      -4.886   5.325  16.815  1.00  0.00     0.000 C 
BRANCH  18  19
ATOM     19  C   UNL     1      -5.029   3.810  17.024  1.00  0.00     0.000 C 
BRANCH  19  20
ATOM     20  C   UNL     1      -4.156   3.035  16.026  1.00  0.00     0.006 C 
BRANCH  20  21
ATOM     21  C   UNL     1      -2.858   3.780  15.688  1.00  0.00     0.053 C 
BRANCH  21  22
ATOM     22  C   UNL     1      -1.738   3.395  16.605  1.00  0.00     0.041 C 
ATOM     23  O   UNL     1      -1.606   2.199  16.976  1.00  0.00    -0.550 OA
ATOM     24  O   UNL     1      -0.825   4.353  17.030  1.00  0.00    -0.550 OA
ENDBRANCH  21  22
ENDBRANCH  20  21
ENDBRANCH  19  20
ENDBRANCH  18  19
ENDBRANCH  17  18
ENDBRANCH  16  17
ENDBRANCH  15  16
ENDBRANCH  14  15
ENDBRANCH  13  14
ENDBRANCH   1  13
TORSDOF 20
ENDMDL
MODEL 9
REMARK VINA RESULT:    -4.742      1.609      2.878
REMARK INTER + INTRA:         -12.503
REMARK INTER:                  -9.738
REMARK INTRA:                  -2.765
REMARK UNBOUND:                -2.217
REMARK SMILES CCCCCCCCCCCCCCCCCCCCCC(=O)[O-]
REMARK SMILES IDX 12 1 11 2 10 3 9 4 8 5 7 6 6 7 5 8 4 9 3 10 2 11 1 12 13 13
REMARK SMILES IDX 14 14 15 15 16 16 17 17 18 18 19 19 20 20 21 21 22 22 23 23
REMARK SMILES IDX 24 24
REMARK H PARENT
REMARK Flexibility Score: inf
ROOT
ATOM      1  C   UNL     1      -7.247   7.087  17.310  1.00  0.00     0.000 C 
ENDROOT
BRANCH   1   2
ATOM      2  C   UNL     1      -7.376   7.081  15.780  1.00  0.00     0.000 C 
BRANCH   2   3
ATOM      3  C   UNL     1      -8.841   7.086  15.314  1.00  0.00     0.000 C 
BRANCH   3   4
ATOM      4  C   UNL     1      -9.052   7.937  14.049  1.00  0.00    -0.000 C 
BRANCH   4   5
ATOM      5  C   UNL     1      -7.819   8.786  13.684  1.00  0.00    -0.000 C 
BRANCH   5   6
ATOM      6  C   UNL     1      -7.415   8.740  12.200  1.00  0.00    -0.000 C 
BRANCH   6   7
ATOM      7  C   UNL     1      -7.449   7.317  11.614  1.00  0.00    -0.000 C 
BRANCH   7   8
ATOM      8  C   UNL     1      -6.177   6.994  10.801  1.00  0.00    -0.000 C 
BRANCH   8   9
ATOM      9  C   UNL     1      -5.410   5.767  11.321  1.00  0.00    -0.000 C 
BRANCH   9  10
ATOM     10  C   UNL     1      -5.612   5.529  12.824  1.00  0.00    -0.000 C 
BRANCH  10  11
ATOM     11  C   UNL     1      -6.162   4.123  13.090  1.00  0.00    -0.003 C 
ATOM     12  C   UNL     1      -7.643   4.171  13.449  1.00  0.00     0.004 C 
ENDBRANCH  10  11
ENDBRANCH   9  10
ENDBRANCH   8   9
ENDBRANCH   7   8
ENDBRANCH   6   7
ENDBRANCH   5   6
ENDBRANCH   4   5
ENDBRANCH   3   4
ENDBRANCH   2   3
ENDBRANCH   1   2
BRANCH   1  13
ATOM     13  C   UNL     1      -5.966   6.364  17.755  1.00  0.00     0.000 C 
BRANCH  13  14
ATOM     14  C   UNL     1      -5.201   5.738  16.578  1.00  0.00     0.000 C 
BRANCH  14  15
ATOM     15  C   UNL     1      -5.086   4.211  16.694  1.00  0.00     0.000 C 
BRANCH  15  16
ATOM     16  C   UNL     1      -3.871   3.690  15.919  1.00  0.00     0.000 C 
BRANCH  16  17
ATOM     17  C   UNL     1      -2.803   4.786  15.772  1.00  0.00     0.000 C 
BRANCH  17  18
ATOM     18  C   UNL     1      -1.371   4.234  15.857  1.00  0.00     0.000 C 
BRANCH  18  19
ATOM     19  C   UNL     1      -0.741   4.427  17.245  1.00  0.00     0.000 C 
BRANCH  19  20
ATOM     20  C   UNL     1      -0.185   5.851  17.400  1.00  0.00     0.006 C 
BRANCH  20  21
ATOM     21  C   UNL     1      -0.172   6.314  18.862  1.00  0.00     0.053 C 
BRANCH  21  22
ATOM     22  C   UNL     1       0.571   7.603  19.034  1.00  0.00     0.041 C 
ATOM     23  O   UNL     1       0.974   7.956  20.174  1.00  0.00    -0.550 OA
ATOM     24  O   UNL     1       0.843   8.403  17.930  1.00  0.00    -0.550 OA
ENDBRANCH  21  22
ENDBRANCH  20  21
ENDBRANCH  19  20
ENDBRANCH  18  19
ENDBRANCH  17  18
ENDBRANCH  16  17
ENDBRANCH  15  16
ENDBRANCH  14  15
ENDBRANCH  13  14
ENDBRANCH   1  13
TORSDOF 20
ENDMDL
