MODEL 1
REMARK VINA RESULT:     3.194      0.000      0.000
REMARK INTER + INTRA:           4.739
REMARK INTER:                   6.929
REMARK INTRA:                  -2.190
REMARK UNBOUND:                -2.190
REMARK SMILES CCCCCCCCCCCCCCCCCCCCCC(=O)[O-]
REMARK SMILES IDX 12 1 11 2 10 3 9 4 8 5 7 6 6 7 5 8 4 9 3 10 2 11 1 12 13 13
REMARK SMILES IDX 14 14 15 15 16 16 17 17 18 18 19 19 20 20 21 21 22 22 23 23
REMARK SMILES IDX 24 24
REMARK H PARENT
REMARK Flexibility Score: inf
ROOT
ATOM      1  C   UNL     1     -28.764 -21.473 -19.668  1.00  0.00     0.000 C 
ENDROOT
BRANCH   1   2
ATOM      2  C   UNL     1     -29.416 -22.816 -20.042  1.00  0.00     0.000 C 
BRANCH   2   3
ATOM      3  C   UNL     1     -29.329 -23.125 -21.544  1.00  0.00     0.000 C 
BRANCH   3   4
ATOM      4  C   UNL     1     -27.889 -23.045 -22.081  1.00  0.00    -0.000 C 
BRANCH   4   5
ATOM      5  C   UNL     1     -27.680 -21.878 -23.060  1.00  0.00    -0.000 C 
BRANCH   5   6
ATOM      6  C   UNL     1     -28.975 -21.091 -23.333  1.00  0.00    -0.000 C 
BRANCH   6   7
ATOM      7  C   UNL     1     -29.212 -20.850 -24.832  1.00  0.00    -0.000 C 
BRANCH   7   8
ATOM      8  C   UNL     1     -30.699 -20.678 -25.177  1.00  0.00    -0.000 C 
BRANCH   8   9
ATOM      9  C   UNL     1     -31.581 -21.514 -24.240  1.00  0.00    -0.000 C 
BRANCH   9  10
ATOM     10  C   UNL     1     -32.469 -20.610 -23.369  1.00  0.00    -0.000 C 
BRANCH  10  11
ATOM     11  C   UNL     1     -32.310 -20.895 -21.868  1.00  0.00    -0.003 C 
ATOM     12  C   UNL     1     -31.776 -19.693 -21.090  1.00  0.00     0.004 C 
ENDBRANCH  10  11
ENDBRANCH   9  10
ENDBRANCH   8   9
ENDBRANCH   7   8
ENDBRANCH   6   7
ENDBRANCH   5   6
ENDBRANCH   4   5
ENDBRANCH   3   4
ENDBRANCH   2   3
ENDBRANCH   1   2
BRANCH   1  13
ATOM     13  C   UNL     1     -28.200 -21.481 -18.231  1.00  0.00     0.000 C 
BRANCH  13  14
ATOM     14  C   UNL     1     -27.876 -22.888 -17.701  1.00  0.00     0.000 C 
BRANCH  14  15
ATOM     15  C   UNL     1     -28.395 -23.124 -16.273  1.00  0.00     0.000 C 
BRANCH  15  16
ATOM     16  C   UNL     1     -29.921 -22.984 -16.173  1.00  0.00     0.000 C 
BRANCH  16  17
ATOM     17  C   UNL     1     -30.390 -22.615 -14.757  1.00  0.00     0.000 C 
BRANCH  17  18
ATOM     18  C   UNL     1     -31.640 -21.728 -14.805  1.00  0.00     0.000 C 
BRANCH  18  19
ATOM     19  C   UNL     1     -31.667 -20.753 -13.618  1.00  0.00     0.000 C 
BRANCH  19  20
ATOM     20  C   UNL     1     -30.801 -19.501 -13.852  1.00  0.00     0.006 C 
BRANCH  20  21
ATOM     21  C   UNL     1     -29.470 -19.497 -13.081  1.00  0.00     0.053 C 
BRANCH  21  22
ATOM     22  C   UNL     1     -29.549 -18.693 -11.821  1.00  0.00     0.041 C 
ATOM     23  O   UNL     1     -29.130 -19.174 -10.735  1.00  0.00    -0.550 OA
ATOM     24  O   UNL     1     -30.046 -17.397 -11.855  1.00  0.00    -0.550 OA
ENDBRANCH  21  22
ENDBRANCH  20  21
ENDBRANCH  19  20
ENDBRANCH  18  19
ENDBRANCH  17  18
ENDBRANCH  16  17
ENDBRANCH  15  16
ENDBRANCH  14  15
ENDBRANCH  13  14
ENDBRANCH   1  13
TORSDOF 20
ENDMDL
MODEL 2
REMARK VINA RESULT:     3.579      4.232      8.971
REMARK INTER + INTRA:           5.574
REMARK INTER:                   7.209
REMARK INTRA:                  -1.635
REMARK UNBOUND:                -2.190
REMARK SMILES CCCCCCCCCCCCCCCCCCCCCC(=O)[O-]
REMARK SMILES IDX 12 1 11 2 10 3 9 4 8 5 7 6 6 7 5 8 4 9 3 10 2 11 1 12 13 13
REMARK SMILES IDX 14 14 15 15 16 16 17 17 18 18 19 19 20 20 21 21 22 22 23 23
REMARK SMILES IDX 24 24
REMARK H PARENT
REMARK Flexibility Score: inf
ROOT
ATOM      1  C   UNL     1     -28.536 -20.861 -18.806  1.00  0.00     0.000 C 
ENDROOT
BRANCH   1   2
ATOM      2  C   UNL     1     -27.332 -21.816 -18.716  1.00  0.00     0.000 C 
BRANCH   2   3
ATOM      3  C   UNL     1     -27.598 -23.029 -17.812  1.00  0.00     0.000 C 
BRANCH   3   4
ATOM      4  C   UNL     1     -27.278 -22.745 -16.334  1.00  0.00    -0.000 C 
BRANCH   4   5
ATOM      5  C   UNL     1     -28.431 -23.125 -15.389  1.00  0.00    -0.000 C 
BRANCH   5   6
ATOM      6  C   UNL     1     -29.810 -22.718 -15.941  1.00  0.00    -0.000 C 
BRANCH   6   7
ATOM      7  C   UNL     1     -30.949 -23.010 -14.950  1.00  0.00    -0.000 C 
BRANCH   7   8
ATOM      8  C   UNL     1     -31.706 -21.741 -14.529  1.00  0.00    -0.000 C 
BRANCH   8   9
ATOM      9  C   UNL     1     -30.779 -20.519 -14.539  1.00  0.00    -0.000 C 
BRANCH   9  10
ATOM     10  C   UNL     1     -30.894 -19.730 -13.225  1.00  0.00    -0.000 C 
BRANCH  10  11
ATOM     11  C   UNL     1     -29.566 -19.082 -12.807  1.00  0.00    -0.003 C 
ATOM     12  C   UNL     1     -29.431 -18.933 -11.292  1.00  0.00     0.004 C 
ENDBRANCH  10  11
ENDBRANCH   9  10
ENDBRANCH   8   9
ENDBRANCH   7   8
ENDBRANCH   6   7
ENDBRANCH   5   6
ENDBRANCH   4   5
ENDBRANCH   3   4
ENDBRANCH   2   3
ENDBRANCH   1   2
BRANCH   1  13
ATOM     13  C   UNL     1     -29.181 -20.871 -20.208  1.00  0.00     0.000 C 
BRANCH  13  14
ATOM     14  C   UNL     1     -28.661 -21.996 -21.121  1.00  0.00     0.000 C 
BRANCH  14  15
ATOM     15  C   UNL     1     -29.785 -22.713 -21.886  1.00  0.00     0.000 C 
BRANCH  15  16
ATOM     16  C   UNL     1     -31.149 -22.574 -21.193  1.00  0.00     0.000 C 
BRANCH  16  17
ATOM     17  C   UNL     1     -32.158 -21.771 -22.028  1.00  0.00     0.000 C 
BRANCH  17  18
ATOM     18  C   UNL     1     -32.245 -20.320 -21.541  1.00  0.00     0.000 C 
BRANCH  18  19
ATOM     19  C   UNL     1     -32.685 -19.385 -22.677  1.00  0.00     0.000 C 
BRANCH  19  20
ATOM     20  C   UNL     1     -32.608 -20.050 -24.064  1.00  0.00     0.006 C 
BRANCH  20  21
ATOM     21  C   UNL     1     -31.344 -19.700 -24.866  1.00  0.00     0.053 C 
BRANCH  21  22
ATOM     22  C   UNL     1     -30.599 -20.922 -25.308  1.00  0.00     0.041 C 
ATOM     23  O   UNL     1     -29.456 -21.169 -24.840  1.00  0.00    -0.550 OA
ATOM     24  O   UNL     1     -31.185 -21.807 -26.202  1.00  0.00    -0.550 OA
ENDBRANCH  21  22
ENDBRANCH  20  21
ENDBRANCH  19  20
ENDBRANCH  18  19
ENDBRANCH  17  18
ENDBRANCH  16  17
ENDBRANCH  15  16
ENDBRANCH  14  15
ENDBRANCH  13  14
ENDBRANCH   1  13
TORSDOF 20
ENDMDL
MODEL 3
REMARK VINA RESULT:     3.723      3.233      8.830
REMARK INTER + INTRA:           5.885
REMARK INTER:                   6.581
REMARK INTRA:                  -0.696
REMARK UNBOUND:                -2.190
REMARK SMILES CCCCCCCCCCCCCCCCCCCCCC(=O)[O-]
REMARK SMILES IDX 12 1 11 2 10 3 9 4 8 5 7 6 6 7 5 8 4 9 3 10 2 11 1 12 13 13
REMARK SMILES IDX 14 14 15 15 16 16 17 17 18 18 19 19 20 20 21 21 22 22 23 23
REMARK SMILES IDX 24 24
REMARK H PARENT
REMARK Flexibility Score: inf
ROOT
ATOM      1  C   UNL     1     -29.131 -21.360 -19.592  1.00  0.00     0.000 C 
ENDROOT
BRANCH   1   2
ATOM      2  C   UNL     1     -28.754 -22.626 -18.800  1.00  0.00     0.000 C 
BRANCH   2   3
ATOM      3  C   UNL     1     -27.655 -22.371 -17.757  1.00  0.00     0.000 C 
BRANCH   3   4
ATOM      4  C   UNL     1     -28.000 -22.961 -16.379  1.00  0.00    -0.000 C 
BRANCH   4   5
ATOM      5  C   UNL     1     -29.514 -23.124 -16.162  1.00  0.00    -0.000 C 
BRANCH   5   6
ATOM      6  C   UNL     1     -30.194 -21.821 -15.703  1.00  0.00    -0.000 C 
BRANCH   6   7
ATOM      7  C   UNL     1     -30.909 -21.975 -14.352  1.00  0.00    -0.000 C 
BRANCH   7   8
ATOM      8  C   UNL     1     -31.793 -20.766 -14.009  1.00  0.00    -0.000 C 
BRANCH   8   9
ATOM      9  C   UNL     1     -30.943 -19.508 -13.788  1.00  0.00    -0.000 C 
BRANCH   9  10
ATOM     10  C   UNL     1     -29.768 -19.799 -12.840  1.00  0.00    -0.000 C 
BRANCH  10  11
ATOM     11  C   UNL     1     -29.656 -18.769 -11.705  1.00  0.00    -0.003 C 
ATOM     12  C   UNL     1     -29.777 -17.328 -12.199  1.00  0.00     0.004 C 
ENDBRANCH  10  11
ENDBRANCH   9  10
ENDBRANCH   8   9
ENDBRANCH   7   8
ENDBRANCH   6   7
ENDBRANCH   5   6
ENDBRANCH   4   5
ENDBRANCH   3   4
ENDBRANCH   2   3
ENDBRANCH   1   2
BRANCH   1  13
ATOM     13  C   UNL     1     -29.402 -21.668 -21.080  1.00  0.00     0.000 C 
BRANCH  13  14
ATOM     14  C   UNL     1     -28.736 -22.962 -21.577  1.00  0.00     0.000 C 
BRANCH  14  15
ATOM     15  C   UNL     1     -27.757 -22.724 -22.739  1.00  0.00     0.000 C 
BRANCH  15  16
ATOM     16  C   UNL     1     -28.075 -21.439 -23.519  1.00  0.00     0.000 C 
BRANCH  16  17
ATOM     17  C   UNL     1     -29.199 -21.633 -24.548  1.00  0.00     0.000 C 
BRANCH  17  18
ATOM     18  C   UNL     1     -29.819 -20.289 -24.947  1.00  0.00     0.000 C 
BRANCH  18  19
ATOM     19  C   UNL     1     -31.327 -20.272 -24.660  1.00  0.00     0.000 C 
BRANCH  19  20
ATOM     20  C   UNL     1     -31.763 -21.379 -23.682  1.00  0.00     0.006 C 
BRANCH  20  21
ATOM     21  C   UNL     1     -31.912 -20.914 -22.223  1.00  0.00     0.053 C 
BRANCH  21  22
ATOM     22  C   UNL     1     -32.847 -19.752 -22.092  1.00  0.00     0.041 C 
ATOM     23  O   UNL     1     -33.766 -19.581 -22.937  1.00  0.00    -0.550 OA
ATOM     24  O   UNL     1     -32.730 -18.885 -21.015  1.00  0.00    -0.550 OA
ENDBRANCH  21  22
ENDBRANCH  20  21
ENDBRANCH  19  20
ENDBRANCH  18  19
ENDBRANCH  17  18
ENDBRANCH  16  17
ENDBRANCH  15  16
ENDBRANCH  14  15
ENDBRANCH  13  14
ENDBRANCH   1  13
TORSDOF 20
ENDMDL
MODEL 4
REMARK VINA RESULT:     3.790      3.865      8.945
REMARK INTER + INTRA:           6.030
REMARK INTER:                   5.371
REMARK INTRA:                   0.659
REMARK UNBOUND:                -2.190
REMARK SMILES CCCCCCCCCCCCCCCCCCCCCC(=O)[O-]
REMARK SMILES IDX 12 1 11 2 10 3 9 4 8 5 7 6 6 7 5 8 4 9 3 10 2 11 1 12 13 13
REMARK SMILES IDX 14 14 15 15 16 16 17 17 18 18 19 19 20 20 21 21 22 22 23 23
REMARK SMILES IDX 24 24
REMARK H PARENT
REMARK Flexibility Score: inf
ROOT
ATOM      1  C   UNL     1     -31.168 -21.238 -20.925  1.00  0.00     0.000 C 
ENDROOT
BRANCH   1   2
ATOM      2  C   UNL     1     -30.961 -22.758 -20.799  1.00  0.00     0.000 C 
BRANCH   2   3
ATOM      3  C   UNL     1     -29.619 -23.125 -20.147  1.00  0.00     0.000 C 
BRANCH   3   4
ATOM      4  C   UNL     1     -28.689 -21.910 -19.986  1.00  0.00    -0.000 C 
BRANCH   4   5
ATOM      5  C   UNL     1     -28.408 -21.562 -18.514  1.00  0.00    -0.000 C 
BRANCH   5   6
ATOM      6  C   UNL     1     -27.425 -22.544 -17.849  1.00  0.00    -0.000 C 
BRANCH   6   7
ATOM      7  C   UNL     1     -27.850 -22.923 -16.422  1.00  0.00    -0.000 C 
BRANCH   7   8
ATOM      8  C   UNL     1     -29.368 -23.125 -16.290  1.00  0.00    -0.000 C 
BRANCH   8   9
ATOM      9  C   UNL     1     -29.920 -22.362 -15.080  1.00  0.00    -0.000 C 
BRANCH   9  10
ATOM     10  C   UNL     1     -31.458 -22.359 -15.086  1.00  0.00    -0.000 C 
BRANCH  10  11
ATOM     11  C   UNL     1     -32.049 -21.067 -14.502  1.00  0.00    -0.003 C 
ATOM     12  C   UNL     1     -31.050 -20.297 -13.638  1.00  0.00     0.004 C 
ENDBRANCH  10  11
ENDBRANCH   9  10
ENDBRANCH   8   9
ENDBRANCH   7   8
ENDBRANCH   6   7
ENDBRANCH   5   6
ENDBRANCH   4   5
ENDBRANCH   3   4
ENDBRANCH   2   3
ENDBRANCH   1   2
BRANCH   1  13
ATOM     13  C   UNL     1     -32.489 -20.890 -21.645  1.00  0.00     0.000 C 
BRANCH  13  14
ATOM     14  C   UNL     1     -32.772 -19.380 -21.724  1.00  0.00     0.000 C 
BRANCH  14  15
ATOM     15  C   UNL     1     -33.028 -18.893 -23.160  1.00  0.00     0.000 C 
BRANCH  15  16
ATOM     16  C   UNL     1     -32.486 -19.869 -24.215  1.00  0.00     0.000 C 
BRANCH  16  17
ATOM     17  C   UNL     1     -31.106 -19.458 -24.749  1.00  0.00     0.000 C 
BRANCH  17  18
ATOM     18  C   UNL     1     -31.010 -19.689 -26.262  1.00  0.00     0.000 C 
BRANCH  18  19
ATOM     19  C   UNL     1     -30.866 -21.184 -26.582  1.00  0.00     0.000 C 
BRANCH  19  20
ATOM     20  C   UNL     1     -30.231 -21.985 -25.429  1.00  0.00     0.006 C 
BRANCH  20  21
ATOM     21  C   UNL     1     -29.632 -21.118 -24.309  1.00  0.00     0.053 C 
BRANCH  21  22
ATOM     22  C   UNL     1     -28.496 -21.801 -23.612  1.00  0.00     0.041 C 
ATOM     23  O   UNL     1     -28.631 -22.978 -23.185  1.00  0.00    -0.550 OA
ATOM     24  O   UNL     1     -27.276 -21.153 -23.473  1.00  0.00    -0.550 OA
ENDBRANCH  21  22
ENDBRANCH  20  21
ENDBRANCH  19  20
ENDBRANCH  18  19
ENDBRANCH  17  18
ENDBRANCH  16  17
ENDBRANCH  15  16
ENDBRANCH  14  15
ENDBRANCH  13  14
ENDBRANCH   1  13
TORSDOF 20
ENDMDL
MODEL 5
REMARK VINA RESULT:     3.938      3.721      8.861
REMARK INTER + INTRA:           6.352
REMARK INTER:                   7.452
REMARK INTRA:                  -1.100
REMARK UNBOUND:                -2.190
REMARK SMILES CCCCCCCCCCCCCCCCCCCCCC(=O)[O-]
REMARK SMILES IDX 12 1 11 2 10 3 9 4 8 5 7 6 6 7 5 8 4 9 3 10 2 11 1 12 13 13
REMARK SMILES IDX 14 14 15 15 16 16 17 17 18 18 19 19 20 20 21 21 22 22 23 23
REMARK SMILES IDX 24 24
REMARK H PARENT
REMARK Flexibility Score: inf
ROOT
ATOM      1  C   UNL     1     -28.574 -20.165 -19.635  1.00  0.00     0.000 C 
ENDROOT
BRANCH   1   2
ATOM      2  C   UNL     1     -28.076 -21.608 -19.438  1.00  0.00     0.000 C 
BRANCH   2   3
ATOM      3  C   UNL     1     -27.431 -21.834 -18.062  1.00  0.00     0.000 C 
BRANCH   3   4
ATOM      4  C   UNL     1     -27.945 -23.109 -17.371  1.00  0.00    -0.000 C 
BRANCH   4   5
ATOM      5  C   UNL     1     -29.447 -23.049 -17.048  1.00  0.00    -0.000 C 
BRANCH   5   6
ATOM      6  C   UNL     1     -29.733 -23.110 -15.536  1.00  0.00    -0.000 C 
BRANCH   6   7
ATOM      7  C   UNL     1     -31.237 -23.124 -15.222  1.00  0.00    -0.000 C 
BRANCH   7   8
ATOM      8  C   UNL     1     -31.718 -21.818 -14.570  1.00  0.00    -0.000 C 
BRANCH   8   9
ATOM      9  C   UNL     1     -30.531 -20.973 -14.092  1.00  0.00    -0.000 C 
BRANCH   9  10
ATOM     10  C   UNL     1     -31.014 -19.670 -13.434  1.00  0.00    -0.000 C 
BRANCH  10  11
ATOM     11  C   UNL     1     -29.853 -18.756 -13.012  1.00  0.00    -0.003 C 
ATOM     12  C   UNL     1     -29.382 -19.020 -11.582  1.00  0.00     0.004 C 
ENDBRANCH  10  11
ENDBRANCH   9  10
ENDBRANCH   8   9
ENDBRANCH   7   8
ENDBRANCH   6   7
ENDBRANCH   5   6
ENDBRANCH   4   5
ENDBRANCH   3   4
ENDBRANCH   2   3
ENDBRANCH   1   2
BRANCH   1  13
ATOM     13  C   UNL     1     -30.029 -20.118 -20.148  1.00  0.00     0.000 C 
BRANCH  13  14
ATOM     14  C   UNL     1     -30.447 -21.370 -20.939  1.00  0.00     0.000 C 
BRANCH  14  15
ATOM     15  C   UNL     1     -31.941 -21.375 -21.306  1.00  0.00     0.000 C 
BRANCH  15  16
ATOM     16  C   UNL     1     -32.510 -19.957 -21.467  1.00  0.00     0.000 C 
BRANCH  16  17
ATOM     17  C   UNL     1     -32.297 -19.391 -22.879  1.00  0.00     0.000 C 
BRANCH  17  18
ATOM     18  C   UNL     1     -32.124 -20.518 -23.904  1.00  0.00     0.000 C 
BRANCH  18  19
ATOM     19  C   UNL     1     -31.056 -20.155 -24.946  1.00  0.00     0.000 C 
BRANCH  19  20
ATOM     20  C   UNL     1     -29.946 -21.216 -25.062  1.00  0.00     0.006 C 
BRANCH  20  21
ATOM     21  C   UNL     1     -29.633 -21.952 -23.750  1.00  0.00     0.053 C 
BRANCH  21  22
ATOM     22  C   UNL     1     -28.189 -21.838 -23.368  1.00  0.00     0.041 C 
ATOM     23  O   UNL     1     -27.502 -20.865 -23.776  1.00  0.00    -0.550 OA
ATOM     24  O   UNL     1     -27.616 -22.784 -22.529  1.00  0.00    -0.550 OA
ENDBRANCH  21  22
ENDBRANCH  20  21
ENDBRANCH  19  20
ENDBRANCH  18  19
ENDBRANCH  17  18
ENDBRANCH  16  17
ENDBRANCH  15  16
ENDBRANCH  14  15
ENDBRANCH  13  14
ENDBRANCH   1  13
TORSDOF 20
ENDMDL
MODEL 6
REMARK VINA RESULT:     4.112      1.625      4.154
REMARK INTER + INTRA:           6.729
REMARK INTER:                   6.847
REMARK INTRA:                  -0.118
REMARK UNBOUND:                -2.190
REMARK SMILES CCCCCCCCCCCCCCCCCCCCCC(=O)[O-]
REMARK SMILES IDX 12 1 11 2 10 3 9 4 8 5 7 6 6 7 5 8 4 9 3 10 2 11 1 12 13 13
REMARK SMILES IDX 14 14 15 15 16 16 17 17 18 18 19 19 20 20 21 21 22 22 23 23
REMARK SMILES IDX 24 24
REMARK H PARENT
REMARK Flexibility Score: inf
ROOT
ATOM      1  C   UNL     1     -31.201 -20.634 -21.135  1.00  0.00     0.000 C 
ENDROOT
BRANCH   1   2
ATOM      2  C   UNL     1     -32.459 -19.759 -21.289  1.00  0.00     0.000 C 
BRANCH   2   3
ATOM      3  C   UNL     1     -33.313 -20.151 -22.505  1.00  0.00     0.000 C 
BRANCH   3   4
ATOM      4  C   UNL     1     -32.478 -20.301 -23.788  1.00  0.00    -0.000 C 
BRANCH   4   5
ATOM      5  C   UNL     1     -31.892 -18.966 -24.279  1.00  0.00    -0.000 C 
BRANCH   5   6
ATOM      6  C   UNL     1     -31.035 -19.125 -25.549  1.00  0.00    -0.000 C 
BRANCH   6   7
ATOM      7  C   UNL     1     -31.143 -20.531 -26.159  1.00  0.00    -0.000 C 
BRANCH   7   8
ATOM      8  C   UNL     1     -30.571 -21.621 -25.239  1.00  0.00    -0.000 C 
BRANCH   8   9
ATOM      9  C   UNL     1     -29.265 -21.157 -24.583  1.00  0.00    -0.000 C 
BRANCH   9  10
ATOM     10  C   UNL     1     -28.550 -22.329 -23.892  1.00  0.00    -0.000 C 
BRANCH  10  11
ATOM     11  C   UNL     1     -27.537 -21.863 -22.835  1.00  0.00    -0.003 C 
ATOM     12  C   UNL     1     -26.766 -23.022 -22.203  1.00  0.00     0.004 C 
ENDBRANCH  10  11
ENDBRANCH   9  10
ENDBRANCH   8   9
ENDBRANCH   7   8
ENDBRANCH   6   7
ENDBRANCH   5   6
ENDBRANCH   4   5
ENDBRANCH   3   4
ENDBRANCH   2   3
ENDBRANCH   1   2
BRANCH   1  13
ATOM     13  C   UNL     1     -31.403 -22.047 -21.722  1.00  0.00     0.000 C 
BRANCH  13  14
ATOM     14  C   UNL     1     -30.514 -23.121 -21.071  1.00  0.00     0.000 C 
BRANCH  14  15
ATOM     15  C   UNL     1     -29.323 -22.526 -20.301  1.00  0.00     0.000 C 
BRANCH  15  16
ATOM     16  C   UNL     1     -29.176 -23.125 -18.894  1.00  0.00     0.000 C 
BRANCH  16  17
ATOM     17  C   UNL     1     -27.908 -22.641 -18.174  1.00  0.00     0.000 C 
BRANCH  17  18
ATOM     18  C   UNL     1     -27.970 -22.959 -16.675  1.00  0.00     0.000 C 
BRANCH  18  19
ATOM     19  C   UNL     1     -29.424 -23.125 -16.209  1.00  0.00     0.000 C 
BRANCH  19  20
ATOM     20  C   UNL     1     -29.959 -21.887 -15.464  1.00  0.00     0.006 C 
BRANCH  20  21
ATOM     21  C   UNL     1     -31.330 -22.090 -14.799  1.00  0.00     0.053 C 
BRANCH  21  22
ATOM     22  C   UNL     1     -31.783 -20.874 -14.053  1.00  0.00     0.041 C 
ATOM     23  O   UNL     1     -33.011 -20.647 -13.896  1.00  0.00    -0.550 OA
ATOM     24  O   UNL     1     -30.846 -20.014 -13.495  1.00  0.00    -0.550 OA
ENDBRANCH  21  22
ENDBRANCH  20  21
ENDBRANCH  19  20
ENDBRANCH  18  19
ENDBRANCH  17  18
ENDBRANCH  16  17
ENDBRANCH  15  16
ENDBRANCH  14  15
ENDBRANCH  13  14
ENDBRANCH   1  13
TORSDOF 20
ENDMDL
MODEL 7
REMARK VINA RESULT:     4.385      0.949      2.729
REMARK INTER + INTRA:           7.322
REMARK INTER:                   7.395
REMARK INTRA:                  -0.073
REMARK UNBOUND:                -2.190
REMARK SMILES CCCCCCCCCCCCCCCCCCCCCC(=O)[O-]
REMARK SMILES IDX 12 1 11 2 10 3 9 4 8 5 7 6 6 7 5 8 4 9 3 10 2 11 1 12 13 13
REMARK SMILES IDX 14 14 15 15 16 16 17 17 18 18 19 19 20 20 21 21 22 22 23 23
REMARK SMILES IDX 24 24
REMARK H PARENT
REMARK Flexibility Score: inf
ROOT
ATOM      1  C   UNL     1     -29.474 -21.486 -20.032  1.00  0.00     0.000 C 
ENDROOT
BRANCH   1   2
ATOM      2  C   UNL     1     -30.338 -21.286 -21.291  1.00  0.00     0.000 C 
BRANCH   2   3
ATOM      3  C   UNL     1     -31.834 -21.522 -21.032  1.00  0.00     0.000 C 
BRANCH   3   4
ATOM      4  C   UNL     1     -32.732 -20.661 -21.936  1.00  0.00    -0.000 C 
BRANCH   4   5
ATOM      5  C   UNL     1     -32.339 -20.744 -23.421  1.00  0.00    -0.000 C 
BRANCH   5   6
ATOM      6  C   UNL     1     -32.055 -19.362 -24.039  1.00  0.00    -0.000 C 
BRANCH   6   7
ATOM      7  C   UNL     1     -31.256 -19.457 -25.348  1.00  0.00    -0.000 C 
BRANCH   7   8
ATOM      8  C   UNL     1     -31.249 -20.878 -25.935  1.00  0.00    -0.000 C 
BRANCH   8   9
ATOM      9  C   UNL     1     -29.939 -21.603 -25.601  1.00  0.00    -0.000 C 
BRANCH   9  10
ATOM     10  C   UNL     1     -29.218 -20.924 -24.426  1.00  0.00    -0.000 C 
BRANCH  10  11
ATOM     11  C   UNL     1     -28.766 -21.924 -23.352  1.00  0.00    -0.003 C 
ATOM     12  C   UNL     1     -27.250 -22.123 -23.328  1.00  0.00     0.004 C 
ENDBRANCH  10  11
ENDBRANCH   9  10
ENDBRANCH   8   9
ENDBRANCH   7   8
ENDBRANCH   6   7
ENDBRANCH   5   6
ENDBRANCH   4   5
ENDBRANCH   3   4
ENDBRANCH   2   3
ENDBRANCH   1   2
BRANCH   1  13
ATOM     13  C   UNL     1     -29.043 -22.957 -19.852  1.00  0.00     0.000 C 
BRANCH  13  14
ATOM     14  C   UNL     1     -27.719 -23.125 -19.086  1.00  0.00     0.000 C 
BRANCH  14  15
ATOM     15  C   UNL     1     -27.697 -22.356 -17.754  1.00  0.00     0.000 C 
BRANCH  15  16
ATOM     16  C   UNL     1     -28.393 -23.125 -16.621  1.00  0.00     0.000 C 
BRANCH  16  17
ATOM     17  C   UNL     1     -29.895 -22.816 -16.531  1.00  0.00     0.000 C 
BRANCH  17  18
ATOM     18  C   UNL     1     -30.411 -23.002 -15.099  1.00  0.00     0.000 C 
BRANCH  18  19
ATOM     19  C   UNL     1     -31.185 -21.761 -14.629  1.00  0.00     0.000 C 
BRANCH  19  20
ATOM     20  C   UNL     1     -30.262 -20.593 -14.235  1.00  0.00     0.006 C 
BRANCH  20  21
ATOM     21  C   UNL     1     -30.924 -19.538 -13.332  1.00  0.00     0.053 C 
BRANCH  21  22
ATOM     22  C   UNL     1     -29.940 -18.885 -12.412  1.00  0.00     0.041 C 
ATOM     23  O   UNL     1     -29.078 -19.579 -11.810  1.00  0.00    -0.550 OA
ATOM     24  O   UNL     1     -29.948 -17.506 -12.252  1.00  0.00    -0.550 OA
ENDBRANCH  21  22
ENDBRANCH  20  21
ENDBRANCH  19  20
ENDBRANCH  18  19
ENDBRANCH  17  18
ENDBRANCH  16  17
ENDBRANCH  15  16
ENDBRANCH  14  15
ENDBRANCH  13  14
ENDBRANCH   1  13
TORSDOF 20
ENDMDL
MODEL 8
REMARK VINA RESULT:     4.476      6.045     10.835
REMARK INTER + INTRA:           7.519
REMARK INTER:                   8.534
REMARK INTRA:                  -1.015
REMARK UNBOUND:                -2.190
REMARK SMILES CCCCCCCCCCCCCCCCCCCCCC(=O)[O-]
REMARK SMILES IDX 12 1 11 2 10 3 9 4 8 5 7 6 6 7 5 8 4 9 3 10 2 11 1 12 13 13
REMARK SMILES IDX 14 14 15 15 16 16 17 17 18 18 19 19 20 20 21 21 22 22 23 23
REMARK SMILES IDX 24 24
REMARK H PARENT
REMARK Flexibility Score: inf
ROOT
ATOM      1  C   UNL     1     -28.520 -22.062 -17.799  1.00  0.00     0.000 C 
ENDROOT
BRANCH   1   2
ATOM      2  C   UNL     1     -27.436 -23.125 -17.547  1.00  0.00     0.000 C 
BRANCH   2   3
ATOM      3  C   UNL     1     -26.130 -22.527 -17.002  1.00  0.00     0.000 C 
BRANCH   3   4
ATOM      4  C   UNL     1     -26.078 -22.525 -15.464  1.00  0.00    -0.000 C 
BRANCH   4   5
ATOM      5  C   UNL     1     -24.644 -22.610 -14.915  1.00  0.00    -0.000 C 
BRANCH   5   6
ATOM      6  C   UNL     1     -24.435 -21.742 -13.660  1.00  0.00    -0.000 C 
BRANCH   6   7
ATOM      7  C   UNL     1     -23.028 -21.900 -13.063  1.00  0.00    -0.000 C 
BRANCH   7   8
ATOM      8  C   UNL     1     -22.175 -20.631 -13.217  1.00  0.00    -0.000 C 
BRANCH   8   9
ATOM      9  C   UNL     1     -21.281 -20.416 -11.989  1.00  0.00    -0.000 C 
BRANCH   9  10
ATOM     10  C   UNL     1     -21.533 -19.036 -11.360  1.00  0.00    -0.000 C 
BRANCH  10  11
ATOM     11  C   UNL     1     -21.072 -17.883 -12.264  1.00  0.00    -0.003 C 
ATOM     12  C   UNL     1     -20.899 -16.568 -11.503  1.00  0.00     0.004 C 
ENDBRANCH  10  11
ENDBRANCH   9  10
ENDBRANCH   8   9
ENDBRANCH   7   8
ENDBRANCH   6   7
ENDBRANCH   5   6
ENDBRANCH   4   5
ENDBRANCH   3   4
ENDBRANCH   2   3
ENDBRANCH   1   2
BRANCH   1  13
ATOM     13  C   UNL     1     -28.827 -21.891 -19.302  1.00  0.00     0.000 C 
BRANCH  13  14
ATOM     14  C   UNL     1     -28.254 -23.015 -20.182  1.00  0.00     0.000 C 
BRANCH  14  15
ATOM     15  C   UNL     1     -28.744 -22.945 -21.638  1.00  0.00     0.000 C 
BRANCH  15  16
ATOM     16  C   UNL     1     -29.638 -21.722 -21.897  1.00  0.00     0.000 C 
BRANCH  16  17
ATOM     17  C   UNL     1     -31.091 -22.107 -22.214  1.00  0.00     0.000 C 
BRANCH  17  18
ATOM     18  C   UNL     1     -32.069 -21.063 -21.662  1.00  0.00     0.000 C 
BRANCH  18  19
ATOM     19  C   UNL     1     -32.086 -19.805 -22.543  1.00  0.00     0.000 C 
BRANCH  19  20
ATOM     20  C   UNL     1     -32.430 -20.108 -24.013  1.00  0.00     0.006 C 
BRANCH  20  21
ATOM     21  C   UNL     1     -31.394 -19.595 -25.026  1.00  0.00     0.053 C 
BRANCH  21  22
ATOM     22  C   UNL     1     -30.702 -20.713 -25.742  1.00  0.00     0.041 C 
ATOM     23  O   UNL     1     -31.045 -21.023 -26.914  1.00  0.00    -0.550 OA
ATOM     24  O   UNL     1     -29.650 -21.383 -25.131  1.00  0.00    -0.550 OA
ENDBRANCH  21  22
ENDBRANCH  20  21
ENDBRANCH  19  20
ENDBRANCH  18  19
ENDBRANCH  17  18
ENDBRANCH  16  17
ENDBRANCH  15  16
ENDBRANCH  14  15
ENDBRANCH  13  14
ENDBRANCH   1  13
TORSDOF 20
ENDMDL
MODEL 9
REMARK VINA RESULT:     4.492      0.928      1.931
REMARK INTER + INTRA:           7.553
REMARK INTER:                   8.520
REMARK INTRA:                  -0.967
REMARK UNBOUND:                -2.190
REMARK SMILES CCCCCCCCCCCCCCCCCCCCCC(=O)[O-]
REMARK SMILES IDX 12 1 11 2 10 3 9 4 8 5 7 6 6 7 5 8 4 9 3 10 2 11 1 12 13 13
REMARK SMILES IDX 14 14 15 15 16 16 17 17 18 18 19 19 20 20 21 21 22 22 23 23
REMARK SMILES IDX 24 24
REMARK H PARENT
REMARK Flexibility Score: inf
ROOT
ATOM      1  C   UNL     1     -28.031 -21.177 -18.963  1.00  0.00     0.000 C 
ENDROOT
BRANCH   1   2
ATOM      2  C   UNL     1     -29.307 -21.911 -19.413  1.00  0.00     0.000 C 
BRANCH   2   3
ATOM      3  C   UNL     1     -29.077 -22.814 -20.635  1.00  0.00     0.000 C 
BRANCH   3   4
ATOM      4  C   UNL     1     -27.746 -22.515 -21.347  1.00  0.00    -0.000 C 
BRANCH   4   5
ATOM      5  C   UNL     1     -27.904 -22.358 -22.868  1.00  0.00    -0.000 C 
BRANCH   5   6
ATOM      6  C   UNL     1     -29.159 -21.554 -23.256  1.00  0.00    -0.000 C 
BRANCH   6   7
ATOM      7  C   UNL     1     -30.443 -22.393 -23.177  1.00  0.00    -0.000 C 
BRANCH   7   8
ATOM      8  C   UNL     1     -31.649 -21.585 -22.672  1.00  0.00    -0.000 C 
BRANCH   8   9
ATOM      9  C   UNL     1     -31.595 -20.140 -23.184  1.00  0.00    -0.000 C 
BRANCH   9  10
ATOM     10  C   UNL     1     -32.126 -20.048 -24.624  1.00  0.00    -0.000 C 
BRANCH  10  11
ATOM     11  C   UNL     1     -31.001 -20.025 -25.669  1.00  0.00    -0.003 C 
ATOM     12  C   UNL     1     -31.046 -21.225 -26.614  1.00  0.00     0.004 C 
ENDBRANCH  10  11
ENDBRANCH   9  10
ENDBRANCH   8   9
ENDBRANCH   7   8
ENDBRANCH   6   7
ENDBRANCH   5   6
ENDBRANCH   4   5
ENDBRANCH   3   4
ENDBRANCH   2   3
ENDBRANCH   1   2
BRANCH   1  13
ATOM     13  C   UNL     1     -27.272 -21.952 -17.865  1.00  0.00     0.000 C 
BRANCH  13  14
ATOM     14  C   UNL     1     -28.072 -23.123 -17.269  1.00  0.00     0.000 C 
BRANCH  14  15
ATOM     15  C   UNL     1     -28.507 -22.872 -15.815  1.00  0.00     0.000 C 
BRANCH  15  16
ATOM     16  C   UNL     1     -30.007 -23.125 -15.599  1.00  0.00     0.000 C 
BRANCH  16  17
ATOM     17  C   UNL     1     -30.811 -21.824 -15.453  1.00  0.00     0.000 C 
BRANCH  17  18
ATOM     18  C   UNL     1     -31.692 -21.859 -14.198  1.00  0.00     0.000 C 
BRANCH  18  19
ATOM     19  C   UNL     1     -32.098 -20.440 -13.773  1.00  0.00     0.000 C 
BRANCH  19  20
ATOM     20  C   UNL     1     -30.932 -19.437 -13.839  1.00  0.00     0.006 C 
BRANCH  20  21
ATOM     21  C   UNL     1     -29.773 -19.748 -12.878  1.00  0.00     0.053 C 
BRANCH  21  22
ATOM     22  C   UNL     1     -29.551 -18.648 -11.886  1.00  0.00     0.041 C 
ATOM     23  O   UNL     1     -29.862 -17.463 -12.174  1.00  0.00    -0.550 OA
ATOM     24  O   UNL     1     -29.041 -18.941 -10.628  1.00  0.00    -0.550 OA
ENDBRANCH  21  22
ENDBRANCH  20  21
ENDBRANCH  19  20
ENDBRANCH  18  19
ENDBRANCH  17  18
ENDBRANCH  16  17
ENDBRANCH  15  16
ENDBRANCH  14  15
ENDBRANCH  13  14
ENDBRANCH   1  13
TORSDOF 20
ENDMDL
