MODEL 1
REMARK VINA RESULT:    -3.575      0.000      0.000
REMARK INTER + INTRA:          -4.494
REMARK INTER:                  -4.411
REMARK INTRA:                  -0.082
REMARK UNBOUND:                -0.082
REMARK SMILES CCCCCC(=O)[O-]
REMARK SMILES IDX 4 1 5 2 6 3 7 4 8 5 3 6 2 7 1 8
REMARK H PARENT
REMARK Flexibility Score: inf
ROOT
ATOM      1  C   UNL     1      21.362 -21.795  16.745  1.00  0.00     0.006 C 
ENDROOT
BRANCH   1   2
ATOM      2  C   UNL     1      21.085 -20.353  16.297  1.00  0.00     0.053 C 
BRANCH   2   3
ATOM      3  C   UNL     1      22.360 -19.572  16.237  1.00  0.00     0.041 C 
ATOM      4  O   UNL     1      23.461 -20.165  16.089  1.00  0.00    -0.550 OA
ATOM      5  O   UNL     1      22.329 -18.184  16.296  1.00  0.00    -0.550 OA
ENDBRANCH   2   3
ENDBRANCH   1   2
BRANCH   1   6
ATOM      6  C   UNL     1      20.081 -22.640  16.843  1.00  0.00     0.000 C 
BRANCH   6   7
ATOM      7  C   UNL     1      20.278 -23.913  17.678  1.00  0.00    -0.003 C 
ATOM      8  C   UNL     1      20.743 -23.577  19.092  1.00  0.00     0.004 C 
ENDBRANCH   6   7
ENDBRANCH   1   6
TORSDOF 4
ENDMDL
MODEL 2
REMARK VINA RESULT:    -3.299     10.058     10.918
REMARK INTER + INTRA:          -4.153
REMARK INTER:                  -3.890
REMARK INTRA:                  -0.262
REMARK UNBOUND:                -0.082
REMARK SMILES CCCCCC(=O)[O-]
REMARK SMILES IDX 4 1 5 2 6 3 7 4 8 5 3 6 2 7 1 8
REMARK H PARENT
REMARK Flexibility Score: inf
ROOT
ATOM      1  C   UNL     1      28.927 -21.212  23.563  1.00  0.00     0.006 C 
ENDROOT
BRANCH   1   2
ATOM      2  C   UNL     1      29.061 -21.283  25.090  1.00  0.00     0.053 C 
BRANCH   2   3
ATOM      3  C   UNL     1      27.728 -21.539  25.719  1.00  0.00     0.041 C 
ATOM      4  O   UNL     1      26.814 -20.677  25.640  1.00  0.00    -0.550 OA
ATOM      5  O   UNL     1      27.478 -22.751  26.351  1.00  0.00    -0.550 OA
ENDBRANCH   2   3
ENDBRANCH   1   2
BRANCH   1   6
ATOM      6  C   UNL     1      28.780 -22.599  22.916  1.00  0.00     0.000 C 
BRANCH   6   7
ATOM      7  C   UNL     1      29.857 -23.586  23.387  1.00  0.00    -0.003 C 
ATOM      8  C   UNL     1      29.229 -24.875  23.911  1.00  0.00     0.004 C 
ENDBRANCH   6   7
ENDBRANCH   1   6
TORSDOF 4
ENDMDL
MODEL 3
REMARK VINA RESULT:    -3.246      9.936     10.923
REMARK INTER + INTRA:          -4.087
REMARK INTER:                  -3.830
REMARK INTRA:                  -0.257
REMARK UNBOUND:                -0.082
REMARK SMILES CCCCCC(=O)[O-]
REMARK SMILES IDX 4 1 5 2 6 3 7 4 8 5 3 6 2 7 1 8
REMARK H PARENT
REMARK Flexibility Score: inf
ROOT
ATOM      1  C   UNL     1      28.963 -22.795  25.429  1.00  0.00     0.006 C 
ENDROOT
BRANCH   1   2
ATOM      2  C   UNL     1      27.623 -22.300  25.990  1.00  0.00     0.053 C 
BRANCH   2   3
ATOM      3  C   UNL     1      27.515 -20.814  25.849  1.00  0.00     0.041 C 
ATOM      4  O   UNL     1      26.404 -20.242  25.998  1.00  0.00    -0.550 OA
ATOM      5  O   UNL     1      28.653 -20.055  25.602  1.00  0.00    -0.550 OA
ENDBRANCH   2   3
ENDBRANCH   1   2
BRANCH   1   6
ATOM      6  C   UNL     1      28.844 -23.318  23.989  1.00  0.00     0.000 C 
BRANCH   6   7
ATOM      7  C   UNL     1      29.586 -22.434  22.977  1.00  0.00    -0.003 C 
ATOM      8  C   UNL     1      28.632 -21.449  22.306  1.00  0.00     0.004 C 
ENDBRANCH   6   7
ENDBRANCH   1   6
TORSDOF 4
ENDMDL
MODEL 4
REMARK VINA RESULT:    -3.207      9.408     10.193
REMARK INTER + INTRA:          -4.039
REMARK INTER:                  -3.821
REMARK INTRA:                  -0.218
REMARK UNBOUND:                -0.082
REMARK SMILES CCCCCC(=O)[O-]
REMARK SMILES IDX 4 1 5 2 6 3 7 4 8 5 3 6 2 7 1 8
REMARK H PARENT
REMARK Flexibility Score: inf
ROOT
ATOM      1  C   UNL     1      29.361 -22.182  24.600  1.00  0.00     0.006 C 
ENDROOT
BRANCH   1   2
ATOM      2  C   UNL     1      28.430 -21.064  24.112  1.00  0.00     0.053 C 
BRANCH   2   3
ATOM      3  C   UNL     1      28.703 -20.747  22.676  1.00  0.00     0.041 C 
ATOM      4  O   UNL     1      28.284 -21.510  21.767  1.00  0.00    -0.550 OA
ATOM      5  O   UNL     1      29.380 -19.581  22.338  1.00  0.00    -0.550 OA
ENDBRANCH   2   3
ENDBRANCH   1   2
BRANCH   1   6
ATOM      6  C   UNL     1      28.608 -23.483  24.919  1.00  0.00     0.000 C 
BRANCH   6   7
ATOM      7  C   UNL     1      29.067 -24.660  24.046  1.00  0.00    -0.003 C 
ATOM      8  C   UNL     1      30.134 -24.219  23.048  1.00  0.00     0.004 C 
ENDBRANCH   6   7
ENDBRANCH   1   6
TORSDOF 4
ENDMDL
MODEL 5
REMARK VINA RESULT:    -3.197     10.205     11.249
REMARK INTER + INTRA:          -4.026
REMARK INTER:                  -3.807
REMARK INTRA:                  -0.219
REMARK UNBOUND:                -0.082
REMARK SMILES CCCCCC(=O)[O-]
REMARK SMILES IDX 4 1 5 2 6 3 7 4 8 5 3 6 2 7 1 8
REMARK H PARENT
REMARK Flexibility Score: inf
ROOT
ATOM      1  C   UNL     1      29.418 -22.594  24.038  1.00  0.00     0.006 C 
ENDROOT
BRANCH   1   2
ATOM      2  C   UNL     1      28.539 -23.412  24.993  1.00  0.00     0.053 C 
BRANCH   2   3
ATOM      3  C   UNL     1      28.088 -22.565  26.141  1.00  0.00     0.041 C 
ATOM      4  O   UNL     1      27.205 -21.683  25.971  1.00  0.00    -0.550 OA
ATOM      5  O   UNL     1      28.607 -22.782  27.411  1.00  0.00    -0.550 OA
ENDBRANCH   2   3
ENDBRANCH   1   2
BRANCH   1   6
ATOM      6  C   UNL     1      28.742 -22.342  22.680  1.00  0.00     0.000 C 
BRANCH   6   7
ATOM      7  C   UNL     1      28.713 -20.854  22.303  1.00  0.00    -0.003 C 
ATOM      8  C   UNL     1      29.240 -19.988  23.443  1.00  0.00     0.004 C 
ENDBRANCH   6   7
ENDBRANCH   1   6
TORSDOF 4
ENDMDL
MODEL 6
REMARK VINA RESULT:    -3.189     10.355     11.022
REMARK INTER + INTRA:          -4.016
REMARK INTER:                  -3.778
REMARK INTRA:                  -0.239
REMARK UNBOUND:                -0.082
REMARK SMILES CCCCCC(=O)[O-]
REMARK SMILES IDX 4 1 5 2 6 3 7 4 8 5 3 6 2 7 1 8
REMARK H PARENT
REMARK Flexibility Score: inf
ROOT
ATOM      1  C   UNL     1      28.784 -22.844  25.685  1.00  0.00     0.006 C 
ENDROOT
BRANCH   1   2
ATOM      2  C   UNL     1      28.669 -23.872  24.551  1.00  0.00     0.053 C 
BRANCH   2   3
ATOM      3  C   UNL     1      29.352 -23.368  23.319  1.00  0.00     0.041 C 
ATOM      4  O   UNL     1      30.426 -23.896  22.928  1.00  0.00    -0.550 OA
ATOM      5  O   UNL     1      28.777 -22.345  22.574  1.00  0.00    -0.550 OA
ENDBRANCH   2   3
ENDBRANCH   1   2
BRANCH   1   6
ATOM      6  C   UNL     1      27.423 -22.262  26.097  1.00  0.00     0.000 C 
BRANCH   6   7
ATOM      7  C   UNL     1      27.262 -20.790  25.692  1.00  0.00    -0.003 C 
ATOM      8  C   UNL     1      28.620 -20.137  25.447  1.00  0.00     0.004 C 
ENDBRANCH   6   7
ENDBRANCH   1   6
TORSDOF 4
ENDMDL
MODEL 7
REMARK VINA RESULT:    -3.182     10.552     11.270
REMARK INTER + INTRA:          -4.009
REMARK INTER:                  -3.779
REMARK INTRA:                  -0.230
REMARK UNBOUND:                -0.082
REMARK SMILES CCCCCC(=O)[O-]
REMARK SMILES IDX 4 1 5 2 6 3 7 4 8 5 3 6 2 7 1 8
REMARK H PARENT
REMARK Flexibility Score: inf
ROOT
ATOM      1  C   UNL     1      29.221 -21.632  24.315  1.00  0.00     0.006 C 
ENDROOT
BRANCH   1   2
ATOM      2  C   UNL     1      28.906 -22.661  23.222  1.00  0.00     0.053 C 
BRANCH   2   3
ATOM      3  C   UNL     1      29.737 -23.891  23.409  1.00  0.00     0.041 C 
ATOM      4  O   UNL     1      29.313 -24.841  24.119  1.00  0.00    -0.550 OA
ATOM      5  O   UNL     1      30.958 -24.011  22.758  1.00  0.00    -0.550 OA
ENDBRANCH   2   3
ENDBRANCH   1   2
BRANCH   1   6
ATOM      6  C   UNL     1      27.990 -21.274  25.163  1.00  0.00     0.000 C 
BRANCH   6   7
ATOM      7  C   UNL     1      27.558 -22.420  26.090  1.00  0.00    -0.003 C 
ATOM      8  C   UNL     1      28.628 -22.710  27.139  1.00  0.00     0.004 C 
ENDBRANCH   6   7
ENDBRANCH   1   6
TORSDOF 4
ENDMDL
MODEL 8
REMARK VINA RESULT:    -3.087      9.963     11.064
REMARK INTER + INTRA:          -3.892
REMARK INTER:                  -3.667
REMARK INTRA:                  -0.225
REMARK UNBOUND:                -0.082
REMARK SMILES CCCCCC(=O)[O-]
REMARK SMILES IDX 4 1 5 2 6 3 7 4 8 5 3 6 2 7 1 8
REMARK H PARENT
REMARK Flexibility Score: inf
ROOT
ATOM      1  C   UNL     1      29.476 -21.890  24.536  1.00  0.00     0.006 C 
ENDROOT
BRANCH   1   2
ATOM      2  C   UNL     1      28.759 -23.205  24.870  1.00  0.00     0.053 C 
BRANCH   2   3
ATOM      3  C   UNL     1      29.195 -24.288  23.935  1.00  0.00     0.041 C 
ATOM      4  O   UNL     1      28.589 -25.392  23.915  1.00  0.00    -0.550 OA
ATOM      5  O   UNL     1      30.242 -24.063  23.049  1.00  0.00    -0.550 OA
ENDBRANCH   2   3
ENDBRANCH   1   2
BRANCH   1   6
ATOM      6  C   UNL     1      28.554 -20.871  23.847  1.00  0.00     0.000 C 
BRANCH   6   7
ATOM      7  C   UNL     1      28.631 -20.947  22.315  1.00  0.00    -0.003 C 
ATOM      8  C   UNL     1      30.057 -20.717  21.825  1.00  0.00     0.004 C 
ENDBRANCH   6   7
ENDBRANCH   1   6
TORSDOF 4
ENDMDL
MODEL 9
REMARK VINA RESULT:    -3.071      9.656     10.239
REMARK INTER + INTRA:          -3.871
REMARK INTER:                  -3.718
REMARK INTRA:                  -0.153
REMARK UNBOUND:                -0.082
REMARK SMILES CCCCCC(=O)[O-]
REMARK SMILES IDX 4 1 5 2 6 3 7 4 8 5 3 6 2 7 1 8
REMARK H PARENT
REMARK Flexibility Score: inf
ROOT
ATOM      1  C   UNL     1      29.011 -22.899  22.967  1.00  0.00     0.006 C 
ENDROOT
BRANCH   1   2
ATOM      2  C   UNL     1      28.716 -21.393  22.975  1.00  0.00     0.053 C 
BRANCH   2   3
ATOM      3  C   UNL     1      29.756 -20.654  22.193  1.00  0.00     0.041 C 
ATOM      4  O   UNL     1      30.768 -21.260  21.753  1.00  0.00    -0.550 OA
ATOM      5  O   UNL     1      29.583 -19.305  21.907  1.00  0.00    -0.550 OA
ENDBRANCH   2   3
ENDBRANCH   1   2
BRANCH   1   6
ATOM      6  C   UNL     1      28.996 -23.512  24.377  1.00  0.00     0.000 C 
BRANCH   6   7
ATOM      7  C   UNL     1      28.839 -22.454  25.479  1.00  0.00    -0.003 C 
ATOM      8  C   UNL     1      27.585 -22.710  26.311  1.00  0.00     0.004 C 
ENDBRANCH   6   7
ENDBRANCH   1   6
TORSDOF 4
ENDMDL
