MODEL 1
REMARK VINA RESULT:    -3.908      0.000      0.000
REMARK INTER + INTRA:          -4.192
REMARK INTER:                  -4.822
REMARK INTRA:                   0.630
REMARK UNBOUND:                 0.630
REMARK SMILES C=C1[C@H]2CC[C@@H]3[C@H]2C(C)(C)CCC[C@]13C
REMARK SMILES IDX 14 1 6 2 7 3 3 4 2 5 1 6 4 7 5 8 15 9 8 10 9 11 10 12 11 13
REMARK SMILES IDX 13 15 12 16
REMARK H PARENT
REMARK Flexibility Score: 80.00
ROOT
ATOM      1  C   UNL     1     135.013 136.807 130.646  1.00  0.00    -0.008 C 
ATOM      2  C   UNL     1     134.621 135.312 130.971  1.00  0.00     0.003 C 
ATOM      3  C   UNL     1     134.230 135.326 132.463  1.00  0.00     0.006 C 
ATOM      4  C   UNL     1     133.242 136.480 132.295  1.00  0.00     0.019 C 
ATOM      5  C   UNL     1     134.080 137.514 131.598  1.00  0.00    -0.068 C 
ATOM      6  C   UNL     1     133.945 138.838 131.740  1.00  0.00     0.009 C 
ATOM      7  C   UNL     1     132.286 135.895 131.229  1.00  0.00     0.008 C 
ATOM      8  C   UNL     1     133.220 135.003 130.374  1.00  0.00     0.005 C 
ATOM      9  C   UNL     1     134.716 137.222 129.179  1.00  0.00     0.016 C 
ENDROOT
BRANCH   3  10
ATOM     10  C   UNL     1     135.361 135.408 133.577  1.00  0.00    -0.032 C 
ATOM     11  C   UNL     1     135.500 134.000 134.219  1.00  0.00     0.011 C 
ATOM     12  C   UNL     1     134.959 136.367 134.726  1.00  0.00     0.011 C 
BRANCH  10  13
ATOM     13  C   UNL     1     136.781 135.759 133.047  1.00  0.00     0.007 CG0
ATOM     14  G   UNL     1     136.927 137.129 132.390  1.00  0.00     0.000 G0
ENDBRANCH  10  13
ENDBRANCH   3  10
BRANCH   1  15
ATOM     15  C   UNL     1     136.511 137.108 130.919  1.00  0.00     0.011 C 
BRANCH  15  16
ATOM     16  C   UNL     1     136.934 137.120 132.385  1.00  0.00     0.001 CG0
ATOM     17  G   UNL     1     136.773 135.756 133.050  1.00  0.00     0.000 G0
ENDBRANCH  15  16
ENDBRANCH   1  15
TORSDOF 0
ENDMDL
MODEL 2
REMARK VINA RESULT:    -3.908      2.135      3.746
REMARK INTER + INTRA:          -4.192
REMARK INTER:                  -4.830
REMARK INTRA:                   0.638
REMARK UNBOUND:                 0.630
REMARK SMILES C=C1[C@H]2CC[C@@H]3[C@H]2C(C)(C)CCC[C@]13C
REMARK SMILES IDX 14 1 6 2 7 3 3 4 2 5 1 6 4 7 5 8 15 9 8 10 9 11 10 12 11 13
REMARK SMILES IDX 13 15 12 16
REMARK H PARENT
REMARK Flexibility Score: 80.00
ROOT
ATOM      1  C   UNL     1     137.120 138.767 130.606  1.00  0.00    -0.008 C 
ATOM      2  C   UNL     1     135.591 139.041 130.323  1.00  0.00     0.003 C 
ATOM      3  C   UNL     1     134.984 139.335 131.710  1.00  0.00     0.006 C 
ATOM      4  C   UNL     1     136.024 140.403 132.049  1.00  0.00     0.019 C 
ATOM      5  C   UNL     1     137.315 139.680 131.791  1.00  0.00    -0.068 C 
ATOM      6  C   UNL     1     138.460 139.889 132.452  1.00  0.00     0.009 C 
ATOM      7  C   UNL     1     135.827 141.387 130.871  1.00  0.00     0.008 C 
ATOM      8  C   UNL     1     135.425 140.456 129.701  1.00  0.00     0.005 C 
ATOM      9  C   UNL     1     138.052 139.184 129.435  1.00  0.00     0.016 C 
ENDROOT
BRANCH   3  10
ATOM     10  C   UNL     1     134.716 138.142 132.726  1.00  0.00    -0.032 C 
ATOM     11  C   UNL     1     133.185 137.881 132.761  1.00  0.00     0.011 C 
ATOM     12  C   UNL     1     135.120 138.525 134.172  1.00  0.00     0.011 C 
BRANCH  10  13
ATOM     13  C   UNL     1     135.355 136.782 132.324  1.00  0.00     0.007 CG0
ATOM     14  G   UNL     1     136.879 136.753 132.264  1.00  0.00     0.000 G0
ENDBRANCH  10  13
ENDBRANCH   3  10
BRANCH   1  15
ATOM     15  C   UNL     1     137.415 137.277 130.924  1.00  0.00     0.011 C 
BRANCH  15  16
ATOM     16  C   UNL     1     136.882 136.760 132.257  1.00  0.00     0.001 CG0
ATOM     17  G   UNL     1     135.357 136.788 132.326  1.00  0.00     0.000 G0
ENDBRANCH  15  16
ENDBRANCH   1  15
TORSDOF 0
ENDMDL
MODEL 3
REMARK VINA RESULT:    -3.880      2.819      5.271
REMARK INTER + INTRA:          -4.157
REMARK INTER:                  -4.784
REMARK INTRA:                   0.627
REMARK UNBOUND:                 0.630
REMARK SMILES C=C1[C@H]2CC[C@@H]3[C@H]2C(C)(C)CCC[C@]13C
REMARK SMILES IDX 14 1 6 2 7 3 3 4 2 5 1 6 4 7 5 8 15 9 8 10 9 11 10 12 11 13
REMARK SMILES IDX 13 15 12 16
REMARK H PARENT
REMARK Flexibility Score: 80.00
ROOT
ATOM      1  C   UNL     1     138.752 136.872 130.634  1.00  0.00    -0.008 C 
ATOM      2  C   UNL     1     139.166 138.340 131.042  1.00  0.00     0.003 C 
ATOM      3  C   UNL     1     139.544 138.239 132.534  1.00  0.00     0.006 C 
ATOM      4  C   UNL     1     140.514 137.078 132.312  1.00  0.00     0.019 C 
ATOM      5  C   UNL     1     139.665 136.098 131.554  1.00  0.00    -0.068 C 
ATOM      6  C   UNL     1     139.776 134.766 131.625  1.00  0.00     0.009 C 
ATOM      7  C   UNL     1     141.489 137.703 131.286  1.00  0.00     0.008 C 
ATOM      8  C   UNL     1     140.578 138.656 130.474  1.00  0.00     0.005 C 
ATOM      9  C   UNL     1     139.055 136.531 129.149  1.00  0.00     0.016 C 
ENDROOT
BRANCH   3  10
ATOM     10  C   UNL     1     138.402 138.116 133.634  1.00  0.00    -0.032 C 
ATOM     11  C   UNL     1     138.283 139.490 134.351  1.00  0.00     0.011 C 
ATOM     12  C   UNL     1     138.778 137.089 134.731  1.00  0.00     0.011 C 
BRANCH  10  13
ATOM     13  C   UNL     1     136.981 137.821 133.074  1.00  0.00     0.007 CG0
ATOM     14  G   UNL     1     136.816 136.493 132.341  1.00  0.00     0.000 G0
ENDBRANCH  10  13
ENDBRANCH   3  10
BRANCH   1  15
ATOM     15  C   UNL     1     137.247 136.582 130.879  1.00  0.00     0.011 C 
BRANCH  15  16
ATOM     16  C   UNL     1     136.811 136.501 132.339  1.00  0.00     0.001 CG0
ATOM     17  G   UNL     1     136.990 137.825 133.076  1.00  0.00     0.000 G0
ENDBRANCH  15  16
ENDBRANCH   1  15
TORSDOF 0
ENDMDL
MODEL 4
REMARK VINA RESULT:    -3.869      2.953      5.338
REMARK INTER + INTRA:          -4.144
REMARK INTER:                  -4.781
REMARK INTRA:                   0.637
REMARK UNBOUND:                 0.630
REMARK SMILES C=C1[C@H]2CC[C@@H]3[C@H]2C(C)(C)CCC[C@]13C
REMARK SMILES IDX 14 1 6 2 7 3 3 4 2 5 1 6 4 7 5 8 15 9 8 10 9 11 10 12 11 13
REMARK SMILES IDX 13 15 12 16
REMARK H PARENT
REMARK Flexibility Score: 80.00
ROOT
ATOM      1  C   UNL     1     138.566 137.162 130.739  1.00  0.00    -0.008 C 
ATOM      2  C   UNL     1     138.126 138.369 129.821  1.00  0.00     0.003 C 
ATOM      3  C   UNL     1     138.237 139.611 130.730  1.00  0.00     0.006 C 
ATOM      4  C   UNL     1     139.674 139.300 131.148  1.00  0.00     0.019 C 
ATOM      5  C   UNL     1     139.565 137.876 131.617  1.00  0.00    -0.068 C 
ATOM      6  C   UNL     1     140.303 137.327 132.589  1.00  0.00     0.009 C 
ATOM      7  C   UNL     1     140.378 139.257 129.771  1.00  0.00     0.008 C 
ATOM      8  C   UNL     1     139.274 138.712 128.831  1.00  0.00     0.005 C 
ATOM      9  C   UNL     1     139.252 136.007 129.959  1.00  0.00     0.016 C 
ENDROOT
BRANCH   3  10
ATOM     10  C   UNL     1     137.131 139.882 131.839  1.00  0.00    -0.032 C 
ATOM     11  C   UNL     1     136.231 141.046 131.340  1.00  0.00     0.011 C 
ATOM     12  C   UNL     1     137.766 140.368 133.167  1.00  0.00     0.011 C 
BRANCH  10  13
ATOM     13  C   UNL     1     136.160 138.696 132.101  1.00  0.00     0.007 CG0
ATOM     14  G   UNL     1     136.795 137.424 132.655  1.00  0.00     0.000 G0
ENDBRANCH  10  13
ENDBRANCH   3  10
BRANCH   1  15
ATOM     15  C   UNL     1     137.382 136.547 131.533  1.00  0.00     0.011 C 
BRANCH  15  16
ATOM     16  C   UNL     1     136.793 137.420 132.637  1.00  0.00     0.001 CG0
ATOM     17  G   UNL     1     136.171 138.704 132.097  1.00  0.00     0.000 G0
ENDBRANCH  15  16
ENDBRANCH   1  15
TORSDOF 0
ENDMDL
MODEL 5
REMARK VINA RESULT:    -3.862      2.285      3.965
REMARK INTER + INTRA:          -4.136
REMARK INTER:                  -4.766
REMARK INTRA:                   0.630
REMARK UNBOUND:                 0.630
REMARK SMILES C=C1[C@H]2CC[C@@H]3[C@H]2C(C)(C)CCC[C@]13C
REMARK SMILES IDX 14 1 6 2 7 3 3 4 2 5 1 6 4 7 5 8 15 9 8 10 9 11 10 12 11 13
REMARK SMILES IDX 13 15 12 16
REMARK H PARENT
REMARK Flexibility Score: 80.00
ROOT
ATOM      1  C   UNL     1     136.124 134.934 131.675  1.00  0.00    -0.008 C 
ATOM      2  C   UNL     1     137.467 134.785 130.858  1.00  0.00     0.003 C 
ATOM      3  C   UNL     1     138.538 134.463 131.922  1.00  0.00     0.006 C 
ATOM      4  C   UNL     1     137.737 133.307 132.521  1.00  0.00     0.019 C 
ATOM      5  C   UNL     1     136.404 133.949 132.784  1.00  0.00    -0.068 C 
ATOM      6  C   UNL     1     135.576 133.624 133.784  1.00  0.00     0.009 C 
ATOM      7  C   UNL     1     137.554 132.402 131.280  1.00  0.00     0.008 C 
ATOM      8  C   UNL     1     137.472 133.420 130.115  1.00  0.00     0.005 C 
ATOM      9  C   UNL     1     134.861 134.512 130.875  1.00  0.00     0.016 C 
ENDROOT
BRANCH   3  10
ATOM     10  C   UNL     1     139.087 135.618 132.866  1.00  0.00    -0.032 C 
ATOM     11  C   UNL     1     140.513 135.995 132.376  1.00  0.00     0.011 C 
ATOM     12  C   UNL     1     139.249 135.129 134.328  1.00  0.00     0.011 C 
BRANCH  10  13
ATOM     13  C   UNL     1     138.275 136.944 132.822  1.00  0.00     0.007 CG0
ATOM     14  G   UNL     1     136.828 136.855 133.297  1.00  0.00     0.000 G0
ENDBRANCH  10  13
ENDBRANCH   3  10
BRANCH   1  15
ATOM     15  C   UNL     1     135.888 136.381 132.185  1.00  0.00     0.011 C 
BRANCH  15  16
ATOM     16  C   UNL     1     136.827 136.862 133.287  1.00  0.00     0.001 CG0
ATOM     17  G   UNL     1     138.278 136.949 132.822  1.00  0.00     0.000 G0
ENDBRANCH  15  16
ENDBRANCH   1  15
TORSDOF 0
ENDMDL
MODEL 6
REMARK VINA RESULT:    -3.862      2.991      5.214
REMARK INTER + INTRA:          -4.135
REMARK INTER:                  -4.759
REMARK INTRA:                   0.624
REMARK UNBOUND:                 0.630
REMARK SMILES C=C1[C@H]2CC[C@@H]3[C@H]2C(C)(C)CCC[C@]13C
REMARK SMILES IDX 14 1 6 2 7 3 3 4 2 5 1 6 4 7 5 8 15 9 8 10 9 11 10 12 11 13
REMARK SMILES IDX 13 15 12 16
REMARK H PARENT
REMARK Flexibility Score: 80.00
ROOT
ATOM      1  C   UNL     1     136.923 138.171 131.724  1.00  0.00    -0.008 C 
ATOM      2  C   UNL     1     138.153 138.056 132.707  1.00  0.00     0.003 C 
ATOM      3  C   UNL     1     139.283 138.845 132.013  1.00  0.00     0.006 C 
ATOM      4  C   UNL     1     138.424 140.095 131.817  1.00  0.00     0.019 C 
ATOM      5  C   UNL     1     137.203 139.535 131.144  1.00  0.00    -0.068 C 
ATOM      6  C   UNL     1     136.449 140.188 130.250  1.00  0.00     0.009 C 
ATOM      7  C   UNL     1     138.019 140.405 133.277  1.00  0.00     0.008 C 
ATOM      8  C   UNL     1     137.934 139.000 133.923  1.00  0.00     0.005 C 
ATOM      9  C   UNL     1     135.548 138.154 132.446  1.00  0.00     0.016 C 
ENDROOT
BRANCH   3  10
ATOM     10  C   UNL     1     140.048 138.208 130.774  1.00  0.00    -0.032 C 
ATOM     11  C   UNL     1     141.447 137.744 131.266  1.00  0.00     0.011 C 
ATOM     12  C   UNL     1     140.308 139.259 129.665  1.00  0.00     0.011 C 
BRANCH  10  13
ATOM     13  C   UNL     1     139.381 136.936 130.175  1.00  0.00     0.007 CG0
ATOM     14  G   UNL     1     137.984 137.128 129.592  1.00  0.00     0.000 G0
ENDBRANCH  10  13
ENDBRANCH   3  10
BRANCH   1  15
ATOM     15  C   UNL     1     136.900 137.044 130.657  1.00  0.00     0.011 C 
BRANCH  15  16
ATOM     16  C   UNL     1     137.987 137.112 129.589  1.00  0.00     0.001 CG0
ATOM     17  G   UNL     1     139.387 136.927 130.168  1.00  0.00     0.000 G0
ENDBRANCH  15  16
ENDBRANCH   1  15
TORSDOF 0
ENDMDL
MODEL 7
REMARK VINA RESULT:    -3.766      1.661      3.796
REMARK INTER + INTRA:          -4.017
REMARK INTER:                  -4.649
REMARK INTRA:                   0.632
REMARK UNBOUND:                 0.630
REMARK SMILES C=C1[C@H]2CC[C@@H]3[C@H]2C(C)(C)CCC[C@]13C
REMARK SMILES IDX 14 1 6 2 7 3 3 4 2 5 1 6 4 7 5 8 15 9 8 10 9 11 10 12 11 13
REMARK SMILES IDX 13 15 12 16
REMARK H PARENT
REMARK Flexibility Score: 80.00
ROOT
ATOM      1  C   UNL     1     135.134 136.332 132.339  1.00  0.00    -0.008 C 
ATOM      2  C   UNL     1     135.654 137.485 133.283  1.00  0.00     0.003 C 
ATOM      3  C   UNL     1     134.996 138.767 132.733  1.00  0.00     0.006 C 
ATOM      4  C   UNL     1     133.587 138.174 132.759  1.00  0.00     0.019 C 
ATOM      5  C   UNL     1     133.772 136.888 132.004  1.00  0.00    -0.068 C 
ATOM      6  C   UNL     1     132.841 136.303 131.240  1.00  0.00     0.009 C 
ATOM      7  C   UNL     1     133.457 137.793 134.253  1.00  0.00     0.008 C 
ATOM      8  C   UNL     1     134.908 137.416 134.645  1.00  0.00     0.005 C 
ATOM      9  C   UNL     1     135.003 134.958 133.052  1.00  0.00     0.016 C 
ENDROOT
BRANCH   3  10
ATOM     10  C   UNL     1     135.550 139.432 131.399  1.00  0.00    -0.032 C 
ATOM     11  C   UNL     1     136.349 140.703 131.797  1.00  0.00     0.011 C 
ATOM     12  C   UNL     1     134.396 139.917 130.484  1.00  0.00     0.011 C 
BRANCH  10  13
ATOM     13  C   UNL     1     136.550 138.553 130.594  1.00  0.00     0.007 CG0
ATOM     14  G   UNL     1     135.993 137.244 130.043  1.00  0.00     0.000 G0
ENDBRANCH  10  13
ENDBRANCH   3  10
BRANCH   1  15
ATOM     15  C   UNL     1     136.035 136.123 131.093  1.00  0.00     0.011 C 
BRANCH  15  16
ATOM     16  C   UNL     1     136.000 137.235 130.049  1.00  0.00     0.001 CG0
ATOM     17  G   UNL     1     136.544 138.556 130.586  1.00  0.00     0.000 G0
ENDBRANCH  15  16
ENDBRANCH   1  15
TORSDOF 0
ENDMDL
MODEL 8
REMARK VINA RESULT:    -3.728      1.607      4.085
REMARK INTER + INTRA:          -3.970
REMARK INTER:                  -4.605
REMARK INTRA:                   0.635
REMARK UNBOUND:                 0.630
REMARK SMILES C=C1[C@H]2CC[C@@H]3[C@H]2C(C)(C)CCC[C@]13C
REMARK SMILES IDX 14 1 6 2 7 3 3 4 2 5 1 6 4 7 5 8 15 9 8 10 9 11 10 12 11 13
REMARK SMILES IDX 13 15 12 16
REMARK H PARENT
REMARK Flexibility Score: 80.00
ROOT
ATOM      1  C   UNL     1     137.503 135.024 132.779  1.00  0.00    -0.008 C 
ATOM      2  C   UNL     1     136.330 135.576 133.681  1.00  0.00     0.003 C 
ATOM      3  C   UNL     1     135.047 134.990 133.056  1.00  0.00     0.006 C 
ATOM      4  C   UNL     1     135.575 133.555 133.076  1.00  0.00     0.019 C 
ATOM      5  C   UNL     1     136.902 133.697 132.385  1.00  0.00    -0.068 C 
ATOM      6  C   UNL     1     137.480 132.757 131.627  1.00  0.00     0.009 C 
ATOM      7  C   UNL     1     135.879 133.374 134.582  1.00  0.00     0.008 C 
ATOM      8  C   UNL     1     136.301 134.797 135.026  1.00  0.00     0.005 C 
ATOM      9  C   UNL     1     138.834 134.814 133.551  1.00  0.00     0.016 C 
ENDROOT
BRANCH   3  10
ATOM     10  C   UNL     1     134.472 135.603 131.707  1.00  0.00    -0.032 C 
ATOM     11  C   UNL     1     133.218 136.448 132.065  1.00  0.00     0.011 C 
ATOM     12  C   UNL     1     133.983 134.494 130.741  1.00  0.00     0.011 C 
BRANCH  10  13
ATOM     13  C   UNL     1     135.431 136.583 130.971  1.00  0.00     0.007 CG0
ATOM     14  G   UNL     1     136.747 135.986 130.482  1.00  0.00     0.000 G0
ENDBRANCH  10  13
ENDBRANCH   3  10
BRANCH   1  15
ATOM     15  C   UNL     1     137.810 135.942 131.566  1.00  0.00     0.011 C 
BRANCH  15  16
ATOM     16  C   UNL     1     136.744 135.988 130.475  1.00  0.00     0.001 CG0
ATOM     17  G   UNL     1     135.427 136.578 130.971  1.00  0.00     0.000 G0
ENDBRANCH  15  16
ENDBRANCH   1  15
TORSDOF 0
ENDMDL
MODEL 9
REMARK VINA RESULT:    -3.697      1.097      1.455
REMARK INTER + INTRA:          -3.931
REMARK INTER:                  -4.567
REMARK INTRA:                   0.635
REMARK UNBOUND:                 0.630
REMARK SMILES C=C1[C@H]2CC[C@@H]3[C@H]2C(C)(C)CCC[C@]13C
REMARK SMILES IDX 14 1 6 2 7 3 3 4 2 5 1 6 4 7 5 8 15 9 8 10 9 11 10 12 11 13
REMARK SMILES IDX 13 15 12 16
REMARK H PARENT
REMARK Flexibility Score: 80.00
ROOT
ATOM      1  C   UNL     1     135.141 136.829 130.467  1.00  0.00    -0.008 C 
ATOM      2  C   UNL     1     135.552 135.378 129.996  1.00  0.00     0.003 C 
ATOM      3  C   UNL     1     135.243 134.473 131.207  1.00  0.00     0.006 C 
ATOM      4  C   UNL     1     133.808 134.982 131.348  1.00  0.00     0.019 C 
ATOM      5  C   UNL     1     134.005 136.471 131.392  1.00  0.00    -0.068 C 
ATOM      6  C   UNL     1     133.234 137.330 132.072  1.00  0.00     0.009 C 
ATOM      7  C   UNL     1     133.242 134.654 129.946  1.00  0.00     0.008 C 
ATOM      8  C   UNL     1     134.473 134.826 129.022  1.00  0.00     0.005 C 
ATOM      9  C   UNL     1     134.640 137.738 129.311  1.00  0.00     0.016 C 
ENDROOT
BRANCH   3  10
ATOM     10  C   UNL     1     136.212 134.480 132.467  1.00  0.00    -0.032 C 
ATOM     11  C   UNL     1     137.045 133.169 132.433  1.00  0.00     0.011 C 
ATOM     12  C   UNL     1     135.416 134.450 133.797  1.00  0.00     0.011 C 
BRANCH  10  13
ATOM     13  C   UNL     1     137.259 135.630 132.485  1.00  0.00     0.007 CG0
ATOM     14  G   UNL     1     136.692 137.046 132.548  1.00  0.00     0.000 G0
ENDBRANCH  10  13
ENDBRANCH   3  10
BRANCH   1  15
ATOM     15  C   UNL     1     136.299 137.579 131.178  1.00  0.00     0.011 C 
BRANCH  15  16
ATOM     16  C   UNL     1     136.695 137.048 132.552  1.00  0.00     0.001 CG0
ATOM     17  G   UNL     1     137.258 135.630 132.489  1.00  0.00     0.000 G0
ENDBRANCH  15  16
ENDBRANCH   1  15
TORSDOF 0
ENDMDL
