MODEL 1
REMARK VINA RESULT:    -4.544      0.000      0.000
REMARK INTER + INTRA:          -6.928
REMARK INTER:                  -6.404
REMARK INTRA:                  -0.524
REMARK UNBOUND:                -0.524
REMARK SMILES COc1c(O[C@H]2O[C@@H](C(=O)[O-])[C@@H](O)[C@H](O)[C@@H]2O)cc(O)c2c(=O)cc(-c3ccccc3)oc12
REMARK SMILES IDX 5 1 6 2 8 3 12 4 7 5 14 6 16 7 9 8 10 9 11 10 13 11 15 13
REMARK SMILES IDX 17 15 4 17 3 18 18 19 33 20 19 21 21 22 32 23 22 24 25 25
REMARK SMILES IDX 24 26 23 27 2 28 1 29 20 30 26 32 27 33 31 34 28 35 30 36
REMARK SMILES IDX 29 37
REMARK H PARENT 13 12 15 14 17 16 20 31
REMARK Flexibility Score: inf
ROOT
ATOM      1  O   UNL     1      35.642   8.969   9.232  1.00  0.00    -0.458 OA
ENDROOT
BRANCH   1   2
ATOM      2  C   UNL     1      37.035   8.964   8.895  1.00  0.00     0.339 C 
ATOM      3  C   UNL     1      39.139   8.045   9.556  1.00  0.00     0.199 C 
ATOM      4  C   UNL     1      39.653   8.760   8.269  1.00  0.00     0.180 C 
ATOM      5  O   UNL     1      37.731   8.100   9.774  1.00  0.00    -0.328 OA
ATOM      6  C   UNL     1      38.750   8.470   7.048  1.00  0.00     0.181 C 
ATOM      7  C   UNL     1      37.242   8.534   7.425  1.00  0.00     0.214 C 
BRANCH   3   8
ATOM      8  C   UNL     1      39.545   6.598   9.587  1.00  0.00     0.073 C 
ATOM      9  O   UNL     1      40.762   6.281   9.661  1.00  0.00    -0.547 OA
ATOM     10  O   UNL     1      38.580   5.601   9.501  1.00  0.00    -0.547 OA
ENDBRANCH   3   8
BRANCH   4  11
ATOM     11  O   UNL     1      41.004   8.461   8.005  1.00  0.00    -0.387 OA
ATOM     12  H   UNL     1      41.147   7.494   8.163  1.00  0.00     0.211 HD
ENDBRANCH   4  11
BRANCH   6  13
ATOM     13  O   UNL     1      39.043   9.386   6.024  1.00  0.00    -0.387 OA
ATOM     14  H   UNL     1      38.241   9.959   5.909  1.00  0.00     0.211 HD
ENDBRANCH   6  13
BRANCH   7  15
ATOM     15  O   UNL     1      36.540   9.416   6.584  1.00  0.00    -0.384 OA
ATOM     16  H   UNL     1      35.752   9.734   7.099  1.00  0.00     0.211 HD
ENDBRANCH   7  15
ENDBRANCH   1   2
BRANCH   1  17
ATOM     17  C   UNL     1      34.869   7.807   9.358  1.00  0.00     0.172 A 
ATOM     18  C   UNL     1      33.467   7.853   9.282  1.00  0.00     0.205 A 
ATOM     19  C   UNL     1      35.526   6.592   9.555  1.00  0.00     0.097 A 
ATOM     20  C   UNL     1      32.726   6.659   9.471  1.00  0.00     0.188 A 
ATOM     21  C   UNL     1      34.810   5.406   9.729  1.00  0.00     0.134 A 
ATOM     22  C   UNL     1      33.399   5.429   9.692  1.00  0.00     0.111 A 
ATOM     23  O   UNL     1      31.396   6.684   9.436  1.00  0.00    -0.452 OA
ATOM     24  C   UNL     1      32.615   4.269   9.865  1.00  0.00     0.197 A 
ATOM     25  C   UNL     1      30.630   5.607   9.585  1.00  0.00     0.138 A 
ATOM     26  C   UNL     1      31.227   4.359   9.803  1.00  0.00     0.100 A 
ATOM     27  O   UNL     1      33.141   3.145  10.085  1.00  0.00    -0.289 OA
BRANCH  18  28
ATOM     28  O   UNL     1      32.876   9.097   8.994  1.00  0.00    -0.490 OA
ATOM     29  C   UNL     1      32.637   9.641   7.702  1.00  0.00     0.278 C 
ENDBRANCH  18  28
BRANCH  21  30
ATOM     30  O   UNL     1      35.506   4.214   9.944  1.00  0.00    -0.507 OA
ATOM     31  H   UNL     1      36.257   3.916   9.333  1.00  0.00     0.293 HD
ENDBRANCH  21  30
BRANCH  25  32
ATOM     32  C   UNL     1      29.157   5.762   9.534  1.00  0.00     0.017 A 
ATOM     33  C   UNL     1      28.375   4.772   8.910  1.00  0.00     0.012 A 
ATOM     34  C   UNL     1      28.514   6.872  10.117  1.00  0.00     0.012 A 
ATOM     35  C   UNL     1      26.982   4.896   8.858  1.00  0.00     0.001 A 
ATOM     36  C   UNL     1      27.120   6.988  10.064  1.00  0.00     0.001 A 
ATOM     37  C   UNL     1      26.356   6.003   9.432  1.00  0.00     0.000 A 
ENDBRANCH  25  32
ENDBRANCH   1  17
TORSDOF 9
ENDMDL
MODEL 2
REMARK VINA RESULT:    -3.000     19.744     21.300
REMARK INTER + INTRA:          -4.751
REMARK INTER:                  -4.150
REMARK INTRA:                  -0.601
REMARK UNBOUND:                -0.524
REMARK SMILES COc1c(O[C@H]2O[C@@H](C(=O)[O-])[C@@H](O)[C@H](O)[C@@H]2O)cc(O)c2c(=O)cc(-c3ccccc3)oc12
REMARK SMILES IDX 5 1 6 2 8 3 12 4 7 5 14 6 16 7 9 8 10 9 11 10 13 11 15 13
REMARK SMILES IDX 17 15 4 17 3 18 18 19 33 20 19 21 21 22 32 23 22 24 25 25
REMARK SMILES IDX 24 26 23 27 2 28 1 29 20 30 26 32 27 33 31 34 28 35 30 36
REMARK SMILES IDX 29 37
REMARK H PARENT 13 12 15 14 17 16 20 31
REMARK Flexibility Score: inf
ROOT
ATOM      1  O   UNL     1      38.916 -10.123  -3.299  1.00  0.00    -0.458 OA
ENDROOT
BRANCH   1   2
ATOM      2  C   UNL     1      39.389  -9.908  -1.963  1.00  0.00     0.339 C 
ATOM      3  C   UNL     1      41.135  -8.856  -0.719  1.00  0.00     0.199 C 
ATOM      4  C   UNL     1      40.293  -9.315   0.511  1.00  0.00     0.180 C 
ATOM      5  O   UNL     1      40.552  -9.105  -1.996  1.00  0.00    -0.328 OA
ATOM      6  C   UNL     1      38.797  -8.960   0.350  1.00  0.00     0.181 C 
ATOM      7  C   UNL     1      38.293  -9.252  -1.093  1.00  0.00     0.214 C 
BRANCH   3   8
ATOM      8  C   UNL     1      41.466  -7.392  -0.650  1.00  0.00     0.073 C 
ATOM      9  O   UNL     1      41.695  -6.843   0.461  1.00  0.00    -0.547 OA
ATOM     10  O   UNL     1      41.489  -6.626  -1.810  1.00  0.00    -0.547 OA
ENDBRANCH   3   8
BRANCH   4  11
ATOM     11  O   UNL     1      40.820  -8.827   1.722  1.00  0.00    -0.387 OA
ATOM     12  H   UNL     1      40.144  -8.237   2.142  1.00  0.00     0.211 HD
ENDBRANCH   4  11
BRANCH   6  13
ATOM     13  O   UNL     1      38.043  -9.680   1.292  1.00  0.00    -0.387 OA
ATOM     14  H   UNL     1      38.602 -10.444   1.588  1.00  0.00     0.211 HD
ENDBRANCH   6  13
BRANCH   7  15
ATOM     15  O   UNL     1      37.155 -10.079  -1.082  1.00  0.00    -0.384 OA
ATOM     16  H   UNL     1      36.522  -9.684  -0.426  1.00  0.00     0.211 HD
ENDBRANCH   7  15
ENDBRANCH   1   2
BRANCH   1  17
ATOM     17  C   UNL     1      39.164  -9.244  -4.361  1.00  0.00     0.172 A 
ATOM     18  C   UNL     1      38.116  -8.562  -5.002  1.00  0.00     0.205 A 
ATOM     19  C   UNL     1      40.484  -9.051  -4.768  1.00  0.00     0.097 A 
ATOM     20  C   UNL     1      38.410  -7.725  -6.107  1.00  0.00     0.188 A 
ATOM     21  C   UNL     1      40.791  -8.219  -5.847  1.00  0.00     0.134 A 
ATOM     22  C   UNL     1      39.754  -7.549  -6.530  1.00  0.00     0.111 A 
ATOM     23  O   UNL     1      37.431  -7.095  -6.750  1.00  0.00    -0.452 OA
ATOM     24  C   UNL     1      39.995  -6.698  -7.629  1.00  0.00     0.197 A 
ATOM     25  C   UNL     1      37.626  -6.279  -7.783  1.00  0.00     0.138 A 
ATOM     26  C   UNL     1      38.927  -6.056  -8.252  1.00  0.00     0.100 A 
ATOM     27  O   UNL     1      41.158  -6.509  -8.074  1.00  0.00    -0.289 OA
BRANCH  18  28
ATOM     28  O   UNL     1      36.819  -8.735  -4.483  1.00  0.00    -0.490 OA
ATOM     29  C   UNL     1      35.931  -9.809  -4.767  1.00  0.00     0.278 C 
ENDBRANCH  18  28
BRANCH  21  30
ATOM     30  O   UNL     1      42.125  -8.069  -6.235  1.00  0.00    -0.507 OA
ATOM     31  H   UNL     1      42.688  -8.858  -6.530  1.00  0.00     0.293 HD
ENDBRANCH  21  30
BRANCH  25  32
ATOM     32  C   UNL     1      36.452  -5.639  -8.423  1.00  0.00     0.017 A 
ATOM     33  C   UNL     1      36.212  -4.267  -8.220  1.00  0.00     0.012 A 
ATOM     34  C   UNL     1      35.578  -6.369  -9.252  1.00  0.00     0.012 A 
ATOM     35  C   UNL     1      35.114  -3.643  -8.822  1.00  0.00     0.001 A 
ATOM     36  C   UNL     1      34.483  -5.738  -9.853  1.00  0.00     0.001 A 
ATOM     37  C   UNL     1      34.250  -4.377  -9.635  1.00  0.00     0.000 A 
ENDBRANCH  25  32
ENDBRANCH   1  17
TORSDOF 9
ENDMDL
MODEL 3
REMARK VINA RESULT:    -2.947      1.516      2.275
REMARK INTER + INTRA:          -4.676
REMARK INTER:                  -4.584
REMARK INTRA:                  -0.093
REMARK UNBOUND:                -0.524
REMARK SMILES COc1c(O[C@H]2O[C@@H](C(=O)[O-])[C@@H](O)[C@H](O)[C@@H]2O)cc(O)c2c(=O)cc(-c3ccccc3)oc12
REMARK SMILES IDX 5 1 6 2 8 3 12 4 7 5 14 6 16 7 9 8 10 9 11 10 13 11 15 13
REMARK SMILES IDX 17 15 4 17 3 18 18 19 33 20 19 21 21 22 32 23 22 24 25 25
REMARK SMILES IDX 24 26 23 27 2 28 1 29 20 30 26 32 27 33 31 34 28 35 30 36
REMARK SMILES IDX 29 37
REMARK H PARENT 13 12 15 14 17 16 20 31
REMARK Flexibility Score: inf
ROOT
ATOM      1  O   UNL     1      36.907   7.133   9.458  1.00  0.00    -0.458 OA
ENDROOT
BRANCH   1   2
ATOM      2  C   UNL     1      38.297   6.795   9.364  1.00  0.00     0.339 C 
ATOM      3  C   UNL     1      39.837   5.002   9.709  1.00  0.00     0.199 C 
ATOM      4  C   UNL     1      40.862   6.000   9.088  1.00  0.00     0.180 C 
ATOM      5  O   UNL     1      38.481   5.441   9.729  1.00  0.00    -0.328 OA
ATOM      6  C   UNL     1      40.324   6.649   7.793  1.00  0.00     0.181 C 
ATOM      7  C   UNL     1      38.829   7.056   7.937  1.00  0.00     0.214 C 
BRANCH   3   8
ATOM      8  C   UNL     1      39.872   3.669   9.016  1.00  0.00     0.073 C 
ATOM      9  O   UNL     1      39.084   3.426   8.064  1.00  0.00    -0.547 OA
ATOM     10  O   UNL     1      40.754   2.683   9.445  1.00  0.00    -0.547 OA
ENDBRANCH   3   8
BRANCH   4  11
ATOM     11  O   UNL     1      42.124   5.405   8.892  1.00  0.00    -0.387 OA
ATOM     12  H   UNL     1      42.771   5.836   9.506  1.00  0.00     0.211 HD
ENDBRANCH   4  11
BRANCH   6  13
ATOM     13  O   UNL     1      41.112   7.767   7.469  1.00  0.00    -0.387 OA
ATOM     14  H   UNL     1      42.003   7.621   7.879  1.00  0.00     0.211 HD
ENDBRANCH   6  13
BRANCH   7  15
ATOM     15  O   UNL     1      38.633   8.410   7.611  1.00  0.00    -0.384 OA
ATOM     16  H   UNL     1      39.175   8.940   8.254  1.00  0.00     0.211 HD
ENDBRANCH   7  15
ENDBRANCH   1   2
BRANCH   1  17
ATOM     17  C   UNL     1      35.882   6.182   9.545  1.00  0.00     0.172 A 
ATOM     18  C   UNL     1      34.530   6.562   9.486  1.00  0.00     0.205 A 
ATOM     19  C   UNL     1      36.232   4.840   9.686  1.00  0.00     0.097 A 
ATOM     20  C   UNL     1      33.527   5.571   9.635  1.00  0.00     0.188 A 
ATOM     21  C   UNL     1      35.255   3.851   9.821  1.00  0.00     0.134 A 
ATOM     22  C   UNL     1      33.890   4.209   9.800  1.00  0.00     0.111 A 
ATOM     23  O   UNL     1      32.242   5.912   9.615  1.00  0.00    -0.452 OA
ATOM     24  C   UNL     1      32.854   3.261   9.934  1.00  0.00     0.197 A 
ATOM     25  C   UNL     1      31.242   5.041   9.730  1.00  0.00     0.138 A 
ATOM     26  C   UNL     1      31.527   3.679   9.891  1.00  0.00     0.100 A 
ATOM     27  O   UNL     1      33.099   2.037  10.103  1.00  0.00    -0.289 OA
BRANCH  18  28
ATOM     28  O   UNL     1      34.250   7.922   9.255  1.00  0.00    -0.490 OA
ATOM     29  C   UNL     1      34.037   8.538   7.991  1.00  0.00     0.278 C 
ENDBRANCH  18  28
BRANCH  21  30
ATOM     30  O   UNL     1      35.649   2.520   9.980  1.00  0.00    -0.507 OA
ATOM     31  H   UNL     1      34.975   1.767  10.045  1.00  0.00     0.293 HD
ENDBRANCH  21  30
BRANCH  25  32
ATOM     32  C   UNL     1      29.848   5.542   9.700  1.00  0.00     0.017 A 
ATOM     33  C   UNL     1      29.572   6.856  10.124  1.00  0.00     0.012 A 
ATOM     34  C   UNL     1      28.788   4.740   9.234  1.00  0.00     0.012 A 
ATOM     35  C   UNL     1      28.263   7.350  10.097  1.00  0.00     0.001 A 
ATOM     36  C   UNL     1      27.481   5.242   9.206  1.00  0.00     0.001 A 
ATOM     37  C   UNL     1      27.220   6.544   9.640  1.00  0.00     0.000 A 
ENDBRANCH  25  32
ENDBRANCH   1  17
TORSDOF 9
ENDMDL
MODEL 4
REMARK VINA RESULT:    -2.701     20.119     21.636
REMARK INTER + INTRA:          -4.330
REMARK INTER:                  -4.653
REMARK INTRA:                   0.323
REMARK UNBOUND:                -0.524
REMARK SMILES COc1c(O[C@H]2O[C@@H](C(=O)[O-])[C@@H](O)[C@H](O)[C@@H]2O)cc(O)c2c(=O)cc(-c3ccccc3)oc12
REMARK SMILES IDX 5 1 6 2 8 3 12 4 7 5 14 6 16 7 9 8 10 9 11 10 13 11 15 13
REMARK SMILES IDX 17 15 4 17 3 18 18 19 33 20 19 21 21 22 32 23 22 24 25 25
REMARK SMILES IDX 24 26 23 27 2 28 1 29 20 30 26 32 27 33 31 34 28 35 30 36
REMARK SMILES IDX 29 37
REMARK H PARENT 13 12 15 14 17 16 20 31
REMARK Flexibility Score: inf
ROOT
ATOM      1  O   UNL     1      38.642 -10.053  -1.483  1.00  0.00    -0.458 OA
ENDROOT
BRANCH   1   2
ATOM      2  C   UNL     1      39.486  -9.590  -0.421  1.00  0.00     0.339 C 
ATOM      3  C   UNL     1      41.313  -8.123   0.044  1.00  0.00     0.199 C 
ATOM      4  C   UNL     1      41.037  -8.536   1.522  1.00  0.00     0.180 C 
ATOM      5  O   UNL     1      40.395  -8.628  -0.922  1.00  0.00    -0.328 OA
ATOM      6  C   UNL     1      39.535  -8.441   1.876  1.00  0.00     0.181 C 
ATOM      7  C   UNL     1      38.642  -8.999   0.731  1.00  0.00     0.214 C 
BRANCH   3   8
ATOM      8  C   UNL     1      41.361  -6.629  -0.115  1.00  0.00     0.073 C 
ATOM      9  O   UNL     1      40.811  -5.881   0.736  1.00  0.00    -0.547 OA
ATOM     10  O   UNL     1      41.987  -6.065  -1.222  1.00  0.00    -0.547 OA
ENDBRANCH   3   8
BRANCH   4  11
ATOM     11  O   UNL     1      41.837  -7.814   2.429  1.00  0.00    -0.387 OA
ATOM     12  H   UNL     1      41.243  -7.386   3.097  1.00  0.00     0.211 HD
ENDBRANCH   4  11
BRANCH   6  13
ATOM     13  O   UNL     1      39.294  -9.135   3.074  1.00  0.00    -0.387 OA
ATOM     14  H   UNL     1      38.704  -8.561   3.628  1.00  0.00     0.211 HD
ENDBRANCH   6  13
BRANCH   7  15
ATOM     15  O   UNL     1      37.755  -9.982   1.205  1.00  0.00    -0.384 OA
ATOM     16  H   UNL     1      37.005 -10.027   0.554  1.00  0.00     0.211 HD
ENDBRANCH   7  15
ENDBRANCH   1   2
BRANCH   1  17
ATOM     17  C   UNL     1      38.964  -9.926  -2.841  1.00  0.00     0.172 A 
ATOM     18  C   UNL     1      37.969  -9.699  -3.806  1.00  0.00     0.205 A 
ATOM     19  C   UNL     1      40.304 -10.022  -3.217  1.00  0.00     0.097 A 
ATOM     20  C   UNL     1      38.336  -9.632  -5.174  1.00  0.00     0.188 A 
ATOM     21  C   UNL     1      40.682  -9.945  -4.560  1.00  0.00     0.134 A 
ATOM     22  C   UNL     1      39.699  -9.753  -5.553  1.00  0.00     0.111 A 
ATOM     23  O   UNL     1      37.407  -9.451  -6.108  1.00  0.00    -0.452 OA
ATOM     24  C   UNL     1      40.012  -9.670  -6.926  1.00  0.00     0.197 A 
ATOM     25  C   UNL     1      37.672  -9.359  -7.409  1.00  0.00     0.138 A 
ATOM     26  C   UNL     1      38.995  -9.465  -7.855  1.00  0.00     0.100 A 
ATOM     27  O   UNL     1      41.196  -9.787  -7.340  1.00  0.00    -0.289 OA
BRANCH  18  28
ATOM     28  O   UNL     1      36.650  -9.524  -3.347  1.00  0.00    -0.490 OA
ATOM     29  C   UNL     1      36.075 -10.108  -2.184  1.00  0.00     0.278 C 
ENDBRANCH  18  28
BRANCH  21  30
ATOM     30  O   UNL     1      42.033 -10.067  -4.895  1.00  0.00    -0.507 OA
ATOM     31  H   UNL     1      42.332 -10.507  -5.757  1.00  0.00     0.293 HD
ENDBRANCH  21  30
BRANCH  25  32
ATOM     32  C   UNL     1      36.549  -9.164  -8.357  1.00  0.00     0.017 A 
ATOM     33  C   UNL     1      35.523 -10.125  -8.428  1.00  0.00     0.012 A 
ATOM     34  C   UNL     1      36.470  -8.021  -9.177  1.00  0.00     0.012 A 
ATOM     35  C   UNL     1      34.451  -9.955  -9.310  1.00  0.00     0.001 A 
ATOM     36  C   UNL     1      35.393  -7.855 -10.056  1.00  0.00     0.001 A 
ATOM     37  C   UNL     1      34.387  -8.823 -10.124  1.00  0.00     0.000 A 
ENDBRANCH  25  32
ENDBRANCH   1  17
TORSDOF 9
ENDMDL
MODEL 5
REMARK VINA RESULT:    -2.533      2.377      8.441
REMARK INTER + INTRA:          -4.093
REMARK INTER:                  -6.795
REMARK INTRA:                   2.702
REMARK UNBOUND:                -0.524
REMARK SMILES COc1c(O[C@H]2O[C@@H](C(=O)[O-])[C@@H](O)[C@H](O)[C@@H]2O)cc(O)c2c(=O)cc(-c3ccccc3)oc12
REMARK SMILES IDX 5 1 6 2 8 3 12 4 7 5 14 6 16 7 9 8 10 9 11 10 13 11 15 13
REMARK SMILES IDX 17 15 4 17 3 18 18 19 33 20 19 21 21 22 32 23 22 24 25 25
REMARK SMILES IDX 24 26 23 27 2 28 1 29 20 30 26 32 27 33 31 34 28 35 30 36
REMARK SMILES IDX 29 37
REMARK H PARENT 13 12 15 14 17 16 20 31
REMARK Flexibility Score: inf
ROOT
ATOM      1  O   UNL     1      34.326   4.705  10.125  1.00  0.00    -0.458 OA
ENDROOT
BRANCH   1   2
ATOM      2  C   UNL     1      33.481   5.861  10.055  1.00  0.00     0.339 C 
ATOM      3  C   UNL     1      33.407   8.106   9.243  1.00  0.00     0.199 C 
ATOM      4  C   UNL     1      31.928   8.046   9.733  1.00  0.00     0.180 C 
ATOM      5  O   UNL     1      34.143   6.889   9.343  1.00  0.00    -0.328 OA
ATOM      6  C   UNL     1      31.214   6.762   9.253  1.00  0.00     0.181 C 
ATOM      7  C   UNL     1      32.131   5.513   9.388  1.00  0.00     0.214 C 
BRANCH   3   8
ATOM      8  C   UNL     1      33.501   8.577   7.819  1.00  0.00     0.073 C 
ATOM      9  O   UNL     1      32.541   9.197   7.289  1.00  0.00    -0.547 OA
ATOM     10  O   UNL     1      34.638   8.300   7.067  1.00  0.00    -0.547 OA
ENDBRANCH   3   8
BRANCH   4  11
ATOM     11  O   UNL     1      31.210   9.207   9.386  1.00  0.00    -0.387 OA
ATOM     12  H   UNL     1      30.349   9.200   9.876  1.00  0.00     0.211 HD
ENDBRANCH   4  11
BRANCH   6  13
ATOM     13  O   UNL     1      30.028   6.586   9.986  1.00  0.00    -0.387 OA
ATOM     14  H   UNL     1      29.812   7.460  10.402  1.00  0.00     0.211 HD
ENDBRANCH   6  13
BRANCH   7  15
ATOM     15  O   UNL     1      31.503   4.492  10.124  1.00  0.00    -0.384 OA
ATOM     16  H   UNL     1      32.200   3.809  10.316  1.00  0.00     0.211 HD
ENDBRANCH   7  15
ENDBRANCH   1   2
BRANCH   1  17
ATOM     17  C   UNL     1      35.525   4.577   9.411  1.00  0.00     0.172 A 
ATOM     18  C   UNL     1      36.438   5.642   9.323  1.00  0.00     0.205 A 
ATOM     19  C   UNL     1      35.800   3.358   8.791  1.00  0.00     0.097 A 
ATOM     20  C   UNL     1      37.611   5.482   8.543  1.00  0.00     0.188 A 
ATOM     21  C   UNL     1      36.959   3.182   8.031  1.00  0.00     0.134 A 
ATOM     22  C   UNL     1      37.875   4.246   7.897  1.00  0.00     0.111 A 
ATOM     23  O   UNL     1      38.473   6.488   8.418  1.00  0.00    -0.452 OA
ATOM     24  C   UNL     1      39.062   4.137   7.141  1.00  0.00     0.197 A 
ATOM     25  C   UNL     1      39.604   6.412   7.721  1.00  0.00     0.138 A 
ATOM     26  C   UNL     1      39.931   5.222   7.060  1.00  0.00     0.100 A 
ATOM     27  O   UNL     1      39.354   3.078   6.523  1.00  0.00    -0.289 OA
BRANCH  18  28
ATOM     28  O   UNL     1      36.138   6.811  10.045  1.00  0.00    -0.490 OA
ATOM     29  C   UNL     1      36.789   8.070   9.924  1.00  0.00     0.278 C 
ENDBRANCH  18  28
BRANCH  21  30
ATOM     30  O   UNL     1      37.187   1.951   7.410  1.00  0.00    -0.507 OA
ATOM     31  H   UNL     1      36.677   1.117   7.675  1.00  0.00     0.293 HD
ENDBRANCH  21  30
BRANCH  25  32
ATOM     32  C   UNL     1      40.482   7.604   7.649  1.00  0.00     0.017 A 
ATOM     33  C   UNL     1      40.494   8.390   6.482  1.00  0.00     0.012 A 
ATOM     34  C   UNL     1      41.294   7.985   8.735  1.00  0.00     0.012 A 
ATOM     35  C   UNL     1      41.310   9.523   6.397  1.00  0.00     0.001 A 
ATOM     36  C   UNL     1      42.107   9.121   8.646  1.00  0.00     0.001 A 
ATOM     37  C   UNL     1      42.117   9.887   7.477  1.00  0.00     0.000 A 
ENDBRANCH  25  32
ENDBRANCH   1  17
TORSDOF 9
ENDMDL
