MODEL 1
REMARK VINA RESULT:    -8.490      0.000      0.000
REMARK INTER + INTRA:         -11.490
REMARK INTER:                 -11.467
REMARK INTRA:                  -0.023
REMARK UNBOUND:                -0.023
REMARK SMILES O=c1c(-c2ccc(O)cc2)coc2c([C@@H]3O[C@H](CO)[C@@H](O)[C@@H](O)[C@@H]3O)c(O)ccc12
REMARK SMILES IDX 3 1 11 2 12 3 13 4 30 5 2 6 1 7 29 8 28 9 26 10 14 11 4 12
REMARK SMILES IDX 5 13 6 14 7 15 10 16 9 17 8 18 15 20 24 21 16 22 22 23 17 24
REMARK SMILES IDX 20 25 25 26 23 28 18 30 19 31 21 33 27 35
REMARK H PARENT 8 19 25 27 23 29 19 32 21 34 27 36
REMARK Flexibility Score: inf
ROOT
ATOM      1  C   UNL     1      15.878 -46.807  70.315  1.00  0.00     0.065 A 
ATOM      2  C   UNL     1      15.380 -45.809  69.465  1.00  0.00     0.208 A 
ATOM      3  O   UNL     1      16.203 -45.020  68.785  1.00  0.00    -0.463 OA
ATOM      4  C   UNL     1      17.528 -45.114  68.858  1.00  0.00     0.147 A 
ATOM      5  C   UNL     1      18.116 -46.085  69.701  1.00  0.00     0.066 A 
ATOM      6  C   UNL     1      17.274 -46.937  70.438  1.00  0.00     0.200 A 
ATOM      7  O   UNL     1      17.765 -47.799  71.221  1.00  0.00    -0.288 OA
ATOM      8  C   UNL     1      19.514 -46.169  69.793  1.00  0.00     0.020 A 
ATOM      9  C   UNL     1      20.318 -45.290  69.071  1.00  0.00     0.047 A 
ATOM     10  C   UNL     1      19.748 -44.322  68.236  1.00  0.00     0.125 A 
ATOM     11  C   UNL     1      18.342 -44.242  68.097  1.00  0.00     0.069 A 
ENDROOT
BRANCH   1  12
ATOM     12  C   UNL     1      14.939 -47.684  71.058  1.00  0.00    -0.011 A 
ATOM     13  C   UNL     1      15.399 -48.507  72.102  1.00  0.00     0.013 A 
ATOM     14  C   UNL     1      14.511 -49.338  72.791  1.00  0.00     0.047 A 
ATOM     15  C   UNL     1      13.154 -49.361  72.444  1.00  0.00     0.115 A 
ATOM     16  C   UNL     1      13.576 -47.720  70.712  1.00  0.00     0.013 A 
ATOM     17  C   UNL     1      12.691 -48.551  71.404  1.00  0.00     0.047 A 
BRANCH  15  18
ATOM     18  O   UNL     1      12.260 -50.185  73.125  1.00  0.00    -0.508 OA
ATOM     19  H   UNL     1      11.541 -50.703  72.635  1.00  0.00     0.293 HD
ENDBRANCH  15  18
ENDBRANCH   1  12
BRANCH  11  20
ATOM     20  C   UNL     1      17.699 -43.184  67.207  1.00  0.00     0.188 C 
ATOM     21  C   UNL     1      17.374 -41.880  67.989  1.00  0.00     0.179 C 
ATOM     22  O   UNL     1      18.530 -42.899  66.097  1.00  0.00    -0.362 OA
ATOM     23  C   UNL     1      17.403 -40.655  67.046  1.00  0.00     0.177 C 
ATOM     24  C   UNL     1      17.811 -42.213  65.077  1.00  0.00     0.176 C 
ATOM     25  C   UNL     1      16.937 -41.040  65.628  1.00  0.00     0.177 C 
BRANCH  21  26
ATOM     26  O   UNL     1      18.290 -41.677  69.037  1.00  0.00    -0.387 OA
ATOM     27  H   UNL     1      19.132 -41.352  68.623  1.00  0.00     0.211 HD
ENDBRANCH  21  26
BRANCH  23  28
ATOM     28  O   UNL     1      16.595 -39.635  67.574  1.00  0.00    -0.387 OA
ATOM     29  H   UNL     1      16.953 -38.777  67.226  1.00  0.00     0.211 HD
ENDBRANCH  23  28
BRANCH  24  30
ATOM     30  C   UNL     1      18.822 -41.697  64.043  1.00  0.00     0.191 C 
BRANCH  30  31
ATOM     31  O   UNL     1      18.669 -42.373  62.823  1.00  0.00    -0.394 OA
ATOM     32  H   UNL     1      18.007 -43.096  62.980  1.00  0.00     0.210 HD
ENDBRANCH  30  31
ENDBRANCH  24  30
BRANCH  25  33
ATOM     33  O   UNL     1      15.589 -41.441  65.656  1.00  0.00    -0.388 OA
ATOM     34  H   UNL     1      15.540 -42.265  66.209  1.00  0.00     0.211 HD
ENDBRANCH  25  33
ENDBRANCH  11  20
BRANCH  10  35
ATOM     35  O   UNL     1      20.579 -43.432  67.555  1.00  0.00    -0.507 OA
ATOM     36  H   UNL     1      20.553 -42.436  67.733  1.00  0.00     0.293 HD
ENDBRANCH  10  35
TORSDOF 9
ENDMDL
MODEL 2
REMARK VINA RESULT:    -8.468      2.062      8.231
REMARK INTER + INTRA:         -11.461
REMARK INTER:                 -10.554
REMARK INTRA:                  -0.907
REMARK UNBOUND:                -0.023
REMARK SMILES O=c1c(-c2ccc(O)cc2)coc2c([C@@H]3O[C@H](CO)[C@@H](O)[C@@H](O)[C@@H]3O)c(O)ccc12
REMARK SMILES IDX 3 1 11 2 12 3 13 4 30 5 2 6 1 7 29 8 28 9 26 10 14 11 4 12
REMARK SMILES IDX 5 13 6 14 7 15 10 16 9 17 8 18 15 20 24 21 16 22 22 23 17 24
REMARK SMILES IDX 20 25 25 26 23 28 18 30 19 31 21 33 27 35
REMARK H PARENT 8 19 25 27 23 29 19 32 21 34 27 36
REMARK Flexibility Score: inf
ROOT
ATOM      1  C   UNL     1      18.525 -43.087  68.096  1.00  0.00     0.065 A 
ATOM      2  C   UNL     1      17.171 -43.427  68.219  1.00  0.00     0.208 A 
ATOM      3  O   UNL     1      16.805 -44.575  68.778  1.00  0.00    -0.463 OA
ATOM      4  C   UNL     1      17.674 -45.465  69.250  1.00  0.00     0.147 A 
ATOM      5  C   UNL     1      19.061 -45.209  69.155  1.00  0.00     0.066 A 
ATOM      6  C   UNL     1      19.485 -44.003  68.566  1.00  0.00     0.200 A 
ATOM      7  O   UNL     1      20.717 -43.753  68.441  1.00  0.00    -0.288 OA
ATOM      8  C   UNL     1      19.977 -46.158  69.633  1.00  0.00     0.020 A 
ATOM      9  C   UNL     1      19.523 -47.355  70.184  1.00  0.00     0.047 A 
ATOM     10  C   UNL     1      18.152 -47.622  70.280  1.00  0.00     0.125 A 
ATOM     11  C   UNL     1      17.208 -46.664  69.839  1.00  0.00     0.069 A 
ENDROOT
BRANCH   1  12
ATOM     12  C   UNL     1      18.911 -41.794  67.476  1.00  0.00    -0.011 A 
ATOM     13  C   UNL     1      18.993 -40.624  68.251  1.00  0.00     0.013 A 
ATOM     14  C   UNL     1      19.347 -39.407  67.659  1.00  0.00     0.047 A 
ATOM     15  C   UNL     1      19.619 -39.345  66.287  1.00  0.00     0.115 A 
ATOM     16  C   UNL     1      19.178 -41.721  66.097  1.00  0.00     0.013 A 
ATOM     17  C   UNL     1      19.533 -40.503  65.509  1.00  0.00     0.047 A 
BRANCH  15  18
ATOM     18  O   UNL     1      19.973 -38.139  65.686  1.00  0.00    -0.508 OA
ATOM     19  H   UNL     1      20.422 -38.111  64.778  1.00  0.00     0.293 HD
ENDBRANCH  15  18
ENDBRANCH   1  12
BRANCH  11  20
ATOM     20  C   UNL     1      15.711 -46.942  69.918  1.00  0.00     0.188 C 
ATOM     21  C   UNL     1      15.179 -47.654  68.642  1.00  0.00     0.179 C 
ATOM     22  O   UNL     1      15.409 -47.707  71.071  1.00  0.00    -0.362 OA
ATOM     23  C   UNL     1      13.944 -48.522  68.975  1.00  0.00     0.177 C 
ATOM     24  C   UNL     1      14.017 -47.665  71.368  1.00  0.00     0.176 C 
ATOM     25  C   UNL     1      13.116 -47.892  70.111  1.00  0.00     0.177 C 
BRANCH  21  26
ATOM     26  O   UNL     1      16.173 -48.465  68.065  1.00  0.00    -0.387 OA
ATOM     27  H   UNL     1      17.037 -47.992  68.188  1.00  0.00     0.211 HD
ENDBRANCH  21  26
BRANCH  23  28
ATOM     28  O   UNL     1      13.160 -48.687  67.821  1.00  0.00    -0.387 OA
ATOM     29  H   UNL     1      12.398 -48.056  67.901  1.00  0.00     0.211 HD
ENDBRANCH  23  28
BRANCH  24  30
ATOM     30  C   UNL     1      13.725 -48.722  72.443  1.00  0.00     0.191 C 
BRANCH  30  31
ATOM     31  O   UNL     1      12.378 -49.111  72.399  1.00  0.00    -0.394 OA
ATOM     32  H   UNL     1      12.165 -49.289  71.446  1.00  0.00     0.210 HD
ENDBRANCH  30  31
ENDBRANCH  24  30
BRANCH  25  33
ATOM     33  O   UNL     1      12.587 -46.657  69.693  1.00  0.00    -0.388 OA
ATOM     34  H   UNL     1      13.279 -46.215  69.135  1.00  0.00     0.211 HD
ENDBRANCH  25  33
ENDBRANCH  11  20
BRANCH  10  35
ATOM     35  O   UNL     1      17.730 -48.845  70.802  1.00  0.00    -0.507 OA
ATOM     36  H   UNL     1      17.120 -48.899  71.608  1.00  0.00     0.293 HD
ENDBRANCH  10  35
TORSDOF 9
ENDMDL
MODEL 3
REMARK VINA RESULT:    -8.271      4.985      9.404
REMARK INTER + INTRA:         -11.195
REMARK INTER:                 -10.482
REMARK INTRA:                  -0.714
REMARK UNBOUND:                -0.023
REMARK SMILES O=c1c(-c2ccc(O)cc2)coc2c([C@@H]3O[C@H](CO)[C@@H](O)[C@@H](O)[C@@H]3O)c(O)ccc12
REMARK SMILES IDX 3 1 11 2 12 3 13 4 30 5 2 6 1 7 29 8 28 9 26 10 14 11 4 12
REMARK SMILES IDX 5 13 6 14 7 15 10 16 9 17 8 18 15 20 24 21 16 22 22 23 17 24
REMARK SMILES IDX 20 25 25 26 23 28 18 30 19 31 21 33 27 35
REMARK H PARENT 8 19 25 27 23 29 19 32 21 34 27 36
REMARK Flexibility Score: inf
ROOT
ATOM      1  C   UNL     1      16.106 -37.208  66.684  1.00  0.00     0.065 A 
ATOM      2  C   UNL     1      15.116 -38.163  66.413  1.00  0.00     0.208 A 
ATOM      3  O   UNL     1      15.434 -39.354  65.921  1.00  0.00    -0.463 OA
ATOM      4  C   UNL     1      16.685 -39.721  65.654  1.00  0.00     0.147 A 
ATOM      5  C   UNL     1      17.746 -38.816  65.886  1.00  0.00     0.066 A 
ATOM      6  C   UNL     1      17.445 -37.543  66.405  1.00  0.00     0.200 A 
ATOM      7  O   UNL     1      18.365 -36.700  66.599  1.00  0.00    -0.288 OA
ATOM      8  C   UNL     1      19.062 -39.197  65.583  1.00  0.00     0.020 A 
ATOM      9  C   UNL     1      19.321 -40.455  65.043  1.00  0.00     0.047 A 
ATOM     10  C   UNL     1      18.279 -41.358  64.806  1.00  0.00     0.125 A 
ATOM     11  C   UNL     1      16.948 -41.012  65.137  1.00  0.00     0.069 A 
ENDROOT
BRANCH   1  12
ATOM     12  C   UNL     1      15.728 -35.886  67.243  1.00  0.00    -0.011 A 
ATOM     13  C   UNL     1      14.981 -34.972  66.480  1.00  0.00     0.013 A 
ATOM     14  C   UNL     1      14.637 -33.724  67.008  1.00  0.00     0.047 A 
ATOM     15  C   UNL     1      15.038 -33.373  68.303  1.00  0.00     0.115 A 
ATOM     16  C   UNL     1      16.133 -35.522  68.540  1.00  0.00     0.013 A 
ATOM     17  C   UNL     1      15.787 -34.274  69.065  1.00  0.00     0.047 A 
BRANCH  15  18
ATOM     18  O   UNL     1      14.700 -32.133  68.841  1.00  0.00    -0.508 OA
ATOM     19  H   UNL     1      15.224 -31.728  69.608  1.00  0.00     0.293 HD
ENDBRANCH  15  18
ENDBRANCH   1  12
BRANCH  11  20
ATOM     20  C   UNL     1      15.795 -41.974  64.870  1.00  0.00     0.188 C 
ATOM     21  C   UNL     1      15.396 -42.008  63.368  1.00  0.00     0.179 C 
ATOM     22  O   UNL     1      16.122 -43.276  65.323  1.00  0.00    -0.362 OA
ATOM     23  C   UNL     1      14.792 -43.381  62.994  1.00  0.00     0.177 C 
ATOM     24  C   UNL     1      14.959 -44.092  65.430  1.00  0.00     0.176 C 
ATOM     25  C   UNL     1      14.023 -43.989  64.183  1.00  0.00     0.177 C 
BRANCH  21  26
ATOM     26  O   UNL     1      16.507 -41.751  62.544  1.00  0.00    -0.387 OA
ATOM     27  H   UNL     1      16.696 -40.779  62.612  1.00  0.00     0.211 HD
ENDBRANCH  21  26
BRANCH  23  28
ATOM     28  O   UNL     1      13.950 -43.237  61.879  1.00  0.00    -0.387 OA
ATOM     29  H   UNL     1      13.916 -44.122  61.430  1.00  0.00     0.211 HD
ENDBRANCH  23  28
BRANCH  24  30
ATOM     30  C   UNL     1      15.412 -45.542  65.652  1.00  0.00     0.191 C 
BRANCH  30  31
ATOM     31  O   UNL     1      16.743 -45.711  65.242  1.00  0.00    -0.394 OA
ATOM     32  H   UNL     1      16.868 -46.681  65.074  1.00  0.00     0.210 HD
ENDBRANCH  30  31
ENDBRANCH  24  30
BRANCH  25  33
ATOM     33  O   UNL     1      12.915 -43.183  64.502  1.00  0.00    -0.388 OA
ATOM     34  H   UNL     1      12.895 -43.089  65.490  1.00  0.00     0.211 HD
ENDBRANCH  25  33
ENDBRANCH  11  20
BRANCH  10  35
ATOM     35  O   UNL     1      18.567 -42.596  64.229  1.00  0.00    -0.507 OA
ATOM     36  H   UNL     1      18.507 -43.458  64.758  1.00  0.00     0.293 HD
ENDBRANCH  10  35
TORSDOF 9
ENDMDL
MODEL 4
REMARK VINA RESULT:    -8.217      2.962      8.008
REMARK INTER + INTRA:         -11.122
REMARK INTER:                 -10.396
REMARK INTRA:                  -0.727
REMARK UNBOUND:                -0.023
REMARK SMILES O=c1c(-c2ccc(O)cc2)coc2c([C@@H]3O[C@H](CO)[C@@H](O)[C@@H](O)[C@@H]3O)c(O)ccc12
REMARK SMILES IDX 3 1 11 2 12 3 13 4 30 5 2 6 1 7 29 8 28 9 26 10 14 11 4 12
REMARK SMILES IDX 5 13 6 14 7 15 10 16 9 17 8 18 15 20 24 21 16 22 22 23 17 24
REMARK SMILES IDX 20 25 25 26 23 28 18 30 19 31 21 33 27 35
REMARK H PARENT 8 19 25 27 23 29 19 32 21 34 27 36
REMARK Flexibility Score: inf
ROOT
ATOM      1  C   UNL     1      19.979 -44.512  68.403  1.00  0.00     0.065 A 
ATOM      2  C   UNL     1      18.752 -44.200  69.006  1.00  0.00     0.208 A 
ATOM      3  O   UNL     1      17.779 -45.100  69.075  1.00  0.00    -0.463 OA
ATOM      4  C   UNL     1      17.892 -46.334  68.589  1.00  0.00     0.147 A 
ATOM      5  C   UNL     1      19.091 -46.730  67.954  1.00  0.00     0.066 A 
ATOM      6  C   UNL     1      20.143 -45.800  67.860  1.00  0.00     0.200 A 
ATOM      7  O   UNL     1      21.219 -46.112  67.276  1.00  0.00    -0.288 OA
ATOM      8  C   UNL     1      19.201 -48.024  67.423  1.00  0.00     0.020 A 
ATOM      9  C   UNL     1      18.128 -48.910  67.507  1.00  0.00     0.047 A 
ATOM     10  C   UNL     1      16.935 -48.528  68.131  1.00  0.00     0.125 A 
ATOM     11  C   UNL     1      16.813 -47.242  68.707  1.00  0.00     0.069 A 
ENDROOT
BRANCH   1  12
ATOM     12  C   UNL     1      21.057 -43.493  68.346  1.00  0.00    -0.011 A 
ATOM     13  C   UNL     1      22.312 -43.741  68.930  1.00  0.00     0.013 A 
ATOM     14  C   UNL     1      23.319 -42.773  68.881  1.00  0.00     0.047 A 
ATOM     15  C   UNL     1      23.084 -41.544  68.252  1.00  0.00     0.115 A 
ATOM     16  C   UNL     1      20.827 -42.253  67.723  1.00  0.00     0.013 A 
ATOM     17  C   UNL     1      21.837 -41.288  67.675  1.00  0.00     0.047 A 
BRANCH  15  18
ATOM     18  O   UNL     1      24.081 -40.572  68.197  1.00  0.00    -0.508 OA
ATOM     19  H   UNL     1      25.019 -40.793  67.884  1.00  0.00     0.293 HD
ENDBRANCH  15  18
ENDBRANCH   1  12
BRANCH  11  20
ATOM     20  C   UNL     1      15.515 -46.799  69.375  1.00  0.00     0.188 C 
ATOM     21  C   UNL     1      14.472 -46.283  68.344  1.00  0.00     0.179 C 
ATOM     22  O   UNL     1      14.969 -47.856  70.143  1.00  0.00    -0.362 OA
ATOM     23  C   UNL     1      13.033 -46.504  68.865  1.00  0.00     0.177 C 
ATOM     24  C   UNL     1      13.987 -47.375  71.056  1.00  0.00     0.176 C 
ATOM     25  C   UNL     1      12.977 -46.379  70.400  1.00  0.00     0.177 C 
BRANCH  21  26
ATOM     26  O   UNL     1      14.620 -46.934  67.106  1.00  0.00    -0.387 OA
ATOM     27  H   UNL     1      14.474 -46.249  66.402  1.00  0.00     0.211 HD
ENDBRANCH  21  26
BRANCH  23  28
ATOM     28  O   UNL     1      12.166 -45.580  68.259  1.00  0.00    -0.387 OA
ATOM     29  H   UNL     1      11.529 -46.105  67.708  1.00  0.00     0.211 HD
ENDBRANCH  23  28
BRANCH  24  30
ATOM     30  C   UNL     1      13.249 -48.586  71.647  1.00  0.00     0.191 C 
BRANCH  30  31
ATOM     31  O   UNL     1      11.910 -48.265  71.913  1.00  0.00    -0.394 OA
ATOM     32  H   UNL     1      11.437 -49.124  72.069  1.00  0.00     0.210 HD
ENDBRANCH  30  31
ENDBRANCH  24  30
BRANCH  25  33
ATOM     33  O   UNL     1      13.303 -45.067  70.788  1.00  0.00    -0.388 OA
ATOM     34  H   UNL     1      13.273 -45.038  71.780  1.00  0.00     0.211 HD
ENDBRANCH  25  33
ENDBRANCH  11  20
BRANCH  10  35
ATOM     35  O   UNL     1      15.866 -49.425  68.166  1.00  0.00    -0.507 OA
ATOM     36  H   UNL     1      15.913 -50.329  67.711  1.00  0.00     0.293 HD
ENDBRANCH  10  35
TORSDOF 9
ENDMDL
MODEL 5
REMARK VINA RESULT:    -8.145      2.287      8.252
REMARK INTER + INTRA:         -11.024
REMARK INTER:                 -10.065
REMARK INTRA:                  -0.959
REMARK UNBOUND:                -0.023
REMARK SMILES O=c1c(-c2ccc(O)cc2)coc2c([C@@H]3O[C@H](CO)[C@@H](O)[C@@H](O)[C@@H]3O)c(O)ccc12
REMARK SMILES IDX 3 1 11 2 12 3 13 4 30 5 2 6 1 7 29 8 28 9 26 10 14 11 4 12
REMARK SMILES IDX 5 13 6 14 7 15 10 16 9 17 8 18 15 20 24 21 16 22 22 23 17 24
REMARK SMILES IDX 20 25 25 26 23 28 18 30 19 31 21 33 27 35
REMARK H PARENT 8 19 25 27 23 29 19 32 21 34 27 36
REMARK Flexibility Score: inf
ROOT
ATOM      1  C   UNL     1      18.752 -42.133  67.979  1.00  0.00     0.065 A 
ATOM      2  C   UNL     1      17.526 -42.757  68.250  1.00  0.00     0.208 A 
ATOM      3  O   UNL     1      17.482 -43.996  68.725  1.00  0.00    -0.463 OA
ATOM      4  C   UNL     1      18.571 -44.720  68.973  1.00  0.00     0.147 A 
ATOM      5  C   UNL     1      19.849 -44.173  68.716  1.00  0.00     0.066 A 
ATOM      6  C   UNL     1      19.933 -42.863  68.210  1.00  0.00     0.200 A 
ATOM      7  O   UNL     1      21.057 -42.353  67.945  1.00  0.00    -0.288 OA
ATOM      8  C   UNL     1      20.996 -44.946  68.957  1.00  0.00     0.020 A 
ATOM      9  C   UNL     1      20.875 -46.250  69.432  1.00  0.00     0.047 A 
ATOM     10  C   UNL     1      19.615 -46.804  69.686  1.00  0.00     0.125 A 
ATOM     11  C   UNL     1      18.446 -46.032  69.487  1.00  0.00     0.069 A 
ENDROOT
BRANCH   1  12
ATOM     12  C   UNL     1      18.776 -40.744  67.457  1.00  0.00    -0.011 A 
ATOM     13  C   UNL     1      18.600 -40.490  66.085  1.00  0.00     0.013 A 
ATOM     14  C   UNL     1      18.635 -39.180  65.598  1.00  0.00     0.047 A 
ATOM     15  C   UNL     1      18.850 -38.109  66.474  1.00  0.00     0.115 A 
ATOM     16  C   UNL     1      19.000 -39.663  68.328  1.00  0.00     0.013 A 
ATOM     17  C   UNL     1      19.033 -38.354  67.838  1.00  0.00     0.047 A 
BRANCH  15  18
ATOM     18  O   UNL     1      18.886 -36.799  66.000  1.00  0.00    -0.508 OA
ATOM     19  H   UNL     1      18.564 -36.565  65.068  1.00  0.00     0.293 HD
ENDBRANCH  15  18
ENDBRANCH   1  12
BRANCH  11  20
ATOM     20  C   UNL     1      17.062 -46.622  69.740  1.00  0.00     0.188 C 
ATOM     21  C   UNL     1      16.511 -47.378  68.498  1.00  0.00     0.179 C 
ATOM     22  O   UNL     1      17.088 -47.478  70.868  1.00  0.00    -0.362 OA
ATOM     23  C   UNL     1      15.537 -48.500  68.929  1.00  0.00     0.177 C 
ATOM     24  C   UNL     1      15.772 -47.741  71.345  1.00  0.00     0.176 C 
ATOM     25  C   UNL     1      14.768 -48.103  70.204  1.00  0.00     0.177 C 
BRANCH  21  26
ATOM     26  O   UNL     1      17.557 -47.939  67.744  1.00  0.00    -0.387 OA
ATOM     27  H   UNL     1      17.261 -48.848  67.475  1.00  0.00     0.211 HD
ENDBRANCH  21  26
BRANCH  23  28
ATOM     28  O   UNL     1      14.648 -48.780  67.879  1.00  0.00    -0.387 OA
ATOM     29  H   UNL     1      15.170 -49.252  67.179  1.00  0.00     0.211 HD
ENDBRANCH  23  28
BRANCH  24  30
ATOM     30  C   UNL     1      15.855 -48.878  72.375  1.00  0.00     0.191 C 
BRANCH  30  31
ATOM     31  O   UNL     1      17.028 -49.625  72.190  1.00  0.00    -0.394 OA
ATOM     32  H   UNL     1      17.142 -50.181  73.004  1.00  0.00     0.210 HD
ENDBRANCH  30  31
ENDBRANCH  24  30
BRANCH  25  33
ATOM     33  O   UNL     1      13.945 -46.991  69.943  1.00  0.00    -0.388 OA
ATOM     34  H   UNL     1      14.438 -46.184  70.245  1.00  0.00     0.211 HD
ENDBRANCH  25  33
ENDBRANCH  11  20
BRANCH  10  35
ATOM     35  O   UNL     1      19.526 -48.125  70.125  1.00  0.00    -0.507 OA
ATOM     36  H   UNL     1      18.993 -48.821  69.617  1.00  0.00     0.293 HD
ENDBRANCH  10  35
TORSDOF 9
ENDMDL
MODEL 6
REMARK VINA RESULT:    -8.071      3.575      8.689
REMARK INTER + INTRA:         -10.925
REMARK INTER:                 -10.150
REMARK INTRA:                  -0.775
REMARK UNBOUND:                -0.023
REMARK SMILES O=c1c(-c2ccc(O)cc2)coc2c([C@@H]3O[C@H](CO)[C@@H](O)[C@@H](O)[C@@H]3O)c(O)ccc12
REMARK SMILES IDX 3 1 11 2 12 3 13 4 30 5 2 6 1 7 29 8 28 9 26 10 14 11 4 12
REMARK SMILES IDX 5 13 6 14 7 15 10 16 9 17 8 18 15 20 24 21 16 22 22 23 17 24
REMARK SMILES IDX 20 25 25 26 23 28 18 30 19 31 21 33 27 35
REMARK H PARENT 8 19 25 27 23 29 19 32 21 34 27 36
REMARK Flexibility Score: inf
ROOT
ATOM      1  C   UNL     1      17.334 -39.065  66.926  1.00  0.00     0.065 A 
ATOM      2  C   UNL     1      18.171 -39.939  67.633  1.00  0.00     0.208 A 
ATOM      3  O   UNL     1      18.215 -41.232  67.334  1.00  0.00    -0.463 OA
ATOM      4  C   UNL     1      17.485 -41.781  66.367  1.00  0.00     0.147 A 
ATOM      5  C   UNL     1      16.603 -40.975  65.611  1.00  0.00     0.066 A 
ATOM      6  C   UNL     1      16.529 -39.600  65.903  1.00  0.00     0.200 A 
ATOM      7  O   UNL     1      15.733 -38.855  65.265  1.00  0.00    -0.288 OA
ATOM      8  C   UNL     1      15.817 -41.559  64.606  1.00  0.00     0.020 A 
ATOM      9  C   UNL     1      15.894 -42.929  64.364  1.00  0.00     0.047 A 
ATOM     10  C   UNL     1      16.761 -43.738  65.107  1.00  0.00     0.125 A 
ATOM     11  C   UNL     1      17.591 -43.167  66.101  1.00  0.00     0.069 A 
ENDROOT
BRANCH   1  12
ATOM     12  C   UNL     1      17.308 -37.622  67.271  1.00  0.00    -0.011 A 
ATOM     13  C   UNL     1      18.407 -36.795  66.979  1.00  0.00     0.013 A 
ATOM     14  C   UNL     1      18.381 -35.438  67.316  1.00  0.00     0.047 A 
ATOM     15  C   UNL     1      17.259 -34.892  67.953  1.00  0.00     0.115 A 
ATOM     16  C   UNL     1      16.189 -37.067  67.918  1.00  0.00     0.013 A 
ATOM     17  C   UNL     1      16.166 -35.710  68.253  1.00  0.00     0.047 A 
BRANCH  15  18
ATOM     18  O   UNL     1      17.221 -33.542  68.293  1.00  0.00    -0.508 OA
ATOM     19  H   UNL     1      18.010 -32.931  68.120  1.00  0.00     0.293 HD
ENDBRANCH  15  18
ENDBRANCH   1  12
BRANCH  11  20
ATOM     20  C   UNL     1      18.529 -44.033  66.935  1.00  0.00     0.188 C 
ATOM     21  C   UNL     1      17.829 -44.602  68.201  1.00  0.00     0.179 C 
ATOM     22  O   UNL     1      19.061 -45.084  66.150  1.00  0.00    -0.362 OA
ATOM     23  C   UNL     1      18.473 -45.943  68.624  1.00  0.00     0.177 C 
ATOM     24  C   UNL     1      20.198 -45.670  66.776  1.00  0.00     0.176 C 
ATOM     25  C   UNL     1      19.978 -45.961  68.295  1.00  0.00     0.177 C 
BRANCH  21  26
ATOM     26  O   UNL     1      16.456 -44.800  67.974  1.00  0.00    -0.387 OA
ATOM     27  H   UNL     1      16.056 -45.066  68.843  1.00  0.00     0.211 HD
ENDBRANCH  21  26
BRANCH  23  28
ATOM     28  O   UNL     1      18.261 -46.155  69.997  1.00  0.00    -0.387 OA
ATOM     29  H   UNL     1      19.093 -46.562  70.355  1.00  0.00     0.211 HD
ENDBRANCH  23  28
BRANCH  24  30
ATOM     30  C   UNL     1      20.548 -46.961  66.021  1.00  0.00     0.191 C 
BRANCH  30  31
ATOM     31  O   UNL     1      21.732 -46.798  65.287  1.00  0.00    -0.394 OA
ATOM     32  H   UNL     1      21.499 -46.948  64.334  1.00  0.00     0.210 HD
ENDBRANCH  30  31
ENDBRANCH  24  30
BRANCH  25  33
ATOM     33  O   UNL     1      20.648 -44.985  69.055  1.00  0.00    -0.388 OA
ATOM     34  H   UNL     1      20.514 -44.114  68.597  1.00  0.00     0.211 HD
ENDBRANCH  25  33
ENDBRANCH  11  20
BRANCH  10  35
ATOM     35  O   UNL     1      16.787 -45.112  64.866  1.00  0.00    -0.507 OA
ATOM     36  H   UNL     1      17.297 -45.750  65.466  1.00  0.00     0.293 HD
ENDBRANCH  10  35
TORSDOF 9
ENDMDL
MODEL 7
REMARK VINA RESULT:    -8.063      3.539      7.887
REMARK INTER + INTRA:         -10.914
REMARK INTER:                 -10.050
REMARK INTRA:                  -0.864
REMARK UNBOUND:                -0.023
REMARK SMILES O=c1c(-c2ccc(O)cc2)coc2c([C@@H]3O[C@H](CO)[C@@H](O)[C@@H](O)[C@@H]3O)c(O)ccc12
REMARK SMILES IDX 3 1 11 2 12 3 13 4 30 5 2 6 1 7 29 8 28 9 26 10 14 11 4 12
REMARK SMILES IDX 5 13 6 14 7 15 10 16 9 17 8 18 15 20 24 21 16 22 22 23 17 24
REMARK SMILES IDX 20 25 25 26 23 28 18 30 19 31 21 33 27 35
REMARK H PARENT 8 19 25 27 23 29 19 32 21 34 27 36
REMARK Flexibility Score: inf
ROOT
ATOM      1  C   UNL     1      14.486 -42.713  64.540  1.00  0.00     0.065 A 
ATOM      2  C   UNL     1      15.073 -43.986  64.513  1.00  0.00     0.208 A 
ATOM      3  O   UNL     1      16.012 -44.323  65.390  1.00  0.00    -0.463 OA
ATOM      4  C   UNL     1      16.455 -43.498  66.335  1.00  0.00     0.147 A 
ATOM      5  C   UNL     1      15.926 -42.189  66.427  1.00  0.00     0.066 A 
ATOM      6  C   UNL     1      14.932 -41.798  65.512  1.00  0.00     0.200 A 
ATOM      7  O   UNL     1      14.456 -40.629  65.549  1.00  0.00    -0.288 OA
ATOM      8  C   UNL     1      16.410 -41.313  67.411  1.00  0.00     0.020 A 
ATOM      9  C   UNL     1      17.416 -41.724  68.282  1.00  0.00     0.047 A 
ATOM     10  C   UNL     1      17.950 -43.015  68.199  1.00  0.00     0.125 A 
ATOM     11  C   UNL     1      17.453 -43.930  67.240  1.00  0.00     0.069 A 
ENDROOT
BRANCH   1  12
ATOM     12  C   UNL     1      13.432 -42.363  63.556  1.00  0.00    -0.011 A 
ATOM     13  C   UNL     1      12.083 -42.285  63.946  1.00  0.00     0.013 A 
ATOM     14  C   UNL     1      11.094 -41.965  63.012  1.00  0.00     0.047 A 
ATOM     15  C   UNL     1      11.439 -41.721  61.676  1.00  0.00     0.115 A 
ATOM     16  C   UNL     1      13.769 -42.124  62.211  1.00  0.00     0.013 A 
ATOM     17  C   UNL     1      12.777 -41.802  61.280  1.00  0.00     0.047 A 
BRANCH  15  18
ATOM     18  O   UNL     1      10.462 -41.399  60.737  1.00  0.00    -0.508 OA
ATOM     19  H   UNL     1      10.126 -40.450  60.627  1.00  0.00     0.293 HD
ENDBRANCH  15  18
ENDBRANCH   1  12
BRANCH  11  20
ATOM     20  C   UNL     1      18.032 -45.335  67.120  1.00  0.00     0.188 C 
ATOM     21  C   UNL     1      19.323 -45.365  66.253  1.00  0.00     0.179 C 
ATOM     22  O   UNL     1      18.288 -45.877  68.404  1.00  0.00    -0.362 OA
ATOM     23  C   UNL     1      20.245 -46.528  66.685  1.00  0.00     0.177 C 
ATOM     24  C   UNL     1      18.470 -47.288  68.340  1.00  0.00     0.176 C 
ATOM     25  C   UNL     1      19.420 -47.732  67.182  1.00  0.00     0.177 C 
BRANCH  21  26
ATOM     26  O   UNL     1      20.028 -44.153  66.356  1.00  0.00    -0.387 OA
ATOM     27  H   UNL     1      20.670 -44.257  67.106  1.00  0.00     0.211 HD
ENDBRANCH  21  26
BRANCH  23  28
ATOM     28  O   UNL     1      21.069 -46.900  65.610  1.00  0.00    -0.387 OA
ATOM     29  H   UNL     1      21.461 -47.782  65.842  1.00  0.00     0.211 HD
ENDBRANCH  23  28
BRANCH  24  30
ATOM     30  C   UNL     1      19.011 -47.761  69.698  1.00  0.00     0.191 C 
BRANCH  30  31
ATOM     31  O   UNL     1      19.079 -49.162  69.740  1.00  0.00    -0.394 OA
ATOM     32  H   UNL     1      19.137 -49.473  68.799  1.00  0.00     0.210 HD
ENDBRANCH  30  31
ENDBRANCH  24  30
BRANCH  25  33
ATOM     33  O   UNL     1      18.650 -48.255  66.127  1.00  0.00    -0.388 OA
ATOM     34  H   UNL     1      17.779 -47.778  66.135  1.00  0.00     0.211 HD
ENDBRANCH  25  33
ENDBRANCH  11  20
BRANCH  10  35
ATOM     35  O   UNL     1      18.983 -43.384  69.061  1.00  0.00    -0.507 OA
ATOM     36  H   UNL     1      19.157 -44.352  69.303  1.00  0.00     0.293 HD
ENDBRANCH  10  35
TORSDOF 9
ENDMDL
MODEL 8
REMARK VINA RESULT:    -8.055      3.230      6.273
REMARK INTER + INTRA:         -10.903
REMARK INTER:                 -10.127
REMARK INTRA:                  -0.776
REMARK UNBOUND:                -0.023
REMARK SMILES O=c1c(-c2ccc(O)cc2)coc2c([C@@H]3O[C@H](CO)[C@@H](O)[C@@H](O)[C@@H]3O)c(O)ccc12
REMARK SMILES IDX 3 1 11 2 12 3 13 4 30 5 2 6 1 7 29 8 28 9 26 10 14 11 4 12
REMARK SMILES IDX 5 13 6 14 7 15 10 16 9 17 8 18 15 20 24 21 16 22 22 23 17 24
REMARK SMILES IDX 20 25 25 26 23 28 18 30 19 31 21 33 27 35
REMARK H PARENT 8 19 25 27 23 29 19 32 21 34 27 36
REMARK Flexibility Score: inf
ROOT
ATOM      1  C   UNL     1      18.447 -43.079  67.654  1.00  0.00     0.065 A 
ATOM      2  C   UNL     1      17.968 -41.927  68.293  1.00  0.00     0.208 A 
ATOM      3  O   UNL     1      17.633 -40.849  67.594  1.00  0.00    -0.463 OA
ATOM      4  C   UNL     1      17.724 -40.784  66.268  1.00  0.00     0.147 A 
ATOM      5  C   UNL     1      18.210 -41.897  65.543  1.00  0.00     0.066 A 
ATOM      6  C   UNL     1      18.577 -43.055  66.253  1.00  0.00     0.200 A 
ATOM      7  O   UNL     1      19.039 -44.058  65.640  1.00  0.00    -0.288 OA
ATOM      8  C   UNL     1      18.327 -41.819  64.147  1.00  0.00     0.020 A 
ATOM      9  C   UNL     1      17.981 -40.646  63.479  1.00  0.00     0.047 A 
ATOM     10  C   UNL     1      17.503 -39.536  64.185  1.00  0.00     0.125 A 
ATOM     11  C   UNL     1      17.341 -39.603  65.590  1.00  0.00     0.069 A 
ENDROOT
BRANCH   1  12
ATOM     12  C   UNL     1      18.807 -44.275  68.456  1.00  0.00    -0.011 A 
ATOM     13  C   UNL     1      20.155 -44.609  68.681  1.00  0.00     0.013 A 
ATOM     14  C   UNL     1      20.487 -45.743  69.428  1.00  0.00     0.047 A 
ATOM     15  C   UNL     1      19.479 -46.559  69.956  1.00  0.00     0.115 A 
ATOM     16  C   UNL     1      17.801 -45.105  68.983  1.00  0.00     0.013 A 
ATOM     17  C   UNL     1      18.137 -46.237  69.730  1.00  0.00     0.047 A 
BRANCH  15  18
ATOM     18  O   UNL     1      19.799 -47.691  70.703  1.00  0.00    -0.508 OA
ATOM     19  H   UNL     1      20.308 -48.467  70.296  1.00  0.00     0.293 HD
ENDBRANCH  15  18
ENDBRANCH   1  12
BRANCH  11  20
ATOM     20  C   UNL     1      16.839 -38.400  66.381  1.00  0.00     0.188 C 
ATOM     21  C   UNL     1      18.004 -37.504  66.887  1.00  0.00     0.179 C 
ATOM     22  O   UNL     1      15.933 -37.638  65.602  1.00  0.00    -0.362 OA
ATOM     23  C   UNL     1      17.540 -36.036  67.038  1.00  0.00     0.177 C 
ATOM     24  C   UNL     1      15.178 -36.746  66.417  1.00  0.00     0.176 C 
ATOM     25  C   UNL     1      16.056 -35.966  67.448  1.00  0.00     0.177 C 
BRANCH  21  26
ATOM     26  O   UNL     1      19.099 -37.554  66.006  1.00  0.00    -0.387 OA
ATOM     27  H   UNL     1      19.913 -37.382  66.549  1.00  0.00     0.211 HD
ENDBRANCH  21  26
BRANCH  23  28
ATOM     28  O   UNL     1      18.347 -35.382  67.982  1.00  0.00    -0.387 OA
ATOM     29  H   UNL     1      18.420 -34.436  67.690  1.00  0.00     0.211 HD
ENDBRANCH  23  28
BRANCH  24  30
ATOM     30  C   UNL     1      14.431 -35.772  65.493  1.00  0.00     0.191 C 
BRANCH  30  31
ATOM     31  O   UNL     1      14.382 -34.491  66.064  1.00  0.00    -0.394 OA
ATOM     32  H   UNL     1      14.854 -33.883  65.438  1.00  0.00     0.210 HD
ENDBRANCH  30  31
ENDBRANCH  24  30
BRANCH  25  33
ATOM     33  O   UNL     1      15.882 -36.532  68.724  1.00  0.00    -0.388 OA
ATOM     34  H   UNL     1      16.776 -36.562  69.155  1.00  0.00     0.211 HD
ENDBRANCH  25  33
ENDBRANCH  11  20
BRANCH  10  35
ATOM     35  O   UNL     1      17.201 -38.364  63.492  1.00  0.00    -0.507 OA
ATOM     36  H   UNL     1      17.168 -37.464  63.955  1.00  0.00     0.293 HD
ENDBRANCH  10  35
TORSDOF 9
ENDMDL
MODEL 9
REMARK VINA RESULT:    -7.878      3.410      5.507
REMARK INTER + INTRA:         -10.664
REMARK INTER:                  -9.749
REMARK INTRA:                  -0.914
REMARK UNBOUND:                -0.023
REMARK SMILES O=c1c(-c2ccc(O)cc2)coc2c([C@@H]3O[C@H](CO)[C@@H](O)[C@@H](O)[C@@H]3O)c(O)ccc12
REMARK SMILES IDX 3 1 11 2 12 3 13 4 30 5 2 6 1 7 29 8 28 9 26 10 14 11 4 12
REMARK SMILES IDX 5 13 6 14 7 15 10 16 9 17 8 18 15 20 24 21 16 22 22 23 17 24
REMARK SMILES IDX 20 25 25 26 23 28 18 30 19 31 21 33 27 35
REMARK H PARENT 8 19 25 27 23 29 19 32 21 34 27 36
REMARK Flexibility Score: inf
ROOT
ATOM      1  C   UNL     1      18.210 -45.063  67.589  1.00  0.00     0.065 A 
ATOM      2  C   UNL     1      19.108 -44.025  67.306  1.00  0.00     0.208 A 
ATOM      3  O   UNL     1      18.672 -42.829  66.930  1.00  0.00    -0.463 OA
ATOM      4  C   UNL     1      17.381 -42.534  66.797  1.00  0.00     0.147 A 
ATOM      5  C   UNL     1      16.406 -43.526  67.050  1.00  0.00     0.066 A 
ATOM      6  C   UNL     1      16.833 -44.806  67.448  1.00  0.00     0.200 A 
ATOM      7  O   UNL     1      15.991 -45.723  67.658  1.00  0.00    -0.288 OA
ATOM      8  C   UNL     1      15.046 -43.219  66.888  1.00  0.00     0.020 A 
ATOM      9  C   UNL     1      14.659 -41.949  66.465  1.00  0.00     0.047 A 
ATOM     10  C   UNL     1      15.615 -40.960  66.207  1.00  0.00     0.125 A 
ATOM     11  C   UNL     1      16.990 -41.233  66.399  1.00  0.00     0.069 A 
ENDROOT
BRANCH   1  12
ATOM     12  C   UNL     1      18.721 -46.389  68.016  1.00  0.00    -0.011 A 
ATOM     13  C   UNL     1      18.949 -47.408  67.074  1.00  0.00     0.013 A 
ATOM     14  C   UNL     1      19.420 -48.659  67.484  1.00  0.00     0.047 A 
ATOM     15  C   UNL     1      19.666 -48.909  68.840  1.00  0.00     0.115 A 
ATOM     16  C   UNL     1      18.963 -46.652  69.377  1.00  0.00     0.013 A 
ATOM     17  C   UNL     1      19.436 -47.902  69.783  1.00  0.00     0.047 A 
BRANCH  15  18
ATOM     18  O   UNL     1      20.137 -50.150  69.261  1.00  0.00    -0.508 OA
ATOM     19  H   UNL     1      20.622 -50.775  68.626  1.00  0.00     0.293 HD
ENDBRANCH  15  18
ENDBRANCH   1  12
BRANCH  11  20
ATOM     20  C   UNL     1      18.050 -40.176  66.107  1.00  0.00     0.188 C 
ATOM     21  C   UNL     1      18.393 -40.094  64.593  1.00  0.00     0.179 C 
ATOM     22  O   UNL     1      17.632 -38.911  66.588  1.00  0.00    -0.362 OA
ATOM     23  C   UNL     1      18.869 -38.671  64.217  1.00  0.00     0.177 C 
ATOM     24  C   UNL     1      18.727 -38.003  66.667  1.00  0.00     0.176 C 
ATOM     25  C   UNL     1      19.625 -38.014  65.388  1.00  0.00     0.177 C 
BRANCH  21  26
ATOM     26  O   UNL     1      17.280 -40.433  63.803  1.00  0.00    -0.387 OA
ATOM     27  H   UNL     1      17.570 -40.369  62.856  1.00  0.00     0.211 HD
ENDBRANCH  21  26
BRANCH  23  28
ATOM     28  O   UNL     1      19.682 -38.733  63.073  1.00  0.00    -0.387 OA
ATOM     29  H   UNL     1      20.118 -39.625  63.080  1.00  0.00     0.211 HD
ENDBRANCH  23  28
BRANCH  24  30
ATOM     30  C   UNL     1      18.165 -36.597  66.923  1.00  0.00     0.191 C 
BRANCH  30  31
ATOM     31  O   UNL     1      19.196 -35.645  66.918  1.00  0.00    -0.394 OA
ATOM     32  H   UNL     1      18.764 -34.758  67.028  1.00  0.00     0.210 HD
ENDBRANCH  30  31
ENDBRANCH  24  30
BRANCH  25  33
ATOM     33  O   UNL     1      20.807 -38.730  65.659  1.00  0.00    -0.388 OA
ATOM     34  H   UNL     1      21.114 -38.456  66.563  1.00  0.00     0.211 HD
ENDBRANCH  25  33
ENDBRANCH  11  20
BRANCH  10  35
ATOM     35  O   UNL     1      15.198 -39.710  65.749  1.00  0.00    -0.507 OA
ATOM     36  H   UNL     1      15.352 -38.866  66.286  1.00  0.00     0.293 HD
ENDBRANCH  10  35
TORSDOF 9
ENDMDL
