MODEL 1
REMARK VINA RESULT:    -4.843      0.000      0.000
REMARK INTER + INTRA:          -8.294
REMARK INTER:                  -7.533
REMARK INTRA:                  -0.761
REMARK UNBOUND:                -0.761
REMARK SMILES COc1cc(CNC(=O)CCCCC=CC(C)C)ccc1O
REMARK SMILES IDX 11 1 12 2 13 3 14 4 15 5 16 6 17 7 18 8 10 9 8 10 9 11 7 12
REMARK SMILES IDX 6 14 5 15 4 16 19 17 3 18 20 19 21 20 2 21 1 22 22 23
REMARK H PARENT 7 13 22 24
REMARK Flexibility Score: inf
ROOT
ATOM      1  C   UNL     1     163.144 164.395 166.743  1.00  0.00     0.010 C 
ENDROOT
BRANCH   1   2
ATOM      2  C   UNL     1     164.533 163.802 166.462  1.00  0.00     0.005 C 
BRANCH   2   3
ATOM      3  C   UNL     1     164.990 164.041 165.014  1.00  0.00     0.027 C 
BRANCH   3   4
ATOM      4  C   UNL     1     165.847 165.271 164.913  1.00  0.00    -0.031 C 
ATOM      5  C   UNL     1     166.127 166.025 165.991  1.00  0.00    -0.028 C 
BRANCH   5   6
ATOM      6  C   UNL     1     166.985 167.267 165.921  1.00  0.00     0.005 C 
ATOM      7  C   UNL     1     166.455 168.254 164.876  1.00  0.00     0.012 C 
ATOM      8  C   UNL     1     168.455 166.918 165.658  1.00  0.00     0.012 C 
ENDBRANCH   5   6
ENDBRANCH   3   4
ENDBRANCH   2   3
ENDBRANCH   1   2
BRANCH   1   9
ATOM      9  C   UNL     1     162.251 164.416 165.496  1.00  0.00     0.100 C 
BRANCH   9  10
ATOM     10  C   UNL     1     160.808 164.466 165.899  1.00  0.00     0.220 C 
ATOM     11  O   UNL     1     159.936 164.787 165.047  1.00  0.00    -0.275 OA
ATOM     12  N   UNL     1     160.422 164.100 167.228  1.00  0.00    -0.352 N 
ATOM     13  H   UNL     1     161.169 163.906 167.934  1.00  0.00     0.163 HD
BRANCH  12  14
ATOM     14  C   UNL     1     159.046 163.760 167.576  1.00  0.00     0.151 C 
BRANCH  14  15
ATOM     15  C   UNL     1     159.013 163.105 168.929  1.00  0.00    -0.025 A 
ATOM     16  C   UNL     1     160.058 163.310 169.843  1.00  0.00     0.056 A 
ATOM     17  C   UNL     1     157.901 162.346 169.311  1.00  0.00     0.009 A 
ATOM     18  C   UNL     1     160.002 162.740 171.131  1.00  0.00     0.160 A 
ATOM     19  C   UNL     1     157.841 161.776 170.584  1.00  0.00     0.050 A 
ATOM     20  C   UNL     1     158.888 161.969 171.494  1.00  0.00     0.157 A 
BRANCH  18  21
ATOM     21  O   UNL     1     161.025 162.917 172.074  1.00  0.00    -0.493 OA
ATOM     22  C   UNL     1     162.245 162.181 172.087  1.00  0.00     0.278 C 
ENDBRANCH  18  21
BRANCH  20  23
ATOM     23  O   UNL     1     158.827 161.403 172.766  1.00  0.00    -0.504 OA
ATOM     24  H   UNL     1     158.561 161.948 173.577  1.00  0.00     0.293 HD
ENDBRANCH  20  23
ENDBRANCH  14  15
ENDBRANCH  12  14
ENDBRANCH   9  10
ENDBRANCH   1   9
TORSDOF 10
ENDMDL
MODEL 2
REMARK VINA RESULT:    -4.774      6.462     10.361
REMARK INTER + INTRA:          -8.187
REMARK INTER:                  -7.415
REMARK INTRA:                  -0.772
REMARK UNBOUND:                -0.761
REMARK SMILES COc1cc(CNC(=O)CCCCC=CC(C)C)ccc1O
REMARK SMILES IDX 11 1 12 2 13 3 14 4 15 5 16 6 17 7 18 8 10 9 8 10 9 11 7 12
REMARK SMILES IDX 6 14 5 15 4 16 19 17 3 18 20 19 21 20 2 21 1 22 22 23
REMARK H PARENT 7 13 22 24
REMARK Flexibility Score: inf
ROOT
ATOM      1  C   UNL     1     168.820 166.821 165.980  1.00  0.00     0.010 C 
ENDROOT
BRANCH   1   2
ATOM      2  C   UNL     1     167.707 167.283 165.028  1.00  0.00     0.005 C 
BRANCH   2   3
ATOM      3  C   UNL     1     166.378 167.533 165.757  1.00  0.00     0.027 C 
BRANCH   3   4
ATOM      4  C   UNL     1     165.853 166.268 166.377  1.00  0.00    -0.031 C 
ATOM      5  C   UNL     1     165.243 165.323 165.640  1.00  0.00    -0.028 C 
BRANCH   5   6
ATOM      6  C   UNL     1     164.705 164.042 166.233  1.00  0.00     0.005 C 
ATOM      7  C   UNL     1     165.299 163.778 167.622  1.00  0.00     0.012 C 
ATOM      8  C   UNL     1     164.936 162.851 165.296  1.00  0.00     0.012 C 
ENDBRANCH   5   6
ENDBRANCH   3   4
ENDBRANCH   2   3
ENDBRANCH   1   2
BRANCH   1   9
ATOM      9  C   UNL     1     170.152 166.586 165.256  1.00  0.00     0.100 C 
BRANCH   9  10
ATOM     10  C   UNL     1     171.292 166.744 166.216  1.00  0.00     0.220 C 
ATOM     11  O   UNL     1     172.452 166.395 165.867  1.00  0.00    -0.275 OA
ATOM     12  N   UNL     1     171.070 167.336 167.502  1.00  0.00    -0.352 N 
ATOM     13  H   UNL     1     170.090 167.551 167.794  1.00  0.00     0.163 HD
BRANCH  12  14
ATOM     14  C   UNL     1     172.160 167.862 168.318  1.00  0.00     0.151 C 
BRANCH  14  15
ATOM     15  C   UNL     1     171.597 168.554 169.527  1.00  0.00    -0.025 A 
ATOM     16  C   UNL     1     170.708 167.883 170.381  1.00  0.00     0.056 A 
ATOM     17  C   UNL     1     172.017 169.850 169.851  1.00  0.00     0.009 A 
ATOM     18  C   UNL     1     170.222 168.513 171.544  1.00  0.00     0.160 A 
ATOM     19  C   UNL     1     171.538 170.480 171.000  1.00  0.00     0.050 A 
ATOM     20  C   UNL     1     170.641 169.817 171.846  1.00  0.00     0.157 A 
BRANCH  18  21
ATOM     21  O   UNL     1     169.329 167.880 172.422  1.00  0.00    -0.493 OA
ATOM     22  C   UNL     1     169.136 166.471 172.498  1.00  0.00     0.278 C 
ENDBRANCH  18  21
BRANCH  20  23
ATOM     23  O   UNL     1     170.163 170.444 172.995  1.00  0.00    -0.504 OA
ATOM     24  H   UNL     1     170.431 170.132 173.921  1.00  0.00     0.293 HD
ENDBRANCH  20  23
ENDBRANCH  14  15
ENDBRANCH  12  14
ENDBRANCH   9  10
ENDBRANCH   1   9
TORSDOF 10
ENDMDL
MODEL 3
REMARK VINA RESULT:    -4.567      1.544      2.632
REMARK INTER + INTRA:          -7.864
REMARK INTER:                  -6.996
REMARK INTRA:                  -0.868
REMARK UNBOUND:                -0.761
REMARK SMILES COc1cc(CNC(=O)CCCCC=CC(C)C)ccc1O
REMARK SMILES IDX 11 1 12 2 13 3 14 4 15 5 16 6 17 7 18 8 10 9 8 10 9 11 7 12
REMARK SMILES IDX 6 14 5 15 4 16 19 17 3 18 20 19 21 20 2 21 1 22 22 23
REMARK H PARENT 7 13 22 24
REMARK Flexibility Score: inf
ROOT
ATOM      1  C   UNL     1     163.164 164.104 165.649  1.00  0.00     0.010 C 
ENDROOT
BRANCH   1   2
ATOM      2  C   UNL     1     164.493 164.074 164.879  1.00  0.00     0.005 C 
BRANCH   2   3
ATOM      3  C   UNL     1     165.439 165.211 165.298  1.00  0.00     0.027 C 
BRANCH   3   4
ATOM      4  C   UNL     1     165.556 165.296 166.794  1.00  0.00    -0.031 C 
ATOM      5  C   UNL     1     166.097 166.368 167.398  1.00  0.00    -0.028 C 
BRANCH   5   6
ATOM      6  C   UNL     1     166.229 166.483 168.899  1.00  0.00     0.005 C 
ATOM      7  C   UNL     1     165.330 165.469 169.617  1.00  0.00     0.012 C 
ATOM      8  C   UNL     1     165.946 167.911 169.378  1.00  0.00     0.012 C 
ENDBRANCH   5   6
ENDBRANCH   3   4
ENDBRANCH   2   3
ENDBRANCH   1   2
BRANCH   1   9
ATOM      9  C   UNL     1     162.053 164.824 164.875  1.00  0.00     0.100 C 
BRANCH   9  10
ATOM     10  C   UNL     1     160.741 164.647 165.578  1.00  0.00     0.220 C 
ATOM     11  O   UNL     1     159.668 164.891 164.962  1.00  0.00    -0.275 OA
ATOM     12  N   UNL     1     160.709 164.153 166.922  1.00  0.00    -0.352 N 
ATOM     13  H   UNL     1     161.611 164.026 167.433  1.00  0.00     0.163 HD
BRANCH  12  14
ATOM     14  C   UNL     1     159.497 163.604 167.522  1.00  0.00     0.151 C 
BRANCH  14  15
ATOM     15  C   UNL     1     159.711 163.402 168.997  1.00  0.00    -0.025 A 
ATOM     16  C   UNL     1     158.732 162.768 169.777  1.00  0.00     0.056 A 
ATOM     17  C   UNL     1     160.924 163.780 169.586  1.00  0.00     0.009 A 
ATOM     18  C   UNL     1     158.954 162.530 171.148  1.00  0.00     0.160 A 
ATOM     19  C   UNL     1     161.149 163.549 170.944  1.00  0.00     0.050 A 
ATOM     20  C   UNL     1     160.168 162.928 171.726  1.00  0.00     0.157 A 
BRANCH  18  21
ATOM     21  O   UNL     1     158.002 161.903 171.964  1.00  0.00    -0.493 OA
ATOM     22  C   UNL     1     156.772 161.357 171.495  1.00  0.00     0.278 C 
ENDBRANCH  18  21
BRANCH  20  23
ATOM     23  O   UNL     1     160.393 162.696 173.082  1.00  0.00    -0.504 OA
ATOM     24  H   UNL     1     160.017 161.880 173.550  1.00  0.00     0.293 HD
ENDBRANCH  20  23
ENDBRANCH  14  15
ENDBRANCH  12  14
ENDBRANCH   9  10
ENDBRANCH   1   9
TORSDOF 10
ENDMDL
MODEL 4
REMARK VINA RESULT:    -4.538      6.270     10.225
REMARK INTER + INTRA:          -7.820
REMARK INTER:                  -6.838
REMARK INTRA:                  -0.982
REMARK UNBOUND:                -0.761
REMARK SMILES COc1cc(CNC(=O)CCCCC=CC(C)C)ccc1O
REMARK SMILES IDX 11 1 12 2 13 3 14 4 15 5 16 6 17 7 18 8 10 9 8 10 9 11 7 12
REMARK SMILES IDX 6 14 5 15 4 16 19 17 3 18 20 19 21 20 2 21 1 22 22 23
REMARK H PARENT 7 13 22 24
REMARK Flexibility Score: inf
ROOT
ATOM      1  C   UNL     1     166.118 167.598 169.213  1.00  0.00     0.010 C 
ENDROOT
BRANCH   1   2
ATOM      2  C   UNL     1     165.698 167.470 167.740  1.00  0.00     0.005 C 
BRANCH   2   3
ATOM      3  C   UNL     1     166.663 166.590 166.930  1.00  0.00     0.027 C 
BRANCH   3   4
ATOM      4  C   UNL     1     165.937 165.846 165.845  1.00  0.00    -0.031 C 
ATOM      5  C   UNL     1     164.981 164.944 166.128  1.00  0.00    -0.028 C 
BRANCH   5   6
ATOM      6  C   UNL     1     164.233 164.180 165.060  1.00  0.00     0.005 C 
ATOM      7  C   UNL     1     162.717 164.300 165.246  1.00  0.00     0.012 C 
ATOM      8  C   UNL     1     164.671 162.712 165.012  1.00  0.00     0.012 C 
ENDBRANCH   5   6
ENDBRANCH   3   4
ENDBRANCH   2   3
ENDBRANCH   1   2
BRANCH   1   9
ATOM      9  C   UNL     1     165.747 166.359 170.038  1.00  0.00     0.100 C 
BRANCH   9  10
ATOM     10  C   UNL     1     166.927 165.907 170.844  1.00  0.00     0.220 C 
ATOM     11  O   UNL     1     166.992 164.710 171.233  1.00  0.00    -0.275 OA
ATOM     12  N   UNL     1     167.996 166.819 171.122  1.00  0.00    -0.352 N 
ATOM     13  H   UNL     1     167.886 167.822 170.851  1.00  0.00     0.163 HD
BRANCH  12  14
ATOM     14  C   UNL     1     169.315 166.367 171.554  1.00  0.00     0.151 C 
BRANCH  14  15
ATOM     15  C   UNL     1     170.373 167.003 170.697  1.00  0.00    -0.025 A 
ATOM     16  C   UNL     1     171.622 167.337 171.242  1.00  0.00     0.056 A 
ATOM     17  C   UNL     1     170.143 167.195 169.329  1.00  0.00     0.009 A 
ATOM     18  C   UNL     1     172.634 167.884 170.426  1.00  0.00     0.160 A 
ATOM     19  C   UNL     1     171.140 167.738 168.517  1.00  0.00     0.050 A 
ATOM     20  C   UNL     1     172.382 168.084 169.061  1.00  0.00     0.157 A 
BRANCH  18  21
ATOM     21  O   UNL     1     173.894 168.236 170.930  1.00  0.00    -0.493 OA
ATOM     22  C   UNL     1     174.122 168.772 172.230  1.00  0.00     0.278 C 
ENDBRANCH  18  21
BRANCH  20  23
ATOM     23  O   UNL     1     173.379 168.625 168.250  1.00  0.00    -0.504 OA
ATOM     24  H   UNL     1     174.273 168.164 168.130  1.00  0.00     0.293 HD
ENDBRANCH  20  23
ENDBRANCH  14  15
ENDBRANCH  12  14
ENDBRANCH   9  10
ENDBRANCH   1   9
TORSDOF 10
ENDMDL
MODEL 5
REMARK VINA RESULT:    -4.466      6.296     10.570
REMARK INTER + INTRA:          -7.707
REMARK INTER:                  -7.026
REMARK INTRA:                  -0.682
REMARK UNBOUND:                -0.761
REMARK SMILES COc1cc(CNC(=O)CCCCC=CC(C)C)ccc1O
REMARK SMILES IDX 11 1 12 2 13 3 14 4 15 5 16 6 17 7 18 8 10 9 8 10 9 11 7 12
REMARK SMILES IDX 6 14 5 15 4 16 19 17 3 18 20 19 21 20 2 21 1 22 22 23
REMARK H PARENT 7 13 22 24
REMARK Flexibility Score: inf
ROOT
ATOM      1  C   UNL     1     167.593 167.117 166.191  1.00  0.00     0.010 C 
ENDROOT
BRANCH   1   2
ATOM      2  C   UNL     1     166.472 166.068 166.261  1.00  0.00     0.005 C 
BRANCH   2   3
ATOM      3  C   UNL     1     165.905 165.723 164.876  1.00  0.00     0.027 C 
BRANCH   3   4
ATOM      4  C   UNL     1     164.569 165.043 164.991  1.00  0.00    -0.031 C 
ATOM      5  C   UNL     1     163.969 164.867 166.181  1.00  0.00    -0.028 C 
BRANCH   5   6
ATOM      6  C   UNL     1     162.627 164.188 166.329  1.00  0.00     0.005 C 
ATOM      7  C   UNL     1     161.700 164.522 165.155  1.00  0.00     0.012 C 
ATOM      8  C   UNL     1     161.970 164.535 167.670  1.00  0.00     0.012 C 
ENDBRANCH   5   6
ENDBRANCH   3   4
ENDBRANCH   2   3
ENDBRANCH   1   2
BRANCH   1   9
ATOM      9  C   UNL     1     168.623 166.803 165.099  1.00  0.00     0.100 C 
BRANCH   9  10
ATOM     10  C   UNL     1     169.998 166.744 165.692  1.00  0.00     0.220 C 
ATOM     11  O   UNL     1     170.974 166.413 164.967  1.00  0.00    -0.275 OA
ATOM     12  N   UNL     1     170.204 167.112 167.061  1.00  0.00    -0.352 N 
ATOM     13  H   UNL     1     169.371 167.314 167.659  1.00  0.00     0.163 HD
BRANCH  12  14
ATOM     14  C   UNL     1     171.524 167.443 167.590  1.00  0.00     0.151 C 
BRANCH  14  15
ATOM     15  C   UNL     1     171.385 168.009 168.975  1.00  0.00    -0.025 A 
ATOM     16  C   UNL     1     172.163 169.107 169.375  1.00  0.00     0.056 A 
ATOM     17  C   UNL     1     170.423 167.490 169.851  1.00  0.00     0.009 A 
ATOM     18  C   UNL     1     171.995 169.672 170.655  1.00  0.00     0.160 A 
ATOM     19  C   UNL     1     170.255 168.045 171.120  1.00  0.00     0.050 A 
ATOM     20  C   UNL     1     171.038 169.132 171.526  1.00  0.00     0.157 A 
BRANCH  18  21
ATOM     21  O   UNL     1     172.754 170.766 171.096  1.00  0.00    -0.493 OA
ATOM     22  C   UNL     1     174.167 170.875 170.961  1.00  0.00     0.278 C 
ENDBRANCH  18  21
BRANCH  20  23
ATOM     23  O   UNL     1     170.868 169.687 172.793  1.00  0.00    -0.504 OA
ATOM     24  H   UNL     1     171.621 169.703 173.470  1.00  0.00     0.293 HD
ENDBRANCH  20  23
ENDBRANCH  14  15
ENDBRANCH  12  14
ENDBRANCH   9  10
ENDBRANCH   1   9
TORSDOF 10
ENDMDL
MODEL 6
REMARK VINA RESULT:    -4.377      7.299     11.572
REMARK INTER + INTRA:          -7.568
REMARK INTER:                  -6.938
REMARK INTRA:                  -0.631
REMARK UNBOUND:                -0.761
REMARK SMILES COc1cc(CNC(=O)CCCCC=CC(C)C)ccc1O
REMARK SMILES IDX 11 1 12 2 13 3 14 4 15 5 16 6 17 7 18 8 10 9 8 10 9 11 7 12
REMARK SMILES IDX 6 14 5 15 4 16 19 17 3 18 20 19 21 20 2 21 1 22 22 23
REMARK H PARENT 7 13 22 24
REMARK Flexibility Score: inf
ROOT
ATOM      1  C   UNL     1     168.623 167.062 165.109  1.00  0.00     0.010 C 
ENDROOT
BRANCH   1   2
ATOM      2  C   UNL     1     167.152 167.490 164.994  1.00  0.00     0.005 C 
BRANCH   2   3
ATOM      3  C   UNL     1     166.184 166.304 165.132  1.00  0.00     0.027 C 
BRANCH   3   4
ATOM      4  C   UNL     1     165.654 166.197 166.535  1.00  0.00    -0.031 C 
ATOM      5  C   UNL     1     165.559 165.012 167.163  1.00  0.00    -0.028 C 
BRANCH   5   6
ATOM      6  C   UNL     1     165.030 164.872 168.572  1.00  0.00     0.005 C 
ATOM      7  C   UNL     1     165.600 165.957 169.492  1.00  0.00     0.012 C 
ATOM      8  C   UNL     1     165.299 163.471 169.134  1.00  0.00     0.012 C 
ENDBRANCH   5   6
ENDBRANCH   3   4
ENDBRANCH   2   3
ENDBRANCH   1   2
BRANCH   1   9
ATOM      9  C   UNL     1     169.033 166.751 166.554  1.00  0.00     0.100 C 
BRANCH   9  10
ATOM     10  C   UNL     1     170.514 166.920 166.714  1.00  0.00     0.220 C 
ATOM     11  O   UNL     1     171.269 166.766 165.716  1.00  0.00    -0.275 OA
ATOM     12  N   UNL     1     171.058 167.305 167.982  1.00  0.00    -0.352 N 
ATOM     13  H   UNL     1     170.420 167.356 168.808  1.00  0.00     0.163 HD
BRANCH  12  14
ATOM     14  C   UNL     1     172.405 167.848 168.120  1.00  0.00     0.151 C 
BRANCH  14  15
ATOM     15  C   UNL     1     172.479 168.707 169.352  1.00  0.00    -0.025 A 
ATOM     16  C   UNL     1     173.723 169.045 169.909  1.00  0.00     0.056 A 
ATOM     17  C   UNL     1     171.308 169.238 169.907  1.00  0.00     0.009 A 
ATOM     18  C   UNL     1     173.795 169.894 171.032  1.00  0.00     0.160 A 
ATOM     19  C   UNL     1     171.374 170.077 171.020  1.00  0.00     0.050 A 
ATOM     20  C   UNL     1     172.612 170.405 171.585  1.00  0.00     0.157 A 
BRANCH  18  21
ATOM     21  O   UNL     1     175.016 170.253 171.622  1.00  0.00    -0.493 OA
ATOM     22  C   UNL     1     175.783 169.403 172.468  1.00  0.00     0.278 C 
ENDBRANCH  18  21
BRANCH  20  23
ATOM     23  O   UNL     1     172.678 171.245 172.695  1.00  0.00    -0.504 OA
ATOM     24  H   UNL     1     172.004 171.184 173.447  1.00  0.00     0.293 HD
ENDBRANCH  20  23
ENDBRANCH  14  15
ENDBRANCH  12  14
ENDBRANCH   9  10
ENDBRANCH   1   9
TORSDOF 10
ENDMDL
MODEL 7
REMARK VINA RESULT:    -4.352      2.740      5.015
REMARK INTER + INTRA:          -7.530
REMARK INTER:                  -6.446
REMARK INTRA:                  -1.084
REMARK UNBOUND:                -0.761
REMARK SMILES COc1cc(CNC(=O)CCCCC=CC(C)C)ccc1O
REMARK SMILES IDX 11 1 12 2 13 3 14 4 15 5 16 6 17 7 18 8 10 9 8 10 9 11 7 12
REMARK SMILES IDX 6 14 5 15 4 16 19 17 3 18 20 19 21 20 2 21 1 22 22 23
REMARK H PARENT 7 13 22 24
REMARK Flexibility Score: inf
ROOT
ATOM      1  C   UNL     1     165.238 162.828 170.064  1.00  0.00     0.010 C 
ENDROOT
BRANCH   1   2
ATOM      2  C   UNL     1     164.861 164.318 170.084  1.00  0.00     0.005 C 
BRANCH   2   3
ATOM      3  C   UNL     1     165.238 165.035 168.777  1.00  0.00     0.027 C 
BRANCH   3   4
ATOM      4  C   UNL     1     164.446 164.499 167.617  1.00  0.00    -0.031 C 
ATOM      5  C   UNL     1     164.937 164.509 166.365  1.00  0.00    -0.028 C 
BRANCH   5   6
ATOM      6  C   UNL     1     164.166 163.977 165.179  1.00  0.00     0.005 C 
ATOM      7  C   UNL     1     162.655 164.130 165.382  1.00  0.00     0.012 C 
ATOM      8  C   UNL     1     164.540 162.522 164.875  1.00  0.00     0.012 C 
ENDBRANCH   5   6
ENDBRANCH   3   4
ENDBRANCH   2   3
ENDBRANCH   1   2
BRANCH   1   9
ATOM      9  C   UNL     1     165.678 162.316 171.441  1.00  0.00     0.100 C 
BRANCH   9  10
ATOM     10  C   UNL     1     164.533 161.631 172.123  1.00  0.00     0.220 C 
ATOM     11  O   UNL     1     164.543 161.504 173.378  1.00  0.00    -0.275 OA
ATOM     12  N   UNL     1     163.413 161.173 171.358  1.00  0.00    -0.352 N 
ATOM     13  H   UNL     1     163.460 161.226 170.315  1.00  0.00     0.163 HD
BRANCH  12  14
ATOM     14  C   UNL     1     162.127 160.854 171.971  1.00  0.00     0.151 C 
BRANCH  14  15
ATOM     15  C   UNL     1     161.046 161.683 171.336  1.00  0.00    -0.025 A 
ATOM     16  C   UNL     1     159.734 161.191 171.245  1.00  0.00     0.056 A 
ATOM     17  C   UNL     1     161.326 162.983 170.899  1.00  0.00     0.009 A 
ATOM     18  C   UNL     1     158.708 161.989 170.699  1.00  0.00     0.160 A 
ATOM     19  C   UNL     1     160.315 163.777 170.356  1.00  0.00     0.050 A 
ATOM     20  C   UNL     1     159.009 163.284 170.253  1.00  0.00     0.157 A 
BRANCH  18  21
ATOM     21  O   UNL     1     157.386 161.536 170.587  1.00  0.00    -0.493 OA
ATOM     22  C   UNL     1     156.845 160.906 169.429  1.00  0.00     0.278 C 
ENDBRANCH  18  21
BRANCH  20  23
ATOM     23  O   UNL     1     157.999 164.077 169.712  1.00  0.00    -0.504 OA
ATOM     24  H   UNL     1     158.172 165.031 169.420  1.00  0.00     0.293 HD
ENDBRANCH  20  23
ENDBRANCH  14  15
ENDBRANCH  12  14
ENDBRANCH   9  10
ENDBRANCH   1   9
TORSDOF 10
ENDMDL
MODEL 8
REMARK VINA RESULT:    -4.331      3.892      6.954
REMARK INTER + INTRA:          -7.498
REMARK INTER:                  -6.512
REMARK INTRA:                  -0.986
REMARK UNBOUND:                -0.761
REMARK SMILES COc1cc(CNC(=O)CCCCC=CC(C)C)ccc1O
REMARK SMILES IDX 11 1 12 2 13 3 14 4 15 5 16 6 17 7 18 8 10 9 8 10 9 11 7 12
REMARK SMILES IDX 6 14 5 15 4 16 19 17 3 18 20 19 21 20 2 21 1 22 22 23
REMARK H PARENT 7 13 22 24
REMARK Flexibility Score: inf
ROOT
ATOM      1  C   UNL     1     163.656 164.448 165.963  1.00  0.00     0.010 C 
ENDROOT
BRANCH   1   2
ATOM      2  C   UNL     1     162.465 164.134 165.045  1.00  0.00     0.005 C 
BRANCH   2   3
ATOM      3  C   UNL     1     161.121 164.546 165.667  1.00  0.00     0.027 C 
BRANCH   3   4
ATOM      4  C   UNL     1     161.030 164.106 167.101  1.00  0.00    -0.031 C 
ATOM      5  C   UNL     1     159.891 163.606 167.613  1.00  0.00    -0.028 C 
BRANCH   5   6
ATOM      6  C   UNL     1     159.768 163.154 169.050  1.00  0.00     0.005 C 
ATOM      7  C   UNL     1     158.361 163.417 169.599  1.00  0.00     0.012 C 
ATOM      8  C   UNL     1     160.838 163.805 169.934  1.00  0.00     0.012 C 
ENDBRANCH   5   6
ENDBRANCH   3   4
ENDBRANCH   2   3
ENDBRANCH   1   2
BRANCH   1   9
ATOM      9  C   UNL     1     164.946 164.719 165.179  1.00  0.00     0.100 C 
BRANCH   9  10
ATOM     10  C   UNL     1     165.754 165.774 165.871  1.00  0.00     0.220 C 
ATOM     11  O   UNL     1     166.095 166.811 165.239  1.00  0.00    -0.275 OA
ATOM     12  N   UNL     1     166.090 165.627 167.255  1.00  0.00    -0.352 N 
ATOM     13  H   UNL     1     165.858 164.729 167.736  1.00  0.00     0.163 HD
BRANCH  12  14
ATOM     14  C   UNL     1     166.528 166.751 168.076  1.00  0.00     0.151 C 
BRANCH  14  15
ATOM     15  C   UNL     1     165.765 166.759 169.371  1.00  0.00    -0.025 A 
ATOM     16  C   UNL     1     165.675 167.932 170.136  1.00  0.00     0.056 A 
ATOM     17  C   UNL     1     165.074 165.613 169.783  1.00  0.00     0.009 A 
ATOM     18  C   UNL     1     164.915 167.954 171.323  1.00  0.00     0.160 A 
ATOM     19  C   UNL     1     164.322 165.628 170.958  1.00  0.00     0.050 A 
ATOM     20  C   UNL     1     164.241 166.793 171.730  1.00  0.00     0.157 A 
BRANCH  18  21
ATOM     21  O   UNL     1     164.802 169.103 172.119  1.00  0.00    -0.493 OA
ATOM     22  C   UNL     1     164.737 170.433 171.612  1.00  0.00     0.278 C 
ENDBRANCH  18  21
BRANCH  20  23
ATOM     23  O   UNL     1     163.488 166.810 172.902  1.00  0.00    -0.504 OA
ATOM     24  H   UNL     1     162.507 166.562 172.906  1.00  0.00     0.293 HD
ENDBRANCH  20  23
ENDBRANCH  14  15
ENDBRANCH  12  14
ENDBRANCH   9  10
ENDBRANCH   1   9
TORSDOF 10
ENDMDL
MODEL 9
REMARK VINA RESULT:    -4.299      6.821     10.578
REMARK INTER + INTRA:          -7.447
REMARK INTER:                  -6.460
REMARK INTRA:                  -0.987
REMARK UNBOUND:                -0.761
REMARK SMILES COc1cc(CNC(=O)CCCCC=CC(C)C)ccc1O
REMARK SMILES IDX 11 1 12 2 13 3 14 4 15 5 16 6 17 7 18 8 10 9 8 10 9 11 7 12
REMARK SMILES IDX 6 14 5 15 4 16 19 17 3 18 20 19 21 20 2 21 1 22 22 23
REMARK H PARENT 7 13 22 24
REMARK Flexibility Score: inf
ROOT
ATOM      1  C   UNL     1     165.522 167.320 171.001  1.00  0.00     0.010 C 
ENDROOT
BRANCH   1   2
ATOM      2  C   UNL     1     166.400 166.588 169.976  1.00  0.00     0.005 C 
BRANCH   2   3
ATOM      3  C   UNL     1     165.679 166.368 168.637  1.00  0.00     0.027 C 
BRANCH   3   4
ATOM      4  C   UNL     1     166.429 167.012 167.504  1.00  0.00    -0.031 C 
ATOM      5  C   UNL     1     166.560 166.405 166.312  1.00  0.00    -0.028 C 
BRANCH   5   6
ATOM      6  C   UNL     1     167.307 167.026 165.155  1.00  0.00     0.005 C 
ATOM      7  C   UNL     1     168.824 166.949 165.364  1.00  0.00     0.012 C 
ATOM      8  C   UNL     1     166.855 168.470 164.907  1.00  0.00     0.012 C 
ENDBRANCH   5   6
ENDBRANCH   3   4
ENDBRANCH   2   3
ENDBRANCH   1   2
BRANCH   1   9
ATOM      9  C   UNL     1     165.646 168.846 170.897  1.00  0.00     0.100 C 
BRANCH   9  10
ATOM     10  C   UNL     1     166.742 169.334 171.795  1.00  0.00     0.220 C 
ATOM     11  O   UNL     1     166.746 168.998 173.010  1.00  0.00    -0.275 OA
ATOM     12  N   UNL     1     167.803 170.133 171.261  1.00  0.00    -0.352 N 
ATOM     13  H   UNL     1     167.740 170.456 170.269  1.00  0.00     0.163 HD
BRANCH  12  14
ATOM     14  C   UNL     1     169.070 170.319 171.962  1.00  0.00     0.151 C 
BRANCH  14  15
ATOM     15  C   UNL     1     170.135 169.481 171.313  1.00  0.00    -0.025 A 
ATOM     16  C   UNL     1     171.452 169.956 171.216  1.00  0.00     0.056 A 
ATOM     17  C   UNL     1     169.835 168.187 170.869  1.00  0.00     0.009 A 
ATOM     18  C   UNL     1     172.463 169.150 170.655  1.00  0.00     0.160 A 
ATOM     19  C   UNL     1     170.831 167.385 170.311  1.00  0.00     0.050 A 
ATOM     20  C   UNL     1     172.143 167.862 170.201  1.00  0.00     0.157 A 
BRANCH  18  21
ATOM     21  O   UNL     1     173.790 169.587 170.535  1.00  0.00    -0.493 OA
ATOM     22  C   UNL     1     174.219 170.636 169.673  1.00  0.00     0.278 C 
ENDBRANCH  18  21
BRANCH  20  23
ATOM     23  O   UNL     1     173.138 167.061 169.647  1.00  0.00    -0.504 OA
ATOM     24  H   UNL     1     174.093 167.089 169.985  1.00  0.00     0.293 HD
ENDBRANCH  20  23
ENDBRANCH  14  15
ENDBRANCH  12  14
ENDBRANCH   9  10
ENDBRANCH   1   9
TORSDOF 10
ENDMDL
