MODEL 1
REMARK VINA RESULT:    -3.766      0.000      0.000
REMARK INTER + INTRA:          -6.142
REMARK INTER:                  -5.307
REMARK INTRA:                  -0.835
REMARK UNBOUND:                -0.835
REMARK SMILES CCCCCCCCC(=O)[O-]
REMARK SMILES IDX 6 1 7 2 8 3 9 4 10 5 11 6 5 7 4 8 3 9 2 10 1 11
REMARK H PARENT
REMARK Flexibility Score: inf
ROOT
ATOM      1  C   UNL     1      13.911 -29.949  23.263  1.00  0.00     0.000 C 
ENDROOT
BRANCH   1   2
ATOM      2  C   UNL     1      13.458 -31.353  22.828  1.00  0.00     0.006 C 
BRANCH   2   3
ATOM      3  C   UNL     1      13.647 -31.597  21.325  1.00  0.00     0.053 C 
BRANCH   3   4
ATOM      4  C   UNL     1      14.319 -32.913  21.090  1.00  0.00     0.041 C 
ATOM      5  O   UNL     1      14.290 -33.444  19.948  1.00  0.00    -0.550 OA
ATOM      6  O   UNL     1      15.020 -33.529  22.119  1.00  0.00    -0.550 OA
ENDBRANCH   3   4
ENDBRANCH   2   3
ENDBRANCH   1   2
BRANCH   1   7
ATOM      7  C   UNL     1      15.332 -29.612  22.781  1.00  0.00     0.000 C 
BRANCH   7   8
ATOM      8  C   UNL     1      16.417 -30.356  23.578  1.00  0.00    -0.000 C 
BRANCH   8   9
ATOM      9  C   UNL     1      17.639 -30.721  22.719  1.00  0.00    -0.000 C 
BRANCH   9  10
ATOM     10  C   UNL     1      17.326 -30.710  21.214  1.00  0.00    -0.003 C 
ATOM     11  C   UNL     1      17.851 -31.952  20.494  1.00  0.00     0.004 C 
ENDBRANCH   9  10
ENDBRANCH   8   9
ENDBRANCH   7   8
ENDBRANCH   1   7
TORSDOF 7
ENDMDL
MODEL 2
REMARK VINA RESULT:    -3.764      2.424      3.902
REMARK INTER + INTRA:          -6.140
REMARK INTER:                  -5.571
REMARK INTRA:                  -0.569
REMARK UNBOUND:                -0.835
REMARK SMILES CCCCCCCCC(=O)[O-]
REMARK SMILES IDX 6 1 7 2 8 3 9 4 10 5 11 6 5 7 4 8 3 9 2 10 1 11
REMARK H PARENT
REMARK Flexibility Score: inf
ROOT
ATOM      1  C   UNL     1      14.603 -33.661  20.212  1.00  0.00     0.000 C 
ENDROOT
BRANCH   1   2
ATOM      2  C   UNL     1      14.488 -32.676  21.387  1.00  0.00     0.006 C 
BRANCH   2   3
ATOM      3  C   UNL     1      13.802 -31.361  20.993  1.00  0.00     0.053 C 
BRANCH   3   4
ATOM      4  C   UNL     1      12.861 -30.920  22.069  1.00  0.00     0.041 C 
ATOM      5  O   UNL     1      11.713 -30.496  21.772  1.00  0.00    -0.550 OA
ATOM      6  O   UNL     1      13.232 -31.025  23.404  1.00  0.00    -0.550 OA
ENDBRANCH   3   4
ENDBRANCH   2   3
ENDBRANCH   1   2
BRANCH   1   7
ATOM      7  C   UNL     1      15.630 -34.775  20.474  1.00  0.00     0.000 C 
BRANCH   7   8
ATOM      8  C   UNL     1      16.610 -34.961  19.304  1.00  0.00    -0.000 C 
BRANCH   8   9
ATOM      9  C   UNL     1      17.493 -33.723  19.067  1.00  0.00    -0.000 C 
BRANCH   9  10
ATOM     10  C   UNL     1      18.203 -33.253  20.347  1.00  0.00    -0.003 C 
ATOM     11  C   UNL     1      18.063 -31.748  20.579  1.00  0.00     0.004 C 
ENDBRANCH   9  10
ENDBRANCH   8   9
ENDBRANCH   7   8
ENDBRANCH   1   7
TORSDOF 7
ENDMDL
MODEL 3
REMARK VINA RESULT:    -3.743      3.103      4.394
REMARK INTER + INTRA:          -6.110
REMARK INTER:                  -5.753
REMARK INTRA:                  -0.357
REMARK UNBOUND:                -0.835
REMARK SMILES CCCCCCCCC(=O)[O-]
REMARK SMILES IDX 6 1 7 2 8 3 9 4 10 5 11 6 5 7 4 8 3 9 2 10 1 11
REMARK H PARENT
REMARK Flexibility Score: inf
ROOT
ATOM      1  C   UNL     1      14.254 -33.090  20.454  1.00  0.00     0.000 C 
ENDROOT
BRANCH   1   2
ATOM      2  C   UNL     1      13.522 -31.776  20.776  1.00  0.00     0.006 C 
BRANCH   2   3
ATOM      3  C   UNL     1      13.999 -31.139  22.088  1.00  0.00     0.053 C 
BRANCH   3   4
ATOM      4  C   UNL     1      12.867 -30.435  22.767  1.00  0.00     0.041 C 
ATOM      5  O   UNL     1      13.032 -29.923  23.907  1.00  0.00    -0.550 OA
ATOM      6  O   UNL     1      11.645 -30.298  22.121  1.00  0.00    -0.550 OA
ENDBRANCH   3   4
ENDBRANCH   2   3
ENDBRANCH   1   2
BRANCH   1   7
ATOM      7  C   UNL     1      15.019 -33.651  21.666  1.00  0.00     0.000 C 
BRANCH   7   8
ATOM      8  C   UNL     1      16.160 -34.597  21.255  1.00  0.00    -0.000 C 
BRANCH   8   9
ATOM      9  C   UNL     1      16.286 -34.747  19.729  1.00  0.00    -0.000 C 
BRANCH   9  10
ATOM     10  C   UNL     1      16.755 -36.150  19.312  1.00  0.00    -0.003 C 
ATOM     11  C   UNL     1      17.383 -36.929  20.469  1.00  0.00     0.004 C 
ENDBRANCH   9  10
ENDBRANCH   8   9
ENDBRANCH   7   8
ENDBRANCH   1   7
TORSDOF 7
ENDMDL
MODEL 4
REMARK VINA RESULT:    -3.717      2.296      3.845
REMARK INTER + INTRA:          -6.073
REMARK INTER:                  -5.580
REMARK INTRA:                  -0.493
REMARK UNBOUND:                -0.835
REMARK SMILES CCCCCCCCC(=O)[O-]
REMARK SMILES IDX 6 1 7 2 8 3 9 4 10 5 11 6 5 7 4 8 3 9 2 10 1 11
REMARK H PARENT
REMARK Flexibility Score: inf
ROOT
ATOM      1  C   UNL     1      14.943 -33.369  23.905  1.00  0.00     0.000 C 
ENDROOT
BRANCH   1   2
ATOM      2  C   UNL     1      15.642 -33.058  22.572  1.00  0.00     0.006 C 
BRANCH   2   3
ATOM      3  C   UNL     1      14.964 -33.738  21.375  1.00  0.00     0.053 C 
BRANCH   3   4
ATOM      4  C   UNL     1      15.925 -34.651  20.681  1.00  0.00     0.041 C 
ATOM      5  O   UNL     1      15.904 -34.757  19.425  1.00  0.00    -0.550 OA
ATOM      6  O   UNL     1      16.879 -35.346  21.414  1.00  0.00    -0.550 OA
ENDBRANCH   3   4
ENDBRANCH   2   3
ENDBRANCH   1   2
BRANCH   1   7
ATOM      7  C   UNL     1      13.841 -32.350  24.245  1.00  0.00     0.000 C 
BRANCH   7   8
ATOM      8  C   UNL     1      14.175 -30.934  23.747  1.00  0.00    -0.000 C 
BRANCH   8   9
ATOM      9  C   UNL     1      12.928 -30.156  23.291  1.00  0.00    -0.000 C 
BRANCH   9  10
ATOM     10  C   UNL     1      12.353 -30.689  21.968  1.00  0.00    -0.003 C 
ATOM     11  C   UNL     1      10.935 -30.185  21.697  1.00  0.00     0.004 C 
ENDBRANCH   9  10
ENDBRANCH   8   9
ENDBRANCH   7   8
ENDBRANCH   1   7
TORSDOF 7
ENDMDL
MODEL 5
REMARK VINA RESULT:    -3.691      1.944      3.464
REMARK INTER + INTRA:          -6.036
REMARK INTER:                  -5.358
REMARK INTRA:                  -0.678
REMARK UNBOUND:                -0.835
REMARK SMILES CCCCCCCCC(=O)[O-]
REMARK SMILES IDX 6 1 7 2 8 3 9 4 10 5 11 6 5 7 4 8 3 9 2 10 1 11
REMARK H PARENT
REMARK Flexibility Score: inf
ROOT
ATOM      1  C   UNL     1      15.966 -32.457  22.338  1.00  0.00     0.000 C 
ENDROOT
BRANCH   1   2
ATOM      2  C   UNL     1      15.058 -33.614  21.890  1.00  0.00     0.006 C 
BRANCH   2   3
ATOM      3  C   UNL     1      14.853 -33.652  20.370  1.00  0.00     0.053 C 
BRANCH   3   4
ATOM      4  C   UNL     1      15.864 -34.550  19.730  1.00  0.00     0.041 C 
ATOM      5  O   UNL     1      15.742 -35.801  19.812  1.00  0.00    -0.550 OA
ATOM      6  O   UNL     1      16.914 -34.007  18.999  1.00  0.00    -0.550 OA
ENDBRANCH   3   4
ENDBRANCH   2   3
ENDBRANCH   1   2
BRANCH   1   7
ATOM      7  C   UNL     1      15.999 -31.304  21.318  1.00  0.00     0.000 C 
BRANCH   7   8
ATOM      8  C   UNL     1      15.045 -30.159  21.695  1.00  0.00    -0.000 C 
BRANCH   8   9
ATOM      9  C   UNL     1      14.739 -30.112  23.202  1.00  0.00    -0.000 C 
BRANCH   9  10
ATOM     10  C   UNL     1      13.231 -30.078  23.497  1.00  0.00    -0.003 C 
ATOM     11  C   UNL     1      12.392 -30.601  22.331  1.00  0.00     0.004 C 
ENDBRANCH   9  10
ENDBRANCH   8   9
ENDBRANCH   7   8
ENDBRANCH   1   7
TORSDOF 7
ENDMDL
MODEL 6
REMARK VINA RESULT:    -3.685      2.527      4.807
REMARK INTER + INTRA:          -6.028
REMARK INTER:                  -5.673
REMARK INTRA:                  -0.355
REMARK UNBOUND:                -0.835
REMARK SMILES CCCCCCCCC(=O)[O-]
REMARK SMILES IDX 6 1 7 2 8 3 9 4 10 5 11 6 5 7 4 8 3 9 2 10 1 11
REMARK H PARENT
REMARK Flexibility Score: inf
ROOT
ATOM      1  C   UNL     1      15.360 -34.867  20.422  1.00  0.00     0.000 C 
ENDROOT
BRANCH   1   2
ATOM      2  C   UNL     1      16.491 -35.179  19.428  1.00  0.00     0.006 C 
BRANCH   2   3
ATOM      3  C   UNL     1      17.302 -33.934  19.044  1.00  0.00     0.053 C 
BRANCH   3   4
ATOM      4  C   UNL     1      18.015 -33.387  20.240  1.00  0.00     0.041 C 
ATOM      5  O   UNL     1      17.909 -32.167  20.538  1.00  0.00    -0.550 OA
ATOM      6  O   UNL     1      18.757 -34.233  21.055  1.00  0.00    -0.550 OA
ENDBRANCH   3   4
ENDBRANCH   2   3
ENDBRANCH   1   2
BRANCH   1   7
ATOM      7  C   UNL     1      14.510 -33.660  19.989  1.00  0.00     0.000 C 
BRANCH   7   8
ATOM      8  C   UNL     1      14.262 -32.672  21.141  1.00  0.00    -0.000 C 
BRANCH   8   9
ATOM      9  C   UNL     1      13.301 -31.535  20.750  1.00  0.00    -0.000 C 
BRANCH   9  10
ATOM     10  C   UNL     1      12.619 -30.896  21.970  1.00  0.00    -0.003 C 
ATOM     11  C   UNL     1      13.405 -31.109  23.264  1.00  0.00     0.004 C 
ENDBRANCH   9  10
ENDBRANCH   8   9
ENDBRANCH   7   8
ENDBRANCH   1   7
TORSDOF 7
ENDMDL
MODEL 7
REMARK VINA RESULT:    -3.668      2.952      4.674
REMARK INTER + INTRA:          -6.003
REMARK INTER:                  -5.595
REMARK INTRA:                  -0.408
REMARK UNBOUND:                -0.835
REMARK SMILES CCCCCCCCC(=O)[O-]
REMARK SMILES IDX 6 1 7 2 8 3 9 4 10 5 11 6 5 7 4 8 3 9 2 10 1 11
REMARK H PARENT
REMARK Flexibility Score: inf
ROOT
ATOM      1  C   UNL     1      15.005 -33.765  21.755  1.00  0.00     0.000 C 
ENDROOT
BRANCH   1   2
ATOM      2  C   UNL     1      16.240 -34.665  21.586  1.00  0.00     0.006 C 
BRANCH   2   3
ATOM      3  C   UNL     1      16.245 -35.419  20.250  1.00  0.00     0.053 C 
BRANCH   3   4
ATOM      4  C   UNL     1      17.302 -36.478  20.253  1.00  0.00     0.041 C 
ATOM      5  O   UNL     1      17.981 -36.692  21.293  1.00  0.00    -0.550 OA
ATOM      6  O   UNL     1      17.505 -37.263  19.125  1.00  0.00    -0.550 OA
ENDBRANCH   3   4
ENDBRANCH   2   3
ENDBRANCH   1   2
BRANCH   1   7
ATOM      7  C   UNL     1      14.404 -33.329  20.407  1.00  0.00     0.000 C 
BRANCH   7   8
ATOM      8  C   UNL     1      13.553 -32.054  20.526  1.00  0.00    -0.000 C 
BRANCH   8   9
ATOM      9  C   UNL     1      14.229 -30.968  21.381  1.00  0.00    -0.000 C 
BRANCH   9  10
ATOM     10  C   UNL     1      13.297 -30.410  22.469  1.00  0.00    -0.003 C 
ATOM     11  C   UNL     1      13.663 -30.905  23.868  1.00  0.00     0.004 C 
ENDBRANCH   9  10
ENDBRANCH   8   9
ENDBRANCH   7   8
ENDBRANCH   1   7
TORSDOF 7
ENDMDL
MODEL 8
REMARK VINA RESULT:    -3.654      7.650      9.151
REMARK INTER + INTRA:          -5.985
REMARK INTER:                  -5.655
REMARK INTRA:                  -0.329
REMARK UNBOUND:                -0.835
REMARK SMILES CCCCCCCCC(=O)[O-]
REMARK SMILES IDX 6 1 7 2 8 3 9 4 10 5 11 6 5 7 4 8 3 9 2 10 1 11
REMARK H PARENT
REMARK Flexibility Score: inf
ROOT
ATOM      1  C   UNL     1      20.573 -25.828  20.578  1.00  0.00     0.000 C 
ENDROOT
BRANCH   1   2
ATOM      2  C   UNL     1      22.101 -25.918  20.716  1.00  0.00     0.006 C 
BRANCH   2   3
ATOM      3  C   UNL     1      22.744 -24.570  21.067  1.00  0.00     0.053 C 
BRANCH   3   4
ATOM      4  C   UNL     1      23.561 -24.066  19.919  1.00  0.00     0.041 C 
ATOM      5  O   UNL     1      24.380 -23.125  20.089  1.00  0.00    -0.550 OA
ATOM      6  O   UNL     1      23.455 -24.670  18.672  1.00  0.00    -0.550 OA
ENDBRANCH   3   4
ENDBRANCH   2   3
ENDBRANCH   1   2
BRANCH   1   7
ATOM      7  C   UNL     1      19.903 -27.212  20.525  1.00  0.00     0.000 C 
BRANCH   7   8
ATOM      8  C   UNL     1      20.867 -28.348  20.907  1.00  0.00    -0.000 C 
BRANCH   8   9
ATOM      9  C   UNL     1      20.140 -29.674  21.187  1.00  0.00    -0.000 C 
BRANCH   9  10
ATOM     10  C   UNL     1      18.611 -29.535  21.112  1.00  0.00    -0.003 C 
ATOM     11  C   UNL     1      17.916 -30.853  20.771  1.00  0.00     0.004 C 
ENDBRANCH   9  10
ENDBRANCH   8   9
ENDBRANCH   7   8
ENDBRANCH   1   7
TORSDOF 7
ENDMDL
MODEL 9
REMARK VINA RESULT:    -3.580      2.466      4.282
REMARK INTER + INTRA:          -5.881
REMARK INTER:                  -5.198
REMARK INTRA:                  -0.683
REMARK UNBOUND:                -0.835
REMARK SMILES CCCCCCCCC(=O)[O-]
REMARK SMILES IDX 6 1 7 2 8 3 9 4 10 5 11 6 5 7 4 8 3 9 2 10 1 11
REMARK H PARENT
REMARK Flexibility Score: inf
ROOT
ATOM      1  C   UNL     1      17.659 -31.889  20.476  1.00  0.00     0.000 C 
ENDROOT
BRANCH   1   2
ATOM      2  C   UNL     1      17.064 -31.749  21.886  1.00  0.00     0.006 C 
BRANCH   2   3
ATOM      3  C   UNL     1      15.581 -31.357  21.868  1.00  0.00     0.053 C 
BRANCH   3   4
ATOM      4  C   UNL     1      14.724 -32.568  21.674  1.00  0.00     0.041 C 
ATOM      5  O   UNL     1      14.714 -33.482  22.541  1.00  0.00    -0.550 OA
ATOM      6  O   UNL     1      13.899 -32.666  20.561  1.00  0.00    -0.550 OA
ENDBRANCH   3   4
ENDBRANCH   2   3
ENDBRANCH   1   2
BRANCH   1   7
ATOM      7  C   UNL     1      18.305 -33.266  20.242  1.00  0.00     0.000 C 
BRANCH   7   8
ATOM      8  C   UNL     1      17.750 -33.973  18.995  1.00  0.00    -0.000 C 
BRANCH   8   9
ATOM      9  C   UNL     1      16.494 -34.809  19.296  1.00  0.00    -0.000 C 
BRANCH   9  10
ATOM     10  C   UNL     1      16.661 -35.693  20.543  1.00  0.00    -0.003 C 
ATOM     11  C   UNL     1      17.350 -37.023  20.234  1.00  0.00     0.004 C 
ENDBRANCH   9  10
ENDBRANCH   8   9
ENDBRANCH   7   8
ENDBRANCH   1   7
TORSDOF 7
ENDMDL
