MODEL 1
REMARK VINA RESULT:    -6.292      0.000      0.000
REMARK INTER + INTRA:          -7.842
REMARK INTER:                  -7.580
REMARK INTRA:                  -0.262
REMARK UNBOUND:                -0.262
REMARK SMILES O=c1c(O)c(-c2ccc(O)c(O)c2)oc2cc(O)cc(O)c12
REMARK SMILES IDX 5 1 3 2 2 3 1 4 22 5 20 6 19 7 17 8 16 9 15 10 14 11 6 12
REMARK SMILES IDX 7 13 8 14 9 15 13 16 11 17 10 18 12 20 4 22 21 24 18 26
REMARK H PARENT 10 19 12 21 4 23 21 25 18 27
REMARK Flexibility Score: inf
ROOT
ATOM      1  C   UNL     1     -42.163 -39.542 -20.280  1.00  0.00     0.180 A 
ATOM      2  C   UNL     1     -40.786 -39.627 -20.548  1.00  0.00     0.208 A 
ATOM      3  C   UNL     1     -40.032 -38.444 -20.618  1.00  0.00     0.238 A 
ATOM      4  O   UNL     1     -38.790 -38.530 -20.804  1.00  0.00    -0.285 OA
ATOM      5  C   UNL     1     -40.667 -37.192 -20.438  1.00  0.00     0.111 A 
ATOM      6  C   UNL     1     -40.008 -35.929 -20.529  1.00  0.00     0.134 A 
ATOM      7  C   UNL     1     -40.708 -34.761 -20.202  1.00  0.00     0.093 A 
ATOM      8  C   UNL     1     -42.059 -34.804 -19.852  1.00  0.00     0.123 A 
ATOM      9  C   UNL     1     -42.726 -36.026 -19.819  1.00  0.00     0.094 A 
ATOM     10  C   UNL     1     -42.046 -37.213 -20.103  1.00  0.00     0.146 A 
ATOM     11  O   UNL     1     -42.717 -38.357 -20.050  1.00  0.00    -0.452 OA
ENDROOT
BRANCH   1  12
ATOM     12  C   UNL     1     -43.029 -40.742 -20.215  1.00  0.00     0.025 A 
ATOM     13  C   UNL     1     -43.857 -41.055 -21.304  1.00  0.00     0.016 A 
ATOM     14  C   UNL     1     -44.667 -42.194 -21.272  1.00  0.00     0.051 A 
ATOM     15  C   UNL     1     -44.650 -43.043 -20.163  1.00  0.00     0.157 A 
ATOM     16  C   UNL     1     -42.998 -41.609 -19.109  1.00  0.00     0.062 A 
ATOM     17  C   UNL     1     -43.809 -42.753 -19.076  1.00  0.00     0.158 A 
BRANCH  15  18
ATOM     18  O   UNL     1     -45.472 -44.170 -20.159  1.00  0.00    -0.504 OA
ATOM     19  H   UNL     1     -46.308 -44.224 -19.590  1.00  0.00     0.293 HD
ENDBRANCH  15  18
BRANCH  17  20
ATOM     20  O   UNL     1     -43.776 -43.603 -17.972  1.00  0.00    -0.504 OA
ATOM     21  H   UNL     1     -42.903 -43.875 -17.536  1.00  0.00     0.293 HD
ENDBRANCH  17  20
ENDBRANCH   1  12
BRANCH   2  22
ATOM     22  O   UNL     1     -40.176 -40.875 -20.701  1.00  0.00    -0.502 OA
ATOM     23  H   UNL     1     -39.237 -41.065 -20.371  1.00  0.00     0.293 HD
ENDBRANCH   2  22
BRANCH   6  24
ATOM     24  O   UNL     1     -38.688 -35.766 -20.956  1.00  0.00    -0.507 OA
ATOM     25  H   UNL     1     -37.873 -35.951 -20.390  1.00  0.00     0.293 HD
ENDBRANCH   6  24
BRANCH   8  26
ATOM     26  O   UNL     1     -42.752 -33.635 -19.543  1.00  0.00    -0.508 OA
ATOM     27  H   UNL     1     -42.711 -32.821 -20.146  1.00  0.00     0.293 HD
ENDBRANCH   8  26
TORSDOF 6
ENDMDL
MODEL 2
REMARK VINA RESULT:    -6.034      1.338      2.006
REMARK INTER + INTRA:          -7.531
REMARK INTER:                  -7.196
REMARK INTRA:                  -0.334
REMARK UNBOUND:                -0.262
REMARK SMILES O=c1c(O)c(-c2ccc(O)c(O)c2)oc2cc(O)cc(O)c12
REMARK SMILES IDX 5 1 3 2 2 3 1 4 22 5 20 6 19 7 17 8 16 9 15 10 14 11 6 12
REMARK SMILES IDX 7 13 8 14 9 15 13 16 11 17 10 18 12 20 4 22 21 24 18 26
REMARK H PARENT 10 19 12 21 4 23 21 25 18 27
REMARK Flexibility Score: inf
ROOT
ATOM      1  C   UNL     1     -42.093 -39.225 -21.076  1.00  0.00     0.180 A 
ATOM      2  C   UNL     1     -40.701 -39.401 -20.992  1.00  0.00     0.208 A 
ATOM      3  C   UNL     1     -39.889 -38.289 -20.718  1.00  0.00     0.238 A 
ATOM      4  O   UNL     1     -38.649 -38.463 -20.590  1.00  0.00    -0.285 OA
ATOM      5  C   UNL     1     -40.478 -37.012 -20.548  1.00  0.00     0.111 A 
ATOM      6  C   UNL     1     -39.747 -35.810 -20.307  1.00  0.00     0.134 A 
ATOM      7  C   UNL     1     -40.441 -34.626 -20.024  1.00  0.00     0.093 A 
ATOM      8  C   UNL     1     -41.836 -34.588 -20.039  1.00  0.00     0.123 A 
ATOM      9  C   UNL     1     -42.557 -35.743 -20.332  1.00  0.00     0.094 A 
ATOM     10  C   UNL     1     -41.894 -36.948 -20.582  1.00  0.00     0.146 A 
ATOM     11  O   UNL     1     -42.619 -38.027 -20.847  1.00  0.00    -0.452 OA
ENDROOT
BRANCH   1  12
ATOM     12  C   UNL     1     -43.012 -40.344 -21.387  1.00  0.00     0.025 A 
ATOM     13  C   UNL     1     -43.622 -41.048 -20.338  1.00  0.00     0.016 A 
ATOM     14  C   UNL     1     -44.508 -42.095 -20.609  1.00  0.00     0.051 A 
ATOM     15  C   UNL     1     -44.809 -42.443 -21.928  1.00  0.00     0.157 A 
ATOM     16  C   UNL     1     -43.332 -40.682 -22.714  1.00  0.00     0.062 A 
ATOM     17  C   UNL     1     -44.222 -41.731 -22.988  1.00  0.00     0.158 A 
BRANCH  15  18
ATOM     18  O   UNL     1     -45.694 -43.493 -22.167  1.00  0.00    -0.504 OA
ATOM     19  H   UNL     1     -45.532 -44.426 -21.805  1.00  0.00     0.293 HD
ENDBRANCH  15  18
BRANCH  17  20
ATOM     20  O   UNL     1     -44.529 -42.063 -24.306  1.00  0.00    -0.504 OA
ATOM     21  H   UNL     1     -45.282 -41.608 -24.807  1.00  0.00     0.293 HD
ENDBRANCH  17  20
ENDBRANCH   1  12
BRANCH   2  22
ATOM     22  O   UNL     1     -40.144 -40.674 -21.142  1.00  0.00    -0.502 OA
ATOM     23  H   UNL     1     -39.884 -41.250 -20.350  1.00  0.00     0.293 HD
ENDBRANCH   2  22
BRANCH   6  24
ATOM     24  O   UNL     1     -38.354 -35.718 -20.359  1.00  0.00    -0.507 OA
ATOM     25  H   UNL     1     -37.795 -35.923 -21.174  1.00  0.00     0.293 HD
ENDBRANCH   6  24
BRANCH   8  26
ATOM     26  O   UNL     1     -42.518 -33.403 -19.772  1.00  0.00    -0.508 OA
ATOM     27  H   UNL     1     -42.369 -32.568 -20.329  1.00  0.00     0.293 HD
ENDBRANCH   8  26
TORSDOF 6
ENDMDL
MODEL 3
REMARK VINA RESULT:    -5.883      3.648      7.719
REMARK INTER + INTRA:          -7.349
REMARK INTER:                  -7.082
REMARK INTRA:                  -0.267
REMARK UNBOUND:                -0.262
REMARK SMILES O=c1c(O)c(-c2ccc(O)c(O)c2)oc2cc(O)cc(O)c12
REMARK SMILES IDX 5 1 3 2 2 3 1 4 22 5 20 6 19 7 17 8 16 9 15 10 14 11 6 12
REMARK SMILES IDX 7 13 8 14 9 15 13 16 11 17 10 18 12 20 4 22 21 24 18 26
REMARK H PARENT 10 19 12 21 4 23 21 25 18 27
REMARK Flexibility Score: inf
ROOT
ATOM      1  C   UNL     1     -45.041 -37.554 -19.981  1.00  0.00     0.180 A 
ATOM      2  C   UNL     1     -45.922 -37.570 -21.076  1.00  0.00     0.208 A 
ATOM      3  C   UNL     1     -47.096 -38.337 -20.995  1.00  0.00     0.238 A 
ATOM      4  O   UNL     1     -47.908 -38.304 -21.957  1.00  0.00    -0.285 OA
ATOM      5  C   UNL     1     -47.365 -39.091 -19.827  1.00  0.00     0.111 A 
ATOM      6  C   UNL     1     -48.503 -39.935 -19.652  1.00  0.00     0.134 A 
ATOM      7  C   UNL     1     -48.735 -40.531 -18.406  1.00  0.00     0.093 A 
ATOM      8  C   UNL     1     -47.837 -40.367 -17.350  1.00  0.00     0.123 A 
ATOM      9  C   UNL     1     -46.692 -39.594 -17.530  1.00  0.00     0.094 A 
ATOM     10  C   UNL     1     -46.452 -38.956 -18.750  1.00  0.00     0.146 A 
ATOM     11  O   UNL     1     -45.354 -38.220 -18.875  1.00  0.00    -0.452 OA
ENDROOT
BRANCH   1  12
ATOM     12  C   UNL     1     -43.772 -36.791 -20.001  1.00  0.00     0.025 A 
ATOM     13  C   UNL     1     -42.564 -37.467 -20.227  1.00  0.00     0.016 A 
ATOM     14  C   UNL     1     -41.357 -36.764 -20.270  1.00  0.00     0.051 A 
ATOM     15  C   UNL     1     -41.341 -35.376 -20.106  1.00  0.00     0.157 A 
ATOM     16  C   UNL     1     -43.756 -35.392 -19.857  1.00  0.00     0.062 A 
ATOM     17  C   UNL     1     -42.547 -34.685 -19.902  1.00  0.00     0.158 A 
BRANCH  15  18
ATOM     18  O   UNL     1     -40.121 -34.702 -20.151  1.00  0.00    -0.504 OA
ATOM     19  H   UNL     1     -40.062 -33.710 -20.347  1.00  0.00     0.293 HD
ENDBRANCH  15  18
BRANCH  17  20
ATOM     20  O   UNL     1     -42.540 -33.299 -19.751  1.00  0.00    -0.504 OA
ATOM     21  H   UNL     1     -43.386 -32.783 -19.543  1.00  0.00     0.293 HD
ENDBRANCH  17  20
ENDBRANCH   1  12
BRANCH   2  22
ATOM     22  O   UNL     1     -45.648 -36.801 -22.210  1.00  0.00    -0.502 OA
ATOM     23  H   UNL     1     -45.620 -37.198 -23.142  1.00  0.00     0.293 HD
ENDBRANCH   2  22
BRANCH   6  24
ATOM     24  O   UNL     1     -49.413 -40.239 -20.668  1.00  0.00    -0.507 OA
ATOM     25  H   UNL     1     -50.190 -39.654 -20.937  1.00  0.00     0.293 HD
ENDBRANCH   6  24
BRANCH   8  26
ATOM     26  O   UNL     1     -48.067 -40.976 -16.119  1.00  0.00    -0.508 OA
ATOM     27  H   UNL     1     -48.624 -41.820 -16.041  1.00  0.00     0.293 HD
ENDBRANCH   8  26
TORSDOF 6
ENDMDL
MODEL 4
REMARK VINA RESULT:    -5.864      1.408      3.131
REMARK INTER + INTRA:          -7.326
REMARK INTER:                  -6.996
REMARK INTRA:                  -0.331
REMARK UNBOUND:                -0.262
REMARK SMILES O=c1c(O)c(-c2ccc(O)c(O)c2)oc2cc(O)cc(O)c12
REMARK SMILES IDX 5 1 3 2 2 3 1 4 22 5 20 6 19 7 17 8 16 9 15 10 14 11 6 12
REMARK SMILES IDX 7 13 8 14 9 15 13 16 11 17 10 18 12 20 4 22 21 24 18 26
REMARK H PARENT 10 19 12 21 4 23 21 25 18 27
REMARK Flexibility Score: inf
ROOT
ATOM      1  C   UNL     1     -43.378 -38.822 -19.368  1.00  0.00     0.180 A 
ATOM      2  C   UNL     1     -44.281 -37.750 -19.259  1.00  0.00     0.208 A 
ATOM      3  C   UNL     1     -43.811 -36.441 -19.456  1.00  0.00     0.238 A 
ATOM      4  O   UNL     1     -44.635 -35.490 -19.411  1.00  0.00    -0.285 OA
ATOM      5  C   UNL     1     -42.442 -36.220 -19.742  1.00  0.00     0.111 A 
ATOM      6  C   UNL     1     -41.850 -34.934 -19.919  1.00  0.00     0.134 A 
ATOM      7  C   UNL     1     -40.513 -34.840 -20.328  1.00  0.00     0.093 A 
ATOM      8  C   UNL     1     -39.731 -35.984 -20.501  1.00  0.00     0.123 A 
ATOM      9  C   UNL     1     -40.284 -37.241 -20.272  1.00  0.00     0.094 A 
ATOM     10  C   UNL     1     -41.625 -37.369 -19.900  1.00  0.00     0.146 A 
ATOM     11  O   UNL     1     -42.115 -38.586 -19.702  1.00  0.00    -0.452 OA
ENDROOT
BRANCH   1  12
ATOM     12  C   UNL     1     -43.793 -40.227 -19.149  1.00  0.00     0.025 A 
ATOM     13  C   UNL     1     -44.115 -41.031 -20.252  1.00  0.00     0.016 A 
ATOM     14  C   UNL     1     -44.489 -42.365 -20.070  1.00  0.00     0.051 A 
ATOM     15  C   UNL     1     -44.533 -42.919 -18.788  1.00  0.00     0.157 A 
ATOM     16  C   UNL     1     -43.817 -40.792 -17.861  1.00  0.00     0.062 A 
ATOM     17  C   UNL     1     -44.191 -42.130 -17.676  1.00  0.00     0.158 A 
BRANCH  15  18
ATOM     18  O   UNL     1     -44.913 -44.252 -18.638  1.00  0.00    -0.504 OA
ATOM     19  H   UNL     1     -45.805 -44.515 -18.236  1.00  0.00     0.293 HD
ENDBRANCH  15  18
BRANCH  17  20
ATOM     20  O   UNL     1     -44.218 -42.680 -16.396  1.00  0.00    -0.504 OA
ATOM     21  H   UNL     1     -44.339 -43.674 -16.246  1.00  0.00     0.293 HD
ENDBRANCH  17  20
ENDBRANCH   1  12
BRANCH   2  22
ATOM     22  O   UNL     1     -45.632 -37.993 -18.998  1.00  0.00    -0.502 OA
ATOM     23  H   UNL     1     -46.333 -38.009 -19.729  1.00  0.00     0.293 HD
ENDBRANCH   2  22
BRANCH   6  24
ATOM     24  O   UNL     1     -42.515 -33.728 -19.683  1.00  0.00    -0.507 OA
ATOM     25  H   UNL     1     -43.117 -33.549 -18.893  1.00  0.00     0.293 HD
ENDBRANCH   6  24
BRANCH   8  26
ATOM     26  O   UNL     1     -38.398 -35.881 -20.893  1.00  0.00    -0.508 OA
ATOM     27  H   UNL     1     -37.685 -36.494 -20.512  1.00  0.00     0.293 HD
ENDBRANCH   8  26
TORSDOF 6
ENDMDL
MODEL 5
REMARK VINA RESULT:    -5.845      3.063      5.296
REMARK INTER + INTRA:          -7.303
REMARK INTER:                  -7.244
REMARK INTRA:                  -0.059
REMARK UNBOUND:                -0.262
REMARK SMILES O=c1c(O)c(-c2ccc(O)c(O)c2)oc2cc(O)cc(O)c12
REMARK SMILES IDX 5 1 3 2 2 3 1 4 22 5 20 6 19 7 17 8 16 9 15 10 14 11 6 12
REMARK SMILES IDX 7 13 8 14 9 15 13 16 11 17 10 18 12 20 4 22 21 24 18 26
REMARK H PARENT 10 19 12 21 4 23 21 25 18 27
REMARK Flexibility Score: inf
ROOT
ATOM      1  C   UNL     1     -43.736 -36.924 -19.830  1.00  0.00     0.180 A 
ATOM      2  C   UNL     1     -42.923 -35.783 -19.713  1.00  0.00     0.208 A 
ATOM      3  C   UNL     1     -41.551 -35.893 -19.990  1.00  0.00     0.238 A 
ATOM      4  O   UNL     1     -40.839 -34.856 -19.937  1.00  0.00    -0.285 OA
ATOM      5  C   UNL     1     -41.006 -37.145 -20.364  1.00  0.00     0.111 A 
ATOM      6  C   UNL     1     -39.623 -37.380 -20.628  1.00  0.00     0.134 A 
ATOM      7  C   UNL     1     -39.217 -38.628 -21.117  1.00  0.00     0.093 A 
ATOM      8  C   UNL     1     -40.132 -39.668 -21.288  1.00  0.00     0.123 A 
ATOM      9  C   UNL     1     -41.474 -39.466 -20.976  1.00  0.00     0.094 A 
ATOM     10  C   UNL     1     -41.917 -38.221 -20.522  1.00  0.00     0.146 A 
ATOM     11  O   UNL     1     -43.206 -38.069 -20.246  1.00  0.00    -0.452 OA
ENDROOT
BRANCH   1  12
ATOM     12  C   UNL     1     -45.186 -36.893 -19.529  1.00  0.00     0.025 A 
ATOM     13  C   UNL     1     -45.622 -36.435 -18.277  1.00  0.00     0.016 A 
ATOM     14  C   UNL     1     -46.986 -36.378 -17.979  1.00  0.00     0.051 A 
ATOM     15  C   UNL     1     -47.934 -36.762 -18.932  1.00  0.00     0.157 A 
ATOM     16  C   UNL     1     -46.142 -37.258 -20.494  1.00  0.00     0.062 A 
ATOM     17  C   UNL     1     -47.511 -37.201 -20.198  1.00  0.00     0.158 A 
BRANCH  15  18
ATOM     18  O   UNL     1     -49.288 -36.696 -18.605  1.00  0.00    -0.504 OA
ATOM     19  H   UNL     1     -49.694 -37.272 -17.877  1.00  0.00     0.293 HD
ENDBRANCH  15  18
BRANCH  17  20
ATOM     20  O   UNL     1     -48.452 -37.571 -21.158  1.00  0.00    -0.504 OA
ATOM     21  H   UNL     1     -49.263 -36.999 -21.355  1.00  0.00     0.293 HD
ENDBRANCH  17  20
ENDBRANCH   1  12
BRANCH   2  22
ATOM     22  O   UNL     1     -43.486 -34.553 -19.364  1.00  0.00    -0.502 OA
ATOM     23  H   UNL     1     -42.923 -33.751 -19.106  1.00  0.00     0.293 HD
ENDBRANCH   2  22
BRANCH   6  24
ATOM     24  O   UNL     1     -38.614 -36.439 -20.404  1.00  0.00    -0.507 OA
ATOM     25  H   UNL     1     -38.769 -35.450 -20.275  1.00  0.00     0.293 HD
ENDBRANCH   6  24
BRANCH   8  26
ATOM     26  O   UNL     1     -39.717 -40.911 -21.760  1.00  0.00    -0.508 OA
ATOM     27  H   UNL     1     -39.605 -41.704 -21.138  1.00  0.00     0.293 HD
ENDBRANCH   8  26
TORSDOF 6
ENDMDL
MODEL 6
REMARK VINA RESULT:    -5.778      2.307      3.732
REMARK INTER + INTRA:          -7.223
REMARK INTER:                  -6.891
REMARK INTRA:                  -0.332
REMARK UNBOUND:                -0.262
REMARK SMILES O=c1c(O)c(-c2ccc(O)c(O)c2)oc2cc(O)cc(O)c12
REMARK SMILES IDX 5 1 3 2 2 3 1 4 22 5 20 6 19 7 17 8 16 9 15 10 14 11 6 12
REMARK SMILES IDX 7 13 8 14 9 15 13 16 11 17 10 18 12 20 4 22 21 24 18 26
REMARK H PARENT 10 19 12 21 4 23 21 25 18 27
REMARK Flexibility Score: inf
ROOT
ATOM      1  C   UNL     1     -43.981 -38.029 -19.382  1.00  0.00     0.180 A 
ATOM      2  C   UNL     1     -44.303 -36.663 -19.314  1.00  0.00     0.208 A 
ATOM      3  C   UNL     1     -43.305 -35.713 -19.587  1.00  0.00     0.238 A 
ATOM      4  O   UNL     1     -43.614 -34.492 -19.577  1.00  0.00    -0.285 OA
ATOM      5  C   UNL     1     -41.995 -36.141 -19.906  1.00  0.00     0.111 A 
ATOM      6  C   UNL     1     -40.896 -35.266 -20.159  1.00  0.00     0.134 A 
ATOM      7  C   UNL     1     -39.676 -35.798 -20.595  1.00  0.00     0.093 A 
ATOM      8  C   UNL     1     -39.495 -37.177 -20.722  1.00  0.00     0.123 A 
ATOM      9  C   UNL     1     -40.544 -38.042 -20.419  1.00  0.00     0.094 A 
ATOM     10  C   UNL     1     -41.784 -37.540 -20.018  1.00  0.00     0.146 A 
ATOM     11  O   UNL     1     -42.759 -38.399 -19.749  1.00  0.00    -0.452 OA
ENDROOT
BRANCH   1  12
ATOM     12  C   UNL     1     -44.972 -39.088 -19.084  1.00  0.00     0.025 A 
ATOM     13  C   UNL     1     -45.671 -39.696 -20.138  1.00  0.00     0.016 A 
ATOM     14  C   UNL     1     -46.596 -40.712 -19.881  1.00  0.00     0.051 A 
ATOM     15  C   UNL     1     -46.825 -41.145 -18.573  1.00  0.00     0.157 A 
ATOM     16  C   UNL     1     -45.189 -39.540 -17.770  1.00  0.00     0.062 A 
ATOM     17  C   UNL     1     -46.116 -40.560 -17.511  1.00  0.00     0.158 A 
BRANCH  15  18
ATOM     18  O   UNL     1     -47.756 -42.159 -18.348  1.00  0.00    -0.504 OA
ATOM     19  H   UNL     1     -48.455 -42.409 -19.037  1.00  0.00     0.293 HD
ENDBRANCH  15  18
BRANCH  17  20
ATOM     20  O   UNL     1     -46.328 -40.997 -16.204  1.00  0.00    -0.504 OA
ATOM     21  H   UNL     1     -45.633 -40.866 -15.480  1.00  0.00     0.293 HD
ENDBRANCH  17  20
ENDBRANCH   1  12
BRANCH   2  22
ATOM     22  O   UNL     1     -45.609 -36.263 -19.018  1.00  0.00    -0.502 OA
ATOM     23  H   UNL     1     -45.813 -35.461 -18.434  1.00  0.00     0.293 HD
ENDBRANCH   2  22
BRANCH   6  24
ATOM     24  O   UNL     1     -40.942 -33.881 -19.975  1.00  0.00    -0.507 OA
ATOM     25  H   UNL     1     -40.219 -33.239 -20.264  1.00  0.00     0.293 HD
ENDBRANCH   6  24
BRANCH   8  26
ATOM     26  O   UNL     1     -38.273 -37.699 -21.140  1.00  0.00    -0.508 OA
ATOM     27  H   UNL     1     -37.595 -38.057 -20.477  1.00  0.00     0.293 HD
ENDBRANCH   8  26
TORSDOF 6
ENDMDL
MODEL 7
REMARK VINA RESULT:    -5.686      1.535      7.072
REMARK INTER + INTRA:          -7.112
REMARK INTER:                  -6.842
REMARK INTRA:                  -0.269
REMARK UNBOUND:                -0.262
REMARK SMILES O=c1c(O)c(-c2ccc(O)c(O)c2)oc2cc(O)cc(O)c12
REMARK SMILES IDX 5 1 3 2 2 3 1 4 22 5 20 6 19 7 17 8 16 9 15 10 14 11 6 12
REMARK SMILES IDX 7 13 8 14 9 15 13 16 11 17 10 18 12 20 4 22 21 24 18 26
REMARK H PARENT 10 19 12 21 4 23 21 25 18 27
REMARK Flexibility Score: inf
ROOT
ATOM      1  C   UNL     1     -42.125 -39.561 -20.609  1.00  0.00     0.180 A 
ATOM      2  C   UNL     1     -43.040 -39.669 -21.670  1.00  0.00     0.208 A 
ATOM      3  C   UNL     1     -44.008 -40.687 -21.635  1.00  0.00     0.238 A 
ATOM      4  O   UNL     1     -44.859 -40.743 -22.561  1.00  0.00    -0.285 OA
ATOM      5  C   UNL     1     -44.035 -41.594 -20.549  1.00  0.00     0.111 A 
ATOM      6  C   UNL     1     -44.944 -42.688 -20.431  1.00  0.00     0.134 A 
ATOM      7  C   UNL     1     -44.967 -43.442 -19.251  1.00  0.00     0.093 A 
ATOM      8  C   UNL     1     -44.069 -43.183 -18.213  1.00  0.00     0.123 A 
ATOM      9  C   UNL     1     -43.138 -42.156 -18.344  1.00  0.00     0.094 A 
ATOM     10  C   UNL     1     -43.115 -41.362 -19.494  1.00  0.00     0.146 A 
ATOM     11  O   UNL     1     -42.218 -40.387 -19.573  1.00  0.00    -0.452 OA
ENDROOT
BRANCH   1  12
ATOM     12  C   UNL     1     -41.061 -38.531 -20.588  1.00  0.00     0.025 A 
ATOM     13  C   UNL     1     -39.749 -38.886 -20.934  1.00  0.00     0.016 A 
ATOM     14  C   UNL     1     -38.734 -37.925 -20.940  1.00  0.00     0.051 A 
ATOM     15  C   UNL     1     -39.017 -36.596 -20.616  1.00  0.00     0.157 A 
ATOM     16  C   UNL     1     -41.348 -37.188 -20.282  1.00  0.00     0.062 A 
ATOM     17  C   UNL     1     -40.331 -36.223 -20.289  1.00  0.00     0.158 A 
BRANCH  15  18
ATOM     18  O   UNL     1     -37.982 -35.660 -20.628  1.00  0.00    -0.504 OA
ATOM     19  H   UNL     1     -37.596 -35.276 -19.774  1.00  0.00     0.293 HD
ENDBRANCH  15  18
BRANCH  17  20
ATOM     20  O   UNL     1     -40.623 -34.896 -19.979  1.00  0.00    -0.504 OA
ATOM     21  H   UNL     1     -40.447 -34.514 -19.057  1.00  0.00     0.293 HD
ENDBRANCH  17  20
ENDBRANCH   1  12
BRANCH   2  22
ATOM     22  O   UNL     1     -43.009 -38.748 -22.721  1.00  0.00    -0.502 OA
ATOM     23  H   UNL     1     -43.781 -38.123 -22.920  1.00  0.00     0.293 HD
ENDBRANCH   2  22
BRANCH   6  24
ATOM     24  O   UNL     1     -45.820 -43.089 -21.443  1.00  0.00    -0.507 OA
ATOM     25  H   UNL     1     -46.677 -42.613 -21.684  1.00  0.00     0.293 HD
ENDBRANCH   6  24
BRANCH   8  26
ATOM     26  O   UNL     1     -44.088 -43.948 -17.049  1.00  0.00    -0.508 OA
ATOM     27  H   UNL     1     -43.306 -44.541 -16.791  1.00  0.00     0.293 HD
ENDBRANCH   8  26
TORSDOF 6
ENDMDL
MODEL 8
REMARK VINA RESULT:    -5.682      5.003      8.215
REMARK INTER + INTRA:          -7.106
REMARK INTER:                  -6.819
REMARK INTRA:                  -0.288
REMARK UNBOUND:                -0.262
REMARK SMILES O=c1c(O)c(-c2ccc(O)c(O)c2)oc2cc(O)cc(O)c12
REMARK SMILES IDX 5 1 3 2 2 3 1 4 22 5 20 6 19 7 17 8 16 9 15 10 14 11 6 12
REMARK SMILES IDX 7 13 8 14 9 15 13 16 11 17 10 18 12 20 4 22 21 24 18 26
REMARK H PARENT 10 19 12 21 4 23 21 25 18 27
REMARK Flexibility Score: inf
ROOT
ATOM      1  C   UNL     1     -47.525 -38.437 -19.979  1.00  0.00     0.180 A 
ATOM      2  C   UNL     1     -46.725 -38.372 -21.133  1.00  0.00     0.208 A 
ATOM      3  C   UNL     1     -46.168 -39.556 -21.644  1.00  0.00     0.238 A 
ATOM      4  O   UNL     1     -45.498 -39.498 -22.708  1.00  0.00    -0.285 OA
ATOM      5  C   UNL     1     -46.403 -40.786 -20.984  1.00  0.00     0.111 A 
ATOM      6  C   UNL     1     -45.855 -42.040 -21.389  1.00  0.00     0.134 A 
ATOM      7  C   UNL     1     -46.260 -43.213 -20.740  1.00  0.00     0.093 A 
ATOM      8  C   UNL     1     -47.142 -43.169 -19.658  1.00  0.00     0.123 A 
ATOM      9  C   UNL     1     -47.635 -41.944 -19.217  1.00  0.00     0.094 A 
ATOM     10  C   UNL     1     -47.279 -40.760 -19.868  1.00  0.00     0.146 A 
ATOM     11  O   UNL     1     -47.780 -39.615 -19.422  1.00  0.00    -0.452 OA
ENDROOT
BRANCH   1  12
ATOM     12  C   UNL     1     -48.125 -37.229 -19.368  1.00  0.00     0.025 A 
ATOM     13  C   UNL     1     -49.503 -36.999 -19.505  1.00  0.00     0.016 A 
ATOM     14  C   UNL     1     -50.094 -35.876 -18.920  1.00  0.00     0.051 A 
ATOM     15  C   UNL     1     -49.324 -34.977 -18.176  1.00  0.00     0.157 A 
ATOM     16  C   UNL     1     -47.356 -36.335 -18.602  1.00  0.00     0.062 A 
ATOM     17  C   UNL     1     -47.948 -35.209 -18.013  1.00  0.00     0.158 A 
BRANCH  15  18
ATOM     18  O   UNL     1     -49.942 -33.865 -17.606  1.00  0.00    -0.504 OA
ATOM     19  H   UNL     1     -50.756 -33.430 -18.023  1.00  0.00     0.293 HD
ENDBRANCH  15  18
BRANCH  17  20
ATOM     20  O   UNL     1     -47.176 -34.325 -17.260  1.00  0.00    -0.504 OA
ATOM     21  H   UNL     1     -47.084 -34.421 -16.257  1.00  0.00     0.293 HD
ENDBRANCH  17  20
ENDBRANCH   1  12
BRANCH   2  22
ATOM     22  O   UNL     1     -46.524 -37.150 -21.781  1.00  0.00    -0.502 OA
ATOM     23  H   UNL     1     -45.612 -36.714 -21.849  1.00  0.00     0.293 HD
ENDBRANCH   2  22
BRANCH   6  24
ATOM     24  O   UNL     1     -44.897 -42.185 -22.397  1.00  0.00    -0.507 OA
ATOM     25  H   UNL     1     -43.984 -41.757 -22.387  1.00  0.00     0.293 HD
ENDBRANCH   6  24
BRANCH   8  26
ATOM     26  O   UNL     1     -47.528 -44.339 -19.007  1.00  0.00    -0.508 OA
ATOM     27  H   UNL     1     -48.190 -44.984 -19.425  1.00  0.00     0.293 HD
ENDBRANCH   8  26
TORSDOF 6
ENDMDL
MODEL 9
REMARK VINA RESULT:    -5.287      3.547      6.929
REMARK INTER + INTRA:          -6.631
REMARK INTER:                  -6.310
REMARK INTRA:                  -0.321
REMARK UNBOUND:                -0.262
REMARK SMILES O=c1c(O)c(-c2ccc(O)c(O)c2)oc2cc(O)cc(O)c12
REMARK SMILES IDX 5 1 3 2 2 3 1 4 22 5 20 6 19 7 17 8 16 9 15 10 14 11 6 12
REMARK SMILES IDX 7 13 8 14 9 15 13 16 11 17 10 18 12 20 4 22 21 24 18 26
REMARK H PARENT 10 19 12 21 4 23 21 25 18 27
REMARK Flexibility Score: inf
ROOT
ATOM      1  C   UNL     1     -43.306 -36.839 -20.529  1.00  0.00     0.180 A 
ATOM      2  C   UNL     1     -44.121 -37.102 -19.415  1.00  0.00     0.208 A 
ATOM      3  C   UNL     1     -45.469 -37.440 -19.622  1.00  0.00     0.238 A 
ATOM      4  O   UNL     1     -46.180 -37.728 -18.624  1.00  0.00    -0.285 OA
ATOM      5  C   UNL     1     -45.986 -37.494 -20.939  1.00  0.00     0.111 A 
ATOM      6  C   UNL     1     -47.346 -37.786 -21.263  1.00  0.00     0.134 A 
ATOM      7  C   UNL     1     -47.717 -37.942 -22.604  1.00  0.00     0.093 A 
ATOM      8  C   UNL     1     -46.794 -37.751 -23.634  1.00  0.00     0.123 A 
ATOM      9  C   UNL     1     -45.479 -37.407 -23.329  1.00  0.00     0.094 A 
ATOM     10  C   UNL     1     -45.069 -37.281 -22.000  1.00  0.00     0.146 A 
ATOM     11  O   UNL     1     -43.805 -36.962 -21.753  1.00  0.00    -0.452 OA
ENDROOT
BRANCH   1  12
ATOM     12  C   UNL     1     -41.883 -36.451 -20.390  1.00  0.00     0.025 A 
ATOM     13  C   UNL     1     -41.552 -35.103 -20.187  1.00  0.00     0.016 A 
ATOM     14  C   UNL     1     -40.217 -34.717 -20.033  1.00  0.00     0.051 A 
ATOM     15  C   UNL     1     -39.197 -35.673 -20.063  1.00  0.00     0.157 A 
ATOM     16  C   UNL     1     -40.857 -37.413 -20.398  1.00  0.00     0.062 A 
ATOM     17  C   UNL     1     -39.518 -37.029 -20.242  1.00  0.00     0.158 A 
BRANCH  15  18
ATOM     18  O   UNL     1     -37.875 -35.257 -19.909  1.00  0.00    -0.504 OA
ATOM     19  H   UNL     1     -37.452 -34.572 -20.523  1.00  0.00     0.293 HD
ENDBRANCH  15  18
BRANCH  17  20
ATOM     20  O   UNL     1     -38.507 -37.989 -20.259  1.00  0.00    -0.504 OA
ATOM     21  H   UNL     1     -38.367 -38.626 -19.484  1.00  0.00     0.293 HD
ENDBRANCH  17  20
ENDBRANCH   1  12
BRANCH   2  22
ATOM     22  O   UNL     1     -43.584 -37.064 -18.126  1.00  0.00    -0.502 OA
ATOM     23  H   UNL     1     -43.891 -37.689 -17.390  1.00  0.00     0.293 HD
ENDBRANCH   2  22
BRANCH   6  24
ATOM     24  O   UNL     1     -48.366 -37.906 -20.316  1.00  0.00    -0.507 OA
ATOM     25  H   UNL     1     -48.315 -37.558 -19.369  1.00  0.00     0.293 HD
ENDBRANCH   6  24
BRANCH   8  26
ATOM     26  O   UNL     1     -47.175 -37.892 -24.967  1.00  0.00    -0.508 OA
ATOM     27  H   UNL     1     -48.151 -37.892 -25.241  1.00  0.00     0.293 HD
ENDBRANCH   8  26
TORSDOF 6
ENDMDL
