MODEL 1
REMARK VINA RESULT:    -3.576      0.000      0.000
REMARK INTER + INTRA:          -6.061
REMARK INTER:                  -5.458
REMARK INTRA:                  -0.604
REMARK UNBOUND:                -0.604
REMARK SMILES O=C([O-])CCCCCCCCC(=O)[O-]
REMARK SMILES IDX 7 1 6 2 5 3 4 4 2 5 1 6 3 7 8 8 9 9 10 10 11 11 12 12 13 13
REMARK SMILES IDX 14 14
REMARK H PARENT
REMARK Flexibility Score: inf
ROOT
ATOM      1  C   UNL     1      35.385  28.290  15.714  1.00  0.00     0.000 C 
ENDROOT
BRANCH   1   2
ATOM      2  C   UNL     1      36.754  28.606  16.342  1.00  0.00     0.000 C 
BRANCH   2   3
ATOM      3  C   UNL     1      36.860  28.128  17.799  1.00  0.00     0.006 C 
BRANCH   3   4
ATOM      4  C   UNL     1      36.224  29.112  18.790  1.00  0.00     0.053 C 
BRANCH   4   5
ATOM      5  C   UNL     1      34.961  28.540  19.352  1.00  0.00     0.041 C 
ATOM      6  O   UNL     1      34.579  27.389  19.013  1.00  0.00    -0.550 OA
ATOM      7  O   UNL     1      34.179  29.299  20.215  1.00  0.00    -0.550 OA
ENDBRANCH   4   5
ENDBRANCH   3   4
ENDBRANCH   2   3
ENDBRANCH   1   2
BRANCH   1   8
ATOM      8  C   UNL     1      35.369  26.933  14.993  1.00  0.00     0.000 C 
BRANCH   8   9
ATOM      9  C   UNL     1      35.565  27.070  13.473  1.00  0.00     0.000 C 
BRANCH   9  10
ATOM     10  C   UNL     1      34.237  27.090  12.694  1.00  0.00     0.006 C 
BRANCH  10  11
ATOM     11  C   UNL     1      33.871  28.470  12.119  1.00  0.00     0.053 C 
BRANCH  11  12
ATOM     12  C   UNL     1      32.946  29.242  13.008  1.00  0.00     0.041 C 
ATOM     13  O   UNL     1      32.324  28.661  13.936  1.00  0.00    -0.550 OA
ATOM     14  O   UNL     1      32.795  30.612  12.834  1.00  0.00    -0.550 OA
ENDBRANCH  11  12
ENDBRANCH  10  11
ENDBRANCH   9  10
ENDBRANCH   8   9
ENDBRANCH   1   8
TORSDOF 9
ENDMDL
MODEL 2
REMARK VINA RESULT:    -3.557      1.313      1.782
REMARK INTER + INTRA:          -6.032
REMARK INTER:                  -5.592
REMARK INTRA:                  -0.441
REMARK UNBOUND:                -0.604
REMARK SMILES O=C([O-])CCCCCCCCC(=O)[O-]
REMARK SMILES IDX 7 1 6 2 5 3 4 4 2 5 1 6 3 7 8 8 9 9 10 10 11 11 12 12 13 13
REMARK SMILES IDX 14 14
REMARK H PARENT
REMARK Flexibility Score: inf
ROOT
ATOM      1  C   UNL     1      34.939  28.824  16.427  1.00  0.00     0.000 C 
ENDROOT
BRANCH   1   2
ATOM      2  C   UNL     1      35.568  28.899  17.829  1.00  0.00     0.000 C 
BRANCH   2   3
ATOM      3  C   UNL     1      34.693  28.237  18.906  1.00  0.00     0.006 C 
BRANCH   3   4
ATOM      4  C   UNL     1      34.371  29.186  20.067  1.00  0.00     0.053 C 
BRANCH   4   5
ATOM      5  C   UNL     1      35.358  29.005  21.176  1.00  0.00     0.041 C 
ATOM      6  O   UNL     1      35.908  30.007  21.705  1.00  0.00    -0.550 OA
ATOM      7  O   UNL     1      35.708  27.727  21.593  1.00  0.00    -0.550 OA
ENDBRANCH   4   5
ENDBRANCH   3   4
ENDBRANCH   2   3
ENDBRANCH   1   2
BRANCH   1   8
ATOM      8  C   UNL     1      35.340  27.547  15.670  1.00  0.00     0.000 C 
BRANCH   8   9
ATOM      9  C   UNL     1      35.651  27.814  14.187  1.00  0.00     0.000 C 
BRANCH   9  10
ATOM     10  C   UNL     1      34.592  27.229  13.235  1.00  0.00     0.006 C 
BRANCH  10  11
ATOM     11  C   UNL     1      33.911  28.277  12.338  1.00  0.00     0.053 C 
BRANCH  11  12
ATOM     12  C   UNL     1      32.927  29.125  13.083  1.00  0.00     0.041 C 
ATOM     13  O   UNL     1      32.206  28.620  13.985  1.00  0.00    -0.550 OA
ATOM     14  O   UNL     1      32.826  30.483  12.805  1.00  0.00    -0.550 OA
ENDBRANCH  11  12
ENDBRANCH  10  11
ENDBRANCH   9  10
ENDBRANCH   8   9
ENDBRANCH   1   8
TORSDOF 9
ENDMDL
MODEL 3
REMARK VINA RESULT:    -3.545      0.604      5.714
REMARK INTER + INTRA:          -6.014
REMARK INTER:                  -5.521
REMARK INTRA:                  -0.493
REMARK UNBOUND:                -0.604
REMARK SMILES O=C([O-])CCCCCCCCC(=O)[O-]
REMARK SMILES IDX 7 1 6 2 5 3 4 4 2 5 1 6 3 7 8 8 9 9 10 10 11 11 12 12 13 13
REMARK SMILES IDX 14 14
REMARK H PARENT
REMARK Flexibility Score: inf
ROOT
ATOM      1  C   UNL     1      35.436  27.099  14.733  1.00  0.00     0.000 C 
ENDROOT
BRANCH   1   2
ATOM      2  C   UNL     1      35.533  26.930  13.207  1.00  0.00     0.000 C 
BRANCH   2   3
ATOM      3  C   UNL     1      34.182  27.134  12.501  1.00  0.00     0.006 C 
BRANCH   3   4
ATOM      4  C   UNL     1      33.942  28.595  12.099  1.00  0.00     0.053 C 
BRANCH   4   5
ATOM      5  C   UNL     1      32.963  29.237  13.029  1.00  0.00     0.041 C 
ATOM      6  O   UNL     1      32.330  28.539  13.865  1.00  0.00    -0.550 OA
ATOM      7  O   UNL     1      32.712  30.601  12.940  1.00  0.00    -0.550 OA
ENDBRANCH   4   5
ENDBRANCH   3   4
ENDBRANCH   2   3
ENDBRANCH   1   2
BRANCH   1   8
ATOM      8  C   UNL     1      36.520  28.034  15.291  1.00  0.00     0.000 C 
BRANCH   8   9
ATOM      9  C   UNL     1      37.069  27.555  16.646  1.00  0.00     0.000 C 
BRANCH   9  10
ATOM     10  C   UNL     1      36.891  28.594  17.769  1.00  0.00     0.006 C 
BRANCH  10  11
ATOM     11  C   UNL     1      35.457  29.137  17.895  1.00  0.00     0.053 C 
BRANCH  11  12
ATOM     12  C   UNL     1      34.702  28.522  19.033  1.00  0.00     0.041 C 
ATOM     13  O   UNL     1      34.400  29.212  20.043  1.00  0.00    -0.550 OA
ATOM     14  O   UNL     1      34.303  27.193  18.967  1.00  0.00    -0.550 OA
ENDBRANCH  11  12
ENDBRANCH  10  11
ENDBRANCH   9  10
ENDBRANCH   8   9
ENDBRANCH   1   8
TORSDOF 9
ENDMDL
MODEL 4
REMARK VINA RESULT:    -3.462      1.485      6.605
REMARK INTER + INTRA:          -5.887
REMARK INTER:                  -5.422
REMARK INTRA:                  -0.465
REMARK UNBOUND:                -0.604
REMARK SMILES O=C([O-])CCCCCCCCC(=O)[O-]
REMARK SMILES IDX 7 1 6 2 5 3 4 4 2 5 1 6 3 7 8 8 9 9 10 10 11 11 12 12 13 13
REMARK SMILES IDX 14 14
REMARK H PARENT
REMARK Flexibility Score: inf
ROOT
ATOM      1  C   UNL     1      35.555  28.723  16.411  1.00  0.00     0.000 C 
ENDROOT
BRANCH   1   2
ATOM      2  C   UNL     1      35.928  27.933  15.144  1.00  0.00     0.000 C 
BRANCH   2   3
ATOM      3  C   UNL     1      34.852  26.908  14.748  1.00  0.00     0.006 C 
BRANCH   3   4
ATOM      4  C   UNL     1      34.481  26.989  13.262  1.00  0.00     0.053 C 
BRANCH   4   5
ATOM      5  C   UNL     1      33.754  28.265  12.976  1.00  0.00     0.041 C 
ATOM      6  O   UNL     1      34.137  29.017  12.042  1.00  0.00    -0.550 OA
ATOM      7  O   UNL     1      32.682  28.648  13.774  1.00  0.00    -0.550 OA
ENDBRANCH   4   5
ENDBRANCH   3   4
ENDBRANCH   2   3
ENDBRANCH   1   2
BRANCH   1   8
ATOM      8  C   UNL     1      36.777  29.039  17.288  1.00  0.00     0.000 C 
BRANCH   8   9
ATOM      9  C   UNL     1      36.440  29.039  18.789  1.00  0.00     0.000 C 
BRANCH   9  10
ATOM     10  C   UNL     1      34.976  28.663  19.078  1.00  0.00     0.006 C 
BRANCH  10  11
ATOM     11  C   UNL     1      34.411  29.295  20.363  1.00  0.00     0.053 C 
BRANCH  11  12
ATOM     12  C   UNL     1      35.349  29.183  21.524  1.00  0.00     0.041 C 
ATOM     13  O   UNL     1      35.940  30.204  21.965  1.00  0.00    -0.550 OA
ATOM     14  O   UNL     1      35.549  27.955  22.143  1.00  0.00    -0.550 OA
ENDBRANCH  11  12
ENDBRANCH  10  11
ENDBRANCH   9  10
ENDBRANCH   8   9
ENDBRANCH   1   8
TORSDOF 9
ENDMDL
MODEL 5
REMARK VINA RESULT:    -3.435      1.257      2.144
REMARK INTER + INTRA:          -5.846
REMARK INTER:                  -5.268
REMARK INTRA:                  -0.577
REMARK UNBOUND:                -0.604
REMARK SMILES O=C([O-])CCCCCCCCC(=O)[O-]
REMARK SMILES IDX 7 1 6 2 5 3 4 4 2 5 1 6 3 7 8 8 9 9 10 10 11 11 12 12 13 13
REMARK SMILES IDX 14 14
REMARK H PARENT
REMARK Flexibility Score: inf
ROOT
ATOM      1  C   UNL     1      36.318  29.114  17.520  1.00  0.00     0.000 C 
ENDROOT
BRANCH   1   2
ATOM      2  C   UNL     1      36.761  27.911  18.371  1.00  0.00     0.000 C 
BRANCH   2   3
ATOM      3  C   UNL     1      35.594  27.268  19.139  1.00  0.00     0.006 C 
BRANCH   3   4
ATOM      4  C   UNL     1      35.623  27.599  20.637  1.00  0.00     0.053 C 
BRANCH   4   5
ATOM      5  C   UNL     1      35.125  28.989  20.874  1.00  0.00     0.041 C 
ATOM      6  O   UNL     1      34.053  29.378  20.340  1.00  0.00    -0.550 OA
ATOM      7  O   UNL     1      35.870  29.872  21.645  1.00  0.00    -0.550 OA
ENDBRANCH   4   5
ENDBRANCH   3   4
ENDBRANCH   2   3
ENDBRANCH   1   2
BRANCH   1   8
ATOM      8  C   UNL     1      35.273  28.731  16.460  1.00  0.00     0.000 C 
BRANCH   8   9
ATOM      9  C   UNL     1      35.871  27.888  15.320  1.00  0.00     0.000 C 
BRANCH   9  10
ATOM     10  C   UNL     1      34.871  26.875  14.732  1.00  0.00     0.006 C 
BRANCH  10  11
ATOM     11  C   UNL     1      34.559  27.099  13.241  1.00  0.00     0.053 C 
BRANCH  11  12
ATOM     12  C   UNL     1      33.798  28.365  12.993  1.00  0.00     0.041 C 
ATOM     13  O   UNL     1      34.145  29.144  12.066  1.00  0.00    -0.550 OA
ATOM     14  O   UNL     1      32.684  28.671  13.765  1.00  0.00    -0.550 OA
ENDBRANCH  11  12
ENDBRANCH  10  11
ENDBRANCH   9  10
ENDBRANCH   8   9
ENDBRANCH   1   8
TORSDOF 9
ENDMDL
MODEL 6
REMARK VINA RESULT:    -3.293     16.976     17.965
REMARK INTER + INTRA:          -5.629
REMARK INTER:                  -5.433
REMARK INTRA:                  -0.195
REMARK UNBOUND:                -0.604
REMARK SMILES O=C([O-])CCCCCCCCC(=O)[O-]
REMARK SMILES IDX 7 1 6 2 5 3 4 4 2 5 1 6 3 7 8 8 9 9 10 10 11 11 12 12 13 13
REMARK SMILES IDX 14 14
REMARK H PARENT
REMARK Flexibility Score: inf
ROOT
ATOM      1  C   UNL     1      36.190  45.574  21.084  1.00  0.00     0.000 C 
ENDROOT
BRANCH   1   2
ATOM      2  C   UNL     1      35.974  46.658  22.154  1.00  0.00     0.000 C 
BRANCH   2   3
ATOM      3  C   UNL     1      36.514  46.244  23.533  1.00  0.00     0.006 C 
BRANCH   3   4
ATOM      4  C   UNL     1      37.125  44.837  23.527  1.00  0.00     0.053 C 
BRANCH   4   5
ATOM      5  C   UNL     1      36.507  43.996  24.600  1.00  0.00     0.041 C 
ATOM      6  O   UNL     1      37.125  43.001  25.060  1.00  0.00    -0.550 OA
ATOM      7  O   UNL     1      35.227  44.285  25.057  1.00  0.00    -0.550 OA
ENDBRANCH   4   5
ENDBRANCH   3   4
ENDBRANCH   2   3
ENDBRANCH   1   2
BRANCH   1   8
ATOM      8  C   UNL     1      34.879  44.886  20.672  1.00  0.00     0.000 C 
BRANCH   8   9
ATOM      9  C   UNL     1      33.894  44.741  21.845  1.00  0.00     0.000 C 
BRANCH   9  10
ATOM     10  C   UNL     1      32.606  45.562  21.655  1.00  0.00     0.006 C 
BRANCH  10  11
ATOM     11  C   UNL     1      31.340  44.871  22.192  1.00  0.00     0.053 C 
BRANCH  11  12
ATOM     12  C   UNL     1      31.630  43.550  22.835  1.00  0.00     0.041 C 
ATOM     13  O   UNL     1      32.214  43.500  23.951  1.00  0.00    -0.550 OA
ATOM     14  O   UNL     1      31.229  42.371  22.219  1.00  0.00    -0.550 OA
ENDBRANCH  11  12
ENDBRANCH  10  11
ENDBRANCH   9  10
ENDBRANCH   8   9
ENDBRANCH   1   8
TORSDOF 9
ENDMDL
MODEL 7
REMARK VINA RESULT:    -3.071     16.057     17.054
REMARK INTER + INTRA:          -5.290
REMARK INTER:                  -5.084
REMARK INTRA:                  -0.206
REMARK UNBOUND:                -0.604
REMARK SMILES O=C([O-])CCCCCCCCC(=O)[O-]
REMARK SMILES IDX 7 1 6 2 5 3 4 4 2 5 1 6 3 7 8 8 9 9 10 10 11 11 12 12 13 13
REMARK SMILES IDX 14 14
REMARK H PARENT
REMARK Flexibility Score: inf
ROOT
ATOM      1  C   UNL     1      35.260  45.528  20.957  1.00  0.00     0.000 C 
ENDROOT
BRANCH   1   2
ATOM      2  C   UNL     1      34.086  45.177  21.888  1.00  0.00     0.000 C 
BRANCH   2   3
ATOM      3  C   UNL     1      32.759  45.008  21.128  1.00  0.00     0.006 C 
BRANCH   3   4
ATOM      4  C   UNL     1      31.559  44.843  22.070  1.00  0.00     0.053 C 
BRANCH   4   5
ATOM      5  C   UNL     1      31.665  43.557  22.827  1.00  0.00     0.041 C 
ATOM      6  O   UNL     1      32.289  43.514  23.921  1.00  0.00    -0.550 OA
ATOM      7  O   UNL     1      31.117  42.394  22.301  1.00  0.00    -0.550 OA
ENDBRANCH   4   5
ENDBRANCH   3   4
ENDBRANCH   2   3
ENDBRANCH   1   2
BRANCH   1   8
ATOM      8  C   UNL     1      36.503  44.666  21.229  1.00  0.00     0.000 C 
BRANCH   8   9
ATOM      9  C   UNL     1      37.084  44.049  19.946  1.00  0.00     0.000 C 
BRANCH   9  10
ATOM     10  C   UNL     1      36.799  44.891  18.689  1.00  0.00     0.006 C 
BRANCH  10  11
ATOM     11  C   UNL     1      37.125  44.172  17.368  1.00  0.00     0.053 C 
BRANCH  11  12
ATOM     12  C   UNL     1      36.493  44.830  16.180  1.00  0.00     0.041 C 
ATOM     13  O   UNL     1      37.100  45.743  15.560  1.00  0.00    -0.550 OA
ATOM     14  O   UNL     1      35.245  44.413  15.735  1.00  0.00    -0.550 OA
ENDBRANCH  11  12
ENDBRANCH  10  11
ENDBRANCH   9  10
ENDBRANCH   8   9
ENDBRANCH   1   8
TORSDOF 9
ENDMDL
MODEL 8
REMARK VINA RESULT:    -3.055     17.330     18.459
REMARK INTER + INTRA:          -5.266
REMARK INTER:                  -4.721
REMARK INTRA:                  -0.544
REMARK UNBOUND:                -0.604
REMARK SMILES O=C([O-])CCCCCCCCC(=O)[O-]
REMARK SMILES IDX 7 1 6 2 5 3 4 4 2 5 1 6 3 7 8 8 9 9 10 10 11 11 12 12 13 13
REMARK SMILES IDX 14 14
REMARK H PARENT
REMARK Flexibility Score: inf
ROOT
ATOM      1  C   UNL     1      33.696  43.402  25.125  1.00  0.00     0.000 C 
ENDROOT
BRANCH   1   2
ATOM      2  C   UNL     1      32.246  43.397  24.612  1.00  0.00     0.000 C 
BRANCH   2   3
ATOM      3  C   UNL     1      32.160  43.425  23.077  1.00  0.00     0.006 C 
BRANCH   3   4
ATOM      4  C   UNL     1      31.105  44.415  22.565  1.00  0.00     0.053 C 
BRANCH   4   5
ATOM      5  C   UNL     1      31.761  45.541  21.831  1.00  0.00     0.041 C 
ATOM      6  O   UNL     1      32.954  45.436  21.442  1.00  0.00    -0.550 OA
ATOM      7  O   UNL     1      31.069  46.728  21.618  1.00  0.00    -0.550 OA
ENDBRANCH   4   5
ENDBRANCH   3   4
ENDBRANCH   2   3
ENDBRANCH   1   2
BRANCH   1   8
ATOM      8  C   UNL     1      34.652  44.142  24.176  1.00  0.00     0.000 C 
BRANCH   8   9
ATOM      9  C   UNL     1      35.931  44.622  24.884  1.00  0.00     0.000 C 
BRANCH   9  10
ATOM     10  C   UNL     1      37.034  45.061  23.903  1.00  0.00     0.006 C 
BRANCH  10  11
ATOM     11  C   UNL     1      37.070  44.246  22.598  1.00  0.00     0.053 C 
BRANCH  11  12
ATOM     12  C   UNL     1      36.729  45.067  21.393  1.00  0.00     0.041 C 
ATOM     13  O   UNL     1      36.687  44.535  20.252  1.00  0.00    -0.550 OA
ATOM     14  O   UNL     1      36.425  46.416  21.532  1.00  0.00    -0.550 OA
ENDBRANCH  11  12
ENDBRANCH  10  11
ENDBRANCH   9  10
ENDBRANCH   8   9
ENDBRANCH   1   8
TORSDOF 9
ENDMDL
