MODEL 1
REMARK VINA RESULT:    -4.475      0.000      0.000
REMARK INTER + INTRA:          -4.475
REMARK INTER:                  -4.475
REMARK INTRA:                   0.000
REMARK UNBOUND:                 0.000
REMARK SMILES CC1=CC=CC(C)(C)[C@H]1C
REMARK SMILES IDX 10 1 9 2 2 3 3 4 4 5 5 6 6 7 7 8 8 9 1 10
REMARK H PARENT
REMARK Flexibility Score: inf
ROOT
ATOM      1  C   UNL     1       4.781   8.246  11.695  1.00  0.00     0.013 C 
ATOM      2  C   UNL     1       5.459   7.308  12.716  1.00  0.00     0.021 C 
ATOM      3  C   UNL     1       4.968   5.862  12.592  1.00  0.00    -0.070 C 
ATOM      4  C   UNL     1       5.685   4.877  13.157  1.00  0.00    -0.001 C 
ATOM      5  C   UNL     1       6.992   5.144  13.776  1.00  0.00    -0.004 C 
ATOM      6  C   UNL     1       7.604   6.317  13.608  1.00  0.00    -0.020 C 
ATOM      7  C   UNL     1       7.033   7.384  12.690  1.00  0.00    -0.011 C 
ATOM      8  C   UNL     1       7.527   8.758  13.195  1.00  0.00     0.016 C 
ATOM      9  C   UNL     1       7.593   7.137  11.271  1.00  0.00     0.016 C 
ATOM     10  C   UNL     1       3.619   5.540  11.999  1.00  0.00     0.040 C 
ENDROOT
TORSDOF 0
ENDMDL
MODEL 2
REMARK VINA RESULT:    -4.085      1.119      2.890
REMARK INTER + INTRA:          -4.085
REMARK INTER:                  -4.085
REMARK INTRA:                   0.000
REMARK UNBOUND:                 0.000
REMARK SMILES CC1=CC=CC(C)(C)[C@H]1C
REMARK SMILES IDX 10 1 9 2 2 3 3 4 4 5 5 6 6 7 7 8 8 9 1 10
REMARK H PARENT
REMARK Flexibility Score: inf
ROOT
ATOM      1  C   UNL     1       7.569   7.906  13.627  1.00  0.00     0.013 C 
ATOM      2  C   UNL     1       6.255   7.110  13.472  1.00  0.00     0.021 C 
ATOM      3  C   UNL     1       5.399   7.621  12.310  1.00  0.00    -0.070 C 
ATOM      4  C   UNL     1       4.413   6.845  11.833  1.00  0.00    -0.001 C 
ATOM      5  C   UNL     1       4.225   5.468  12.314  1.00  0.00    -0.004 C 
ATOM      6  C   UNL     1       5.148   4.875  13.073  1.00  0.00    -0.020 C 
ATOM      7  C   UNL     1       6.473   5.552  13.383  1.00  0.00    -0.011 C 
ATOM      8  C   UNL     1       6.989   4.989  14.726  1.00  0.00     0.016 C 
ATOM      9  C   UNL     1       7.468   5.177  12.263  1.00  0.00     0.016 C 
ATOM     10  C   UNL     1       5.529   9.038  11.804  1.00  0.00     0.040 C 
ENDROOT
TORSDOF 0
ENDMDL
MODEL 3
REMARK VINA RESULT:    -3.964      1.263      2.852
REMARK INTER + INTRA:          -3.964
REMARK INTER:                  -3.964
REMARK INTRA:                   0.000
REMARK UNBOUND:                 0.000
REMARK SMILES CC1=CC=CC(C)(C)[C@H]1C
REMARK SMILES IDX 10 1 9 2 2 3 3 4 4 5 5 6 6 7 7 8 8 9 1 10
REMARK H PARENT
REMARK Flexibility Score: inf
ROOT
ATOM      1  C   UNL     1       4.164   7.178  13.277  1.00  0.00     0.013 C 
ATOM      2  C   UNL     1       5.395   6.785  12.433  1.00  0.00     0.021 C 
ATOM      3  C   UNL     1       5.846   7.914  11.501  1.00  0.00    -0.070 C 
ATOM      4  C   UNL     1       7.074   7.866  10.961  1.00  0.00    -0.001 C 
ATOM      5  C   UNL     1       8.038   6.825  11.349  1.00  0.00    -0.004 C 
ATOM      6  C   UNL     1       7.806   6.032  12.396  1.00  0.00    -0.020 C 
ATOM      7  C   UNL     1       6.597   6.237  13.293  1.00  0.00    -0.011 C 
ATOM      8  C   UNL     1       6.243   4.875  13.930  1.00  0.00     0.016 C 
ATOM      9  C   UNL     1       6.998   7.227  14.409  1.00  0.00     0.016 C 
ATOM     10  C   UNL     1       4.885   8.985  11.045  1.00  0.00     0.040 C 
ENDROOT
TORSDOF 0
ENDMDL
MODEL 4
REMARK VINA RESULT:    -3.374      1.143      3.069
REMARK INTER + INTRA:          -3.374
REMARK INTER:                  -3.374
REMARK INTRA:                   0.000
REMARK UNBOUND:                 0.000
REMARK SMILES CC1=CC=CC(C)(C)[C@H]1C
REMARK SMILES IDX 10 1 9 2 2 3 3 4 4 5 5 6 6 7 7 8 8 9 1 10
REMARK H PARENT
REMARK Flexibility Score: inf
ROOT
ATOM      1  C   UNL     1       4.810   5.134  12.615  1.00  0.00     0.013 C 
ATOM      2  C   UNL     1       5.658   6.322  13.118  1.00  0.00     0.021 C 
ATOM      3  C   UNL     1       7.125   6.211  12.692  1.00  0.00    -0.070 C 
ATOM      4  C   UNL     1       7.907   7.301  12.751  1.00  0.00    -0.001 C 
ATOM      5  C   UNL     1       7.353   8.620  13.088  1.00  0.00    -0.004 C 
ATOM      6  C   UNL     1       6.035   8.819  13.134  1.00  0.00    -0.020 C 
ATOM      7  C   UNL     1       5.055   7.727  12.739  1.00  0.00    -0.011 C 
ATOM      8  C   UNL     1       3.732   7.982  13.496  1.00  0.00     0.016 C 
ATOM      9  C   UNL     1       4.799   7.849  11.220  1.00  0.00     0.016 C 
ATOM     10  C   UNL     1       7.749   4.875  12.371  1.00  0.00     0.040 C 
ENDROOT
TORSDOF 0
ENDMDL
MODEL 5
REMARK VINA RESULT:    -2.515      1.149      3.730
REMARK INTER + INTRA:          -2.515
REMARK INTER:                  -2.515
REMARK INTRA:                   0.000
REMARK UNBOUND:                 0.000
REMARK SMILES CC1=CC=CC(C)(C)[C@H]1C
REMARK SMILES IDX 10 1 9 2 2 3 3 4 4 5 5 6 6 7 7 8 8 9 1 10
REMARK H PARENT
REMARK Flexibility Score: inf
ROOT
ATOM      1  C   UNL     1       6.561   6.084  14.278  1.00  0.00     0.013 C 
ATOM      2  C   UNL     1       6.172   7.227  13.316  1.00  0.00     0.021 C 
ATOM      3  C   UNL     1       7.107   7.313  12.106  1.00  0.00    -0.070 C 
ATOM      4  C   UNL     1       6.718   8.011  11.027  1.00  0.00    -0.001 C 
ATOM      5  C   UNL     1       5.366   8.583  10.935  1.00  0.00    -0.004 C 
ATOM      6  C   UNL     1       4.419   8.247  11.811  1.00  0.00    -0.020 C 
ATOM      7  C   UNL     1       4.661   7.187  12.873  1.00  0.00    -0.011 C 
ATOM      8  C   UNL     1       3.727   7.489  14.066  1.00  0.00     0.016 C 
ATOM      9  C   UNL     1       4.279   5.817  12.268  1.00  0.00     0.016 C 
ATOM     10  C   UNL     1       8.516   6.774  12.164  1.00  0.00     0.040 C 
ENDROOT
TORSDOF 0
ENDMDL
MODEL 6
REMARK VINA RESULT:    -2.322      0.786      3.161
REMARK INTER + INTRA:          -2.322
REMARK INTER:                  -2.322
REMARK INTRA:                   0.000
REMARK UNBOUND:                 0.000
REMARK SMILES CC1=CC=CC(C)(C)[C@H]1C
REMARK SMILES IDX 10 1 9 2 2 3 3 4 4 5 5 6 6 7 7 8 8 9 1 10
REMARK H PARENT
REMARK Flexibility Score: inf
ROOT
ATOM      1  C   UNL     1       5.494   8.692  11.616  1.00  0.00     0.013 C 
ATOM      2  C   UNL     1       6.002   7.313  12.088  1.00  0.00     0.021 C 
ATOM      3  C   UNL     1       7.145   7.430  13.101  1.00  0.00    -0.070 C 
ATOM      4  C   UNL     1       7.464   6.363  13.852  1.00  0.00    -0.001 C 
ATOM      5  C   UNL     1       6.658   5.134  13.814  1.00  0.00    -0.004 C 
ATOM      6  C   UNL     1       5.472   5.111  13.206  1.00  0.00    -0.020 C 
ATOM      7  C   UNL     1       4.856   6.371  12.621  1.00  0.00    -0.011 C 
ATOM      8  C   UNL     1       3.911   5.949  11.474  1.00  0.00     0.016 C 
ATOM      9  C   UNL     1       4.027   7.052  13.733  1.00  0.00     0.016 C 
ATOM     10  C   UNL     1       8.024   8.655  13.154  1.00  0.00     0.040 C 
ENDROOT
TORSDOF 0
ENDMDL
