MODEL 1
REMARK VINA RESULT:    18.148      0.000      0.000
REMARK INTER + INTRA:          18.679
REMARK INTER:                  18.679
REMARK INTRA:                   0.000
REMARK UNBOUND:                 0.000
REMARK SMILES C=C1[C@@H](O)C[C@@]23C[C@@H]1C(C)(C)[C@H]2CC[C@H]3C
REMARK SMILES IDX 16 1 15 2 14 3 13 4 12 5 6 6 7 7 8 8 9 9 10 10 11 11 2 12
REMARK SMILES IDX 1 13 3 14 5 15 4 16
REMARK H PARENT 4 17
REMARK Flexibility Score: inf
ROOT
ATOM      1  C   UNL     1     -33.402  24.149   6.625  1.00  0.00     0.008 C 
ATOM      2  C   UNL     1     -34.611  23.579   7.381  1.00  0.00    -0.008 C 
ATOM      3  C   UNL     1     -34.313  22.224   8.092  1.00  0.00     0.004 C 
ATOM      4  C   UNL     1     -35.644  21.426   8.111  1.00  0.00     0.005 C 
ATOM      5  C   UNL     1     -36.635  22.451   7.590  1.00  0.00     0.002 C 
ATOM      6  C   UNL     1     -35.872  23.263   6.549  1.00  0.00    -0.020 C 
ATOM      7  C   UNL     1     -36.927  24.319   6.254  1.00  0.00     0.016 C 
ATOM      8  C   UNL     1     -38.148  23.398   5.974  1.00  0.00     0.023 C 
ATOM      9  C   UNL     1     -38.053  22.222   7.027  1.00  0.00    -0.025 C 
ATOM     10  C   UNL     1     -38.236  20.788   6.469  1.00  0.00     0.012 C 
ATOM     11  C   UNL     1     -39.123  22.432   8.125  1.00  0.00     0.012 C 
ATOM     12  C   UNL     1     -37.989  22.888   4.560  1.00  0.00    -0.045 C 
ATOM     13  C   UNL     1     -39.061  22.709   3.772  1.00  0.00     0.011 C 
ATOM     14  C   UNL     1     -36.600  22.526   4.066  1.00  0.00     0.140 C 
ATOM     15  C   UNL     1     -35.536  22.471   5.209  1.00  0.00     0.044 C 
ENDROOT
BRANCH  14  16
ATOM     16  O   UNL     1     -36.198  23.471   3.105  1.00  0.00    -0.389 OA
ATOM     17  H   UNL     1     -36.972  24.072   2.943  1.00  0.00     0.211 HD
ENDBRANCH  14  16
TORSDOF 1
ENDMDL
