MODEL 1
REMARK VINA RESULT:    -3.414      0.000      0.000
REMARK INTER + INTRA:          -3.841
REMARK INTER:                  -3.813
REMARK INTRA:                  -0.028
REMARK UNBOUND:                -0.028
REMARK SMILES CC(C)CC=O
REMARK SMILES IDX 4 1 2 2 1 3 3 4 5 5 6 6
REMARK H PARENT
REMARK Flexibility Score: inf
ROOT
ATOM      1  C   UNL     1      24.349  57.044  -8.373  1.00  0.00     0.075 C 
ENDROOT
BRANCH   1   2
ATOM      2  C   UNL     1      24.370  55.522  -8.114  1.00  0.00    -0.010 C 
ATOM      3  C   UNL     1      25.685  55.082  -7.456  1.00  0.00     0.008 C 
ATOM      4  C   UNL     1      23.181  55.119  -7.234  1.00  0.00     0.008 C 
ENDBRANCH   1   2
BRANCH   1   5
ATOM      5  C   UNL     1      25.706  57.573  -8.737  1.00  0.00     0.224 C 
ATOM      6  O   UNL     1      25.930  58.772  -8.711  1.00  0.00    -0.303 OA
ENDBRANCH   1   5
TORSDOF 2
ENDMDL
MODEL 2
REMARK VINA RESULT:    -3.117     15.528     16.855
REMARK INTER + INTRA:          -3.509
REMARK INTER:                  -3.466
REMARK INTRA:                  -0.043
REMARK UNBOUND:                -0.028
REMARK SMILES CC(C)CC=O
REMARK SMILES IDX 4 1 2 2 1 3 3 4 5 5 6 6
REMARK H PARENT
REMARK Flexibility Score: inf
ROOT
ATOM      1  C   UNL     1      19.748  43.368   1.812  1.00  0.00     0.075 C 
ENDROOT
BRANCH   1   2
ATOM      2  C   UNL     1      18.879  43.974   0.690  1.00  0.00    -0.010 C 
ATOM      3  C   UNL     1      17.426  44.170   1.148  1.00  0.00     0.008 C 
ATOM      4  C   UNL     1      19.469  45.311   0.228  1.00  0.00     0.008 C 
ENDBRANCH   1   2
BRANCH   1   5
ATOM      5  C   UNL     1      21.047  42.826   1.290  1.00  0.00     0.224 C 
ATOM      6  O   UNL     1      21.061  42.060   0.340  1.00  0.00    -0.303 OA
ENDBRANCH   1   5
TORSDOF 2
ENDMDL
MODEL 3
REMARK VINA RESULT:    -3.051     16.918     17.584
REMARK INTER + INTRA:          -3.435
REMARK INTER:                  -3.371
REMARK INTRA:                  -0.064
REMARK UNBOUND:                -0.028
REMARK SMILES CC(C)CC=O
REMARK SMILES IDX 4 1 2 2 1 3 3 4 5 5 6 6
REMARK H PARENT
REMARK Flexibility Score: inf
ROOT
ATOM      1  C   UNL     1      14.819  42.182 -13.356  1.00  0.00     0.075 C 
ENDROOT
BRANCH   1   2
ATOM      2  C   UNL     1      14.728  43.461 -14.214  1.00  0.00    -0.010 C 
ATOM      3  C   UNL     1      14.338  44.681 -13.367  1.00  0.00     0.008 C 
ATOM      4  C   UNL     1      16.064  43.719 -14.921  1.00  0.00     0.008 C 
ENDBRANCH   1   2
BRANCH   1   5
ATOM      5  C   UNL     1      16.212  41.940 -12.849  1.00  0.00     0.224 C 
ATOM      6  O   UNL     1      16.455  41.995 -11.655  1.00  0.00    -0.303 OA
ENDBRANCH   1   5
TORSDOF 2
ENDMDL
MODEL 4
REMARK VINA RESULT:    -3.015     15.837     17.148
REMARK INTER + INTRA:          -3.395
REMARK INTER:                  -3.363
REMARK INTRA:                  -0.032
REMARK UNBOUND:                -0.028
REMARK SMILES CC(C)CC=O
REMARK SMILES IDX 4 1 2 2 1 3 3 4 5 5 6 6
REMARK H PARENT
REMARK Flexibility Score: inf
ROOT
ATOM      1  C   UNL     1      19.895  42.650   0.608  1.00  0.00     0.075 C 
ENDROOT
BRANCH   1   2
ATOM      2  C   UNL     1      19.929  44.043   1.272  1.00  0.00    -0.010 C 
ATOM      3  C   UNL     1      19.470  45.140   0.300  1.00  0.00     0.008 C 
ATOM      4  C   UNL     1      19.048  44.052   2.527  1.00  0.00     0.008 C 
ENDBRANCH   1   2
BRANCH   1   5
ATOM      5  C   UNL     1      18.509  42.261   0.183  1.00  0.00     0.224 C 
ATOM      6  O   UNL     1      18.340  41.510  -0.764  1.00  0.00    -0.303 OA
ENDBRANCH   1   5
TORSDOF 2
ENDMDL
MODEL 5
REMARK VINA RESULT:    -2.979     15.801     17.033
REMARK INTER + INTRA:          -3.355
REMARK INTER:                  -3.317
REMARK INTRA:                  -0.038
REMARK UNBOUND:                -0.028
REMARK SMILES CC(C)CC=O
REMARK SMILES IDX 4 1 2 2 1 3 3 4 5 5 6 6
REMARK H PARENT
REMARK Flexibility Score: inf
ROOT
ATOM      1  C   UNL     1      18.425  43.760   2.146  1.00  0.00     0.075 C 
ENDROOT
BRANCH   1   2
ATOM      2  C   UNL     1      19.769  44.227   1.546  1.00  0.00    -0.010 C 
ATOM      3  C   UNL     1      20.674  43.036   1.200  1.00  0.00     0.008 C 
ATOM      4  C   UNL     1      19.521  45.079   0.296  1.00  0.00     0.008 C 
ENDBRANCH   1   2
BRANCH   1   5
ATOM      5  C   UNL     1      17.259  44.130   1.275  1.00  0.00     0.224 C 
ATOM      6  O   UNL     1      16.208  44.500   1.772  1.00  0.00    -0.303 OA
ENDBRANCH   1   5
TORSDOF 2
ENDMDL
MODEL 6
REMARK VINA RESULT:    -2.974     15.347     16.268
REMARK INTER + INTRA:          -3.349
REMARK INTER:                  -3.316
REMARK INTRA:                  -0.033
REMARK UNBOUND:                -0.028
REMARK SMILES CC(C)CC=O
REMARK SMILES IDX 4 1 2 2 1 3 3 4 5 5 6 6
REMARK H PARENT
REMARK Flexibility Score: inf
ROOT
ATOM      1  C   UNL     1      19.403  45.041   0.299  1.00  0.00     0.075 C 
ENDROOT
BRANCH   1   2
ATOM      2  C   UNL     1      19.993  44.236   1.476  1.00  0.00    -0.010 C 
ATOM      3  C   UNL     1      18.939  43.972   2.561  1.00  0.00     0.008 C 
ATOM      4  C   UNL     1      20.571  42.909   0.972  1.00  0.00     0.008 C 
ENDBRANCH   1   2
BRANCH   1   5
ATOM      5  C   UNL     1      17.902  44.989   0.276  1.00  0.00     0.224 C 
ATOM      6  O   UNL     1      17.262  45.852  -0.303  1.00  0.00    -0.303 OA
ENDBRANCH   1   5
TORSDOF 2
ENDMDL
MODEL 7
REMARK VINA RESULT:    -2.901     16.219     17.438
REMARK INTER + INTRA:          -3.267
REMARK INTER:                  -3.205
REMARK INTRA:                  -0.062
REMARK UNBOUND:                -0.028
REMARK SMILES CC(C)CC=O
REMARK SMILES IDX 4 1 2 2 1 3 3 4 5 5 6 6
REMARK H PARENT
REMARK Flexibility Score: inf
ROOT
ATOM      1  C   UNL     1      18.602  42.679   1.681  1.00  0.00     0.075 C 
ENDROOT
BRANCH   1   2
ATOM      2  C   UNL     1      19.871  43.552   1.575  1.00  0.00    -0.010 C 
ATOM      3  C   UNL     1      21.082  42.729   1.111  1.00  0.00     0.008 C 
ATOM      4  C   UNL     1      19.630  44.720   0.611  1.00  0.00     0.008 C 
ENDBRANCH   1   2
BRANCH   1   5
ATOM      5  C   UNL     1      17.908  42.529   0.358  1.00  0.00     0.224 C 
ATOM      6  O   UNL     1      18.125  41.557  -0.348  1.00  0.00    -0.303 OA
ENDBRANCH   1   5
TORSDOF 2
ENDMDL
MODEL 8
REMARK VINA RESULT:    -2.754      2.366      3.276
REMARK INTER + INTRA:          -3.103
REMARK INTER:                  -3.132
REMARK INTRA:                   0.029
REMARK UNBOUND:                -0.028
REMARK SMILES CC(C)CC=O
REMARK SMILES IDX 4 1 2 2 1 3 3 4 5 5 6 6
REMARK H PARENT
REMARK Flexibility Score: inf
ROOT
ATOM      1  C   UNL     1      23.524  56.053  -8.014  1.00  0.00     0.075 C 
ENDROOT
BRANCH   1   2
ATOM      2  C   UNL     1      25.004  56.106  -8.449  1.00  0.00    -0.010 C 
ATOM      3  C   UNL     1      25.524  57.550  -8.499  1.00  0.00     0.008 C 
ATOM      4  C   UNL     1      25.864  55.271  -7.494  1.00  0.00     0.008 C 
ENDBRANCH   1   2
BRANCH   1   5
ATOM      5  C   UNL     1      23.218  54.831  -7.198  1.00  0.00     0.224 C 
ATOM      6  O   UNL     1      22.891  54.935  -6.027  1.00  0.00    -0.303 OA
ENDBRANCH   1   5
TORSDOF 2
ENDMDL
MODEL 9
REMARK VINA RESULT:    -2.698      7.208      8.057
REMARK INTER + INTRA:          -3.041
REMARK INTER:                  -3.036
REMARK INTRA:                  -0.006
REMARK UNBOUND:                -0.028
REMARK SMILES CC(C)CC=O
REMARK SMILES IDX 4 1 2 2 1 3 3 4 5 5 6 6
REMARK H PARENT
REMARK Flexibility Score: inf
ROOT
ATOM      1  C   UNL     1      30.727  58.538 -12.636  1.00  0.00     0.075 C 
ENDROOT
BRANCH   1   2
ATOM      2  C   UNL     1      31.539  57.231 -12.762  1.00  0.00    -0.010 C 
ATOM      3  C   UNL     1      30.687  56.095 -13.347  1.00  0.00     0.008 C 
ATOM      4  C   UNL     1      32.778  57.461 -13.635  1.00  0.00     0.008 C 
ENDBRANCH   1   2
BRANCH   1   5
ATOM      5  C   UNL     1      30.711  59.058 -11.228  1.00  0.00     0.224 C 
ATOM      6  O   UNL     1      29.743  59.669 -10.805  1.00  0.00    -0.303 OA
ENDBRANCH   1   5
TORSDOF 2
ENDMDL
