MODEL 1
REMARK VINA RESULT:     7.249      0.000      0.000
REMARK INTER + INTRA:           8.082
REMARK INTER:                   8.096
REMARK INTRA:                  -0.014
REMARK UNBOUND:                -0.014
REMARK SMILES O=C([O-])c1ccccc1C(=O)[O-]
REMARK SMILES IDX 4 1 9 2 5 3 8 4 6 5 7 6 2 7 1 8 3 9 10 10 11 11 12 12
REMARK H PARENT
REMARK Flexibility Score: inf
ROOT
ATOM      1  C   UNL     1     -20.966  -5.038  17.142  1.00  0.00     0.006 A 
ATOM      2  C   UNL     1     -19.899  -5.828  17.653  1.00  0.00     0.006 A 
ATOM      3  C   UNL     1     -22.293  -5.430  17.401  1.00  0.00     0.010 A 
ATOM      4  C   UNL     1     -20.197  -6.942  18.459  1.00  0.00     0.010 A 
ATOM      5  C   UNL     1     -22.565  -6.552  18.184  1.00  0.00     0.001 A 
ATOM      6  C   UNL     1     -21.520  -7.299  18.721  1.00  0.00     0.001 A 
ENDROOT
BRANCH   1   7
ATOM      7  C   UNL     1     -20.743  -3.773  16.404  1.00  0.00     0.072 C 
ATOM      8  O   UNL     1     -21.379  -3.538  15.342  1.00  0.00    -0.545 OA
ATOM      9  O   UNL     1     -19.885  -2.802  16.905  1.00  0.00    -0.545 OA
ENDBRANCH   1   7
BRANCH   2  10
ATOM     10  C   UNL     1     -18.477  -5.575  17.320  1.00  0.00     0.072 C 
ATOM     11  O   UNL     1     -17.985  -5.990  16.239  1.00  0.00    -0.545 OA
ATOM     12  O   UNL     1     -17.653  -4.930  18.234  1.00  0.00    -0.545 OA
ENDBRANCH   2  10
TORSDOF 2
ENDMDL
MODEL 2
REMARK VINA RESULT:     7.321      0.077      3.152
REMARK INTER + INTRA:           8.163
REMARK INTER:                   8.091
REMARK INTRA:                   0.073
REMARK UNBOUND:                -0.014
REMARK SMILES O=C([O-])c1ccccc1C(=O)[O-]
REMARK SMILES IDX 4 1 9 2 5 3 8 4 6 5 7 6 2 7 1 8 3 9 10 10 11 11 12 12
REMARK H PARENT
REMARK Flexibility Score: inf
ROOT
ATOM      1  C   UNL     1     -19.885  -5.811  17.681  1.00  0.00     0.006 A 
ATOM      2  C   UNL     1     -20.952  -5.037  17.146  1.00  0.00     0.006 A 
ATOM      3  C   UNL     1     -20.186  -6.930  18.482  1.00  0.00     0.010 A 
ATOM      4  C   UNL     1     -22.278  -5.448  17.375  1.00  0.00     0.010 A 
ATOM      5  C   UNL     1     -21.510  -7.304  18.715  1.00  0.00     0.001 A 
ATOM      6  C   UNL     1     -22.553  -6.573  18.153  1.00  0.00     0.001 A 
ENDROOT
BRANCH   1   7
ATOM      7  C   UNL     1     -18.462  -5.535  17.375  1.00  0.00     0.072 C 
ATOM      8  O   UNL     1     -17.751  -4.894  18.193  1.00  0.00    -0.545 OA
ATOM      9  O   UNL     1     -17.878  -6.034  16.217  1.00  0.00    -0.545 OA
ENDBRANCH   1   7
BRANCH   2  10
ATOM     10  C   UNL     1     -20.736  -3.770  16.408  1.00  0.00     0.072 C 
ATOM     11  O   UNL     1     -19.932  -2.903  16.839  1.00  0.00    -0.545 OA
ATOM     12  O   UNL     1     -21.475  -3.497  15.262  1.00  0.00    -0.545 OA
ENDBRANCH   2  10
TORSDOF 2
ENDMDL
MODEL 3
REMARK VINA RESULT:     9.015      2.725      3.627
REMARK INTER + INTRA:          10.055
REMARK INTER:                  10.158
REMARK INTRA:                  -0.103
REMARK UNBOUND:                -0.014
REMARK SMILES O=C([O-])c1ccccc1C(=O)[O-]
REMARK SMILES IDX 4 1 9 2 5 3 8 4 6 5 7 6 2 7 1 8 3 9 10 10 11 11 12 12
REMARK H PARENT
REMARK Flexibility Score: inf
ROOT
ATOM      1  C   UNL     1     -21.833  -7.346  17.554  1.00  0.00     0.006 A 
ATOM      2  C   UNL     1     -21.254  -6.725  16.412  1.00  0.00     0.006 A 
ATOM      3  C   UNL     1     -22.561  -8.540  17.388  1.00  0.00     0.010 A 
ATOM      4  C   UNL     1     -21.368  -7.353  15.159  1.00  0.00     0.010 A 
ATOM      5  C   UNL     1     -22.680  -9.133  16.131  1.00  0.00     0.001 A 
ATOM      6  C   UNL     1     -22.075  -8.548  15.021  1.00  0.00     0.001 A 
ENDROOT
BRANCH   1   7
ATOM      7  C   UNL     1     -21.643  -6.830  18.929  1.00  0.00     0.072 C 
ATOM      8  O   UNL     1     -20.524  -6.937  19.498  1.00  0.00    -0.545 OA
ATOM      9  O   UNL     1     -22.672  -6.165  19.585  1.00  0.00    -0.545 OA
ENDBRANCH   1   7
BRANCH   2  10
ATOM     10  C   UNL     1     -20.589  -5.401  16.466  1.00  0.00     0.072 C 
ATOM     11  O   UNL     1     -19.418  -5.286  16.913  1.00  0.00    -0.545 OA
ATOM     12  O   UNL     1     -21.281  -4.258  16.083  1.00  0.00    -0.545 OA
ENDBRANCH   2  10
TORSDOF 2
ENDMDL
