MODEL 1
REMARK VINA RESULT:    -6.088      0.000      0.000
REMARK INTER + INTRA:          -7.802
REMARK INTER:                  -7.511
REMARK INTRA:                  -0.290
REMARK UNBOUND:                -0.290
REMARK SMILES O=c1c(O)c(-c2cc(O)c(O)c(O)c2)oc2cc(O)cc(O)c12
REMARK SMILES IDX 5 1 3 2 2 3 1 4 23 5 21 6 20 7 18 8 17 9 16 10 15 11 6 12
REMARK SMILES IDX 7 13 8 14 14 15 10 16 12 17 9 18 11 20 13 22 4 24 22 26
REMARK SMILES IDX 19 28
REMARK H PARENT 9 19 11 21 13 23 4 25 22 27 19 29
REMARK Flexibility Score: inf
ROOT
ATOM      1  C   UNL     1     134.732 102.088  94.097  1.00  0.00     0.180 A 
ATOM      2  C   UNL     1     135.650 103.149  94.023  1.00  0.00     0.208 A 
ATOM      3  C   UNL     1     137.015 102.884  94.219  1.00  0.00     0.238 A 
ATOM      4  O   UNL     1     137.838 103.828  94.097  1.00  0.00    -0.285 OA
ATOM      5  C   UNL     1     137.443 101.564  94.501  1.00  0.00     0.111 A 
ATOM      6  C   UNL     1     138.796 101.188  94.756  1.00  0.00     0.134 A 
ATOM      7  C   UNL     1     139.121  99.833  94.895  1.00  0.00     0.093 A 
ATOM      8  C   UNL     1     138.136  98.847  94.853  1.00  0.00     0.123 A 
ATOM      9  C   UNL     1     136.802  99.209  94.665  1.00  0.00     0.094 A 
ATOM     10  C   UNL     1     136.451 100.550  94.486  1.00  0.00     0.146 A 
ATOM     11  O   UNL     1     135.171 100.851  94.298  1.00  0.00    -0.452 OA
ENDROOT
BRANCH   1  12
ATOM     12  C   UNL     1     133.275 102.293  93.926  1.00  0.00     0.029 A 
ATOM     13  C   UNL     1     132.507 102.931  94.913  1.00  0.00     0.062 A 
ATOM     14  C   UNL     1     131.127 103.096  94.744  1.00  0.00     0.162 A 
ATOM     15  C   UNL     1     132.635 101.790  92.785  1.00  0.00     0.062 A 
ATOM     16  C   UNL     1     130.493 102.613  93.591  1.00  0.00     0.200 A 
ATOM     17  C   UNL     1     131.257 101.947  92.602  1.00  0.00     0.162 A 
BRANCH  14  18
ATOM     18  O   UNL     1     130.373 103.737  95.725  1.00  0.00    -0.504 OA
ATOM     19  H   UNL     1     129.615 104.367  95.486  1.00  0.00     0.293 HD
ENDBRANCH  14  18
BRANCH  16  20
ATOM     20  O   UNL     1     129.115 102.809  93.469  1.00  0.00    -0.502 OA
ATOM     21  H   UNL     1     128.438 102.508  94.154  1.00  0.00     0.293 HD
ENDBRANCH  16  20
BRANCH  17  22
ATOM     22  O   UNL     1     130.692 101.430  91.434  1.00  0.00    -0.504 OA
ATOM     23  H   UNL     1     131.225 101.147  90.625  1.00  0.00     0.293 HD
ENDBRANCH  17  22
ENDBRANCH   1  12
BRANCH   2  24
ATOM     24  O   UNL     1     135.209 104.441  93.721  1.00  0.00    -0.502 OA
ATOM     25  H   UNL     1     134.919 104.713  92.790  1.00  0.00     0.293 HD
ENDBRANCH   2  24
BRANCH   6  26
ATOM     26  O   UNL     1     139.844 102.100  94.909  1.00  0.00    -0.507 OA
ATOM     27  H   UNL     1     140.603 102.219  94.255  1.00  0.00     0.293 HD
ENDBRANCH   6  26
BRANCH   8  28
ATOM     28  O   UNL     1     138.494  97.510  95.012  1.00  0.00    -0.508 OA
ATOM     29  H   UNL     1     138.751  96.933  94.219  1.00  0.00     0.293 HD
ENDBRANCH   8  28
TORSDOF 7
ENDMDL
MODEL 2
REMARK VINA RESULT:    -5.813      1.764      6.525
REMARK INTER + INTRA:          -7.463
REMARK INTER:                  -7.340
REMARK INTRA:                  -0.123
REMARK UNBOUND:                -0.290
REMARK SMILES O=c1c(O)c(-c2cc(O)c(O)c(O)c2)oc2cc(O)cc(O)c12
REMARK SMILES IDX 5 1 3 2 2 3 1 4 23 5 21 6 20 7 18 8 17 9 16 10 15 11 6 12
REMARK SMILES IDX 7 13 8 14 14 15 10 16 12 17 9 18 11 20 13 22 4 24 22 26
REMARK SMILES IDX 19 28
REMARK H PARENT 9 19 11 21 13 23 4 25 22 27 19 29
REMARK Flexibility Score: inf
ROOT
ATOM      1  C   UNL     1     135.257 102.116  94.275  1.00  0.00     0.180 A 
ATOM      2  C   UNL     1     135.853 103.345  93.942  1.00  0.00     0.208 A 
ATOM      3  C   UNL     1     135.058 104.502  93.913  1.00  0.00     0.238 A 
ATOM      4  O   UNL     1     135.608 105.607  93.667  1.00  0.00    -0.285 OA
ATOM      5  C   UNL     1     133.675 104.414  94.203  1.00  0.00     0.111 A 
ATOM      6  C   UNL     1     132.767 105.515  94.165  1.00  0.00     0.134 A 
ATOM      7  C   UNL     1     131.447 105.337  94.596  1.00  0.00     0.093 A 
ATOM      8  C   UNL     1     130.984 104.086  95.002  1.00  0.00     0.123 A 
ATOM      9  C   UNL     1     131.848 102.989  94.986  1.00  0.00     0.094 A 
ATOM     10  C   UNL     1     133.180 103.144  94.596  1.00  0.00     0.146 A 
ATOM     11  O   UNL     1     133.971 102.077  94.605  1.00  0.00    -0.452 OA
ENDROOT
BRANCH   1  12
ATOM     12  C   UNL     1     136.024 100.850  94.302  1.00  0.00     0.029 A 
ATOM     13  C   UNL     1     137.140 100.690  95.138  1.00  0.00     0.062 A 
ATOM     14  C   UNL     1     137.866  99.493  95.133  1.00  0.00     0.162 A 
ATOM     15  C   UNL     1     135.668  99.807  93.435  1.00  0.00     0.062 A 
ATOM     16  C   UNL     1     137.494  98.442  94.282  1.00  0.00     0.200 A 
ATOM     17  C   UNL     1     136.384  98.605  93.419  1.00  0.00     0.162 A 
BRANCH  14  18
ATOM     18  O   UNL     1     138.969  99.339  95.972  1.00  0.00    -0.504 OA
ATOM     19  H   UNL     1     139.655 100.077  96.088  1.00  0.00     0.293 HD
ENDBRANCH  14  18
BRANCH  16  20
ATOM     20  O   UNL     1     138.248  97.268  94.321  1.00  0.00    -0.502 OA
ATOM     21  H   UNL     1     137.927  96.402  94.729  1.00  0.00     0.293 HD
ENDBRANCH  16  20
BRANCH  17  22
ATOM     22  O   UNL     1     135.962  97.608  92.537  1.00  0.00    -0.504 OA
ATOM     23  H   UNL     1     135.902  97.726  91.536  1.00  0.00     0.293 HD
ENDBRANCH  17  22
ENDBRANCH   1  12
BRANCH   2  24
ATOM     24  O   UNL     1     137.225 103.413  93.680  1.00  0.00    -0.502 OA
ATOM     25  H   UNL     1     137.718 102.689  93.172  1.00  0.00     0.293 HD
ENDBRANCH   2  24
BRANCH   6  26
ATOM     26  O   UNL     1     133.102 106.786  93.688  1.00  0.00    -0.507 OA
ATOM     27  H   UNL     1     132.441 107.460  93.334  1.00  0.00     0.293 HD
ENDBRANCH   6  26
BRANCH   8  28
ATOM     28  O   UNL     1     129.660 103.942  95.410  1.00  0.00    -0.508 OA
ATOM     29  H   UNL     1     129.425 103.650  96.351  1.00  0.00     0.293 HD
ENDBRANCH   8  28
TORSDOF 7
ENDMDL
MODEL 3
REMARK VINA RESULT:    -5.753      2.280      2.939
REMARK INTER + INTRA:          -7.388
REMARK INTER:                  -7.106
REMARK INTRA:                  -0.282
REMARK UNBOUND:                -0.290
REMARK SMILES O=c1c(O)c(-c2cc(O)c(O)c(O)c2)oc2cc(O)cc(O)c12
REMARK SMILES IDX 5 1 3 2 2 3 1 4 23 5 21 6 20 7 18 8 17 9 16 10 15 11 6 12
REMARK SMILES IDX 7 13 8 14 14 15 10 16 12 17 9 18 11 20 13 22 4 24 22 26
REMARK SMILES IDX 19 28
REMARK H PARENT 9 19 11 21 13 23 4 25 22 27 19 29
REMARK Flexibility Score: inf
ROOT
ATOM      1  C   UNL     1     134.470 102.608  94.010  1.00  0.00     0.180 A 
ATOM      2  C   UNL     1     135.654 102.687  94.764  1.00  0.00     0.208 A 
ATOM      3  C   UNL     1     136.644 101.708  94.582  1.00  0.00     0.238 A 
ATOM      4  O   UNL     1     137.724 101.815  95.220  1.00  0.00    -0.285 OA
ATOM      5  C   UNL     1     136.432 100.655  93.659  1.00  0.00     0.111 A 
ATOM      6  C   UNL     1     137.351  99.588  93.423  1.00  0.00     0.134 A 
ATOM      7  C   UNL     1     137.096  98.673  92.395  1.00  0.00     0.093 A 
ATOM      8  C   UNL     1     135.927  98.747  91.637  1.00  0.00     0.123 A 
ATOM      9  C   UNL     1     134.994  99.750  91.900  1.00  0.00     0.094 A 
ATOM     10  C   UNL     1     135.238 100.700  92.895  1.00  0.00     0.146 A 
ATOM     11  O   UNL     1     134.329 101.646  93.105  1.00  0.00    -0.452 OA
ENDROOT
BRANCH   1  12
ATOM     12  C   UNL     1     133.371 103.588  94.164  1.00  0.00     0.029 A 
ATOM     13  C   UNL     1     132.168 103.242  94.801  1.00  0.00     0.062 A 
ATOM     14  C   UNL     1     131.132 104.176  94.917  1.00  0.00     0.162 A 
ATOM     15  C   UNL     1     133.505 104.870  93.613  1.00  0.00     0.062 A 
ATOM     16  C   UNL     1     131.277 105.465  94.387  1.00  0.00     0.200 A 
ATOM     17  C   UNL     1     132.478 105.814  93.722  1.00  0.00     0.162 A 
BRANCH  14  18
ATOM     18  O   UNL     1     129.944 103.826  95.558  1.00  0.00    -0.504 OA
ATOM     19  H   UNL     1     129.511 104.435  96.244  1.00  0.00     0.293 HD
ENDBRANCH  14  18
BRANCH  16  20
ATOM     20  O   UNL     1     130.215 106.360  94.536  1.00  0.00    -0.502 OA
ATOM     21  H   UNL     1     129.569 106.347  95.313  1.00  0.00     0.293 HD
ENDBRANCH  16  20
BRANCH  17  22
ATOM     22  O   UNL     1     132.689 107.074  93.160  1.00  0.00    -0.504 OA
ATOM     23  H   UNL     1     132.109 107.477  92.440  1.00  0.00     0.293 HD
ENDBRANCH  17  22
ENDBRANCH   1  12
BRANCH   2  24
ATOM     24  O   UNL     1     135.851 103.747  95.653  1.00  0.00    -0.502 OA
ATOM     25  H   UNL     1     135.891 103.616  96.656  1.00  0.00     0.293 HD
ENDBRANCH   2  24
BRANCH   6  26
ATOM     26  O   UNL     1     138.503  99.368  94.184  1.00  0.00    -0.507 OA
ATOM     27  H   UNL     1     138.922  98.464  94.344  1.00  0.00     0.293 HD
ENDBRANCH   6  26
BRANCH   8  28
ATOM     28  O   UNL     1     135.699  97.809  90.632  1.00  0.00    -0.508 OA
ATOM     29  H   UNL     1     134.765  97.478  90.420  1.00  0.00     0.293 HD
ENDBRANCH   8  28
TORSDOF 7
ENDMDL
MODEL 4
REMARK VINA RESULT:    -5.710      2.056      3.311
REMARK INTER + INTRA:          -7.335
REMARK INTER:                  -6.996
REMARK INTRA:                  -0.339
REMARK UNBOUND:                -0.290
REMARK SMILES O=c1c(O)c(-c2cc(O)c(O)c(O)c2)oc2cc(O)cc(O)c12
REMARK SMILES IDX 5 1 3 2 2 3 1 4 23 5 21 6 20 7 18 8 17 9 16 10 15 11 6 12
REMARK SMILES IDX 7 13 8 14 14 15 10 16 12 17 9 18 11 20 13 22 4 24 22 26
REMARK SMILES IDX 19 28
REMARK H PARENT 9 19 11 21 13 23 4 25 22 27 19 29
REMARK Flexibility Score: inf
ROOT
ATOM      1  C   UNL     1     134.109 101.901  93.397  1.00  0.00     0.180 A 
ATOM      2  C   UNL     1     133.908 101.204  92.194  1.00  0.00     0.208 A 
ATOM      3  C   UNL     1     134.778 100.154  91.860  1.00  0.00     0.238 A 
ATOM      4  O   UNL     1     134.559  99.499  90.808  1.00  0.00    -0.285 OA
ATOM      5  C   UNL     1     135.848  99.825  92.726  1.00  0.00     0.111 A 
ATOM      6  C   UNL     1     136.815  98.806  92.468  1.00  0.00     0.134 A 
ATOM      7  C   UNL     1     137.753  98.479  93.455  1.00  0.00     0.093 A 
ATOM      8  C   UNL     1     137.802  99.175  94.662  1.00  0.00     0.123 A 
ATOM      9  C   UNL     1     136.900 100.213  94.900  1.00  0.00     0.094 A 
ATOM     10  C   UNL     1     135.928 100.538  93.949  1.00  0.00     0.146 A 
ATOM     11  O   UNL     1     135.082 101.526  94.220  1.00  0.00    -0.452 OA
ENDROOT
BRANCH   1  12
ATOM     12  C   UNL     1     133.248 103.035  93.806  1.00  0.00     0.029 A 
ATOM     13  C   UNL     1     132.010 102.823  94.432  1.00  0.00     0.062 A 
ATOM     14  C   UNL     1     131.200 103.907  94.790  1.00  0.00     0.162 A 
ATOM     15  C   UNL     1     133.647 104.346  93.511  1.00  0.00     0.062 A 
ATOM     16  C   UNL     1     131.611 105.219  94.516  1.00  0.00     0.200 A 
ATOM     17  C   UNL     1     132.848 105.440  93.864  1.00  0.00     0.162 A 
BRANCH  14  18
ATOM     18  O   UNL     1     129.975 103.688  95.418  1.00  0.00    -0.504 OA
ATOM     19  H   UNL     1     129.863 103.801  96.420  1.00  0.00     0.293 HD
ENDBRANCH  14  18
BRANCH  16  20
ATOM     20  O   UNL     1     130.768 106.264  94.900  1.00  0.00    -0.502 OA
ATOM     21  H   UNL     1     130.670 106.592  95.850  1.00  0.00     0.293 HD
ENDBRANCH  16  20
BRANCH  17  22
ATOM     22  O   UNL     1     133.317 106.716  93.548  1.00  0.00    -0.504 OA
ATOM     23  H   UNL     1     132.737 107.541  93.518  1.00  0.00     0.293 HD
ENDBRANCH  17  22
ENDBRANCH   1  12
BRANCH   2  24
ATOM     24  O   UNL     1     132.831 101.531  91.364  1.00  0.00    -0.502 OA
ATOM     25  H   UNL     1     132.460 102.471  91.299  1.00  0.00     0.293 HD
ENDBRANCH   2  24
BRANCH   6  26
ATOM     26  O   UNL     1     136.914  98.112  91.259  1.00  0.00    -0.507 OA
ATOM     27  H   UNL     1     137.745  98.063  90.690  1.00  0.00     0.293 HD
ENDBRANCH   6  26
BRANCH   8  28
ATOM     28  O   UNL     1     138.759  98.833  95.615  1.00  0.00    -0.508 OA
ATOM     29  H   UNL     1     138.599  98.984  96.604  1.00  0.00     0.293 HD
ENDBRANCH   8  28
TORSDOF 7
ENDMDL
MODEL 5
REMARK VINA RESULT:    -5.626      1.649      7.028
REMARK INTER + INTRA:          -7.232
REMARK INTER:                  -6.863
REMARK INTRA:                  -0.369
REMARK UNBOUND:                -0.290
REMARK SMILES O=c1c(O)c(-c2cc(O)c(O)c(O)c2)oc2cc(O)cc(O)c12
REMARK SMILES IDX 5 1 3 2 2 3 1 4 23 5 21 6 20 7 18 8 17 9 16 10 15 11 6 12
REMARK SMILES IDX 7 13 8 14 14 15 10 16 12 17 9 18 11 20 13 22 4 24 22 26
REMARK SMILES IDX 19 28
REMARK H PARENT 9 19 11 21 13 23 4 25 22 27 19 29
REMARK Flexibility Score: inf
ROOT
ATOM      1  C   UNL     1     135.194 101.648  93.606  1.00  0.00     0.180 A 
ATOM      2  C   UNL     1     135.250 102.243  92.334  1.00  0.00     0.208 A 
ATOM      3  C   UNL     1     134.172 103.032  91.903  1.00  0.00     0.238 A 
ATOM      4  O   UNL     1     134.252 103.606  90.785  1.00  0.00    -0.285 OA
ATOM      5  C   UNL     1     133.045 103.203  92.742  1.00  0.00     0.111 A 
ATOM      6  C   UNL     1     131.879 103.949  92.391  1.00  0.00     0.134 A 
ATOM      7  C   UNL     1     130.880 104.160  93.349  1.00  0.00     0.093 A 
ATOM      8  C   UNL     1     130.973 103.600  94.623  1.00  0.00     0.123 A 
ATOM      9  C   UNL     1     132.080 102.820  94.957  1.00  0.00     0.094 A 
ATOM     10  C   UNL     1     133.111 102.622  94.034  1.00  0.00     0.146 A 
ATOM     11  O   UNL     1     134.153 101.881  94.396  1.00  0.00    -0.452 OA
ENDROOT
BRANCH   1  12
ATOM     12  C   UNL     1     136.281 100.783  94.120  1.00  0.00     0.029 A 
ATOM     13  C   UNL     1     136.293  99.401  93.873  1.00  0.00     0.062 A 
ATOM     14  C   UNL     1     137.316  98.596  94.386  1.00  0.00     0.162 A 
ATOM     15  C   UNL     1     137.288 101.340  94.920  1.00  0.00     0.062 A 
ATOM     16  C   UNL     1     138.336  99.159  95.166  1.00  0.00     0.200 A 
ATOM     17  C   UNL     1     138.318 100.548  95.439  1.00  0.00     0.162 A 
BRANCH  14  18
ATOM     18  O   UNL     1     137.325  97.226  94.130  1.00  0.00    -0.504 OA
ATOM     19  H   UNL     1     138.127  96.648  94.354  1.00  0.00     0.293 HD
ENDBRANCH  14  18
BRANCH  16  20
ATOM     20  O   UNL     1     139.337  98.312  95.648  1.00  0.00    -0.502 OA
ATOM     21  H   UNL     1     140.176  98.633  96.109  1.00  0.00     0.293 HD
ENDBRANCH  16  20
BRANCH  17  22
ATOM     22  O   UNL     1     139.293 101.176  96.217  1.00  0.00    -0.504 OA
ATOM     23  H   UNL     1     139.600 102.128  96.079  1.00  0.00     0.293 HD
ENDBRANCH  17  22
ENDBRANCH   1  12
BRANCH   2  24
ATOM     24  O   UNL     1     136.382 102.078  91.530  1.00  0.00    -0.502 OA
ATOM     25  H   UNL     1     136.791 101.170  91.345  1.00  0.00     0.293 HD
ENDBRANCH   2  24
BRANCH   6  26
ATOM     26  O   UNL     1     131.643 104.474  91.116  1.00  0.00    -0.507 OA
ATOM     27  H   UNL     1     131.512 105.453  90.913  1.00  0.00     0.293 HD
ENDBRANCH   6  26
BRANCH   8  28
ATOM     28  O   UNL     1     129.953 103.818  95.546  1.00  0.00    -0.508 OA
ATOM     29  H   UNL     1     129.099 104.299  95.287  1.00  0.00     0.293 HD
ENDBRANCH   8  28
TORSDOF 7
ENDMDL
MODEL 6
REMARK VINA RESULT:    -5.557      1.334      7.042
REMARK INTER + INTRA:          -7.147
REMARK INTER:                  -6.828
REMARK INTRA:                  -0.319
REMARK UNBOUND:                -0.290
REMARK SMILES O=c1c(O)c(-c2cc(O)c(O)c(O)c2)oc2cc(O)cc(O)c12
REMARK SMILES IDX 5 1 3 2 2 3 1 4 23 5 21 6 20 7 18 8 17 9 16 10 15 11 6 12
REMARK SMILES IDX 7 13 8 14 14 15 10 16 12 17 9 18 11 20 13 22 4 24 22 26
REMARK SMILES IDX 19 28
REMARK H PARENT 9 19 11 21 13 23 4 25 22 27 19 29
REMARK Flexibility Score: inf
ROOT
ATOM      1  C   UNL     1     133.960 102.300  94.139  1.00  0.00     0.180 A 
ATOM      2  C   UNL     1     133.191 103.007  95.080  1.00  0.00     0.208 A 
ATOM      3  C   UNL     1     131.811 103.148  94.864  1.00  0.00     0.238 A 
ATOM      4  O   UNL     1     131.119 103.734  95.737  1.00  0.00    -0.285 OA
ATOM      5  C   UNL     1     131.219 102.593  93.704  1.00  0.00     0.111 A 
ATOM      6  C   UNL     1     129.837 102.709  93.364  1.00  0.00     0.134 A 
ATOM      7  C   UNL     1     129.337 102.010  92.259  1.00  0.00     0.093 A 
ATOM      8  C   UNL     1     130.178 101.253  91.444  1.00  0.00     0.123 A 
ATOM      9  C   UNL     1     131.541 101.182  91.732  1.00  0.00     0.094 A 
ATOM     10  C   UNL     1     132.063 101.838  92.850  1.00  0.00     0.146 A 
ATOM     11  O   UNL     1     133.365 101.735  93.095  1.00  0.00    -0.452 OA
ENDROOT
BRANCH   1  12
ATOM     12  C   UNL     1     135.424 102.131  94.285  1.00  0.00     0.029 A 
ATOM     13  C   UNL     1     136.311 103.183  94.007  1.00  0.00     0.062 A 
ATOM     14  C   UNL     1     137.693 102.997  94.129  1.00  0.00     0.162 A 
ATOM     15  C   UNL     1     135.942 100.881  94.650  1.00  0.00     0.062 A 
ATOM     16  C   UNL     1     138.209 101.753  94.517  1.00  0.00     0.200 A 
ATOM     17  C   UNL     1     137.322 100.681  94.777  1.00  0.00     0.162 A 
BRANCH  14  18
ATOM     18  O   UNL     1     138.567 104.049  93.858  1.00  0.00    -0.504 OA
ATOM     19  H   UNL     1     138.746 104.361  92.910  1.00  0.00     0.293 HD
ENDBRANCH  14  18
BRANCH  16  20
ATOM     20  O   UNL     1     139.595 101.623  94.630  1.00  0.00    -0.502 OA
ATOM     21  H   UNL     1     140.245 102.389  94.530  1.00  0.00     0.293 HD
ENDBRANCH  16  20
BRANCH  17  22
ATOM     22  O   UNL     1     137.762  99.412  95.157  1.00  0.00    -0.504 OA
ATOM     23  H   UNL     1     137.427  98.551  94.751  1.00  0.00     0.293 HD
ENDBRANCH  17  22
ENDBRANCH   1  12
BRANCH   2  24
ATOM     24  O   UNL     1     133.792 103.528  96.230  1.00  0.00    -0.502 OA
ATOM     25  H   UNL     1     133.457 103.316  97.162  1.00  0.00     0.293 HD
ENDBRANCH   2  24
BRANCH   6  26
ATOM     26  O   UNL     1     128.928 103.514  94.058  1.00  0.00    -0.507 OA
ATOM     27  H   UNL     1     127.985 103.244  94.294  1.00  0.00     0.293 HD
ENDBRANCH   6  26
BRANCH   8  28
ATOM     28  O   UNL     1     129.648 100.584  90.343  1.00  0.00    -0.508 OA
ATOM     29  H   UNL     1     129.987  99.670  90.065  1.00  0.00     0.293 HD
ENDBRANCH   8  28
TORSDOF 7
ENDMDL
MODEL 7
REMARK VINA RESULT:    -5.520      1.342      7.096
REMARK INTER + INTRA:          -7.101
REMARK INTER:                  -6.814
REMARK INTRA:                  -0.287
REMARK UNBOUND:                -0.290
REMARK SMILES O=c1c(O)c(-c2cc(O)c(O)c(O)c2)oc2cc(O)cc(O)c12
REMARK SMILES IDX 5 1 3 2 2 3 1 4 23 5 21 6 20 7 18 8 17 9 16 10 15 11 6 12
REMARK SMILES IDX 7 13 8 14 14 15 10 16 12 17 9 18 11 20 13 22 4 24 22 26
REMARK SMILES IDX 19 28
REMARK H PARENT 9 19 11 21 13 23 4 25 22 27 19 29
REMARK Flexibility Score: inf
ROOT
ATOM      1  C   UNL     1     133.933 102.277  94.120  1.00  0.00     0.180 A 
ATOM      2  C   UNL     1     133.173 102.986  95.066  1.00  0.00     0.208 A 
ATOM      3  C   UNL     1     131.793 103.136  94.858  1.00  0.00     0.238 A 
ATOM      4  O   UNL     1     131.109 103.725  95.736  1.00  0.00    -0.285 OA
ATOM      5  C   UNL     1     131.192 102.589  93.699  1.00  0.00     0.111 A 
ATOM      6  C   UNL     1     129.809 102.715  93.366  1.00  0.00     0.134 A 
ATOM      7  C   UNL     1     129.299 102.023  92.261  1.00  0.00     0.093 A 
ATOM      8  C   UNL     1     130.131 101.263  91.440  1.00  0.00     0.123 A 
ATOM      9  C   UNL     1     131.495 101.182  91.721  1.00  0.00     0.094 A 
ATOM     10  C   UNL     1     132.027 101.832  92.838  1.00  0.00     0.146 A 
ATOM     11  O   UNL     1     133.329 101.719  93.076  1.00  0.00    -0.452 OA
ENDROOT
BRANCH   1  12
ATOM     12  C   UNL     1     135.396 102.098  94.258  1.00  0.00     0.029 A 
ATOM     13  C   UNL     1     135.947 100.874  94.671  1.00  0.00     0.062 A 
ATOM     14  C   UNL     1     137.332 100.732  94.817  1.00  0.00     0.162 A 
ATOM     15  C   UNL     1     136.250 103.186  94.028  1.00  0.00     0.062 A 
ATOM     16  C   UNL     1     138.186 101.814  94.565  1.00  0.00     0.200 A 
ATOM     17  C   UNL     1     137.636 103.058  94.170  1.00  0.00     0.162 A 
BRANCH  14  18
ATOM     18  O   UNL     1     137.871  99.511  95.221  1.00  0.00    -0.504 OA
ATOM     19  H   UNL     1     137.374  98.638  95.081  1.00  0.00     0.293 HD
ENDBRANCH  14  18
BRANCH  16  20
ATOM     20  O   UNL     1     139.560 101.616  94.719  1.00  0.00    -0.502 OA
ATOM     21  H   UNL     1     140.265 102.105  94.188  1.00  0.00     0.293 HD
ENDBRANCH  16  20
BRANCH  17  22
ATOM     22  O   UNL     1     138.423 104.182  93.912  1.00  0.00    -0.504 OA
ATOM     23  H   UNL     1     138.779 104.427  93.001  1.00  0.00     0.293 HD
ENDBRANCH  17  22
ENDBRANCH   1  12
BRANCH   2  24
ATOM     24  O   UNL     1     133.783 103.499  96.215  1.00  0.00    -0.502 OA
ATOM     25  H   UNL     1     134.601 104.095  96.177  1.00  0.00     0.293 HD
ENDBRANCH   2  24
BRANCH   6  26
ATOM     26  O   UNL     1     128.909 103.523  94.066  1.00  0.00    -0.507 OA
ATOM     27  H   UNL     1     128.215 103.183  94.715  1.00  0.00     0.293 HD
ENDBRANCH   6  26
BRANCH   8  28
ATOM     28  O   UNL     1     129.592 100.600  90.339  1.00  0.00    -0.508 OA
ATOM     29  H   UNL     1     129.557 101.035  89.424  1.00  0.00     0.293 HD
ENDBRANCH   8  28
TORSDOF 7
ENDMDL
MODEL 8
REMARK VINA RESULT:    -5.400     13.784     15.416
REMARK INTER + INTRA:          -6.953
REMARK INTER:                  -6.640
REMARK INTRA:                  -0.313
REMARK UNBOUND:                -0.290
REMARK SMILES O=c1c(O)c(-c2cc(O)c(O)c(O)c2)oc2cc(O)cc(O)c12
REMARK SMILES IDX 5 1 3 2 2 3 1 4 23 5 21 6 20 7 18 8 17 9 16 10 15 11 6 12
REMARK SMILES IDX 7 13 8 14 14 15 10 16 12 17 9 18 11 20 13 22 4 24 22 26
REMARK SMILES IDX 19 28
REMARK H PARENT 9 19 11 21 13 23 4 25 22 27 19 29
REMARK Flexibility Score: inf
ROOT
ATOM      1  C   UNL     1     132.255  94.919 106.381  1.00  0.00     0.180 A 
ATOM      2  C   UNL     1     130.858  94.799 106.281  1.00  0.00     0.208 A 
ATOM      3  C   UNL     1     130.279  93.521 106.324  1.00  0.00     0.238 A 
ATOM      4  O   UNL     1     129.024  93.425 106.288  1.00  0.00    -0.285 OA
ATOM      5  C   UNL     1     131.104  92.378 106.451  1.00  0.00     0.111 A 
ATOM      6  C   UNL     1     130.627  91.032 106.465  1.00  0.00     0.134 A 
ATOM      7  C   UNL     1     131.521  89.986 106.726  1.00  0.00     0.093 A 
ATOM      8  C   UNL     1     132.882  90.229 106.909  1.00  0.00     0.123 A 
ATOM      9  C   UNL     1     133.367  91.536 106.838  1.00  0.00     0.094 A 
ATOM     10  C   UNL     1     132.494  92.604 106.615  1.00  0.00     0.146 A 
ATOM     11  O   UNL     1     132.997  93.833 106.566  1.00  0.00    -0.452 OA
ENDROOT
BRANCH   1  12
ATOM     12  C   UNL     1     132.940  96.230 106.320  1.00  0.00     0.029 A 
ATOM     13  C   UNL     1     133.090  96.919 105.105  1.00  0.00     0.062 A 
ATOM     14  C   UNL     1     133.761  98.147 105.063  1.00  0.00     0.162 A 
ATOM     15  C   UNL     1     133.504  96.771 107.483  1.00  0.00     0.062 A 
ATOM     16  C   UNL     1     134.304  98.698 106.233  1.00  0.00     0.200 A 
ATOM     17  C   UNL     1     134.177  97.998 107.457  1.00  0.00     0.162 A 
BRANCH  14  18
ATOM     18  O   UNL     1     133.899  98.828 103.855  1.00  0.00    -0.504 OA
ATOM     19  H   UNL     1     134.577  98.541 103.158  1.00  0.00     0.293 HD
ENDBRANCH  14  18
BRANCH  16  20
ATOM     20  O   UNL     1     134.957  99.929 106.137  1.00  0.00    -0.502 OA
ATOM     21  H   UNL     1     134.488 100.807 105.969  1.00  0.00     0.293 HD
ENDBRANCH  16  20
BRANCH  17  22
ATOM     22  O   UNL     1     134.700  98.479 108.659  1.00  0.00    -0.504 OA
ATOM     23  H   UNL     1     134.619  98.000 109.543  1.00  0.00     0.293 HD
ENDBRANCH  17  22
ENDBRANCH   1  12
BRANCH   2  24
ATOM     24  O   UNL     1     130.060  95.943 106.178  1.00  0.00    -0.502 OA
ATOM     25  H   UNL     1     129.065  95.931 106.365  1.00  0.00     0.293 HD
ENDBRANCH   2  24
BRANCH   6  26
ATOM     26  O   UNL     1     129.303  90.671 106.201  1.00  0.00    -0.507 OA
ATOM     27  H   UNL     1     128.806  90.886 105.350  1.00  0.00     0.293 HD
ENDBRANCH   6  26
BRANCH   8  28
ATOM     28  O   UNL     1     133.744  89.163 107.151  1.00  0.00    -0.508 OA
ATOM     29  H   UNL     1     133.503  88.424 107.802  1.00  0.00     0.293 HD
ENDBRANCH   8  28
TORSDOF 7
ENDMDL
MODEL 9
REMARK VINA RESULT:    -5.195      2.319      4.335
REMARK INTER + INTRA:          -6.701
REMARK INTER:                  -6.355
REMARK INTRA:                  -0.346
REMARK UNBOUND:                -0.290
REMARK SMILES O=c1c(O)c(-c2cc(O)c(O)c(O)c2)oc2cc(O)cc(O)c12
REMARK SMILES IDX 5 1 3 2 2 3 1 4 23 5 21 6 20 7 18 8 17 9 16 10 15 11 6 12
REMARK SMILES IDX 7 13 8 14 14 15 10 16 12 17 9 18 11 20 13 22 4 24 22 26
REMARK SMILES IDX 19 28
REMARK H PARENT 9 19 11 21 13 23 4 25 22 27 19 29
REMARK Flexibility Score: inf
ROOT
ATOM      1  C   UNL     1     137.096 102.378  94.407  1.00  0.00     0.180 A 
ATOM      2  C   UNL     1     137.698 101.161  94.768  1.00  0.00     0.208 A 
ATOM      3  C   UNL     1     139.081 101.004  94.585  1.00  0.00     0.238 A 
ATOM      4  O   UNL     1     139.623  99.932  94.960  1.00  0.00    -0.285 OA
ATOM      5  C   UNL     1     139.843 102.061  94.029  1.00  0.00     0.111 A 
ATOM      6  C   UNL     1     141.244 101.997  93.763  1.00  0.00     0.134 A 
ATOM      7  C   UNL     1     141.917 103.147  93.333  1.00  0.00     0.093 A 
ATOM      8  C   UNL     1     141.232 104.339  93.099  1.00  0.00     0.123 A 
ATOM      9  C   UNL     1     139.852 104.395  93.299  1.00  0.00     0.094 A 
ATOM     10  C   UNL     1     139.158 103.274  93.762  1.00  0.00     0.146 A 
ATOM     11  O   UNL     1     137.847 103.374  93.950  1.00  0.00    -0.452 OA
ENDROOT
BRANCH   1  12
ATOM     12  C   UNL     1     135.640 102.610  94.547  1.00  0.00     0.029 A 
ATOM     13  C   UNL     1     134.729 102.123  93.596  1.00  0.00     0.062 A 
ATOM     14  C   UNL     1     133.358 102.371  93.734  1.00  0.00     0.162 A 
ATOM     15  C   UNL     1     135.162 103.378  95.617  1.00  0.00     0.062 A 
ATOM     16  C   UNL     1     132.879 103.120  94.818  1.00  0.00     0.200 A 
ATOM     17  C   UNL     1     133.794 103.634  95.769  1.00  0.00     0.162 A 
BRANCH  14  18
ATOM     18  O   UNL     1     132.459 101.879  92.789  1.00  0.00    -0.504 OA
ATOM     19  H   UNL     1     132.002 100.982  92.907  1.00  0.00     0.293 HD
ENDBRANCH  14  18
BRANCH  16  20
ATOM     20  O   UNL     1     131.502 103.333  94.912  1.00  0.00    -0.502 OA
ATOM     21  H   UNL     1     131.054 103.809  95.681  1.00  0.00     0.293 HD
ENDBRANCH  16  20
BRANCH  17  22
ATOM     22  O   UNL     1     133.393 104.397  96.867  1.00  0.00    -0.504 OA
ATOM     23  H   UNL     1     133.335 105.404  96.865  1.00  0.00     0.293 HD
ENDBRANCH  17  22
ENDBRANCH   1  12
BRANCH   2  24
ATOM     24  O   UNL     1     136.932 100.138  95.334  1.00  0.00    -0.502 OA
ATOM     25  H   UNL     1     135.925 100.198  95.424  1.00  0.00     0.293 HD
ENDBRANCH   2  24
BRANCH   6  26
ATOM     26  O   UNL     1     142.007 100.832  93.875  1.00  0.00    -0.507 OA
ATOM     27  H   UNL     1     141.807  99.965  93.400  1.00  0.00     0.293 HD
ENDBRANCH   6  26
BRANCH   8  28
ATOM     28  O   UNL     1     141.932 105.459  92.657  1.00  0.00    -0.508 OA
ATOM     29  H   UNL     1     141.480 106.187  92.116  1.00  0.00     0.293 HD
ENDBRANCH   8  28
TORSDOF 7
ENDMDL
