MODEL 1
REMARK VINA RESULT:     2.269      0.000      0.000
REMARK INTER + INTRA:           8.068
REMARK INTER:                   4.921
REMARK INTRA:                   3.147
REMARK UNBOUND:                 3.147
REMARK SMILES CCCCCCCCCCCCCCCCCCCCCC(=O)[O-]
REMARK SMILES IDX 12 1 11 2 10 3 9 4 8 5 7 6 6 7 5 8 4 9 3 10 2 11 1 12 13 13
REMARK SMILES IDX 14 14 15 15 16 16 17 17 18 18 19 19 20 20 21 21 22 22 23 23
REMARK SMILES IDX 24 24
REMARK H PARENT
REMARK Flexibility Score: inf
ROOT
ATOM      1  C   UNL     1      -8.922  17.164 -11.830  1.00  0.00     0.000 C 
ENDROOT
BRANCH   1   2
ATOM      2  C   UNL     1      -7.433  16.787 -11.867  1.00  0.00     0.000 C 
BRANCH   2   3
ATOM      3  C   UNL     1      -7.239  15.374 -12.440  1.00  0.00     0.000 C 
BRANCH   3   4
ATOM      4  C   UNL     1      -7.134  14.293 -11.348  1.00  0.00    -0.000 C 
BRANCH   4   5
ATOM      5  C   UNL     1      -7.204  12.842 -11.856  1.00  0.00    -0.000 C 
BRANCH   5   6
ATOM      6  C   UNL     1      -5.827  12.159 -11.907  1.00  0.00    -0.000 C 
BRANCH   6   7
ATOM      7  C   UNL     1      -4.967  12.650 -13.083  1.00  0.00    -0.000 C 
BRANCH   7   8
ATOM      8  C   UNL     1      -5.102  11.755 -14.327  1.00  0.00    -0.000 C 
BRANCH   8   9
ATOM      9  C   UNL     1      -6.388  12.034 -15.125  1.00  0.00    -0.000 C 
BRANCH   9  10
ATOM     10  C   UNL     1      -6.963  13.456 -14.969  1.00  0.00    -0.000 C 
BRANCH  10  11
ATOM     11  C   UNL     1      -8.484  13.522 -14.741  1.00  0.00    -0.003 C 
ATOM     12  C   UNL     1      -9.196  12.217 -15.098  1.00  0.00     0.004 C 
ENDBRANCH  10  11
ENDBRANCH   9  10
ENDBRANCH   8   9
ENDBRANCH   7   8
ENDBRANCH   6   7
ENDBRANCH   5   6
ENDBRANCH   4   5
ENDBRANCH   3   4
ENDBRANCH   2   3
ENDBRANCH   1   2
BRANCH   1  13
ATOM     13  C   UNL     1      -9.532  17.321 -13.234  1.00  0.00     0.000 C 
BRANCH  13  14
ATOM     14  C   UNL     1      -8.861  18.441 -14.047  1.00  0.00     0.000 C 
BRANCH  14  15
ATOM     15  C   UNL     1      -7.905  17.899 -15.122  1.00  0.00     0.000 C 
BRANCH  15  16
ATOM     16  C   UNL     1      -7.023  16.750 -14.609  1.00  0.00     0.000 C 
BRANCH  16  17
ATOM     17  C   UNL     1      -5.583  16.897 -15.125  1.00  0.00     0.000 C 
BRANCH  17  18
ATOM     18  C   UNL     1      -5.053  18.335 -15.015  1.00  0.00     0.000 C 
BRANCH  18  19
ATOM     19  C   UNL     1      -6.179  19.383 -15.060  1.00  0.00     0.000 C 
BRANCH  19  20
ATOM     20  C   UNL     1      -5.659  20.824 -14.899  1.00  0.00     0.006 C 
BRANCH  20  21
ATOM     21  C   UNL     1      -4.913  21.087 -13.581  1.00  0.00     0.053 C 
BRANCH  21  22
ATOM     22  C   UNL     1      -5.618  20.484 -12.405  1.00  0.00     0.041 C 
ATOM     23  O   UNL     1      -6.799  20.827 -12.131  1.00  0.00    -0.550 OA
ATOM     24  O   UNL     1      -4.961  19.570 -11.592  1.00  0.00    -0.550 OA
ENDBRANCH  21  22
ENDBRANCH  20  21
ENDBRANCH  19  20
ENDBRANCH  18  19
ENDBRANCH  17  18
ENDBRANCH  16  17
ENDBRANCH  15  16
ENDBRANCH  14  15
ENDBRANCH  13  14
ENDBRANCH   1  13
TORSDOF 20
ENDMDL
MODEL 2
REMARK VINA RESULT:     3.563      3.902      7.645
REMARK INTER + INTRA:          10.876
REMARK INTER:                  10.930
REMARK INTRA:                  -0.054
REMARK UNBOUND:                 3.147
REMARK SMILES CCCCCCCCCCCCCCCCCCCCCC(=O)[O-]
REMARK SMILES IDX 12 1 11 2 10 3 9 4 8 5 7 6 6 7 5 8 4 9 3 10 2 11 1 12 13 13
REMARK SMILES IDX 14 14 15 15 16 16 17 17 18 18 19 19 20 20 21 21 22 22 23 23
REMARK SMILES IDX 24 24
REMARK H PARENT
REMARK Flexibility Score: inf
ROOT
ATOM      1  C   UNL     1      -7.480  15.176 -14.830  1.00  0.00     0.000 C 
ENDROOT
BRANCH   1   2
ATOM      2  C   UNL     1      -6.039  14.727 -15.121  1.00  0.00     0.000 C 
BRANCH   2   3
ATOM      3  C   UNL     1      -5.062  15.906 -15.002  1.00  0.00     0.000 C 
BRANCH   3   4
ATOM      4  C   UNL     1      -5.765  17.240 -14.687  1.00  0.00    -0.000 C 
BRANCH   4   5
ATOM      5  C   UNL     1      -4.875  18.490 -14.798  1.00  0.00    -0.000 C 
BRANCH   5   6
ATOM      6  C   UNL     1      -5.497  19.729 -14.130  1.00  0.00    -0.000 C 
BRANCH   6   7
ATOM      7  C   UNL     1      -6.450  20.489 -15.067  1.00  0.00    -0.000 C 
BRANCH   7   8
ATOM      8  C   UNL     1      -7.930  20.252 -14.721  1.00  0.00    -0.000 C 
BRANCH   8   9
ATOM      9  C   UNL     1      -8.224  18.794 -14.324  1.00  0.00    -0.000 C 
BRANCH   9  10
ATOM     10  C   UNL     1      -8.957  18.614 -12.979  1.00  0.00    -0.000 C 
BRANCH  10  11
ATOM     11  C   UNL     1      -8.492  17.409 -12.142  1.00  0.00    -0.003 C 
ATOM     12  C   UNL     1      -9.542  16.301 -12.062  1.00  0.00     0.004 C 
ENDBRANCH  10  11
ENDBRANCH   9  10
ENDBRANCH   8   9
ENDBRANCH   7   8
ENDBRANCH   6   7
ENDBRANCH   5   6
ENDBRANCH   4   5
ENDBRANCH   3   4
ENDBRANCH   2   3
ENDBRANCH   1   2
BRANCH   1  13
ATOM     13  C   UNL     1      -8.374  14.025 -14.339  1.00  0.00     0.000 C 
BRANCH  13  14
ATOM     14  C   UNL     1      -7.564  12.870 -13.724  1.00  0.00     0.000 C 
BRANCH  14  15
ATOM     15  C   UNL     1      -6.692  13.325 -12.542  1.00  0.00     0.000 C 
BRANCH  15  16
ATOM     16  C   UNL     1      -7.390  14.364 -11.652  1.00  0.00     0.000 C 
BRANCH  16  17
ATOM     17  C   UNL     1      -7.534  13.843 -10.214  1.00  0.00     0.000 C 
BRANCH  17  18
ATOM     18  C   UNL     1      -8.990  13.529  -9.836  1.00  0.00     0.000 C 
BRANCH  18  19
ATOM     19  C   UNL     1      -9.095  12.596  -8.617  1.00  0.00     0.000 C 
BRANCH  19  20
ATOM     20  C   UNL     1      -9.996  13.167  -7.506  1.00  0.00     0.006 C 
BRANCH  20  21
ATOM     21  C   UNL     1     -10.082  12.293  -6.245  1.00  0.00     0.053 C 
BRANCH  21  22
ATOM     22  C   UNL     1      -8.739  11.775  -5.826  1.00  0.00     0.041 C 
ATOM     23  O   UNL     1      -8.591  10.557  -5.545  1.00  0.00    -0.550 OA
ATOM     24  O   UNL     1      -7.662  12.644  -5.715  1.00  0.00    -0.550 OA
ENDBRANCH  21  22
ENDBRANCH  20  21
ENDBRANCH  19  20
ENDBRANCH  18  19
ENDBRANCH  17  18
ENDBRANCH  16  17
ENDBRANCH  15  16
ENDBRANCH  14  15
ENDBRANCH  13  14
ENDBRANCH   1  13
TORSDOF 20
ENDMDL
MODEL 3
REMARK VINA RESULT:     5.066      4.466      7.938
REMARK INTER + INTRA:          14.135
REMARK INTER:                  15.665
REMARK INTRA:                  -1.529
REMARK UNBOUND:                 3.147
REMARK SMILES CCCCCCCCCCCCCCCCCCCCCC(=O)[O-]
REMARK SMILES IDX 12 1 11 2 10 3 9 4 8 5 7 6 6 7 5 8 4 9 3 10 2 11 1 12 13 13
REMARK SMILES IDX 14 14 15 15 16 16 17 17 18 18 19 19 20 20 21 21 22 22 23 23
REMARK SMILES IDX 24 24
REMARK H PARENT
REMARK Flexibility Score: inf
ROOT
ATOM      1  C   UNL     1      -7.480  14.578 -11.663  1.00  0.00     0.000 C 
ENDROOT
BRANCH   1   2
ATOM      2  C   UNL     1      -6.611  13.689 -12.565  1.00  0.00     0.000 C 
BRANCH   2   3
ATOM      3  C   UNL     1      -7.389  13.247 -13.814  1.00  0.00     0.000 C 
BRANCH   3   4
ATOM      4  C   UNL     1      -6.754  13.747 -15.125  1.00  0.00    -0.000 C 
BRANCH   4   5
ATOM      5  C   UNL     1      -5.322  14.295 -14.990  1.00  0.00    -0.000 C 
BRANCH   5   6
ATOM      6  C   UNL     1      -5.258  15.830 -15.070  1.00  0.00    -0.000 C 
BRANCH   6   7
ATOM      7  C   UNL     1      -6.652  16.480 -15.065  1.00  0.00    -0.000 C 
BRANCH   7   8
ATOM      8  C   UNL     1      -6.625  17.928 -14.547  1.00  0.00    -0.000 C 
BRANCH   8   9
ATOM      9  C   UNL     1      -7.886  18.723 -14.932  1.00  0.00    -0.000 C 
BRANCH   9  10
ATOM     10  C   UNL     1      -7.693  20.248 -15.045  1.00  0.00    -0.000 C 
BRANCH  10  11
ATOM     11  C   UNL     1      -6.548  20.823 -14.192  1.00  0.00    -0.003 C 
ATOM     12  C   UNL     1      -6.918  20.964 -12.716  1.00  0.00     0.004 C 
ENDBRANCH  10  11
ENDBRANCH   9  10
ENDBRANCH   8   9
ENDBRANCH   7   8
ENDBRANCH   6   7
ENDBRANCH   5   6
ENDBRANCH   4   5
ENDBRANCH   3   4
ENDBRANCH   2   3
ENDBRANCH   1   2
BRANCH   1  13
ATOM     13  C   UNL     1      -8.728  15.117 -12.384  1.00  0.00     0.000 C 
BRANCH  13  14
ATOM     14  C   UNL     1      -9.421  16.245 -11.602  1.00  0.00     0.000 C 
BRANCH  14  15
ATOM     15  C   UNL     1      -9.735  15.850 -10.150  1.00  0.00     0.000 C 
BRANCH  15  16
ATOM     16  C   UNL     1     -11.127  15.218  -9.993  1.00  0.00     0.000 C 
BRANCH  16  17
ATOM     17  C   UNL     1     -11.464  15.002  -8.509  1.00  0.00     0.000 C 
BRANCH  17  18
ATOM     18  C   UNL     1     -11.519  13.515  -8.121  1.00  0.00     0.000 C 
BRANCH  18  19
ATOM     19  C   UNL     1     -10.326  13.089  -7.249  1.00  0.00     0.000 C 
BRANCH  19  20
ATOM     20  C   UNL     1     -10.710  12.887  -5.771  1.00  0.00     0.006 C 
BRANCH  20  21
ATOM     21  C   UNL     1      -9.925  11.777  -5.056  1.00  0.00     0.053 C 
BRANCH  21  22
ATOM     22  C   UNL     1      -8.612  11.497  -5.722  1.00  0.00     0.041 C 
ATOM     23  O   UNL     1      -7.659  12.312  -5.611  1.00  0.00    -0.550 OA
ATOM     24  O   UNL     1      -8.453  10.352  -6.492  1.00  0.00    -0.550 OA
ENDBRANCH  21  22
ENDBRANCH  20  21
ENDBRANCH  19  20
ENDBRANCH  18  19
ENDBRANCH  17  18
ENDBRANCH  16  17
ENDBRANCH  15  16
ENDBRANCH  14  15
ENDBRANCH  13  14
ENDBRANCH   1  13
TORSDOF 20
ENDMDL
