MODEL 1
REMARK VINA RESULT:    -4.473      0.000      0.000
REMARK INTER + INTRA:          -5.261
REMARK INTER:                  -5.519
REMARK INTRA:                   0.258
REMARK UNBOUND:                 0.258
REMARK SMILES CC(C)=CCC[C@H](C)c1ccc(C)cc1
REMARK SMILES IDX 6 1 7 2 8 3 9 4 13 5 12 6 11 7 14 8 10 9 15 10 5 11 4 12
REMARK SMILES IDX 2 13 1 14 3 15
REMARK H PARENT
REMARK Flexibility Score: inf
ROOT
ATOM      1  C   UNL     1      12.389   4.210  17.977  1.00  0.00     0.012 C 
ENDROOT
BRANCH   1   2
ATOM      2  C   UNL     1      12.095   5.534  18.716  1.00  0.00     0.016 C 
ATOM      3  C   UNL     1      11.229   6.489  17.878  1.00  0.00     0.013 C 
BRANCH   2   4
ATOM      4  C   UNL     1      13.392   6.215  19.117  1.00  0.00    -0.045 A 
ATOM      5  C   UNL     1      17.081   8.125  20.301  1.00  0.00     0.044 C 
ATOM      6  C   UNL     1      15.790   7.489  19.878  1.00  0.00    -0.051 A 
ATOM      7  C   UNL     1      14.709   7.425  20.768  1.00  0.00     0.004 A 
ATOM      8  C   UNL     1      15.678   6.890  18.616  1.00  0.00     0.004 A 
ATOM      9  C   UNL     1      13.518   6.800  20.389  1.00  0.00     0.004 A 
ATOM     10  C   UNL     1      14.487   6.265  18.234  1.00  0.00     0.004 A 
ENDBRANCH   2   4
ENDBRANCH   1   2
BRANCH   1  11
ATOM     11  C   UNL     1      11.166   3.284  17.909  1.00  0.00     0.028 C 
BRANCH  11  12
ATOM     12  C   UNL     1       9.888   4.085  17.950  1.00  0.00    -0.028 C 
ATOM     13  C   UNL     1       8.656   3.549  18.112  1.00  0.00    -0.080 C 
ATOM     14  C   UNL     1       7.448   4.449  18.165  1.00  0.00     0.039 C 
ATOM     15  C   UNL     1       8.435   2.059  18.195  1.00  0.00     0.039 C 
ENDBRANCH  11  12
ENDBRANCH   1  11
TORSDOF 4
ENDMDL
MODEL 2
REMARK VINA RESULT:    -3.885      1.063      6.853
REMARK INTER + INTRA:          -4.535
REMARK INTER:                  -4.260
REMARK INTRA:                  -0.275
REMARK UNBOUND:                 0.258
REMARK SMILES CC(C)=CCC[C@H](C)c1ccc(C)cc1
REMARK SMILES IDX 6 1 7 2 8 3 9 4 13 5 12 6 11 7 14 8 10 9 15 10 5 11 4 12
REMARK SMILES IDX 2 13 1 14 3 15
REMARK H PARENT
REMARK Flexibility Score: inf
ROOT
ATOM      1  C   UNL     1      13.784   5.459  18.069  1.00  0.00     0.012 C 
ENDROOT
BRANCH   1   2
ATOM      2  C   UNL     1      12.378   6.074  18.253  1.00  0.00     0.016 C 
ATOM      3  C   UNL     1      12.249   6.843  19.578  1.00  0.00     0.013 C 
BRANCH   2   4
ATOM      4  C   UNL     1      11.314   4.994  18.166  1.00  0.00    -0.045 A 
ATOM      5  C   UNL     1       8.266   1.948  17.876  1.00  0.00     0.044 C 
ATOM      6  C   UNL     1       9.321   3.006  18.008  1.00  0.00    -0.051 A 
ATOM      7  C   UNL     1       8.976   4.361  17.922  1.00  0.00     0.004 A 
ATOM      8  C   UNL     1      10.669   2.646  18.147  1.00  0.00     0.004 A 
ATOM      9  C   UNL     1       9.962   5.348  18.007  1.00  0.00     0.004 A 
ATOM     10  C   UNL     1      11.657   3.631  18.232  1.00  0.00     0.004 A 
ENDBRANCH   2   4
ENDBRANCH   1   2
BRANCH   1  11
ATOM     11  C   UNL     1      14.875   6.522  17.876  1.00  0.00     0.028 C 
BRANCH  11  12
ATOM     12  C   UNL     1      15.485   6.908  19.201  1.00  0.00    -0.028 C 
ATOM     13  C   UNL     1      16.434   7.859  19.356  1.00  0.00    -0.080 C 
ATOM     14  C   UNL     1      16.954   8.183  20.733  1.00  0.00     0.039 C 
ATOM     15  C   UNL     1      17.039   8.587  18.180  1.00  0.00     0.039 C 
ENDBRANCH  11  12
ENDBRANCH   1  11
TORSDOF 4
ENDMDL
MODEL 3
REMARK VINA RESULT:    -2.258      1.086      1.268
REMARK INTER + INTRA:          -2.529
REMARK INTER:                  -2.026
REMARK INTRA:                  -0.503
REMARK UNBOUND:                 0.258
REMARK SMILES CC(C)=CCC[C@H](C)c1ccc(C)cc1
REMARK SMILES IDX 6 1 7 2 8 3 9 4 13 5 12 6 11 7 14 8 10 9 15 10 5 11 4 12
REMARK SMILES IDX 2 13 1 14 3 15
REMARK H PARENT
REMARK Flexibility Score: inf
ROOT
ATOM      1  C   UNL     1      12.106   3.783  17.875  1.00  0.00     0.012 C 
ENDROOT
BRANCH   1   2
ATOM      2  C   UNL     1      11.773   5.075  18.656  1.00  0.00     0.016 C 
ATOM      3  C   UNL     1      10.794   5.981  17.892  1.00  0.00     0.013 C 
BRANCH   2   4
ATOM      4  C   UNL     1      13.044   5.836  18.986  1.00  0.00    -0.045 A 
ATOM      5  C   UNL     1      16.664   7.976  19.973  1.00  0.00     0.044 C 
ATOM      6  C   UNL     1      15.396   7.259  19.617  1.00  0.00    -0.051 A 
ATOM      7  C   UNL     1      14.333   7.209  20.530  1.00  0.00     0.004 A 
ATOM      8  C   UNL     1      15.290   6.573  18.399  1.00  0.00     0.004 A 
ATOM      9  C   UNL     1      13.165   6.509  20.215  1.00  0.00     0.004 A 
ATOM     10  C   UNL     1      14.123   5.873  18.082  1.00  0.00     0.004 A 
ENDBRANCH   2   4
ENDBRANCH   1   2
BRANCH   1  11
ATOM     11  C   UNL     1      11.449   2.536  18.484  1.00  0.00     0.028 C 
BRANCH  11  12
ATOM     12  C   UNL     1       9.968   2.518  18.196  1.00  0.00    -0.028 C 
ATOM     13  C   UNL     1       9.104   1.608  18.700  1.00  0.00    -0.080 C 
ATOM     14  C   UNL     1       7.637   1.702  18.366  1.00  0.00     0.039 C 
ATOM     15  C   UNL     1       9.564   0.454  19.557  1.00  0.00     0.039 C 
ENDBRANCH  11  12
ENDBRANCH   1  11
TORSDOF 4
ENDMDL
MODEL 4
REMARK VINA RESULT:    -2.041      1.913      3.550
REMARK INTER + INTRA:          -2.261
REMARK INTER:                  -1.471
REMARK INTRA:                  -0.790
REMARK UNBOUND:                 0.258
REMARK SMILES CC(C)=CCC[C@H](C)c1ccc(C)cc1
REMARK SMILES IDX 6 1 7 2 8 3 9 4 13 5 12 6 11 7 14 8 10 9 15 10 5 11 4 12
REMARK SMILES IDX 2 13 1 14 3 15
REMARK H PARENT
REMARK Flexibility Score: inf
ROOT
ATOM      1  C   UNL     1       9.387   2.025  19.050  1.00  0.00     0.012 C 
ENDROOT
BRANCH   1   2
ATOM      2  C   UNL     1      10.599   2.357  18.150  1.00  0.00     0.016 C 
ATOM      3  C   UNL     1      11.679   1.262  18.201  1.00  0.00     0.013 C 
BRANCH   2   4
ATOM      4  C   UNL     1      11.193   3.699  18.537  1.00  0.00    -0.045 A 
ATOM      5  C   UNL     1      12.933   7.498  19.634  1.00  0.00     0.044 C 
ATOM      6  C   UNL     1      12.307   6.183  19.275  1.00  0.00    -0.051 A 
ATOM      7  C   UNL     1      12.772   4.997  19.861  1.00  0.00     0.004 A 
ATOM      8  C   UNL     1      11.302   6.120  18.300  1.00  0.00     0.004 A 
ATOM      9  C   UNL     1      12.215   3.766  19.501  1.00  0.00     0.004 A 
ATOM     10  C   UNL     1      10.744   4.891  17.938  1.00  0.00     0.004 A 
ENDBRANCH   2   4
ENDBRANCH   1   2
BRANCH   1  11
ATOM     11  C   UNL     1       8.067   1.970  18.269  1.00  0.00     0.028 C 
BRANCH  11  12
ATOM     12  C   UNL     1       7.621   3.357  17.875  1.00  0.00    -0.028 C 
ATOM     13  C   UNL     1       7.172   4.290  18.745  1.00  0.00    -0.080 C 
ATOM     14  C   UNL     1       6.778   5.655  18.243  1.00  0.00     0.039 C 
ATOM     15  C   UNL     1       7.001   3.999  20.216  1.00  0.00     0.039 C 
ENDBRANCH  11  12
ENDBRANCH   1  11
TORSDOF 4
ENDMDL
