MODEL 1
REMARK VINA RESULT:    -7.316      0.000      0.000
REMARK INTER + INTRA:          -9.415
REMARK INTER:                  -9.027
REMARK INTRA:                  -0.389
REMARK UNBOUND:                -0.389
REMARK SMILES O=C1c2c(O)cc(O)cc2O[C@@H](c2cc(O)c(O)c(O)c2)[C@@H]1O
REMARK SMILES IDX 12 1 22 2 2 3 1 4 3 5 4 6 6 7 7 8 9 9 10 10 11 11 13 12
REMARK SMILES IDX 14 13 15 14 21 15 17 16 19 17 16 18 18 20 20 22 23 24 5 26
REMARK SMILES IDX 8 28
REMARK H PARENT 16 19 18 21 20 23 23 25 5 27 8 29
REMARK Flexibility Score: inf
ROOT
ATOM      1  C   UNL     1      17.146 -42.461  30.215  1.00  0.00     0.240 C 
ATOM      2  C   UNL     1      17.803 -41.152  30.701  1.00  0.00     0.231 C 
ATOM      3  C   UNL     1      17.746 -40.127  29.597  1.00  0.00     0.202 C 
ATOM      4  O   UNL     1      17.399 -38.944  29.860  1.00  0.00    -0.291 OA
ATOM      5  C   UNL     1      18.060 -40.555  28.212  1.00  0.00     0.105 A 
ATOM      6  C   UNL     1      18.411 -39.662  27.163  1.00  0.00     0.133 A 
ATOM      7  C   UNL     1      18.617 -40.162  25.871  1.00  0.00     0.093 A 
ATOM      8  C   UNL     1      18.543 -41.531  25.613  1.00  0.00     0.123 A 
ATOM      9  C   UNL     1      18.250 -42.419  26.652  1.00  0.00     0.093 A 
ATOM     10  C   UNL     1      17.998 -41.940  27.939  1.00  0.00     0.138 A 
ATOM     11  O   UNL     1      17.693 -42.856  28.954  1.00  0.00    -0.481 OA
ENDROOT
BRANCH   1  12
ATOM     12  C   UNL     1      17.333 -43.570  31.223  1.00  0.00     0.003 A 
ATOM     13  C   UNL     1      16.227 -44.118  31.893  1.00  0.00     0.058 A 
ATOM     14  C   UNL     1      16.397 -45.167  32.807  1.00  0.00     0.161 A 
ATOM     15  C   UNL     1      18.610 -44.099  31.463  1.00  0.00     0.058 A 
ATOM     16  C   UNL     1      17.681 -45.682  33.053  1.00  0.00     0.200 A 
ATOM     17  C   UNL     1      18.789 -45.144  32.374  1.00  0.00     0.161 A 
BRANCH  14  18
ATOM     18  O   UNL     1      15.293 -45.699  33.471  1.00  0.00    -0.504 OA
ATOM     19  H   UNL     1      14.847 -46.556  33.162  1.00  0.00     0.293 HD
ENDBRANCH  14  18
BRANCH  16  20
ATOM     20  O   UNL     1      17.869 -46.724  33.962  1.00  0.00    -0.502 OA
ATOM     21  H   UNL     1      18.730 -46.838  34.482  1.00  0.00     0.293 HD
ENDBRANCH  16  20
BRANCH  17  22
ATOM     22  O   UNL     1      20.075 -45.638  32.591  1.00  0.00    -0.504 OA
ATOM     23  H   UNL     1      20.361 -46.026  33.482  1.00  0.00     0.293 HD
ENDBRANCH  17  22
ENDBRANCH   1  12
BRANCH   2  24
ATOM     24  O   UNL     1      17.187 -40.681  31.876  1.00  0.00    -0.381 OA
ATOM     25  H   UNL     1      17.319 -41.366  32.583  1.00  0.00     0.211 HD
ENDBRANCH   2  24
BRANCH   6  26
ATOM     26  O   UNL     1      18.598 -38.291  27.357  1.00  0.00    -0.507 OA
ATOM     27  H   UNL     1      19.453 -37.881  27.703  1.00  0.00     0.293 HD
ENDBRANCH   6  26
BRANCH   8  28
ATOM     28  O   UNL     1      18.773 -42.000  24.321  1.00  0.00    -0.508 OA
ATOM     29  H   UNL     1      18.012 -42.140  23.665  1.00  0.00     0.293 HD
ENDBRANCH   8  28
TORSDOF 7
ENDMDL
MODEL 2
REMARK VINA RESULT:    -7.299      0.121      1.758
REMARK INTER + INTRA:          -9.395
REMARK INTER:                  -9.017
REMARK INTRA:                  -0.378
REMARK UNBOUND:                -0.389
REMARK SMILES O=C1c2c(O)cc(O)cc2O[C@@H](c2cc(O)c(O)c(O)c2)[C@@H]1O
REMARK SMILES IDX 12 1 22 2 2 3 1 4 3 5 4 6 6 7 7 8 9 9 10 10 11 11 13 12
REMARK SMILES IDX 14 13 15 14 21 15 17 16 19 17 16 18 18 20 20 22 23 24 5 26
REMARK SMILES IDX 8 28
REMARK H PARENT 16 19 18 21 20 23 23 25 5 27 8 29
REMARK Flexibility Score: inf
ROOT
ATOM      1  C   UNL     1      17.114 -42.424  30.228  1.00  0.00     0.240 C 
ATOM      2  C   UNL     1      17.806 -41.146  30.747  1.00  0.00     0.231 C 
ATOM      3  C   UNL     1      17.761 -40.085  29.676  1.00  0.00     0.202 C 
ATOM      4  O   UNL     1      17.442 -38.904  29.978  1.00  0.00    -0.291 OA
ATOM      5  C   UNL     1      18.051 -40.477  28.274  1.00  0.00     0.105 A 
ATOM      6  C   UNL     1      18.411 -39.560  27.250  1.00  0.00     0.133 A 
ATOM      7  C   UNL     1      18.594 -40.024  25.941  1.00  0.00     0.093 A 
ATOM      8  C   UNL     1      18.487 -41.383  25.642  1.00  0.00     0.123 A 
ATOM      9  C   UNL     1      18.183 -42.296  26.656  1.00  0.00     0.093 A 
ATOM     10  C   UNL     1      17.955 -41.851  27.960  1.00  0.00     0.138 A 
ATOM     11  O   UNL     1      17.640 -42.792  28.950  1.00  0.00    -0.481 OA
ENDROOT
BRANCH   1  12
ATOM     12  C   UNL     1      17.287 -43.567  31.200  1.00  0.00     0.003 A 
ATOM     13  C   UNL     1      18.554 -44.135  31.413  1.00  0.00     0.058 A 
ATOM     14  C   UNL     1      18.720 -45.176  32.337  1.00  0.00     0.161 A 
ATOM     15  C   UNL     1      16.192 -44.039  31.938  1.00  0.00     0.058 A 
ATOM     16  C   UNL     1      17.615 -45.653  33.062  1.00  0.00     0.200 A 
ATOM     17  C   UNL     1      16.348 -45.078  32.861  1.00  0.00     0.161 A 
BRANCH  14  18
ATOM     18  O   UNL     1      19.981 -45.737  32.537  1.00  0.00    -0.504 OA
ATOM     19  H   UNL     1      20.727 -45.222  32.990  1.00  0.00     0.293 HD
ENDBRANCH  14  18
BRANCH  16  20
ATOM     20  O   UNL     1      17.762 -46.691  33.984  1.00  0.00    -0.502 OA
ATOM     21  H   UNL     1      16.987 -47.280  34.262  1.00  0.00     0.293 HD
ENDBRANCH  16  20
BRANCH  17  22
ATOM     22  O   UNL     1      15.233 -45.524  33.570  1.00  0.00    -0.504 OA
ATOM     23  H   UNL     1      14.287 -45.361  33.247  1.00  0.00     0.293 HD
ENDBRANCH  17  22
ENDBRANCH   1  12
BRANCH   2  24
ATOM     24  O   UNL     1      17.212 -40.697  31.943  1.00  0.00    -0.381 OA
ATOM     25  H   UNL     1      16.242 -40.572  31.770  1.00  0.00     0.211 HD
ENDBRANCH   2  24
BRANCH   6  26
ATOM     26  O   UNL     1      18.632 -38.200  27.484  1.00  0.00    -0.507 OA
ATOM     27  H   UNL     1      18.565 -37.765  28.391  1.00  0.00     0.293 HD
ENDBRANCH   6  26
BRANCH   8  28
ATOM     28  O   UNL     1      18.693 -41.817  24.334  1.00  0.00    -0.508 OA
ATOM     29  H   UNL     1      19.588 -42.184  24.032  1.00  0.00     0.293 HD
ENDBRANCH   8  28
TORSDOF 7
ENDMDL
MODEL 3
REMARK VINA RESULT:    -6.681      3.309      4.202
REMARK INTER + INTRA:          -8.632
REMARK INTER:                  -8.394
REMARK INTRA:                  -0.238
REMARK UNBOUND:                -0.389
REMARK SMILES O=C1c2c(O)cc(O)cc2O[C@@H](c2cc(O)c(O)c(O)c2)[C@@H]1O
REMARK SMILES IDX 12 1 22 2 2 3 1 4 3 5 4 6 6 7 7 8 9 9 10 10 11 11 13 12
REMARK SMILES IDX 14 13 15 14 21 15 17 16 19 17 16 18 18 20 20 22 23 24 5 26
REMARK SMILES IDX 8 28
REMARK H PARENT 16 19 18 21 20 23 23 25 5 27 8 29
REMARK Flexibility Score: inf
ROOT
ATOM      1  C   UNL     1      16.208 -44.093  31.710  1.00  0.00     0.240 C 
ATOM      2  C   UNL     1      15.365 -42.978  32.363  1.00  0.00     0.231 C 
ATOM      3  C   UNL     1      14.105 -42.770  31.560  1.00  0.00     0.202 C 
ATOM      4  O   UNL     1      12.998 -42.657  32.150  1.00  0.00    -0.291 OA
ATOM      5  C   UNL     1      14.202 -42.752  30.079  1.00  0.00     0.105 A 
ATOM      6  C   UNL     1      13.206 -42.206  29.224  1.00  0.00     0.133 A 
ATOM      7  C   UNL     1      13.360 -42.305  27.835  1.00  0.00     0.093 A 
ATOM      8  C   UNL     1      14.505 -42.876  27.280  1.00  0.00     0.123 A 
ATOM      9  C   UNL     1      15.512 -43.368  28.117  1.00  0.00     0.093 A 
ATOM     10  C   UNL     1      15.361 -43.319  29.504  1.00  0.00     0.138 A 
ATOM     11  O   UNL     1      16.382 -43.834  30.314  1.00  0.00    -0.481 OA
ENDROOT
BRANCH   1  12
ATOM     12  C   UNL     1      17.556 -44.216  32.379  1.00  0.00     0.003 A 
ATOM     13  C   UNL     1      18.194 -43.082  32.910  1.00  0.00     0.058 A 
ATOM     14  C   UNL     1      19.432 -43.200  33.558  1.00  0.00     0.161 A 
ATOM     15  C   UNL     1      18.162 -45.473  32.523  1.00  0.00     0.058 A 
ATOM     16  C   UNL     1      20.039 -44.461  33.685  1.00  0.00     0.200 A 
ATOM     17  C   UNL     1      19.397 -45.600  33.167  1.00  0.00     0.161 A 
BRANCH  14  18
ATOM     18  O   UNL     1      20.059 -42.068  34.075  1.00  0.00    -0.504 OA
ATOM     19  H   UNL     1      20.522 -42.081  34.977  1.00  0.00     0.293 HD
ENDBRANCH  14  18
BRANCH  16  20
ATOM     20  O   UNL     1      21.272 -44.596  34.325  1.00  0.00    -0.502 OA
ATOM     21  H   UNL     1      21.508 -45.413  34.874  1.00  0.00     0.293 HD
ENDBRANCH  16  20
BRANCH  17  22
ATOM     22  O   UNL     1      19.970 -46.866  33.284  1.00  0.00    -0.504 OA
ATOM     23  H   UNL     1      20.955 -47.029  33.113  1.00  0.00     0.293 HD
ENDBRANCH  17  22
ENDBRANCH   1  12
BRANCH   2  24
ATOM     24  O   UNL     1      15.075 -43.282  33.707  1.00  0.00    -0.381 OA
ATOM     25  H   UNL     1      15.482 -44.164  33.912  1.00  0.00     0.211 HD
ENDBRANCH   2  24
BRANCH   6  26
ATOM     26  O   UNL     1      12.077 -41.534  29.697  1.00  0.00    -0.507 OA
ATOM     27  H   UNL     1      11.703 -41.642  30.627  1.00  0.00     0.293 HD
ENDBRANCH   6  26
BRANCH   8  28
ATOM     28  O   UNL     1      14.639 -42.943  25.895  1.00  0.00    -0.508 OA
ATOM     29  H   UNL     1      14.453 -43.799  25.385  1.00  0.00     0.293 HD
ENDBRANCH   8  28
TORSDOF 7
ENDMDL
MODEL 4
REMARK VINA RESULT:    -6.600      1.445      3.533
REMARK INTER + INTRA:          -8.532
REMARK INTER:                  -8.146
REMARK INTRA:                  -0.386
REMARK UNBOUND:                -0.389
REMARK SMILES O=C1c2c(O)cc(O)cc2O[C@@H](c2cc(O)c(O)c(O)c2)[C@@H]1O
REMARK SMILES IDX 12 1 22 2 2 3 1 4 3 5 4 6 6 7 7 8 9 9 10 10 11 11 13 12
REMARK SMILES IDX 14 13 15 14 21 15 17 16 19 17 16 18 18 20 20 22 23 24 5 26
REMARK SMILES IDX 8 28
REMARK H PARENT 16 19 18 21 20 23 23 25 5 27 8 29
REMARK Flexibility Score: inf
ROOT
ATOM      1  C   UNL     1      17.648 -43.697  29.361  1.00  0.00     0.240 C 
ATOM      2  C   UNL     1      16.946 -44.110  28.049  1.00  0.00     0.231 C 
ATOM      3  C   UNL     1      17.614 -43.417  26.888  1.00  0.00     0.202 C 
ATOM      4  O   UNL     1      17.886 -44.068  25.844  1.00  0.00    -0.291 OA
ATOM      5  C   UNL     1      17.978 -41.985  27.028  1.00  0.00     0.105 A 
ATOM      6  C   UNL     1      18.254 -41.124  25.932  1.00  0.00     0.133 A 
ATOM      7  C   UNL     1      18.660 -39.806  26.175  1.00  0.00     0.093 A 
ATOM      8  C   UNL     1      18.738 -39.309  27.476  1.00  0.00     0.123 A 
ATOM      9  C   UNL     1      18.418 -40.137  28.556  1.00  0.00     0.093 A 
ATOM     10  C   UNL     1      18.052 -41.467  28.340  1.00  0.00     0.138 A 
ATOM     11  O   UNL     1      17.751 -42.274  29.446  1.00  0.00    -0.481 OA
ENDROOT
BRANCH   1  12
ATOM     12  C   UNL     1      16.905 -44.229  30.564  1.00  0.00     0.003 A 
ATOM     13  C   UNL     1      17.564 -45.034  31.509  1.00  0.00     0.058 A 
ATOM     14  C   UNL     1      16.883 -45.503  32.641  1.00  0.00     0.161 A 
ATOM     15  C   UNL     1      15.563 -43.883  30.776  1.00  0.00     0.058 A 
ATOM     16  C   UNL     1      15.534 -45.163  32.839  1.00  0.00     0.200 A 
ATOM     17  C   UNL     1      14.876 -44.347  31.902  1.00  0.00     0.161 A 
BRANCH  14  18
ATOM     18  O   UNL     1      17.544 -46.306  33.569  1.00  0.00    -0.504 OA
ATOM     19  H   UNL     1      17.379 -46.215  34.565  1.00  0.00     0.293 HD
ENDBRANCH  14  18
BRANCH  16  20
ATOM     20  O   UNL     1      14.841 -45.624  33.959  1.00  0.00    -0.502 OA
ATOM     21  H   UNL     1      15.316 -45.936  34.797  1.00  0.00     0.293 HD
ENDBRANCH  16  20
BRANCH  17  22
ATOM     22  O   UNL     1      13.540 -43.987  32.074  1.00  0.00    -0.504 OA
ATOM     23  H   UNL     1      12.789 -44.442  31.570  1.00  0.00     0.293 HD
ENDBRANCH  17  22
ENDBRANCH   1  12
BRANCH   2  24
ATOM     24  O   UNL     1      16.951 -45.508  27.889  1.00  0.00    -0.381 OA
ATOM     25  H   UNL     1      16.051 -45.779  27.569  1.00  0.00     0.211 HD
ENDBRANCH   2  24
BRANCH   6  26
ATOM     26  O   UNL     1      18.108 -41.513  24.598  1.00  0.00    -0.507 OA
ATOM     27  H   UNL     1      17.769 -40.907  23.866  1.00  0.00     0.293 HD
ENDBRANCH   6  26
BRANCH   8  28
ATOM     28  O   UNL     1      19.126 -37.988  27.686  1.00  0.00    -0.508 OA
ATOM     29  H   UNL     1      19.078 -37.297  26.945  1.00  0.00     0.293 HD
ENDBRANCH   8  28
TORSDOF 7
ENDMDL
MODEL 5
REMARK VINA RESULT:    -6.600      3.735      5.938
REMARK INTER + INTRA:          -8.531
REMARK INTER:                  -8.144
REMARK INTRA:                  -0.388
REMARK UNBOUND:                -0.389
REMARK SMILES O=C1c2c(O)cc(O)cc2O[C@@H](c2cc(O)c(O)c(O)c2)[C@@H]1O
REMARK SMILES IDX 12 1 22 2 2 3 1 4 3 5 4 6 6 7 7 8 9 9 10 10 11 11 13 12
REMARK SMILES IDX 14 13 15 14 21 15 17 16 19 17 16 18 18 20 20 22 23 24 5 26
REMARK SMILES IDX 8 28
REMARK H PARENT 16 19 18 21 20 23 23 25 5 27 8 29
REMARK Flexibility Score: inf
ROOT
ATOM      1  C   UNL     1      15.417 -44.441  31.181  1.00  0.00     0.240 C 
ATOM      2  C   UNL     1      14.773 -43.124  31.664  1.00  0.00     0.231 C 
ATOM      3  C   UNL     1      13.275 -43.288  31.703  1.00  0.00     0.202 C 
ATOM      4  O   UNL     1      12.626 -42.872  32.700  1.00  0.00    -0.291 OA
ATOM      5  C   UNL     1      12.605 -43.983  30.575  1.00  0.00     0.105 A 
ATOM      6  C   UNL     1      11.216 -43.882  30.291  1.00  0.00     0.133 A 
ATOM      7  C   UNL     1      10.670 -44.637  29.245  1.00  0.00     0.093 A 
ATOM      8  C   UNL     1      11.481 -45.439  28.441  1.00  0.00     0.123 A 
ATOM      9  C   UNL     1      12.856 -45.501  28.684  1.00  0.00     0.093 A 
ATOM     10  C   UNL     1      13.417 -44.791  29.748  1.00  0.00     0.138 A 
ATOM     11  O   UNL     1      14.797 -44.886  29.972  1.00  0.00    -0.481 OA
ENDROOT
BRANCH   1  12
ATOM     12  C   UNL     1      16.902 -44.270  30.961  1.00  0.00     0.003 A 
ATOM     13  C   UNL     1      17.825 -44.946  31.776  1.00  0.00     0.058 A 
ATOM     14  C   UNL     1      19.203 -44.811  31.553  1.00  0.00     0.161 A 
ATOM     15  C   UNL     1      17.373 -43.474  29.906  1.00  0.00     0.058 A 
ATOM     16  C   UNL     1      19.667 -44.000  30.503  1.00  0.00     0.200 A 
ATOM     17  C   UNL     1      18.745 -43.333  29.677  1.00  0.00     0.161 A 
BRANCH  14  18
ATOM     18  O   UNL     1      20.110 -45.481  32.372  1.00  0.00    -0.504 OA
ATOM     19  H   UNL     1      20.054 -45.428  33.383  1.00  0.00     0.293 HD
ENDBRANCH  14  18
BRANCH  16  20
ATOM     20  O   UNL     1      21.035 -43.852  30.269  1.00  0.00    -0.502 OA
ATOM     21  H   UNL     1      21.395 -43.436  29.419  1.00  0.00     0.293 HD
ENDBRANCH  16  20
BRANCH  17  22
ATOM     22  O   UNL     1      19.174 -42.527  28.623  1.00  0.00    -0.504 OA
ATOM     23  H   UNL     1      20.156 -42.381  28.421  1.00  0.00     0.293 HD
ENDBRANCH  17  22
ENDBRANCH   1  12
BRANCH   2  24
ATOM     24  O   UNL     1      15.284 -42.740  32.919  1.00  0.00    -0.381 OA
ATOM     25  H   UNL     1      15.798 -43.507  33.284  1.00  0.00     0.211 HD
ENDBRANCH   2  24
BRANCH   6  26
ATOM     26  O   UNL     1      10.353 -43.031  30.986  1.00  0.00    -0.507 OA
ATOM     27  H   UNL     1      10.087 -42.113  30.666  1.00  0.00     0.293 HD
ENDBRANCH   6  26
BRANCH   8  28
ATOM     28  O   UNL     1      10.911 -46.163  27.396  1.00  0.00    -0.508 OA
ATOM     29  H   UNL     1       9.956 -46.499  27.443  1.00  0.00     0.293 HD
ENDBRANCH   8  28
TORSDOF 7
ENDMDL
MODEL 6
REMARK VINA RESULT:    -6.596      5.261      7.479
REMARK INTER + INTRA:          -8.527
REMARK INTER:                  -8.143
REMARK INTRA:                  -0.385
REMARK UNBOUND:                -0.389
REMARK SMILES O=C1c2c(O)cc(O)cc2O[C@@H](c2cc(O)c(O)c(O)c2)[C@@H]1O
REMARK SMILES IDX 12 1 22 2 2 3 1 4 3 5 4 6 6 7 7 8 9 9 10 10 11 11 13 12
REMARK SMILES IDX 14 13 15 14 21 15 17 16 19 17 16 18 18 20 20 22 23 24 5 26
REMARK SMILES IDX 8 28
REMARK H PARENT 16 19 18 21 20 23 23 25 5 27 8 29
REMARK Flexibility Score: inf
ROOT
ATOM      1  C   UNL     1      13.095 -44.088  29.282  1.00  0.00     0.240 C 
ATOM      2  C   UNL     1      12.446 -43.821  30.657  1.00  0.00     0.231 C 
ATOM      3  C   UNL     1      13.472 -43.218  31.584  1.00  0.00     0.202 C 
ATOM      4  O   UNL     1      13.163 -42.227  32.298  1.00  0.00    -0.291 OA
ATOM      5  C   UNL     1      14.842 -43.787  31.593  1.00  0.00     0.105 A 
ATOM      6  C   UNL     1      15.779 -43.588  32.644  1.00  0.00     0.133 A 
ATOM      7  C   UNL     1      17.073 -44.108  32.522  1.00  0.00     0.093 A 
ATOM      8  C   UNL     1      17.437 -44.870  31.412  1.00  0.00     0.123 A 
ATOM      9  C   UNL     1      16.504 -45.112  30.399  1.00  0.00     0.093 A 
ATOM     10  C   UNL     1      15.220 -44.568  30.479  1.00  0.00     0.138 A 
ATOM     11  O   UNL     1      14.314 -44.819  29.440  1.00  0.00    -0.481 OA
ENDROOT
BRANCH   1  12
ATOM     12  C   UNL     1      12.156 -44.849  28.377  1.00  0.00     0.003 A 
ATOM     13  C   UNL     1      11.759 -46.158  28.701  1.00  0.00     0.058 A 
ATOM     14  C   UNL     1      10.864 -46.854  27.876  1.00  0.00     0.161 A 
ATOM     15  C   UNL     1      11.628 -44.237  27.230  1.00  0.00     0.058 A 
ATOM     16  C   UNL     1      10.352 -46.239  26.722  1.00  0.00     0.200 A 
ATOM     17  C   UNL     1      10.735 -44.924  26.403  1.00  0.00     0.161 A 
BRANCH  14  18
ATOM     18  O   UNL     1      10.483 -48.154  28.203  1.00  0.00    -0.504 OA
ATOM     19  H   UNL     1      10.731 -48.944  27.618  1.00  0.00     0.293 HD
ENDBRANCH  14  18
BRANCH  16  20
ATOM     20  O   UNL     1       9.462 -46.919  25.889  1.00  0.00    -0.502 OA
ATOM     21  H   UNL     1       9.502 -46.843  24.879  1.00  0.00     0.293 HD
ENDBRANCH  16  20
BRANCH  17  22
ATOM     22  O   UNL     1      10.238 -44.285  25.267  1.00  0.00    -0.504 OA
ATOM     23  H   UNL     1       9.679 -44.770  24.576  1.00  0.00     0.293 HD
ENDBRANCH  17  22
ENDBRANCH   1  12
BRANCH   2  24
ATOM     24  O   UNL     1      11.314 -42.993  30.531  1.00  0.00    -0.381 OA
ATOM     25  H   UNL     1      10.949 -42.839  31.442  1.00  0.00     0.211 HD
ENDBRANCH   2  24
BRANCH   6  26
ATOM     26  O   UNL     1      15.466 -42.920  33.831  1.00  0.00    -0.507 OA
ATOM     27  H   UNL     1      14.639 -43.099  34.379  1.00  0.00     0.293 HD
ENDBRANCH   6  26
BRANCH   8  28
ATOM     28  O   UNL     1      18.727 -45.391  31.328  1.00  0.00    -0.508 OA
ATOM     29  H   UNL     1      19.055 -46.101  31.972  1.00  0.00     0.293 HD
ENDBRANCH   8  28
TORSDOF 7
ENDMDL
MODEL 7
REMARK VINA RESULT:    -6.564      1.395      6.987
REMARK INTER + INTRA:          -8.487
REMARK INTER:                  -8.170
REMARK INTRA:                  -0.317
REMARK UNBOUND:                -0.389
REMARK SMILES O=C1c2c(O)cc(O)cc2O[C@@H](c2cc(O)c(O)c(O)c2)[C@@H]1O
REMARK SMILES IDX 12 1 22 2 2 3 1 4 3 5 4 6 6 7 7 8 9 9 10 10 11 11 13 12
REMARK SMILES IDX 14 13 15 14 21 15 17 16 19 17 16 18 18 20 20 22 23 24 5 26
REMARK SMILES IDX 8 28
REMARK H PARENT 16 19 18 21 20 23 23 25 5 27 8 29
REMARK Flexibility Score: inf
ROOT
ATOM      1  C   UNL     1      17.684 -41.655  30.370  1.00  0.00     0.240 C 
ATOM      2  C   UNL     1      16.295 -42.320  30.264  1.00  0.00     0.231 C 
ATOM      3  C   UNL     1      16.077 -43.210  31.462  1.00  0.00     0.202 C 
ATOM      4  O   UNL     1      14.973 -43.179  32.070  1.00  0.00    -0.291 OA
ATOM      5  C   UNL     1      17.195 -44.070  31.923  1.00  0.00     0.105 A 
ATOM      6  C   UNL     1      17.031 -45.202  32.768  1.00  0.00     0.133 A 
ATOM      7  C   UNL     1      18.161 -45.905  33.205  1.00  0.00     0.093 A 
ATOM      8  C   UNL     1      19.438 -45.547  32.773  1.00  0.00     0.123 A 
ATOM      9  C   UNL     1      19.600 -44.467  31.901  1.00  0.00     0.093 A 
ATOM     10  C   UNL     1      18.492 -43.724  31.486  1.00  0.00     0.138 A 
ATOM     11  O   UNL     1      18.691 -42.639  30.622  1.00  0.00    -0.481 OA
ENDROOT
BRANCH   1  12
ATOM     12  C   UNL     1      18.018 -40.892  29.110  1.00  0.00     0.003 A 
ATOM     13  C   UNL     1      17.722 -41.436  27.849  1.00  0.00     0.058 A 
ATOM     14  C   UNL     1      18.005 -40.716  26.680  1.00  0.00     0.161 A 
ATOM     15  C   UNL     1      18.581 -39.610  29.188  1.00  0.00     0.058 A 
ATOM     16  C   UNL     1      18.581 -39.437  26.767  1.00  0.00     0.200 A 
ATOM     17  C   UNL     1      18.866 -38.884  28.028  1.00  0.00     0.161 A 
BRANCH  14  18
ATOM     18  O   UNL     1      17.713 -41.268  25.434  1.00  0.00    -0.504 OA
ATOM     19  H   UNL     1      17.040 -42.018  25.328  1.00  0.00     0.293 HD
ENDBRANCH  14  18
BRANCH  16  20
ATOM     20  O   UNL     1      18.871 -38.708  25.613  1.00  0.00    -0.502 OA
ATOM     21  H   UNL     1      19.429 -39.090  24.859  1.00  0.00     0.293 HD
ENDBRANCH  16  20
BRANCH  17  22
ATOM     22  O   UNL     1      19.432 -37.615  28.146  1.00  0.00    -0.504 OA
ATOM     23  H   UNL     1      18.876 -36.770  28.089  1.00  0.00     0.293 HD
ENDBRANCH  17  22
ENDBRANCH   1  12
BRANCH   2  24
ATOM     24  O   UNL     1      15.278 -41.355  30.145  1.00  0.00    -0.381 OA
ATOM     25  H   UNL     1      15.334 -40.757  30.935  1.00  0.00     0.211 HD
ENDBRANCH   2  24
BRANCH   6  26
ATOM     26  O   UNL     1      15.782 -45.683  33.168  1.00  0.00    -0.507 OA
ATOM     27  H   UNL     1      15.258 -46.383  32.664  1.00  0.00     0.293 HD
ENDBRANCH   6  26
BRANCH   8  28
ATOM     28  O   UNL     1      20.542 -46.278  33.209  1.00  0.00    -0.508 OA
ATOM     29  H   UNL     1      20.724 -47.216  32.870  1.00  0.00     0.293 HD
ENDBRANCH   8  28
TORSDOF 7
ENDMDL
MODEL 8
REMARK VINA RESULT:    -6.548      1.795      7.207
REMARK INTER + INTRA:          -8.468
REMARK INTER:                  -8.104
REMARK INTRA:                  -0.364
REMARK UNBOUND:                -0.389
REMARK SMILES O=C1c2c(O)cc(O)cc2O[C@@H](c2cc(O)c(O)c(O)c2)[C@@H]1O
REMARK SMILES IDX 12 1 22 2 2 3 1 4 3 5 4 6 6 7 7 8 9 9 10 10 11 11 13 12
REMARK SMILES IDX 14 13 15 14 21 15 17 16 19 17 16 18 18 20 20 22 23 24 5 26
REMARK SMILES IDX 8 28
REMARK H PARENT 16 19 18 21 20 23 23 25 5 27 8 29
REMARK Flexibility Score: inf
ROOT
ATOM      1  C   UNL     1      17.262 -42.506  28.593  1.00  0.00     0.240 C 
ATOM      2  C   UNL     1      18.285 -42.722  29.728  1.00  0.00     0.231 C 
ATOM      3  C   UNL     1      17.701 -43.663  30.752  1.00  0.00     0.202 C 
ATOM      4  O   UNL     1      18.405 -44.600  31.214  1.00  0.00    -0.291 OA
ATOM      5  C   UNL     1      16.284 -43.484  31.156  1.00  0.00     0.105 A 
ATOM      6  C   UNL     1      15.721 -44.026  32.344  1.00  0.00     0.133 A 
ATOM      7  C   UNL     1      14.354 -43.860  32.597  1.00  0.00     0.093 A 
ATOM      8  C   UNL     1      13.550 -43.119  31.730  1.00  0.00     0.123 A 
ATOM      9  C   UNL     1      14.109 -42.540  30.587  1.00  0.00     0.093 A 
ATOM     10  C   UNL     1      15.461 -42.728  30.292  1.00  0.00     0.138 A 
ATOM     11  O   UNL     1      15.987 -42.145  29.131  1.00  0.00    -0.481 OA
ENDROOT
BRANCH   1  12
ATOM     12  C   UNL     1      17.733 -41.438  27.634  1.00  0.00     0.003 A 
ATOM     13  C   UNL     1      17.701 -41.662  26.248  1.00  0.00     0.058 A 
ATOM     14  C   UNL     1      18.110 -40.660  25.356  1.00  0.00     0.161 A 
ATOM     15  C   UNL     1      18.160 -40.193  28.118  1.00  0.00     0.058 A 
ATOM     16  C   UNL     1      18.550 -39.420  25.849  1.00  0.00     0.200 A 
ATOM     17  C   UNL     1      18.570 -39.188  27.236  1.00  0.00     0.161 A 
BRANCH  14  18
ATOM     18  O   UNL     1      18.081 -40.895  23.982  1.00  0.00    -0.504 OA
ATOM     19  H   UNL     1      17.556 -41.666  23.586  1.00  0.00     0.293 HD
ENDBRANCH  14  18
BRANCH  16  20
ATOM     20  O   UNL     1      18.963 -38.413  24.976  1.00  0.00    -0.502 OA
ATOM     21  H   UNL     1      18.766 -38.445  23.983  1.00  0.00     0.293 HD
ENDBRANCH  16  20
BRANCH  17  22
ATOM     22  O   UNL     1      18.994 -37.965  27.756  1.00  0.00    -0.504 OA
ATOM     23  H   UNL     1      18.378 -37.164  27.821  1.00  0.00     0.293 HD
ENDBRANCH  17  22
ENDBRANCH   1  12
BRANCH   2  24
ATOM     24  O   UNL     1      19.509 -43.202  29.225  1.00  0.00    -0.381 OA
ATOM     25  H   UNL     1      19.315 -44.007  28.677  1.00  0.00     0.211 HD
ENDBRANCH   2  24
BRANCH   6  26
ATOM     26  O   UNL     1      16.474 -44.698  33.309  1.00  0.00    -0.507 OA
ATOM     27  H   UNL     1      16.880 -44.254  34.120  1.00  0.00     0.293 HD
ENDBRANCH   6  26
BRANCH   8  28
ATOM     28  O   UNL     1      12.196 -42.955  32.018  1.00  0.00    -0.508 OA
ATOM     29  H   UNL     1      11.569 -43.748  32.089  1.00  0.00     0.293 HD
ENDBRANCH   8  28
TORSDOF 7
ENDMDL
MODEL 9
REMARK VINA RESULT:    -6.494      4.070      6.646
REMARK INTER + INTRA:          -8.401
REMARK INTER:                  -8.516
REMARK INTRA:                   0.115
REMARK UNBOUND:                -0.389
REMARK SMILES O=C1c2c(O)cc(O)cc2O[C@@H](c2cc(O)c(O)c(O)c2)[C@@H]1O
REMARK SMILES IDX 12 1 22 2 2 3 1 4 3 5 4 6 6 7 7 8 9 9 10 10 11 11 13 12
REMARK SMILES IDX 14 13 15 14 21 15 17 16 19 17 16 18 18 20 20 22 23 24 5 26
REMARK SMILES IDX 8 28
REMARK H PARENT 16 19 18 21 20 23 23 25 5 27 8 29
REMARK Flexibility Score: inf
ROOT
ATOM      1  C   UNL     1      14.849 -44.771  30.712  1.00  0.00     0.240 C 
ATOM      2  C   UNL     1      15.690 -44.831  29.419  1.00  0.00     0.231 C 
ATOM      3  C   UNL     1      17.139 -45.046  29.778  1.00  0.00     0.202 C 
ATOM      4  O   UNL     1      17.821 -45.894  29.142  1.00  0.00    -0.291 OA
ATOM      5  C   UNL     1      17.712 -44.280  30.912  1.00  0.00     0.105 A 
ATOM      6  C   UNL     1      19.106 -44.093  31.122  1.00  0.00     0.133 A 
ATOM      7  C   UNL     1      19.546 -43.414  32.265  1.00  0.00     0.093 A 
ATOM      8  C   UNL     1      18.635 -42.865  33.167  1.00  0.00     0.123 A 
ATOM      9  C   UNL     1      17.262 -43.001  32.938  1.00  0.00     0.093 A 
ATOM     10  C   UNL     1      16.800 -43.711  31.828  1.00  0.00     0.138 A 
ATOM     11  O   UNL     1      15.418 -43.840  31.636  1.00  0.00    -0.481 OA
ENDROOT
BRANCH   1  12
ATOM     12  C   UNL     1      13.420 -44.385  30.412  1.00  0.00     0.003 A 
ATOM     13  C   UNL     1      12.634 -45.173  29.554  1.00  0.00     0.058 A 
ATOM     14  C   UNL     1      11.299 -44.831  29.298  1.00  0.00     0.161 A 
ATOM     15  C   UNL     1      12.846 -43.263  31.028  1.00  0.00     0.058 A 
ATOM     16  C   UNL     1      10.736 -43.697  29.908  1.00  0.00     0.200 A 
ATOM     17  C   UNL     1      11.516 -42.914  30.778  1.00  0.00     0.161 A 
BRANCH  14  18
ATOM     18  O   UNL     1      10.530 -45.616  28.440  1.00  0.00    -0.504 OA
ATOM     19  H   UNL     1      10.274 -46.568  28.676  1.00  0.00     0.293 HD
ENDBRANCH  14  18
BRANCH  16  20
ATOM     20  O   UNL     1       9.409 -43.342  29.663  1.00  0.00    -0.502 OA
ATOM     21  H   UNL     1       8.837 -42.877  30.358  1.00  0.00     0.293 HD
ENDBRANCH  16  20
BRANCH  17  22
ATOM     22  O   UNL     1      10.984 -41.787  31.404  1.00  0.00    -0.504 OA
ATOM     23  H   UNL     1      10.874 -40.904  30.922  1.00  0.00     0.293 HD
ENDBRANCH  17  22
ENDBRANCH   1  12
BRANCH   2  24
ATOM     24  O   UNL     1      15.218 -45.835  28.553  1.00  0.00    -0.381 OA
ATOM     25  H   UNL     1      15.341 -45.513  27.621  1.00  0.00     0.211 HD
ENDBRANCH   2  24
BRANCH   6  26
ATOM     26  O   UNL     1      20.080 -44.527  30.220  1.00  0.00    -0.507 OA
ATOM     27  H   UNL     1      20.750 -43.918  29.775  1.00  0.00     0.293 HD
ENDBRANCH   6  26
BRANCH   8  28
ATOM     28  O   UNL     1      19.103 -42.178  34.285  1.00  0.00    -0.508 OA
ATOM     29  H   UNL     1      18.896 -42.493  35.226  1.00  0.00     0.293 HD
ENDBRANCH   8  28
TORSDOF 7
ENDMDL
