MODEL 1
REMARK VINA RESULT:    -3.816      0.000      0.000
REMARK INTER + INTRA:          -5.548
REMARK INTER:                  -5.154
REMARK INTRA:                  -0.394
REMARK UNBOUND:                -0.394
REMARK SMILES [NH3+]CCCC[C@@H]([NH3+])C(=O)[O-]
REMARK SMILES IDX 4 1 3 2 2 3 1 4 5 8 6 9 7 10 8 14 9 15 10 16
REMARK H PARENT 1 5 1 6 1 7 7 11 7 12 7 13
REMARK Flexibility Score: inf
ROOT
ATOM      1  C   UNL     1     -14.378   2.321   1.790  1.00  0.00     0.012 C 
ENDROOT
BRANCH   1   2
ATOM      2  C   UNL     1     -15.169   1.044   1.465  1.00  0.00     0.061 C 
BRANCH   2   3
ATOM      3  C   UNL     1     -15.102   0.003   2.595  1.00  0.00     0.258 C 
BRANCH   3   4
ATOM      4  N   UNL     1     -16.340   0.000   3.374  1.00  0.00    -0.358 N 
ATOM      5  H   UNL     1     -16.937  -0.814   3.098  1.00  0.00     0.344 HD
ATOM      6  H   UNL     1     -16.864   0.893   3.220  1.00  0.00     0.344 HD
ATOM      7  H   UNL     1     -16.105  -0.083   4.389  1.00  0.00     0.344 HD
ENDBRANCH   3   4
ENDBRANCH   2   3
ENDBRANCH   1   2
BRANCH   1   8
ATOM      8  C   UNL     1     -13.339   2.108   2.906  1.00  0.00     0.072 C 
BRANCH   8   9
ATOM      9  C   UNL     1     -13.423   3.200   3.994  1.00  0.00     0.227 C 
BRANCH   9  10
ATOM     10  N   UNL     1     -14.499   4.151   3.688  1.00  0.00    -0.350 N 
ATOM     11  H   UNL     1     -14.104   5.053   3.334  1.00  0.00     0.345 HD
ATOM     12  H   UNL     1     -15.136   3.745   2.964  1.00  0.00     0.345 HD
ATOM     13  H   UNL     1     -15.061   4.338   4.550  1.00  0.00     0.345 HD
ENDBRANCH   9  10
BRANCH   9  14
ATOM     14  C   UNL     1     -13.636   2.595   5.358  1.00  0.00     0.099 C 
ATOM     15  O   UNL     1     -14.435   1.633   5.513  1.00  0.00    -0.544 OA
ATOM     16  O   UNL     1     -12.941   3.091   6.454  1.00  0.00    -0.544 OA
ENDBRANCH   9  14
ENDBRANCH   8   9
ENDBRANCH   1   8
TORSDOF 7
ENDMDL
MODEL 2
REMARK VINA RESULT:    -3.759     13.154     14.094
REMARK INTER + INTRA:          -5.471
REMARK INTER:                  -5.381
REMARK INTRA:                  -0.090
REMARK UNBOUND:                -0.394
REMARK SMILES [NH3+]CCCC[C@@H]([NH3+])C(=O)[O-]
REMARK SMILES IDX 4 1 3 2 2 3 1 4 5 8 6 9 7 10 8 14 9 15 10 16
REMARK H PARENT 1 5 1 6 1 7 7 11 7 12 7 13
REMARK Flexibility Score: inf
ROOT
ATOM      1  C   UNL     1     -16.081  12.310  -6.032  1.00  0.00     0.012 C 
ENDROOT
BRANCH   1   2
ATOM      2  C   UNL     1     -16.200  12.185  -7.559  1.00  0.00     0.061 C 
BRANCH   2   3
ATOM      3  C   UNL     1     -17.313  13.071  -8.141  1.00  0.00     0.258 C 
BRANCH   3   4
ATOM      4  N   UNL     1     -18.632  12.573  -7.753  1.00  0.00    -0.358 N 
ATOM      5  H   UNL     1     -19.188  12.324  -8.605  1.00  0.00     0.344 HD
ATOM      6  H   UNL     1     -19.141  13.298  -7.197  1.00  0.00     0.344 HD
ATOM      7  H   UNL     1     -18.515  11.716  -7.166  1.00  0.00     0.344 HD
ENDBRANCH   3   4
ENDBRANCH   2   3
ENDBRANCH   1   2
BRANCH   1   8
ATOM      8  C   UNL     1     -14.762  11.729  -5.491  1.00  0.00     0.072 C 
BRANCH   8   9
ATOM      9  C   UNL     1     -14.619  11.931  -3.967  1.00  0.00     0.227 C 
BRANCH   9  10
ATOM     10  N   UNL     1     -14.025  10.742  -3.343  1.00  0.00    -0.350 N 
ATOM     11  H   UNL     1     -13.731  10.052  -4.072  1.00  0.00     0.345 HD
ATOM     12  H   UNL     1     -13.193  11.018  -2.773  1.00  0.00     0.345 HD
ATOM     13  H   UNL     1     -14.722  10.291  -2.707  1.00  0.00     0.345 HD
ENDBRANCH   9  10
BRANCH   9  14
ATOM     14  C   UNL     1     -13.791  13.150  -3.654  1.00  0.00     0.099 C 
ATOM     15  O   UNL     1     -13.546  13.467  -2.459  1.00  0.00    -0.544 OA
ATOM     16  O   UNL     1     -13.281  13.927  -4.686  1.00  0.00    -0.544 OA
ENDBRANCH   9  14
ENDBRANCH   8   9
ENDBRANCH   1   8
TORSDOF 7
ENDMDL
MODEL 3
REMARK VINA RESULT:    -3.749      1.898      2.528
REMARK INTER + INTRA:          -5.459
REMARK INTER:                  -5.289
REMARK INTRA:                  -0.169
REMARK UNBOUND:                -0.394
REMARK SMILES [NH3+]CCCC[C@@H]([NH3+])C(=O)[O-]
REMARK SMILES IDX 4 1 3 2 2 3 1 4 5 8 6 9 7 10 8 14 9 15 10 16
REMARK H PARENT 1 5 1 6 1 7 7 11 7 12 7 13
REMARK Flexibility Score: inf
ROOT
ATOM      1  C   UNL     1     -13.314   2.745   1.803  1.00  0.00     0.012 C 
ENDROOT
BRANCH   1   2
ATOM      2  C   UNL     1     -14.499   2.825   0.827  1.00  0.00     0.061 C 
BRANCH   2   3
ATOM      3  C   UNL     1     -14.585   4.183   0.111  1.00  0.00     0.258 C 
BRANCH   3   4
ATOM      4  N   UNL     1     -15.303   5.159   0.931  1.00  0.00    -0.358 N 
ATOM      5  H   UNL     1     -15.025   6.131   0.660  1.00  0.00     0.344 HD
ATOM      6  H   UNL     1     -15.094   5.000   1.944  1.00  0.00     0.344 HD
ATOM      7  H   UNL     1     -16.331   5.046   0.776  1.00  0.00     0.344 HD
ENDBRANCH   3   4
ENDBRANCH   2   3
ENDBRANCH   1   2
BRANCH   1   8
ATOM      8  C   UNL     1     -13.721   2.204   3.186  1.00  0.00     0.072 C 
BRANCH   8   9
ATOM      9  C   UNL     1     -13.496   3.243   4.306  1.00  0.00     0.227 C 
BRANCH   9  10
ATOM     10  N   UNL     1     -14.504   4.308   4.230  1.00  0.00    -0.350 N 
ATOM     11  H   UNL     1     -14.441   4.934   5.066  1.00  0.00     0.345 HD
ATOM     12  H   UNL     1     -14.357   4.875   3.362  1.00  0.00     0.345 HD
ATOM     13  H   UNL     1     -15.460   3.888   4.188  1.00  0.00     0.345 HD
ENDBRANCH   9  10
BRANCH   9  14
ATOM     14  C   UNL     1     -13.528   2.594   5.666  1.00  0.00     0.099 C 
ATOM     15  O   UNL     1     -14.239   1.573   5.870  1.00  0.00    -0.544 OA
ATOM     16  O   UNL     1     -12.761   3.113   6.701  1.00  0.00    -0.544 OA
ENDBRANCH   9  14
ENDBRANCH   8   9
ENDBRANCH   1   8
TORSDOF 7
ENDMDL
MODEL 4
REMARK VINA RESULT:    -3.682     13.105     13.993
REMARK INTER + INTRA:          -5.367
REMARK INTER:                  -5.162
REMARK INTRA:                  -0.205
REMARK UNBOUND:                -0.394
REMARK SMILES [NH3+]CCCC[C@@H]([NH3+])C(=O)[O-]
REMARK SMILES IDX 4 1 3 2 2 3 1 4 5 8 6 9 7 10 8 14 9 15 10 16
REMARK H PARENT 1 5 1 6 1 7 7 11 7 12 7 13
REMARK Flexibility Score: inf
ROOT
ATOM      1  C   UNL     1     -16.087  14.377  -5.062  1.00  0.00     0.012 C 
ENDROOT
BRANCH   1   2
ATOM      2  C   UNL     1     -17.571  14.111  -4.764  1.00  0.00     0.061 C 
BRANCH   2   3
ATOM      3  C   UNL     1     -17.930  12.618  -4.834  1.00  0.00     0.258 C 
BRANCH   3   4
ATOM      4  N   UNL     1     -19.343  12.437  -5.166  1.00  0.00    -0.358 N 
ATOM      5  H   UNL     1     -19.625  11.441  -5.013  1.00  0.00     0.344 HD
ATOM      6  H   UNL     1     -19.515  12.704  -6.164  1.00  0.00     0.344 HD
ATOM      7  H   UNL     1     -19.922  13.050  -4.548  1.00  0.00     0.344 HD
ENDBRANCH   3   4
ENDBRANCH   2   3
ENDBRANCH   1   2
BRANCH   1   8
ATOM      8  C   UNL     1     -15.199  14.248  -3.811  1.00  0.00     0.072 C 
BRANCH   8   9
ATOM      9  C   UNL     1     -13.918  13.432  -4.089  1.00  0.00     0.227 C 
BRANCH   9  10
ATOM     10  N   UNL     1     -13.067  13.386  -2.893  1.00  0.00    -0.350 N 
ATOM     11  H   UNL     1     -12.667  14.331  -2.688  1.00  0.00     0.345 HD
ATOM     12  H   UNL     1     -13.628  13.063  -2.070  1.00  0.00     0.345 HD
ATOM     13  H   UNL     1     -12.285  12.708  -3.041  1.00  0.00     0.345 HD
ENDBRANCH   9  10
BRANCH   9  14
ATOM     14  C   UNL     1     -14.248  12.035  -4.545  1.00  0.00     0.099 C 
ATOM     15  O   UNL     1     -14.617  11.162  -3.714  1.00  0.00    -0.544 OA
ATOM     16  O   UNL     1     -14.159  11.704  -5.891  1.00  0.00    -0.544 OA
ENDBRANCH   9  14
ENDBRANCH   8   9
ENDBRANCH   1   8
TORSDOF 7
ENDMDL
MODEL 5
REMARK VINA RESULT:    -3.679     13.445     14.386
REMARK INTER + INTRA:          -5.363
REMARK INTER:                  -5.235
REMARK INTRA:                  -0.128
REMARK UNBOUND:                -0.394
REMARK SMILES [NH3+]CCCC[C@@H]([NH3+])C(=O)[O-]
REMARK SMILES IDX 4 1 3 2 2 3 1 4 5 8 6 9 7 10 8 14 9 15 10 16
REMARK H PARENT 1 5 1 6 1 7 7 11 7 12 7 13
REMARK Flexibility Score: inf
ROOT
ATOM      1  C   UNL     1     -17.901  12.653  -4.710  1.00  0.00     0.012 C 
ENDROOT
BRANCH   1   2
ATOM      2  C   UNL     1     -18.535  14.012  -4.376  1.00  0.00     0.061 C 
BRANCH   2   3
ATOM      3  C   UNL     1     -19.925  14.189  -5.008  1.00  0.00     0.258 C 
BRANCH   3   4
ATOM      4  N   UNL     1     -20.500  12.893  -5.371  1.00  0.00    -0.358 N 
ATOM      5  H   UNL     1     -21.533  12.898  -5.204  1.00  0.00     0.344 HD
ATOM      6  H   UNL     1     -20.054  12.132  -4.809  1.00  0.00     0.344 HD
ATOM      7  H   UNL     1     -20.323  12.712  -6.385  1.00  0.00     0.344 HD
ENDBRANCH   3   4
ENDBRANCH   2   3
ENDBRANCH   1   2
BRANCH   1   8
ATOM      8  C   UNL     1     -16.564  12.791  -5.463  1.00  0.00     0.072 C 
BRANCH   8   9
ATOM      9  C   UNL     1     -15.387  12.177  -4.675  1.00  0.00     0.227 C 
BRANCH   9  10
ATOM     10  N   UNL     1     -14.685  11.180  -5.494  1.00  0.00    -0.350 N 
ATOM     11  H   UNL     1     -13.835  11.599  -5.937  1.00  0.00     0.345 HD
ATOM     12  H   UNL     1     -14.399  10.368  -4.898  1.00  0.00     0.345 HD
ATOM     13  H   UNL     1     -15.323  10.825  -6.243  1.00  0.00     0.345 HD
ENDBRANCH   9  10
BRANCH   9  14
ATOM     14  C   UNL     1     -14.424  13.241  -4.215  1.00  0.00     0.099 C 
ATOM     15  O   UNL     1     -14.282  14.304  -4.877  1.00  0.00    -0.544 OA
ATOM     16  O   UNL     1     -13.696  13.059  -3.047  1.00  0.00    -0.544 OA
ENDBRANCH   9  14
ENDBRANCH   8   9
ENDBRANCH   1   8
TORSDOF 7
ENDMDL
MODEL 6
REMARK VINA RESULT:    -3.608     14.356     15.488
REMARK INTER + INTRA:          -5.268
REMARK INTER:                  -5.168
REMARK INTRA:                  -0.100
REMARK UNBOUND:                -0.394
REMARK SMILES [NH3+]CCCC[C@@H]([NH3+])C(=O)[O-]
REMARK SMILES IDX 4 1 3 2 2 3 1 4 5 8 6 9 7 10 8 14 9 15 10 16
REMARK H PARENT 1 5 1 6 1 7 7 11 7 12 7 13
REMARK Flexibility Score: inf
ROOT
ATOM      1  C   UNL     1     -14.913  11.603  -5.854  1.00  0.00     0.012 C 
ENDROOT
BRANCH   1   2
ATOM      2  C   UNL     1     -14.418  11.743  -4.406  1.00  0.00     0.061 C 
BRANCH   2   3
ATOM      3  C   UNL     1     -14.111  13.200  -4.023  1.00  0.00     0.258 C 
BRANCH   3   4
ATOM      4  N   UNL     1     -13.170  13.258  -2.905  1.00  0.00    -0.358 N 
ATOM      5  H   UNL     1     -12.194  13.098  -3.247  1.00  0.00     0.344 HD
ATOM      6  H   UNL     1     -13.417  12.535  -2.190  1.00  0.00     0.344 HD
ATOM      7  H   UNL     1     -13.222  14.203  -2.462  1.00  0.00     0.344 HD
ENDBRANCH   3   4
ENDBRANCH   2   3
ENDBRANCH   1   2
BRANCH   1   8
ATOM      8  C   UNL     1     -16.098  12.536  -6.167  1.00  0.00     0.072 C 
BRANCH   8   9
ATOM      9  C   UNL     1     -16.776  12.184  -7.509  1.00  0.00     0.227 C 
BRANCH   9  10
ATOM     10  N   UNL     1     -18.237  12.264  -7.384  1.00  0.00    -0.350 N 
ATOM     11  H   UNL     1     -18.653  12.742  -8.216  1.00  0.00     0.345 HD
ATOM     12  H   UNL     1     -18.640  11.301  -7.302  1.00  0.00     0.345 HD
ATOM     13  H   UNL     1     -18.489  12.798  -6.521  1.00  0.00     0.345 HD
ENDBRANCH   9  10
BRANCH   9  14
ATOM     14  C   UNL     1     -16.299  13.091  -8.615  1.00  0.00     0.099 C 
ATOM     15  O   UNL     1     -15.196  12.877  -9.186  1.00  0.00    -0.544 OA
ATOM     16  O   UNL     1     -17.083  14.163  -9.020  1.00  0.00    -0.544 OA
ENDBRANCH   9  14
ENDBRANCH   8   9
ENDBRANCH   1   8
TORSDOF 7
ENDMDL
MODEL 7
REMARK VINA RESULT:    -3.565     13.461     14.394
REMARK INTER + INTRA:          -5.210
REMARK INTER:                  -5.078
REMARK INTRA:                  -0.132
REMARK UNBOUND:                -0.394
REMARK SMILES [NH3+]CCCC[C@@H]([NH3+])C(=O)[O-]
REMARK SMILES IDX 4 1 3 2 2 3 1 4 5 8 6 9 7 10 8 14 9 15 10 16
REMARK H PARENT 1 5 1 6 1 7 7 11 7 12 7 13
REMARK Flexibility Score: inf
ROOT
ATOM      1  C   UNL     1     -17.038  14.222  -4.782  1.00  0.00     0.012 C 
ENDROOT
BRANCH   1   2
ATOM      2  C   UNL     1     -18.324  13.489  -4.369  1.00  0.00     0.061 C 
BRANCH   2   3
ATOM      3  C   UNL     1     -19.576  14.059  -5.055  1.00  0.00     0.258 C 
BRANCH   3   4
ATOM      4  N   UNL     1     -20.528  12.994  -5.369  1.00  0.00    -0.358 N 
ATOM      5  H   UNL     1     -21.502  13.306  -5.151  1.00  0.00     0.344 HD
ATOM      6  H   UNL     1     -20.299  12.134  -4.819  1.00  0.00     0.344 HD
ATOM      7  H   UNL     1     -20.466  12.770  -6.388  1.00  0.00     0.344 HD
ENDBRANCH   3   4
ENDBRANCH   2   3
ENDBRANCH   1   2
BRANCH   1   8
ATOM      8  C   UNL     1     -16.086  13.332  -5.603  1.00  0.00     0.072 C 
BRANCH   8   9
ATOM      9  C   UNL     1     -15.280  12.363  -4.711  1.00  0.00     0.227 C 
BRANCH   9  10
ATOM     10  N   UNL     1     -14.799  11.221  -5.497  1.00  0.00    -0.350 N 
ATOM     11  H   UNL     1     -15.603  10.664  -5.869  1.00  0.00     0.345 HD
ATOM     12  H   UNL     1     -14.215  11.560  -6.297  1.00  0.00     0.345 HD
ATOM     13  H   UNL     1     -14.204  10.604  -4.897  1.00  0.00     0.345 HD
ENDBRANCH   9  10
BRANCH   9  14
ATOM     14  C   UNL     1     -14.121  13.065  -4.051  1.00  0.00     0.099 C 
ATOM     15  O   UNL     1     -13.771  12.758  -2.881  1.00  0.00    -0.544 OA
ATOM     16  O   UNL     1     -13.424  14.050  -4.739  1.00  0.00    -0.544 OA
ENDBRANCH   9  14
ENDBRANCH   8   9
ENDBRANCH   1   8
TORSDOF 7
ENDMDL
MODEL 8
REMARK VINA RESULT:    -3.530     14.462     15.375
REMARK INTER + INTRA:          -5.162
REMARK INTER:                  -4.892
REMARK INTRA:                  -0.270
REMARK UNBOUND:                -0.394
REMARK SMILES [NH3+]CCCC[C@@H]([NH3+])C(=O)[O-]
REMARK SMILES IDX 4 1 3 2 2 3 1 4 5 8 6 9 7 10 8 14 9 15 10 16
REMARK H PARENT 1 5 1 6 1 7 7 11 7 12 7 13
REMARK Flexibility Score: inf
ROOT
ATOM      1  C   UNL     1     -17.470  14.183  -4.712  1.00  0.00     0.012 C 
ENDROOT
BRANCH   1   2
ATOM      2  C   UNL     1     -18.908  14.311  -4.185  1.00  0.00     0.061 C 
BRANCH   2   3
ATOM      3  C   UNL     1     -19.958  14.237  -5.305  1.00  0.00     0.258 C 
BRANCH   3   4
ATOM      4  N   UNL     1     -20.515  12.888  -5.408  1.00  0.00    -0.358 N 
ATOM      5  H   UNL     1     -19.766  12.208  -5.677  1.00  0.00     0.344 HD
ATOM      6  H   UNL     1     -21.282  12.869  -6.119  1.00  0.00     0.344 HD
ATOM      7  H   UNL     1     -20.906  12.608  -4.480  1.00  0.00     0.344 HD
ENDBRANCH   3   4
ENDBRANCH   2   3
ENDBRANCH   1   2
BRANCH   1   8
ATOM      8  C   UNL     1     -17.017  12.717  -4.847  1.00  0.00     0.072 C 
BRANCH   8   9
ATOM      9  C   UNL     1     -15.943  12.538  -5.941  1.00  0.00     0.227 C 
BRANCH   9  10
ATOM     10  N   UNL     1     -15.139  11.337  -5.682  1.00  0.00    -0.350 N 
ATOM     11  H   UNL     1     -15.509  10.522  -6.224  1.00  0.00     0.345 HD
ATOM     12  H   UNL     1     -14.144  11.510  -5.955  1.00  0.00     0.345 HD
ATOM     13  H   UNL     1     -15.163  11.109  -4.662  1.00  0.00     0.345 HD
ENDBRANCH   9  10
BRANCH   9  14
ATOM     14  C   UNL     1     -16.568  12.459  -7.310  1.00  0.00     0.099 C 
ATOM     15  O   UNL     1     -15.857  12.573  -8.345  1.00  0.00    -0.544 OA
ATOM     16  O   UNL     1     -17.935  12.248  -7.439  1.00  0.00    -0.544 OA
ENDBRANCH   9  14
ENDBRANCH   8   9
ENDBRANCH   1   8
TORSDOF 7
ENDMDL
MODEL 9
REMARK VINA RESULT:    -3.422     13.922     14.737
REMARK INTER + INTRA:          -5.016
REMARK INTER:                  -4.482
REMARK INTRA:                  -0.534
REMARK UNBOUND:                -0.394
REMARK SMILES [NH3+]CCCC[C@@H]([NH3+])C(=O)[O-]
REMARK SMILES IDX 4 1 3 2 2 3 1 4 5 8 6 9 7 10 8 14 9 15 10 16
REMARK H PARENT 1 5 1 6 1 7 7 11 7 12 7 13
REMARK Flexibility Score: inf
ROOT
ATOM      1  C   UNL     1     -15.429  15.313  -4.783  1.00  0.00     0.012 C 
ENDROOT
BRANCH   1   2
ATOM      2  C   UNL     1     -14.987  14.918  -3.365  1.00  0.00     0.061 C 
BRANCH   2   3
ATOM      3  C   UNL     1     -13.474  14.662  -3.266  1.00  0.00     0.258 C 
BRANCH   3   4
ATOM      4  N   UNL     1     -13.204  13.273  -2.895  1.00  0.00    -0.358 N 
ATOM      5  H   UNL     1     -13.845  12.975  -2.123  1.00  0.00     0.344 HD
ATOM      6  H   UNL     1     -12.209  13.170  -2.588  1.00  0.00     0.344 HD
ATOM      7  H   UNL     1     -13.367  12.659  -3.725  1.00  0.00     0.344 HD
ENDBRANCH   3   4
ENDBRANCH   2   3
ENDBRANCH   1   2
BRANCH   1   8
ATOM      8  C   UNL     1     -16.543  14.402  -5.332  1.00  0.00     0.072 C 
BRANCH   8   9
ATOM      9  C   UNL     1     -16.360  12.932  -4.897  1.00  0.00     0.227 C 
BRANCH   9  10
ATOM     10  N   UNL     1     -17.663  12.267  -4.771  1.00  0.00    -0.350 N 
ATOM     11  H   UNL     1     -18.094  12.474  -3.841  1.00  0.00     0.345 HD
ATOM     12  H   UNL     1     -18.305  12.596  -5.530  1.00  0.00     0.345 HD
ATOM     13  H   UNL     1     -17.543  11.233  -4.871  1.00  0.00     0.345 HD
ENDBRANCH   9  10
BRANCH   9  14
ATOM     14  C   UNL     1     -15.485  12.182  -5.868  1.00  0.00     0.099 C 
ATOM     15  O   UNL     1     -15.944  11.799  -6.978  1.00  0.00    -0.544 OA
ATOM     16  O   UNL     1     -14.160  11.918  -5.548  1.00  0.00    -0.544 OA
ENDBRANCH   9  14
ENDBRANCH   8   9
ENDBRANCH   1   8
TORSDOF 7
ENDMDL
