MODEL 1
REMARK VINA RESULT:    -4.721      0.000      0.000
REMARK INTER + INTRA:          -6.252
REMARK INTER:                  -6.100
REMARK INTRA:                  -0.152
REMARK UNBOUND:                -0.152
REMARK SMILES CCCCCCC(=O)[O-]
REMARK SMILES IDX 5 1 6 2 7 3 8 4 9 5 4 6 3 7 2 8 1 9
REMARK H PARENT
REMARK Flexibility Score: inf
ROOT
ATOM      1  C   UNL     1    -143.247 102.545  33.609  1.00  0.00     0.006 C 
ENDROOT
BRANCH   1   2
ATOM      2  C   UNL     1    -143.682 101.392  34.523  1.00  0.00     0.053 C 
BRANCH   2   3
ATOM      3  C   UNL     1    -143.431 100.057  33.890  1.00  0.00     0.041 C 
ATOM      4  O   UNL     1    -143.680  98.999  34.525  1.00  0.00    -0.550 OA
ATOM      5  O   UNL     1    -142.957  99.983  32.586  1.00  0.00    -0.550 OA
ENDBRANCH   2   3
ENDBRANCH   1   2
BRANCH   1   6
ATOM      6  C   UNL     1    -142.192 103.447  34.271  1.00  0.00     0.000 C 
BRANCH   6   7
ATOM      7  C   UNL     1    -142.447 104.945  34.028  1.00  0.00    -0.000 C 
BRANCH   7   8
ATOM      8  C   UNL     1    -141.869 105.881  35.105  1.00  0.00    -0.003 C 
ATOM      9  C   UNL     1    -142.446 105.620  36.496  1.00  0.00     0.004 C 
ENDBRANCH   7   8
ENDBRANCH   6   7
ENDBRANCH   1   6
TORSDOF 5
ENDMDL
MODEL 2
REMARK VINA RESULT:    -4.357     19.085     20.890
REMARK INTER + INTRA:          -5.783
REMARK INTER:                  -5.549
REMARK INTRA:                  -0.234
REMARK UNBOUND:                -0.152
REMARK SMILES CCCCCCC(=O)[O-]
REMARK SMILES IDX 5 1 6 2 7 3 8 4 9 5 4 6 3 7 2 8 1 9
REMARK H PARENT
REMARK Flexibility Score: inf
ROOT
ATOM      1  C   UNL     1    -129.671 114.782  44.997  1.00  0.00     0.006 C 
ENDROOT
BRANCH   1   2
ATOM      2  C   UNL     1    -129.729 114.778  43.464  1.00  0.00     0.053 C 
BRANCH   2   3
ATOM      3  C   UNL     1    -129.696 113.386  42.911  1.00  0.00     0.041 C 
ATOM      4  O   UNL     1    -130.073 113.165  41.731  1.00  0.00    -0.550 OA
ATOM      5  O   UNL     1    -129.215 112.339  43.688  1.00  0.00    -0.550 OA
ENDBRANCH   2   3
ENDBRANCH   1   2
BRANCH   1   6
ATOM      6  C   UNL     1    -129.790 116.200  45.580  1.00  0.00     0.000 C 
BRANCH   6   7
ATOM      7  C   UNL     1    -130.124 117.260  44.516  1.00  0.00    -0.000 C 
BRANCH   7   8
ATOM      8  C   UNL     1    -129.040 118.334  44.313  1.00  0.00    -0.003 C 
ATOM      9  C   UNL     1    -128.571 118.443  42.862  1.00  0.00     0.004 C 
ENDBRANCH   7   8
ENDBRANCH   6   7
ENDBRANCH   1   6
TORSDOF 5
ENDMDL
MODEL 3
REMARK VINA RESULT:    -4.315     19.121     20.740
REMARK INTER + INTRA:          -5.729
REMARK INTER:                  -5.499
REMARK INTRA:                  -0.230
REMARK UNBOUND:                -0.152
REMARK SMILES CCCCCCC(=O)[O-]
REMARK SMILES IDX 5 1 6 2 7 3 8 4 9 5 4 6 3 7 2 8 1 9
REMARK H PARENT
REMARK Flexibility Score: inf
ROOT
ATOM      1  C   UNL     1    -129.730 115.946  42.731  1.00  0.00     0.006 C 
ENDROOT
BRANCH   1   2
ATOM      2  C   UNL     1    -129.682 114.746  43.684  1.00  0.00     0.053 C 
BRANCH   2   3
ATOM      3  C   UNL     1    -129.754 113.445  42.942  1.00  0.00     0.041 C 
ATOM      4  O   UNL     1    -130.138 113.420  41.744  1.00  0.00    -0.550 OA
ATOM      5  O   UNL     1    -129.361 112.267  43.565  1.00  0.00    -0.550 OA
ENDBRANCH   2   3
ENDBRANCH   1   2
BRANCH   1   6
ATOM      6  C   UNL     1    -129.694 117.288  43.483  1.00  0.00     0.000 C 
BRANCH   6   7
ATOM      7  C   UNL     1    -129.393 117.126  44.983  1.00  0.00    -0.000 C 
BRANCH   7   8
ATOM      8  C   UNL     1    -130.506 117.625  45.923  1.00  0.00    -0.003 C 
ATOM      9  C   UNL     1    -130.891 116.601  46.990  1.00  0.00     0.004 C 
ENDBRANCH   7   8
ENDBRANCH   6   7
ENDBRANCH   1   6
TORSDOF 5
ENDMDL
MODEL 4
REMARK VINA RESULT:    -4.282      3.465      5.528
REMARK INTER + INTRA:          -5.686
REMARK INTER:                  -5.582
REMARK INTRA:                  -0.104
REMARK UNBOUND:                -0.152
REMARK SMILES CCCCCCC(=O)[O-]
REMARK SMILES IDX 5 1 6 2 7 3 8 4 9 5 4 6 3 7 2 8 1 9
REMARK H PARENT
REMARK Flexibility Score: inf
ROOT
ATOM      1  C   UNL     1    -142.914 103.329  34.764  1.00  0.00     0.006 C 
ENDROOT
BRANCH   1   2
ATOM      2  C   UNL     1    -142.256 104.643  34.325  1.00  0.00     0.053 C 
BRANCH   2   3
ATOM      3  C   UNL     1    -142.146 105.616  35.460  1.00  0.00     0.041 C 
ATOM      4  O   UNL     1    -141.786 106.802  35.245  1.00  0.00    -0.550 OA
ATOM      5  O   UNL     1    -142.477 105.220  36.751  1.00  0.00    -0.550 OA
ENDBRANCH   2   3
ENDBRANCH   1   2
BRANCH   1   6
ATOM      6  C   UNL     1    -143.019 102.317  33.611  1.00  0.00     0.000 C 
BRANCH   6   7
ATOM      7  C   UNL     1    -143.336 100.890  34.092  1.00  0.00    -0.000 C 
BRANCH   7   8
ATOM      8  C   UNL     1    -142.988  99.778  33.087  1.00  0.00    -0.003 C 
ATOM      9  C   UNL     1    -143.091 100.234  31.631  1.00  0.00     0.004 C 
ENDBRANCH   7   8
ENDBRANCH   6   7
ENDBRANCH   1   6
TORSDOF 5
ENDMDL
MODEL 5
REMARK VINA RESULT:    -4.173     20.345     21.987
REMARK INTER + INTRA:          -5.545
REMARK INTER:                  -5.388
REMARK INTRA:                  -0.158
REMARK UNBOUND:                -0.152
REMARK SMILES CCCCCCC(=O)[O-]
REMARK SMILES IDX 5 1 6 2 7 3 8 4 9 5 4 6 3 7 2 8 1 9
REMARK H PARENT
REMARK Flexibility Score: inf
ROOT
ATOM      1  C   UNL     1    -129.563 116.365  44.886  1.00  0.00     0.006 C 
ENDROOT
BRANCH   1   2
ATOM      2  C   UNL     1    -130.110 117.732  45.315  1.00  0.00     0.053 C 
BRANCH   2   3
ATOM      3  C   UNL     1    -130.804 117.662  46.641  1.00  0.00     0.041 C 
ATOM      4  O   UNL     1    -131.123 116.547  47.130  1.00  0.00    -0.550 OA
ATOM      5  O   UNL     1    -131.065 118.827  47.353  1.00  0.00    -0.550 OA
ENDBRANCH   2   3
ENDBRANCH   1   2
BRANCH   1   6
ATOM      6  C   UNL     1    -129.766 116.102  43.384  1.00  0.00     0.000 C 
BRANCH   6   7
ATOM      7  C   UNL     1    -129.753 114.604  43.031  1.00  0.00    -0.000 C 
BRANCH   7   8
ATOM      8  C   UNL     1    -129.350 113.672  44.188  1.00  0.00    -0.003 C 
ATOM      9  C   UNL     1    -129.115 112.229  43.739  1.00  0.00     0.004 C 
ENDBRANCH   7   8
ENDBRANCH   6   7
ENDBRANCH   1   6
TORSDOF 5
ENDMDL
MODEL 6
REMARK VINA RESULT:    -4.115      2.908      4.949
REMARK INTER + INTRA:          -5.470
REMARK INTER:                  -5.209
REMARK INTRA:                  -0.261
REMARK UNBOUND:                -0.152
REMARK SMILES CCCCCCC(=O)[O-]
REMARK SMILES IDX 5 1 6 2 7 3 8 4 9 5 4 6 3 7 2 8 1 9
REMARK H PARENT
REMARK Flexibility Score: inf
ROOT
ATOM      1  C   UNL     1    -143.629 102.225  33.449  1.00  0.00     0.006 C 
ENDROOT
BRANCH   1   2
ATOM      2  C   UNL     1    -142.538 102.873  34.311  1.00  0.00     0.053 C 
BRANCH   2   3
ATOM      3  C   UNL     1    -142.461 104.353  34.089  1.00  0.00     0.041 C 
ATOM      4  O   UNL     1    -142.786 104.844  32.977  1.00  0.00    -0.550 OA
ATOM      5  O   UNL     1    -142.063 105.192  35.123  1.00  0.00    -0.550 OA
ENDBRANCH   2   3
ENDBRANCH   1   2
BRANCH   1   6
ATOM      6  C   UNL     1    -143.148 100.926  32.782  1.00  0.00     0.000 C 
BRANCH   6   7
ATOM      7  C   UNL     1    -142.491  99.950  33.774  1.00  0.00    -0.000 C 
BRANCH   7   8
ATOM      8  C   UNL     1    -143.478  99.086  34.580  1.00  0.00    -0.003 C 
ATOM      9  C   UNL     1    -143.286  99.212  36.091  1.00  0.00     0.004 C 
ENDBRANCH   7   8
ENDBRANCH   6   7
ENDBRANCH   1   6
TORSDOF 5
ENDMDL
MODEL 7
REMARK VINA RESULT:    -4.096     19.666     21.296
REMARK INTER + INTRA:          -5.445
REMARK INTER:                  -5.322
REMARK INTRA:                  -0.123
REMARK UNBOUND:                -0.152
REMARK SMILES CCCCCCC(=O)[O-]
REMARK SMILES IDX 5 1 6 2 7 3 8 4 9 5 4 6 3 7 2 8 1 9
REMARK H PARENT
REMARK Flexibility Score: inf
ROOT
ATOM      1  C   UNL     1    -129.614 116.311  43.852  1.00  0.00     0.006 C 
ENDROOT
BRANCH   1   2
ATOM      2  C   UNL     1    -129.676 114.948  44.552  1.00  0.00     0.053 C 
BRANCH   2   3
ATOM      3  C   UNL     1    -129.602 113.816  43.573  1.00  0.00     0.041 C 
ATOM      4  O   UNL     1    -128.838 112.840  43.790  1.00  0.00    -0.550 OA
ATOM      5  O   UNL     1    -130.404 113.824  42.438  1.00  0.00    -0.550 OA
ENDBRANCH   2   3
ENDBRANCH   1   2
BRANCH   1   6
ATOM      6  C   UNL     1    -129.705 117.481  44.846  1.00  0.00     0.000 C 
BRANCH   6   7
ATOM      7  C   UNL     1    -130.532 117.140  46.098  1.00  0.00    -0.000 C 
BRANCH   7   8
ATOM      8  C   UNL     1    -130.861 118.342  47.002  1.00  0.00    -0.003 C 
ATOM      9  C   UNL     1    -132.359 118.505  47.258  1.00  0.00     0.004 C 
ENDBRANCH   7   8
ENDBRANCH   6   7
ENDBRANCH   1   6
TORSDOF 5
ENDMDL
MODEL 8
REMARK VINA RESULT:    -3.906     13.590     14.746
REMARK INTER + INTRA:          -5.199
REMARK INTER:                  -4.960
REMARK INTRA:                  -0.239
REMARK UNBOUND:                -0.152
REMARK SMILES CCCCCCC(=O)[O-]
REMARK SMILES IDX 5 1 6 2 7 3 8 4 9 5 4 6 3 7 2 8 1 9
REMARK H PARENT
REMARK Flexibility Score: inf
ROOT
ATOM      1  C   UNL     1    -129.261 106.484  40.750  1.00  0.00     0.006 C 
ENDROOT
BRANCH   1   2
ATOM      2  C   UNL     1    -129.846 106.100  39.385  1.00  0.00     0.053 C 
BRANCH   2   3
ATOM      3  C   UNL     1    -129.590 104.661  39.056  1.00  0.00     0.041 C 
ATOM      4  O   UNL     1    -129.724 104.247  37.875  1.00  0.00    -0.550 OA
ATOM      5  O   UNL     1    -129.167 103.785  40.049  1.00  0.00    -0.550 OA
ENDBRANCH   2   3
ENDBRANCH   1   2
BRANCH   1   6
ATOM      6  C   UNL     1    -129.313 108.002  40.998  1.00  0.00     0.000 C 
BRANCH   6   7
ATOM      7  C   UNL     1    -129.684 108.803  39.739  1.00  0.00    -0.000 C 
BRANCH   7   8
ATOM      8  C   UNL     1    -130.980 109.626  39.856  1.00  0.00    -0.003 C 
ATOM      9  C   UNL     1    -132.034 109.232  38.820  1.00  0.00     0.004 C 
ENDBRANCH   7   8
ENDBRANCH   6   7
ENDBRANCH   1   6
TORSDOF 5
ENDMDL
MODEL 9
REMARK VINA RESULT:    -3.836     14.844     15.933
REMARK INTER + INTRA:          -5.109
REMARK INTER:                  -4.975
REMARK INTRA:                  -0.135
REMARK UNBOUND:                -0.152
REMARK SMILES CCCCCCC(=O)[O-]
REMARK SMILES IDX 5 1 6 2 7 3 8 4 9 5 4 6 3 7 2 8 1 9
REMARK H PARENT
REMARK Flexibility Score: inf
ROOT
ATOM      1  C   UNL     1    -129.364 107.663  41.094  1.00  0.00     0.006 C 
ENDROOT
BRANCH   1   2
ATOM      2  C   UNL     1    -129.068 106.168  40.919  1.00  0.00     0.053 C 
BRANCH   2   3
ATOM      3  C   UNL     1    -129.508 105.668  39.577  1.00  0.00     0.041 C 
ATOM      4  O   UNL     1    -130.082 106.444  38.769  1.00  0.00    -0.550 OA
ATOM      5  O   UNL     1    -129.250 104.354  39.204  1.00  0.00    -0.550 OA
ENDBRANCH   2   3
ENDBRANCH   1   2
BRANCH   1   6
ATOM      6  C   UNL     1    -128.718 108.239  42.366  1.00  0.00     0.000 C 
BRANCH   6   7
ATOM      7  C   UNL     1    -129.678 109.130  43.174  1.00  0.00    -0.000 C 
BRANCH   7   8
ATOM      8  C   UNL     1    -130.774 108.370  43.942  1.00  0.00    -0.003 C 
ATOM      9  C   UNL     1    -130.848 108.758  45.418  1.00  0.00     0.004 C 
ENDBRANCH   7   8
ENDBRANCH   6   7
ENDBRANCH   1   6
TORSDOF 5
ENDMDL
