MODEL 1
REMARK VINA RESULT:    -4.353      0.000      0.000
REMARK INTER + INTRA:          -3.184
REMARK INTER:                  -5.371
REMARK INTRA:                   2.188
REMARK UNBOUND:                 2.188
REMARK SMILES C=C1CC[C@@H]2[C@H]([C@@H]3[C@H](C)CC[C@@H]13)C2(C)C
REMARK SMILES IDX 3 1 2 2 1 3 12 4 9 5 8 6 10 7 7 8 11 9 4 11 5 12 6 13 13 14
REMARK SMILES IDX 14 16 15 17
REMARK H PARENT
REMARK Flexibility Score: 80.00
ROOT
ATOM      1  C   UNL     1       9.617   8.817  28.875  1.00  0.00     0.031 C 
ENDROOT
BRANCH   1   2
ATOM      2  C   UNL     1       9.529   7.604  29.788  1.00  0.00    -0.074 C 
ATOM      3  C   UNL     1       9.514   7.807  31.122  1.00  0.00     0.008 C 
BRANCH   2   4
ATOM      4  C   UNL     1       9.288   6.223  29.165  1.00  0.00     0.018 C 
ATOM      5  C   UNL     1      10.246   3.526  26.905  1.00  0.00     0.008 C 
ATOM      6  C   UNL     1      10.454   4.248  28.246  1.00  0.00    -0.010 C 
ATOM      7  C   UNL     1       9.404   3.822  29.277  1.00  0.00     0.004 C 
ATOM      8  C   UNL     1      10.416   5.803  28.208  1.00  0.00     0.003 CG0
ATOM      9  C   UNL     1       9.174   5.048  30.137  1.00  0.00     0.008 C 
ATOM     10  G   UNL     1      10.182   6.409  26.799  1.00  0.00     0.000 G0
ENDBRANCH   2   4
ENDBRANCH   1   2
BRANCH   1  11
ATOM     11  C   UNL     1      10.797   8.738  27.896  1.00  0.00     0.009 C 
BRANCH  11  12
ATOM     12  C   UNL     1      10.411   7.944  26.631  1.00  0.00    -0.001 C 
ATOM     13  C   UNL     1      10.186   6.430  26.790  1.00  0.00     0.002 CG0
ATOM     14  C   UNL     1      11.372   6.948  25.956  1.00  0.00    -0.029 C 
ATOM     15  G   UNL     1      10.423   5.820  28.196  1.00  0.00     0.000 G0
ATOM     16  C   UNL     1      11.180   6.780  24.444  1.00  0.00     0.011 C 
ATOM     17  C   UNL     1      12.808   6.715  26.464  1.00  0.00     0.011 C 
ENDBRANCH  11  12
ENDBRANCH   1  11
TORSDOF 0
ENDMDL
MODEL 2
REMARK VINA RESULT:    -4.286      3.394      5.792
REMARK INTER + INTRA:          -3.101
REMARK INTER:                  -5.250
REMARK INTRA:                   2.150
REMARK UNBOUND:                 2.188
REMARK SMILES C=C1CC[C@@H]2[C@H]([C@@H]3[C@H](C)CC[C@@H]13)C2(C)C
REMARK SMILES IDX 3 1 2 2 1 3 12 4 9 5 8 6 10 7 7 8 11 9 4 11 5 12 6 13 13 14
REMARK SMILES IDX 14 16 15 17
REMARK H PARENT
REMARK Flexibility Score: 80.00
ROOT
ATOM      1  C   UNL     1      12.955   7.968  21.984  1.00  0.00     0.031 C 
ENDROOT
BRANCH   1   2
ATOM      2  C   UNL     1      11.908   7.751  23.066  1.00  0.00    -0.074 C 
ATOM      3  C   UNL     1      10.630   8.087  22.795  1.00  0.00     0.008 C 
BRANCH   2   4
ATOM      4  C   UNL     1      12.308   7.008  24.347  1.00  0.00     0.018 C 
ATOM      5  C   UNL     1      14.379   6.667  27.329  1.00  0.00     0.008 C 
ATOM      6  C   UNL     1      13.196   7.352  26.628  1.00  0.00    -0.010 C 
ATOM      7  C   UNL     1      11.941   6.475  26.665  1.00  0.00     0.004 C 
ATOM      8  C   UNL     1      13.408   7.740  25.136  1.00  0.00     0.003 CG0
ATOM      9  C   UNL     1      11.202   6.785  25.379  1.00  0.00     0.008 C 
ATOM     10  G   UNL     1      14.806   7.385  24.568  1.00  0.00     0.000 G0
ENDBRANCH   2   4
ENDBRANCH   1   2
BRANCH   1  11
ATOM     11  C   UNL     1      14.130   8.833  22.460  1.00  0.00     0.009 C 
BRANCH  11  12
ATOM     12  C   UNL     1      15.195   7.972  23.172  1.00  0.00    -0.001 C 
ATOM     13  C   UNL     1      14.825   7.383  24.544  1.00  0.00     0.002 CG0
ATOM     14  C   UNL     1      15.931   8.449  24.437  1.00  0.00    -0.029 C 
ATOM     15  G   UNL     1      13.435   7.753  25.124  1.00  0.00     0.000 G0
ATOM     16  C   UNL     1      17.346   7.885  24.619  1.00  0.00     0.011 C 
ATOM     17  C   UNL     1      15.697   9.842  25.052  1.00  0.00     0.011 C 
ENDBRANCH  11  12
ENDBRANCH   1  11
TORSDOF 0
ENDMDL
MODEL 3
REMARK VINA RESULT:    -4.279      3.175      5.595
REMARK INTER + INTRA:          -3.092
REMARK INTER:                  -5.213
REMARK INTRA:                   2.121
REMARK UNBOUND:                 2.188
REMARK SMILES C=C1CC[C@@H]2[C@H]([C@@H]3[C@H](C)CC[C@@H]13)C2(C)C
REMARK SMILES IDX 3 1 2 2 1 3 12 4 9 5 8 6 10 7 7 8 11 9 4 11 5 12 6 13 13 14
REMARK SMILES IDX 14 16 15 17
REMARK H PARENT
REMARK Flexibility Score: 80.00
ROOT
ATOM      1  C   UNL     1      14.643   9.065  22.851  1.00  0.00     0.031 C 
ENDROOT
BRANCH   1   2
ATOM      2  C   UNL     1      14.981   8.139  24.009  1.00  0.00    -0.074 C 
ATOM      3  C   UNL     1      16.227   7.626  24.074  1.00  0.00     0.008 C 
BRANCH   2   4
ATOM      4  C   UNL     1      13.960   7.964  25.141  1.00  0.00     0.018 C 
ATOM      5  C   UNL     1      10.658   6.990  26.342  1.00  0.00     0.008 C 
ATOM      6  C   UNL     1      12.061   6.566  25.879  1.00  0.00    -0.010 C 
ATOM      7  C   UNL     1      13.089   6.716  27.004  1.00  0.00     0.004 C 
ATOM      8  C   UNL     1      12.645   7.330  24.656  1.00  0.00     0.003 CG0
ATOM      9  C   UNL     1      14.387   7.077  26.310  1.00  0.00     0.008 C 
ATOM     10  G   UNL     1      11.709   8.416  24.065  1.00  0.00     0.000 G0
ENDBRANCH   2   4
ENDBRANCH   1   2
BRANCH   1  11
ATOM     11  C   UNL     1      13.420   8.593  22.052  1.00  0.00     0.009 C 
BRANCH  11  12
ATOM     12  C   UNL     1      12.111   9.079  22.709  1.00  0.00    -0.001 C 
ATOM     13  C   UNL     1      11.721   8.448  24.057  1.00  0.00     0.002 CG0
ATOM     14  C   UNL     1      10.857   8.191  22.808  1.00  0.00    -0.029 C 
ATOM     15  G   UNL     1      12.645   7.334  24.613  1.00  0.00     0.000 G0
ATOM     16  C   UNL     1       9.523   8.947  22.818  1.00  0.00     0.011 C 
ATOM     17  C   UNL     1      10.802   6.772  22.209  1.00  0.00     0.011 C 
ENDBRANCH  11  12
ENDBRANCH   1  11
TORSDOF 0
ENDMDL
MODEL 4
REMARK VINA RESULT:    -3.994      3.166      6.405
REMARK INTER + INTRA:          -2.741
REMARK INTER:                  -4.953
REMARK INTRA:                   2.212
REMARK UNBOUND:                 2.188
REMARK SMILES C=C1CC[C@@H]2[C@H]([C@@H]3[C@H](C)CC[C@@H]13)C2(C)C
REMARK SMILES IDX 3 1 2 2 1 3 12 4 9 5 8 6 10 7 7 8 11 9 4 11 5 12 6 13 13 14
REMARK SMILES IDX 14 16 15 17
REMARK H PARENT
REMARK Flexibility Score: 80.00
ROOT
ATOM      1  C   UNL     1      12.115   8.397  23.087  1.00  0.00     0.031 C 
ENDROOT
BRANCH   1   2
ATOM      2  C   UNL     1      13.557   8.863  22.966  1.00  0.00    -0.074 C 
ATOM      3  C   UNL     1      14.015   9.215  21.746  1.00  0.00     0.008 C 
BRANCH   2   4
ATOM      4  C   UNL     1      14.377   9.079  24.244  1.00  0.00     0.018 C 
ATOM      5  C   UNL     1      15.815   7.852  27.363  1.00  0.00     0.008 C 
ATOM      6  C   UNL     1      15.889   7.936  25.830  1.00  0.00    -0.010 C 
ATOM      7  C   UNL     1      16.494   9.267  25.372  1.00  0.00     0.004 C 
ATOM      8  C   UNL     1      14.542   7.788  25.064  1.00  0.00     0.003 CG0
ATOM      9  C   UNL     1      15.808   9.583  24.059  1.00  0.00     0.008 C 
ATOM     10  G   UNL     1      13.305   7.562  25.970  1.00  0.00     0.000 G0
ENDBRANCH   2   4
ENDBRANCH   1   2
BRANCH   1  11
ATOM     11  C   UNL     1      11.989   7.023  23.759  1.00  0.00     0.009 C 
BRANCH  11  12
ATOM     12  C   UNL     1      11.977   7.160  25.295  1.00  0.00    -0.001 C 
ATOM     13  C   UNL     1      13.293   7.573  25.978  1.00  0.00     0.002 CG0
ATOM     14  C   UNL     1      12.708   6.169  26.219  1.00  0.00    -0.029 C 
ATOM     15  G   UNL     1      14.536   7.759  25.070  1.00  0.00     0.000 G0
ATOM     16  C   UNL     1      12.086   5.993  27.610  1.00  0.00     0.011 C 
ATOM     17  C   UNL     1      13.459   4.937  25.678  1.00  0.00     0.011 C 
ENDBRANCH  11  12
ENDBRANCH   1  11
TORSDOF 0
ENDMDL
MODEL 5
REMARK VINA RESULT:    -3.928      3.187      6.408
REMARK INTER + INTRA:          -2.658
REMARK INTER:                  -4.933
REMARK INTRA:                   2.275
REMARK UNBOUND:                 2.188
REMARK SMILES C=C1CC[C@@H]2[C@H]([C@@H]3[C@H](C)CC[C@@H]13)C2(C)C
REMARK SMILES IDX 3 1 2 2 1 3 12 4 9 5 8 6 10 7 7 8 11 9 4 11 5 12 6 13 13 14
REMARK SMILES IDX 14 16 15 17
REMARK H PARENT
REMARK Flexibility Score: 80.00
ROOT
ATOM      1  C   UNL     1      16.132   8.230  25.704  1.00  0.00     0.031 C 
ENDROOT
BRANCH   1   2
ATOM      2  C   UNL     1      15.777   8.875  24.373  1.00  0.00    -0.074 C 
ATOM      3  C   UNL     1      16.494   9.944  23.970  1.00  0.00     0.008 C 
BRANCH   2   4
ATOM      4  C   UNL     1      14.745   8.189  23.469  1.00  0.00     0.018 C 
ATOM      5  C   UNL     1      11.412   6.830  22.882  1.00  0.00     0.008 C 
ATOM      6  C   UNL     1      12.324   8.063  22.988  1.00  0.00    -0.010 C 
ATOM      7  C   UNL     1      13.120   8.280  21.697  1.00  0.00     0.004 C 
ATOM      8  C   UNL     1      13.368   8.053  24.141  1.00  0.00     0.003 CG0
ATOM      9  C   UNL     1      14.439   8.880  22.140  1.00  0.00     0.008 C 
ATOM     10  G   UNL     1      13.329   6.789  25.039  1.00  0.00     0.000 G0
ENDBRANCH   2   4
ENDBRANCH   1   2
BRANCH   1  11
ATOM     11  C   UNL     1      14.930   8.129  26.654  1.00  0.00     0.009 C 
BRANCH  11  12
ATOM     12  C   UNL     1      14.114   6.851  26.376  1.00  0.00    -0.001 C 
ATOM     13  C   UNL     1      13.326   6.789  25.056  1.00  0.00     0.002 CG0
ATOM     14  C   UNL     1      12.574   6.832  26.399  1.00  0.00    -0.029 C 
ATOM     15  G   UNL     1      13.371   8.042  24.143  1.00  0.00     0.000 G0
ATOM     16  C   UNL     1      11.944   5.491  26.794  1.00  0.00     0.011 C 
ATOM     17  C   UNL     1      11.740   8.078  26.756  1.00  0.00     0.011 C 
ENDBRANCH  11  12
ENDBRANCH   1  11
TORSDOF 0
ENDMDL
MODEL 6
REMARK VINA RESULT:    -3.926     10.727     12.773
REMARK INTER + INTRA:          -2.656
REMARK INTER:                  -4.950
REMARK INTRA:                   2.293
REMARK UNBOUND:                 2.188
REMARK SMILES C=C1CC[C@@H]2[C@H]([C@@H]3[C@H](C)CC[C@@H]13)C2(C)C
REMARK SMILES IDX 3 1 2 2 1 3 12 4 9 5 8 6 10 7 7 8 11 9 4 11 5 12 6 13 13 14
REMARK SMILES IDX 14 16 15 17
REMARK H PARENT
REMARK Flexibility Score: 80.00
ROOT
ATOM      1  C   UNL     1       1.513   8.485  16.114  1.00  0.00     0.031 C 
ENDROOT
BRANCH   1   2
ATOM      2  C   UNL     1       1.713   8.983  17.538  1.00  0.00    -0.074 C 
ATOM      3  C   UNL     1       0.845   9.894  18.024  1.00  0.00     0.008 C 
BRANCH   2   4
ATOM      4  C   UNL     1       2.776   8.311  18.416  1.00  0.00     0.018 C 
ATOM      5  C   UNL     1       6.222   7.300  19.053  1.00  0.00     0.008 C 
ATOM      6  C   UNL     1       5.164   8.415  19.044  1.00  0.00    -0.010 C 
ATOM      7  C   UNL     1       4.280   8.356  20.294  1.00  0.00     0.004 C 
ATOM      8  C   UNL     1       4.193   8.437  17.829  1.00  0.00     0.003 CG0
ATOM      9  C   UNL     1       2.920   8.846  19.841  1.00  0.00     0.008 C 
ATOM     10  G   UNL     1       4.443   7.321  16.781  1.00  0.00     0.000 G0
ENDBRANCH   2   4
ENDBRANCH   1   2
BRANCH   1  11
ATOM     11  C   UNL     1       2.765   8.662  15.242  1.00  0.00     0.009 C 
BRANCH  11  12
ATOM     12  C   UNL     1       3.729   7.472  15.415  1.00  0.00    -0.001 C 
ATOM     13  C   UNL     1       4.451   7.337  16.767  1.00  0.00     0.002 CG0
ATOM     14  C   UNL     1       5.257   7.650  15.493  1.00  0.00    -0.029 C 
ATOM     15  G   UNL     1       4.192   8.443  17.823  1.00  0.00     0.000 G0
ATOM     16  C   UNL     1       6.079   6.463  14.979  1.00  0.00     0.011 C 
ATOM     17  C   UNL     1       5.934   9.027  15.350  1.00  0.00     0.011 C 
ENDBRANCH  11  12
ENDBRANCH   1  11
TORSDOF 0
ENDMDL
MODEL 7
REMARK VINA RESULT:    -3.872      9.615     12.026
REMARK INTER + INTRA:          -2.590
REMARK INTER:                  -4.869
REMARK INTRA:                   2.278
REMARK UNBOUND:                 2.188
REMARK SMILES C=C1CC[C@@H]2[C@H]([C@@H]3[C@H](C)CC[C@@H]13)C2(C)C
REMARK SMILES IDX 3 1 2 2 1 3 12 4 9 5 8 6 10 7 7 8 11 9 4 11 5 12 6 13 13 14
REMARK SMILES IDX 14 16 15 17
REMARK H PARENT
REMARK Flexibility Score: 80.00
ROOT
ATOM      1  C   UNL     1       5.010   7.036  16.038  1.00  0.00     0.031 C 
ENDROOT
BRANCH   1   2
ATOM      2  C   UNL     1       3.732   7.849  16.185  1.00  0.00    -0.074 C 
ATOM      3  C   UNL     1       3.068   8.204  15.066  1.00  0.00     0.008 C 
BRANCH   2   4
ATOM      4  C   UNL     1       3.160   8.082  17.589  1.00  0.00     0.018 C 
ATOM      5  C   UNL     1       3.480   9.316  21.006  1.00  0.00     0.008 C 
ATOM      6  C   UNL     1       3.245   9.624  19.518  1.00  0.00    -0.010 C 
ATOM      7  C   UNL     1       1.794   9.347  19.113  1.00  0.00     0.004 C 
ATOM      8  C   UNL     1       4.132   8.847  18.503  1.00  0.00     0.003 CG0
ATOM      9  C   UNL     1       1.865   8.891  17.670  1.00  0.00     0.008 C 
ATOM     10  G   UNL     1       5.148   7.869  19.149  1.00  0.00     0.000 G0
ENDBRANCH   2   4
ENDBRANCH   1   2
BRANCH   1  11
ATOM     11  C   UNL     1       6.212   7.690  16.733  1.00  0.00     0.009 C 
BRANCH  11  12
ATOM     12  C   UNL     1       6.264   7.302  18.225  1.00  0.00    -0.001 C 
ATOM     13  C   UNL     1       5.165   7.867  19.141  1.00  0.00     0.002 CG0
ATOM     14  C   UNL     1       6.628   8.311  19.329  1.00  0.00    -0.029 C 
ATOM     15  G   UNL     1       4.131   8.828  18.499  1.00  0.00     0.000 G0
ATOM     16  C   UNL     1       7.298   7.707  20.569  1.00  0.00     0.011 C 
ATOM     17  C   UNL     1       7.019   9.769  19.018  1.00  0.00     0.011 C 
ENDBRANCH  11  12
ENDBRANCH   1  11
TORSDOF 0
ENDMDL
MODEL 8
REMARK VINA RESULT:    -3.860     10.003     12.169
REMARK INTER + INTRA:          -2.574
REMARK INTER:                  -4.899
REMARK INTRA:                   2.325
REMARK UNBOUND:                 2.188
REMARK SMILES C=C1CC[C@@H]2[C@H]([C@@H]3[C@H](C)CC[C@@H]13)C2(C)C
REMARK SMILES IDX 3 1 2 2 1 3 12 4 9 5 8 6 10 7 7 8 11 9 4 11 5 12 6 13 13 14
REMARK SMILES IDX 14 16 15 17
REMARK H PARENT
REMARK Flexibility Score: 80.00
ROOT
ATOM      1  C   UNL     1       2.541  10.051  19.543  1.00  0.00     0.031 C 
ENDROOT
BRANCH   1   2
ATOM      2  C   UNL     1       2.076   9.310  18.298  1.00  0.00    -0.074 C 
ATOM      3  C   UNL     1       0.762   9.028  18.176  1.00  0.00     0.008 C 
BRANCH   2   4
ATOM      4  C   UNL     1       3.077   9.068  17.162  1.00  0.00     0.018 C 
ATOM      5  C   UNL     1       6.220   7.707  15.908  1.00  0.00     0.008 C 
ATOM      6  C   UNL     1       4.762   7.462  16.332  1.00  0.00    -0.010 C 
ATOM      7  C   UNL     1       3.785   7.844  15.215  1.00  0.00     0.004 C 
ATOM      8  C   UNL     1       4.278   8.214  17.605  1.00  0.00     0.003 CG0
ATOM      9  C   UNL     1       2.544   8.341  15.928  1.00  0.00     0.008 C 
ATOM     10  G   UNL     1       5.354   9.104  18.279  1.00  0.00     0.000 G0
ENDBRANCH   2   4
ENDBRANCH   1   2
BRANCH   1  11
ATOM     11  C   UNL     1       3.661   9.312  20.289  1.00  0.00     0.009 C 
BRANCH  11  12
ATOM     12  C   UNL     1       5.040   9.648  19.685  1.00  0.00    -0.001 C 
ATOM     13  C   UNL     1       5.347   9.102  18.279  1.00  0.00     0.002 CG0
ATOM     14  C   UNL     1       6.139   8.587  19.495  1.00  0.00    -0.029 C 
ATOM     15  G   UNL     1       4.268   8.211  17.612  1.00  0.00     0.000 G0
ATOM     16  C   UNL     1       7.576   9.118  19.562  1.00  0.00     0.011 C 
ATOM     17  C   UNL     1       5.960   7.124  19.946  1.00  0.00     0.011 C 
ENDBRANCH  11  12
ENDBRANCH   1  11
TORSDOF 0
ENDMDL
MODEL 9
REMARK VINA RESULT:    -3.858      3.711      5.869
REMARK INTER + INTRA:          -2.573
REMARK INTER:                  -4.829
REMARK INTRA:                   2.257
REMARK UNBOUND:                 2.188
REMARK SMILES C=C1CC[C@@H]2[C@H]([C@@H]3[C@H](C)CC[C@@H]13)C2(C)C
REMARK SMILES IDX 3 1 2 2 1 3 12 4 9 5 8 6 10 7 7 8 11 9 4 11 5 12 6 13 13 14
REMARK SMILES IDX 14 16 15 17
REMARK H PARENT
REMARK Flexibility Score: 80.00
ROOT
ATOM      1  C   UNL     1      12.419   5.977  26.110  1.00  0.00     0.031 C 
ENDROOT
BRANCH   1   2
ATOM      2  C   UNL     1      13.719   6.681  26.470  1.00  0.00    -0.074 C 
ATOM      3  C   UNL     1      14.250   6.456  27.690  1.00  0.00     0.008 C 
BRANCH   2   4
ATOM      4  C   UNL     1      14.458   7.473  25.385  1.00  0.00     0.018 C 
ATOM      5  C   UNL     1      14.574  10.124  22.883  1.00  0.00     0.008 C 
ATOM      6  C   UNL     1      14.639   9.716  24.363  1.00  0.00    -0.010 C 
ATOM      7  C   UNL     1      16.025   9.179  24.734  1.00  0.00     0.004 C 
ATOM      8  C   UNL     1      13.620   8.637  24.829  1.00  0.00     0.003 CG0
ATOM      9  C   UNL     1      15.773   8.133  25.801  1.00  0.00     0.008 C 
ATOM     10  G   UNL     1      12.663   8.129  23.718  1.00  0.00     0.000 G0
ENDBRANCH   2   4
ENDBRANCH   1   2
BRANCH   1  11
ATOM     11  C   UNL     1      11.321   6.952  25.662  1.00  0.00     0.009 C 
BRANCH  11  12
ATOM     12  C   UNL     1      11.448   7.271  24.158  1.00  0.00    -0.001 C 
ATOM     13  C   UNL     1      12.655   8.117  23.715  1.00  0.00     0.002 CG0
ATOM     14  C   UNL     1      11.229   8.687  23.593  1.00  0.00    -0.029 C 
ATOM     15  G   UNL     1      13.610   8.627  24.826  1.00  0.00     0.000 G0
ATOM     16  C   UNL     1      10.711   8.740  22.151  1.00  0.00     0.011 C 
ATOM     17  C   UNL     1      10.814   9.875  24.482  1.00  0.00     0.011 C 
ENDBRANCH  11  12
ENDBRANCH   1  11
TORSDOF 0
ENDMDL
