MODEL 1
REMARK VINA RESULT:    -4.171      0.000      0.000
REMARK INTER + INTRA:          -6.432
REMARK INTER:                  -6.366
REMARK INTRA:                  -0.066
REMARK UNBOUND:                -0.066
REMARK SMILES O=C([O-])CCCCCCCCC(=O)[O-]
REMARK SMILES IDX 7 1 6 2 5 3 4 4 2 5 1 6 3 7 8 8 9 9 10 10 11 11 12 12 13 13
REMARK SMILES IDX 14 14
REMARK H PARENT
REMARK Flexibility Score: inf
ROOT
ATOM      1  C   UNL     1       3.814   1.055  57.286  1.00  0.00     0.000 C 
ENDROOT
BRANCH   1   2
ATOM      2  C   UNL     1       2.354   0.620  57.510  1.00  0.00     0.000 C 
BRANCH   2   3
ATOM      3  C   UNL     1       2.234  -0.874  57.873  1.00  0.00     0.006 C 
BRANCH   3   4
ATOM      4  C   UNL     1       0.870  -1.485  57.518  1.00  0.00     0.053 C 
BRANCH   4   5
ATOM      5  C   UNL     1      -0.213  -0.454  57.450  1.00  0.00     0.041 C 
ATOM      6  O   UNL     1      -0.734  -0.010  58.507  1.00  0.00    -0.550 OA
ATOM      7  O   UNL     1      -0.663   0.002  56.217  1.00  0.00    -0.550 OA
ENDBRANCH   4   5
ENDBRANCH   3   4
ENDBRANCH   2   3
ENDBRANCH   1   2
BRANCH   1   8
ATOM      8  C   UNL     1       3.932   2.511  56.809  1.00  0.00     0.000 C 
BRANCH   8   9
ATOM      9  C   UNL     1       5.388   2.996  56.739  1.00  0.00     0.000 C 
BRANCH   9  10
ATOM     10  C   UNL     1       6.302   2.112  57.597  1.00  0.00     0.006 C 
BRANCH  10  11
ATOM     11  C   UNL     1       7.503   2.907  58.119  1.00  0.00     0.053 C 
BRANCH  11  12
ATOM     12  C   UNL     1       8.649   2.812  57.165  1.00  0.00     0.041 C 
ATOM     13  O   UNL     1       8.447   2.512  55.959  1.00  0.00    -0.550 OA
ATOM     14  O   UNL     1       9.939   3.103  57.594  1.00  0.00    -0.550 OA
ENDBRANCH  11  12
ENDBRANCH  10  11
ENDBRANCH   9  10
ENDBRANCH   8   9
ENDBRANCH   1   8
TORSDOF 9
ENDMDL
MODEL 2
REMARK VINA RESULT:    -4.141      1.540      8.136
REMARK INTER + INTRA:          -6.385
REMARK INTER:                  -6.125
REMARK INTRA:                  -0.261
REMARK UNBOUND:                -0.066
REMARK SMILES O=C([O-])CCCCCCCCC(=O)[O-]
REMARK SMILES IDX 7 1 6 2 5 3 4 4 2 5 1 6 3 7 8 8 9 9 10 10 11 11 12 12 13 13
REMARK SMILES IDX 14 14
REMARK H PARENT
REMARK Flexibility Score: inf
ROOT
ATOM      1  C   UNL     1       3.417   1.695  57.438  1.00  0.00     0.000 C 
ENDROOT
BRANCH   1   2
ATOM      2  C   UNL     1       4.528   1.868  56.386  1.00  0.00     0.000 C 
BRANCH   2   3
ATOM      3  C   UNL     1       5.742   2.646  56.935  1.00  0.00     0.006 C 
BRANCH   3   4
ATOM      4  C   UNL     1       6.442   1.943  58.108  1.00  0.00     0.053 C 
BRANCH   4   5
ATOM      5  C   UNL     1       7.809   2.496  58.366  1.00  0.00     0.041 C 
ATOM      6  O   UNL     1       8.673   2.504  57.450  1.00  0.00    -0.550 OA
ATOM      7  O   UNL     1       8.136   2.983  59.625  1.00  0.00    -0.550 OA
ENDBRANCH   4   5
ENDBRANCH   3   4
ENDBRANCH   2   3
ENDBRANCH   1   2
BRANCH   1   8
ATOM      8  C   UNL     1       2.924   0.244  57.547  1.00  0.00     0.000 C 
BRANCH   8   9
ATOM      9  C   UNL     1       1.457   0.147  57.993  1.00  0.00     0.000 C 
BRANCH   9  10
ATOM     10  C   UNL     1       0.798  -1.122  57.438  1.00  0.00     0.006 C 
BRANCH  10  11
ATOM     11  C   UNL     1      -0.662  -0.862  57.058  1.00  0.00     0.053 C 
BRANCH  11  12
ATOM     12  C   UNL     1      -1.572  -1.772  57.820  1.00  0.00     0.041 C 
ATOM     13  O   UNL     1      -2.664  -2.145  57.315  1.00  0.00    -0.550 OA
ATOM     14  O   UNL     1      -1.192  -2.250  59.068  1.00  0.00    -0.550 OA
ENDBRANCH  11  12
ENDBRANCH  10  11
ENDBRANCH   9  10
ENDBRANCH   8   9
ENDBRANCH   1   8
TORSDOF 9
ENDMDL
MODEL 3
REMARK VINA RESULT:    -3.905     15.374     18.310
REMARK INTER + INTRA:          -6.025
REMARK INTER:                  -5.271
REMARK INTRA:                  -0.754
REMARK UNBOUND:                -0.066
REMARK SMILES O=C([O-])CCCCCCCCC(=O)[O-]
REMARK SMILES IDX 7 1 6 2 5 3 4 4 2 5 1 6 3 7 8 8 9 9 10 10 11 11 12 12 13 13
REMARK SMILES IDX 14 14
REMARK H PARENT
REMARK Flexibility Score: inf
ROOT
ATOM      1  C   UNL     1      -3.537 -11.564  67.925  1.00  0.00     0.000 C 
ENDROOT
BRANCH   1   2
ATOM      2  C   UNL     1      -3.757 -10.241  67.169  1.00  0.00     0.000 C 
BRANCH   2   3
ATOM      3  C   UNL     1      -5.097 -10.215  66.405  1.00  0.00     0.006 C 
BRANCH   3   4
ATOM      4  C   UNL     1      -4.933 -10.220  64.878  1.00  0.00     0.053 C 
BRANCH   4   5
ATOM      5  C   UNL     1      -3.643  -9.598  64.444  1.00  0.00     0.041 C 
ATOM      6  O   UNL     1      -2.716 -10.315  63.982  1.00  0.00    -0.550 OA
ATOM      7  O   UNL     1      -3.454  -8.227  64.569  1.00  0.00    -0.550 OA
ENDBRANCH   4   5
ENDBRANCH   3   4
ENDBRANCH   2   3
ENDBRANCH   1   2
BRANCH   1   8
ATOM      8  C   UNL     1      -3.281 -12.750  66.981  1.00  0.00     0.000 C 
BRANCH   8   9
ATOM      9  C   UNL     1      -4.470 -13.721  66.913  1.00  0.00     0.000 C 
BRANCH   9  10
ATOM     10  C   UNL     1      -4.427 -14.550  65.624  1.00  0.00     0.006 C 
BRANCH  10  11
ATOM     11  C   UNL     1      -5.546 -14.134  64.665  1.00  0.00     0.053 C 
BRANCH  11  12
ATOM     12  C   UNL     1      -4.976 -13.673  63.362  1.00  0.00     0.041 C 
ATOM     13  O   UNL     1      -5.725 -13.513  62.363  1.00  0.00    -0.550 OA
ATOM     14  O   UNL     1      -3.623 -13.372  63.263  1.00  0.00    -0.550 OA
ENDBRANCH  11  12
ENDBRANCH  10  11
ENDBRANCH   9  10
ENDBRANCH   8   9
ENDBRANCH   1   8
TORSDOF 9
ENDMDL
MODEL 4
REMARK VINA RESULT:    -3.902     14.705     17.600
REMARK INTER + INTRA:          -6.021
REMARK INTER:                  -5.158
REMARK INTRA:                  -0.862
REMARK UNBOUND:                -0.066
REMARK SMILES O=C([O-])CCCCCCCCC(=O)[O-]
REMARK SMILES IDX 7 1 6 2 5 3 4 4 2 5 1 6 3 7 8 8 9 9 10 10 11 11 12 12 13 13
REMARK SMILES IDX 14 14
REMARK H PARENT
REMARK Flexibility Score: inf
ROOT
ATOM      1  C   UNL     1      -3.670 -12.233  66.592  1.00  0.00     0.000 C 
ENDROOT
BRANCH   1   2
ATOM      2  C   UNL     1      -4.248 -13.634  66.859  1.00  0.00     0.000 C 
BRANCH   2   3
ATOM      3  C   UNL     1      -4.239 -14.524  65.599  1.00  0.00     0.006 C 
BRANCH   3   4
ATOM      4  C   UNL     1      -5.352 -14.181  64.597  1.00  0.00     0.053 C 
BRANCH   4   5
ATOM      5  C   UNL     1      -4.808 -13.671  63.299  1.00  0.00     0.041 C 
ATOM      6  O   UNL     1      -3.649 -13.181  63.245  1.00  0.00    -0.550 OA
ATOM      7  O   UNL     1      -5.590 -13.716  62.152  1.00  0.00    -0.550 OA
ENDBRANCH   4   5
ENDBRANCH   3   4
ENDBRANCH   2   3
ENDBRANCH   1   2
BRANCH   1   8
ATOM      8  C   UNL     1      -4.589 -11.108  67.093  1.00  0.00     0.000 C 
BRANCH   8   9
ATOM      9  C   UNL     1      -5.827 -10.912  66.204  1.00  0.00     0.000 C 
BRANCH   9  10
ATOM     10  C   UNL     1      -5.491 -10.052  64.979  1.00  0.00     0.006 C 
BRANCH  10  11
ATOM     11  C   UNL     1      -4.694  -8.808  65.383  1.00  0.00     0.053 C 
BRANCH  11  12
ATOM     12  C   UNL     1      -3.424  -8.722  64.599  1.00  0.00     0.041 C 
ATOM     13  O   UNL     1      -2.835  -7.617  64.465  1.00  0.00    -0.550 OA
ATOM     14  O   UNL     1      -2.862  -9.871  64.056  1.00  0.00    -0.550 OA
ENDBRANCH  11  12
ENDBRANCH  10  11
ENDBRANCH   9  10
ENDBRANCH   8   9
ENDBRANCH   1   8
TORSDOF 9
ENDMDL
MODEL 5
REMARK VINA RESULT:    -3.826     14.298     17.927
REMARK INTER + INTRA:          -5.905
REMARK INTER:                  -5.028
REMARK INTRA:                  -0.876
REMARK UNBOUND:                -0.066
REMARK SMILES O=C([O-])CCCCCCCCC(=O)[O-]
REMARK SMILES IDX 7 1 6 2 5 3 4 4 2 5 1 6 3 7 8 8 9 9 10 10 11 11 12 12 13 13
REMARK SMILES IDX 14 14
REMARK H PARENT
REMARK Flexibility Score: inf
ROOT
ATOM      1  C   UNL     1      -3.982 -11.000  66.906  1.00  0.00     0.000 C 
ENDROOT
BRANCH   1   2
ATOM      2  C   UNL     1      -5.178 -10.767  65.965  1.00  0.00     0.000 C 
BRANCH   2   3
ATOM      3  C   UNL     1      -4.746 -10.214  64.591  1.00  0.00     0.006 C 
BRANCH   3   4
ATOM      4  C   UNL     1      -3.477  -9.350  64.647  1.00  0.00     0.053 C 
BRANCH   4   5
ATOM      5  C   UNL     1      -3.786  -7.886  64.618  1.00  0.00     0.041 C 
ATOM      6  O   UNL     1      -4.869  -7.457  65.096  1.00  0.00    -0.550 OA
ATOM      7  O   UNL     1      -2.888  -6.997  64.042  1.00  0.00    -0.550 OA
ENDBRANCH   4   5
ENDBRANCH   3   4
ENDBRANCH   2   3
ENDBRANCH   1   2
BRANCH   1   8
ATOM      8  C   UNL     1      -3.436 -12.434  66.826  1.00  0.00     0.000 C 
BRANCH   8   9
ATOM      9  C   UNL     1      -4.550 -13.491  66.771  1.00  0.00     0.000 C 
BRANCH   9  10
ATOM     10  C   UNL     1      -4.374 -14.410  65.556  1.00  0.00     0.006 C 
BRANCH  10  11
ATOM     11  C   UNL     1      -5.499 -14.197  64.538  1.00  0.00     0.053 C 
BRANCH  11  12
ATOM     12  C   UNL     1      -4.945 -13.703  63.241  1.00  0.00     0.041 C 
ATOM     13  O   UNL     1      -5.695 -13.581  62.237  1.00  0.00    -0.550 OA
ATOM     14  O   UNL     1      -3.609 -13.329  63.151  1.00  0.00    -0.550 OA
ENDBRANCH  11  12
ENDBRANCH  10  11
ENDBRANCH   9  10
ENDBRANCH   8   9
ENDBRANCH   1   8
TORSDOF 9
ENDMDL
MODEL 6
REMARK VINA RESULT:    -3.797     12.817     13.935
REMARK INTER + INTRA:          -5.860
REMARK INTER:                  -5.480
REMARK INTRA:                  -0.381
REMARK UNBOUND:                -0.066
REMARK SMILES O=C([O-])CCCCCCCCC(=O)[O-]
REMARK SMILES IDX 7 1 6 2 5 3 4 4 2 5 1 6 3 7 8 8 9 9 10 10 11 11 12 12 13 13
REMARK SMILES IDX 14 14
REMARK H PARENT
REMARK Flexibility Score: inf
ROOT
ATOM      1  C   UNL     1       4.105  -3.140  69.462  1.00  0.00     0.000 C 
ENDROOT
BRANCH   1   2
ATOM      2  C   UNL     1       4.591  -3.679  68.105  1.00  0.00     0.000 C 
BRANCH   2   3
ATOM      3  C   UNL     1       4.119  -2.808  66.923  1.00  0.00     0.006 C 
BRANCH   3   4
ATOM      4  C   UNL     1       2.910  -3.391  66.174  1.00  0.00     0.053 C 
BRANCH   4   5
ATOM      5  C   UNL     1       1.613  -2.834  66.671  1.00  0.00     0.041 C 
ATOM      6  O   UNL     1       1.562  -1.667  67.142  1.00  0.00    -0.550 OA
ATOM      7  O   UNL     1       0.462  -3.611  66.633  1.00  0.00    -0.550 OA
ENDBRANCH   4   5
ENDBRANCH   3   4
ENDBRANCH   2   3
ENDBRANCH   1   2
BRANCH   1   8
ATOM      8  C   UNL     1       4.595  -3.988  70.647  1.00  0.00     0.000 C 
BRANCH   8   9
ATOM      9  C   UNL     1       5.244  -5.308  70.203  1.00  0.00     0.000 C 
BRANCH   9  10
ATOM     10  C   UNL     1       5.445  -6.249  71.398  1.00  0.00     0.006 C 
BRANCH  10  11
ATOM     11  C   UNL     1       5.924  -7.628  70.937  1.00  0.00     0.053 C 
BRANCH  11  12
ATOM     12  C   UNL     1       7.415  -7.654  70.825  1.00  0.00     0.041 C 
ATOM     13  O   UNL     1       8.106  -6.743  71.351  1.00  0.00    -0.550 OA
ATOM     14  O   UNL     1       8.047  -8.713  70.183  1.00  0.00    -0.550 OA
ENDBRANCH  11  12
ENDBRANCH  10  11
ENDBRANCH   9  10
ENDBRANCH   8   9
ENDBRANCH   1   8
TORSDOF 9
ENDMDL
MODEL 7
REMARK VINA RESULT:    -3.781     15.774     18.445
REMARK INTER + INTRA:          -5.836
REMARK INTER:                  -5.148
REMARK INTRA:                  -0.688
REMARK UNBOUND:                -0.066
REMARK SMILES O=C([O-])CCCCCCCCC(=O)[O-]
REMARK SMILES IDX 7 1 6 2 5 3 4 4 2 5 1 6 3 7 8 8 9 9 10 10 11 11 12 12 13 13
REMARK SMILES IDX 14 14
REMARK H PARENT
REMARK Flexibility Score: inf
ROOT
ATOM      1  C   UNL     1      -5.625 -13.241  67.672  1.00  0.00     0.000 C 
ENDROOT
BRANCH   1   2
ATOM      2  C   UNL     1      -4.956 -14.358  66.851  1.00  0.00     0.000 C 
BRANCH   2   3
ATOM      3  C   UNL     1      -4.066 -13.804  65.719  1.00  0.00     0.006 C 
BRANCH   3   4
ATOM      4  C   UNL     1      -4.105 -14.650  64.437  1.00  0.00     0.053 C 
BRANCH   4   5
ATOM      5  C   UNL     1      -4.843 -13.967  63.329  1.00  0.00     0.041 C 
ATOM      6  O   UNL     1      -4.851 -14.464  62.171  1.00  0.00    -0.550 OA
ATOM      7  O   UNL     1      -5.503 -12.768  63.567  1.00  0.00    -0.550 OA
ENDBRANCH   4   5
ENDBRANCH   3   4
ENDBRANCH   2   3
ENDBRANCH   1   2
BRANCH   1   8
ATOM      8  C   UNL     1      -6.768 -12.550  66.912  1.00  0.00     0.000 C 
BRANCH   8   9
ATOM      9  C   UNL     1      -6.713 -11.019  67.020  1.00  0.00     0.000 C 
BRANCH   9  10
ATOM     10  C   UNL     1      -5.308 -10.497  66.700  1.00  0.00     0.006 C 
BRANCH  10  11
ATOM     11  C   UNL     1      -5.186 -10.118  65.220  1.00  0.00     0.053 C 
BRANCH  11  12
ATOM     12  C   UNL     1      -3.800  -9.650  64.912  1.00  0.00     0.041 C 
ATOM     13  O   UNL     1      -3.390  -8.546  65.358  1.00  0.00    -0.550 OA
ATOM     14  O   UNL     1      -2.941 -10.456  64.173  1.00  0.00    -0.550 OA
ENDBRANCH  11  12
ENDBRANCH  10  11
ENDBRANCH   9  10
ENDBRANCH   8   9
ENDBRANCH   1   8
TORSDOF 9
ENDMDL
MODEL 8
REMARK VINA RESULT:    -3.777     15.730     18.927
REMARK INTER + INTRA:          -5.830
REMARK INTER:                  -5.095
REMARK INTRA:                  -0.735
REMARK UNBOUND:                -0.066
REMARK SMILES O=C([O-])CCCCCCCCC(=O)[O-]
REMARK SMILES IDX 7 1 6 2 5 3 4 4 2 5 1 6 3 7 8 8 9 9 10 10 11 11 12 12 13 13
REMARK SMILES IDX 14 14
REMARK H PARENT
REMARK Flexibility Score: inf
ROOT
ATOM      1  C   UNL     1      -6.676 -12.765  66.793  1.00  0.00     0.000 C 
ENDROOT
BRANCH   1   2
ATOM      2  C   UNL     1      -6.234 -11.403  67.358  1.00  0.00     0.000 C 
BRANCH   2   3
ATOM      3  C   UNL     1      -5.790 -10.424  66.251  1.00  0.00     0.006 C 
BRANCH   3   4
ATOM      4  C   UNL     1      -4.315 -10.007  66.356  1.00  0.00     0.053 C 
BRANCH   4   5
ATOM      5  C   UNL     1      -3.730  -9.650  65.026  1.00  0.00     0.041 C 
ATOM      6  O   UNL     1      -3.849  -8.481  64.574  1.00  0.00    -0.550 OA
ATOM      7  O   UNL     1      -3.072 -10.615  64.273  1.00  0.00    -0.550 OA
ENDBRANCH   4   5
ENDBRANCH   3   4
ENDBRANCH   2   3
ENDBRANCH   1   2
BRANCH   1   8
ATOM      8  C   UNL     1      -6.063 -13.950  67.557  1.00  0.00     0.000 C 
BRANCH   8   9
ATOM      9  C   UNL     1      -5.106 -14.784  66.691  1.00  0.00     0.000 C 
BRANCH   9  10
ATOM     10  C   UNL     1      -4.249 -13.880  65.796  1.00  0.00     0.006 C 
BRANCH  10  11
ATOM     11  C   UNL     1      -4.028 -14.518  64.422  1.00  0.00     0.053 C 
BRANCH  11  12
ATOM     12  C   UNL     1      -4.842 -13.817  63.382  1.00  0.00     0.041 C 
ATOM     13  O   UNL     1      -5.355 -12.694  63.629  1.00  0.00    -0.550 OA
ATOM     14  O   UNL     1      -4.994 -14.380  62.121  1.00  0.00    -0.550 OA
ENDBRANCH  11  12
ENDBRANCH  10  11
ENDBRANCH   9  10
ENDBRANCH   8   9
ENDBRANCH   1   8
TORSDOF 9
ENDMDL
MODEL 9
REMARK VINA RESULT:    -3.681      5.328      8.289
REMARK INTER + INTRA:          -5.684
REMARK INTER:                  -5.355
REMARK INTRA:                  -0.329
REMARK UNBOUND:                -0.066
REMARK SMILES O=C([O-])CCCCCCCCC(=O)[O-]
REMARK SMILES IDX 7 1 6 2 5 3 4 4 2 5 1 6 3 7 8 8 9 9 10 10 11 11 12 12 13 13
REMARK SMILES IDX 14 14
REMARK H PARENT
REMARK Flexibility Score: inf
ROOT
ATOM      1  C   UNL     1      -2.624  -2.084  60.065  1.00  0.00     0.000 C 
ENDROOT
BRANCH   1   2
ATOM      2  C   UNL     1      -3.603  -2.902  60.926  1.00  0.00     0.000 C 
BRANCH   2   3
ATOM      3  C   UNL     1      -2.880  -3.929  61.822  1.00  0.00     0.006 C 
BRANCH   3   4
ATOM      4  C   UNL     1      -3.810  -5.016  62.384  1.00  0.00     0.053 C 
BRANCH   4   5
ATOM      5  C   UNL     1      -3.251  -5.661  63.613  1.00  0.00     0.041 C 
ATOM      6  O   UNL     1      -2.128  -5.308  64.060  1.00  0.00    -0.550 OA
ATOM      7  O   UNL     1      -3.961  -6.668  64.254  1.00  0.00    -0.550 OA
ENDBRANCH   4   5
ENDBRANCH   3   4
ENDBRANCH   2   3
ENDBRANCH   1   2
BRANCH   1   8
ATOM      8  C   UNL     1      -3.149  -1.840  58.641  1.00  0.00     0.000 C 
BRANCH   8   9
ATOM      9  C   UNL     1      -2.021  -1.722  57.605  1.00  0.00     0.000 C 
BRANCH   9  10
ATOM     10  C   UNL     1      -0.647  -1.740  58.286  1.00  0.00     0.006 C 
BRANCH  10  11
ATOM     11  C   UNL     1       0.462  -1.364  57.298  1.00  0.00     0.053 C 
BRANCH  11  12
ATOM     12  C   UNL     1       1.303  -0.258  57.851  1.00  0.00     0.041 C 
ATOM     13  O   UNL     1       0.762   0.732  58.409  1.00  0.00    -0.550 OA
ATOM     14  O   UNL     1       2.689  -0.344  57.795  1.00  0.00    -0.550 OA
ENDBRANCH  11  12
ENDBRANCH  10  11
ENDBRANCH   9  10
ENDBRANCH   8   9
ENDBRANCH   1   8
TORSDOF 9
ENDMDL
