MODEL 1
REMARK VINA RESULT:    -6.641      0.000      0.000
REMARK INTER + INTRA:         -10.529
REMARK INTER:                  -9.165
REMARK INTRA:                  -1.364
REMARK UNBOUND:                -1.364
REMARK SMILES CC[C@H](CC[C@@H](C)[C@H]1CC[C@@H]2[C@H]3CC=C4C[C@H](O)CC[C@]4(C)[C@H]3CC[C@@]21C)C(C)C
REMARK SMILES IDX 5 1 4 2 3 3 2 4 1 5 28 6 29 7 30 8 6 9 7 10 8 11 9 12 26 13
REMARK SMILES IDX 10 14 11 15 25 16 27 17 12 18 24 19 23 20 13 21 21 22 14 23
REMARK SMILES IDX 15 24 20 25 22 26 16 27 19 28 17 29 18 30
REMARK H PARENT 18 31
REMARK Flexibility Score: inf
ROOT
ATOM      1  C   UNL     1      43.665   9.723 118.972  1.00  0.00     0.004 C 
ENDROOT
BRANCH   1   2
ATOM      2  C   UNL     1      42.983  11.103 119.131  1.00  0.00     0.004 C 
BRANCH   2   3
ATOM      3  C   UNL     1      42.333  11.287 120.536  1.00  0.00    -0.009 C 
BRANCH   3   4
ATOM      4  C   UNL     1      42.183   9.929 121.279  1.00  0.00     0.000 C 
ATOM      5  C   UNL     1      40.727   9.522 121.543  1.00  0.00     0.004 C 
ENDBRANCH   3   4
BRANCH   3   6
ATOM      6  C   UNL     1      43.110  12.389 121.366  1.00  0.00    -0.014 C 
ATOM      7  C   UNL     1      44.407  12.921 120.722  1.00  0.00     0.007 C 
ATOM      8  C   UNL     1      43.403  11.907 122.799  1.00  0.00     0.007 C 
ENDBRANCH   3   6
ENDBRANCH   2   3
ENDBRANCH   1   2
BRANCH   1   9
ATOM      9  C   UNL     1      45.219   9.818 118.822  1.00  0.00    -0.011 C 
ATOM     10  C   UNL     1      45.835   9.823 120.239  1.00  0.00     0.008 C 
BRANCH   9  11
ATOM     11  C   UNL     1      45.818   8.643 117.970  1.00  0.00    -0.002 C 
ATOM     12  C   UNL     1      44.883   7.447 117.788  1.00  0.00     0.005 C 
ATOM     13  C   UNL     1      46.356   8.967 116.512  1.00  0.00    -0.026 C 
ATOM     14  C   UNL     1      45.517   6.648 116.667  1.00  0.00     0.005 C 
ATOM     15  C   UNL     1      45.940   7.709 115.665  1.00  0.00    -0.001 C 
ATOM     16  C   UNL     1      47.901   9.197 116.571  1.00  0.00     0.007 C 
ATOM     17  C   UNL     1      45.678  10.213 115.872  1.00  0.00     0.012 C 
ATOM     18  C   UNL     1      46.923   7.162 114.579  1.00  0.00     0.000 C 
ATOM     19  C   UNL     1      48.660   8.844 115.294  1.00  0.00     0.005 C 
ATOM     20  C   UNL     1      48.419   7.360 114.918  1.00  0.00     0.003 C 
ATOM     21  C   UNL     1      46.605   7.776 113.202  1.00  0.00     0.031 C 
ATOM     22  C   UNL     1      49.374   6.757 113.784  1.00  0.00    -0.008 C 
ATOM     23  C   UNL     1      47.498   7.224 112.137  1.00  0.00    -0.027 C 
ATOM     24  C   UNL     1      48.756   6.800 112.375  1.00  0.00    -0.065 C 
ATOM     25  C   UNL     1      49.648   5.254 114.114  1.00  0.00     0.014 C 
ATOM     26  C   UNL     1      50.740   7.498 113.754  1.00  0.00     0.016 C 
ATOM     27  C   UNL     1      49.506   6.106 111.255  1.00  0.00     0.063 C 
ATOM     28  C   UNL     1      50.382   4.467 113.007  1.00  0.00     0.033 C 
ATOM     29  C   UNL     1      49.741   4.629 111.613  1.00  0.00     0.118 C 
BRANCH  29  30
ATOM     30  O   UNL     1      48.555   3.885 111.499  1.00  0.00    -0.393 OA
ATOM     31  H   UNL     1      48.787   2.930 111.596  1.00  0.00     0.210 HD
ENDBRANCH  29  30
ENDBRANCH   9  11
ENDBRANCH   1   9
TORSDOF 7
ENDMDL
MODEL 2
REMARK VINA RESULT:    -6.571      9.495     11.652
REMARK INTER + INTRA:         -10.431
REMARK INTER:                  -8.489
REMARK INTRA:                  -1.943
REMARK UNBOUND:                -1.364
REMARK SMILES CC[C@H](CC[C@@H](C)[C@H]1CC[C@@H]2[C@H]3CC=C4C[C@H](O)CC[C@]4(C)[C@H]3CC[C@@]21C)C(C)C
REMARK SMILES IDX 5 1 4 2 3 3 2 4 1 5 28 6 29 7 30 8 6 9 7 10 8 11 9 12 26 13
REMARK SMILES IDX 10 14 11 15 25 16 27 17 12 18 24 19 23 20 13 21 21 22 14 23
REMARK SMILES IDX 15 24 20 25 22 26 16 27 19 28 17 29 18 30
REMARK H PARENT 18 31
REMARK Flexibility Score: inf
ROOT
ATOM      1  C   UNL     1      41.907  13.925 114.639  1.00  0.00     0.004 C 
ENDROOT
BRANCH   1   2
ATOM      2  C   UNL     1      41.376  12.481 114.476  1.00  0.00     0.004 C 
BRANCH   2   3
ATOM      3  C   UNL     1      42.337  11.584 113.636  1.00  0.00    -0.009 C 
BRANCH   3   4
ATOM      4  C   UNL     1      42.912  10.414 114.483  1.00  0.00     0.000 C 
ATOM      5  C   UNL     1      43.317  10.816 115.907  1.00  0.00     0.004 C 
ENDBRANCH   3   4
BRANCH   3   6
ATOM      6  C   UNL     1      41.632  11.120 112.296  1.00  0.00    -0.014 C 
ATOM      7  C   UNL     1      40.951   9.737 112.344  1.00  0.00     0.007 C 
ATOM      8  C   UNL     1      42.605  11.178 111.104  1.00  0.00     0.007 C 
ENDBRANCH   3   6
ENDBRANCH   2   3
ENDBRANCH   1   2
BRANCH   1   9
ATOM      9  C   UNL     1      41.050  14.986 113.874  1.00  0.00    -0.011 C 
ATOM     10  C   UNL     1      40.949  16.247 114.760  1.00  0.00     0.008 C 
BRANCH   9  11
ATOM     11  C   UNL     1      41.650  15.351 112.469  1.00  0.00    -0.002 C 
ATOM     12  C   UNL     1      42.984  14.673 112.151  1.00  0.00     0.005 C 
ATOM     13  C   UNL     1      40.754  15.115 111.181  1.00  0.00    -0.026 C 
ATOM     14  C   UNL     1      43.158  14.880 110.660  1.00  0.00     0.005 C 
ATOM     15  C   UNL     1      41.773  14.609 110.096  1.00  0.00    -0.001 C 
ATOM     16  C   UNL     1      40.044  16.453 110.794  1.00  0.00     0.007 C 
ATOM     17  C   UNL     1      39.681  14.005 111.376  1.00  0.00     0.012 C 
ATOM     18  C   UNL     1      41.614  15.090 108.616  1.00  0.00     0.000 C 
ATOM     19  C   UNL     1      39.731  16.617 109.308  1.00  0.00     0.005 C 
ATOM     20  C   UNL     1      41.031  16.516 108.471  1.00  0.00     0.003 C 
ATOM     21  C   UNL     1      40.770  14.086 107.808  1.00  0.00     0.031 C 
ATOM     22  C   UNL     1      40.917  16.961 106.938  1.00  0.00    -0.008 C 
ATOM     23  C   UNL     1      40.652  14.499 106.375  1.00  0.00    -0.027 C 
ATOM     24  C   UNL     1      40.676  15.786 105.974  1.00  0.00    -0.065 C 
ATOM     25  C   UNL     1      42.267  17.627 106.514  1.00  0.00     0.014 C 
ATOM     26  C   UNL     1      39.785  18.008 106.744  1.00  0.00     0.016 C 
ATOM     27  C   UNL     1      40.718  16.075 104.486  1.00  0.00     0.063 C 
ATOM     28  C   UNL     1      42.400  17.926 105.005  1.00  0.00     0.033 C 
ATOM     29  C   UNL     1      42.065  16.714 104.110  1.00  0.00     0.118 C 
BRANCH  29  30
ATOM     30  O   UNL     1      43.098  15.763 104.118  1.00  0.00    -0.393 OA
ATOM     31  H   UNL     1      42.731  14.915 103.771  1.00  0.00     0.210 HD
ENDBRANCH  29  30
ENDBRANCH   9  11
ENDBRANCH   1   9
TORSDOF 7
ENDMDL
MODEL 3
REMARK VINA RESULT:    -6.133      8.855     11.095
REMARK INTER + INTRA:          -9.827
REMARK INTER:                  -8.740
REMARK INTRA:                  -1.087
REMARK UNBOUND:                -1.364
REMARK SMILES CC[C@H](CC[C@@H](C)[C@H]1CC[C@@H]2[C@H]3CC=C4C[C@H](O)CC[C@]4(C)[C@H]3CC[C@@]21C)C(C)C
REMARK SMILES IDX 5 1 4 2 3 3 2 4 1 5 28 6 29 7 30 8 6 9 7 10 8 11 9 12 26 13
REMARK SMILES IDX 10 14 11 15 25 16 27 17 12 18 24 19 23 20 13 21 21 22 14 23
REMARK SMILES IDX 15 24 20 25 22 26 16 27 19 28 17 29 18 30
REMARK H PARENT 18 31
REMARK Flexibility Score: inf
ROOT
ATOM      1  C   UNL     1      42.305  10.807 113.768  1.00  0.00     0.004 C 
ENDROOT
BRANCH   1   2
ATOM      2  C   UNL     1      43.002  10.750 115.148  1.00  0.00     0.004 C 
BRANCH   2   3
ATOM      3  C   UNL     1      44.252   9.818 115.146  1.00  0.00    -0.009 C 
BRANCH   3   4
ATOM      4  C   UNL     1      44.714   9.478 116.592  1.00  0.00     0.000 C 
ATOM      5  C   UNL     1      43.764   9.986 117.684  1.00  0.00     0.004 C 
ENDBRANCH   3   4
BRANCH   3   6
ATOM      6  C   UNL     1      43.992   8.545 114.241  1.00  0.00    -0.014 C 
ATOM      7  C   UNL     1      43.230   7.387 114.919  1.00  0.00     0.007 C 
ATOM      8  C   UNL     1      45.303   8.015 113.631  1.00  0.00     0.007 C 
ENDBRANCH   3   6
ENDBRANCH   2   3
ENDBRANCH   1   2
BRANCH   1   9
ATOM      9  C   UNL     1      41.543  12.149 113.518  1.00  0.00    -0.011 C 
ATOM     10  C   UNL     1      41.869  13.108 114.684  1.00  0.00     0.008 C 
BRANCH   9  11
ATOM     11  C   UNL     1      41.919  12.812 112.144  1.00  0.00    -0.002 C 
ATOM     12  C   UNL     1      42.623  11.879 111.158  1.00  0.00     0.005 C 
ATOM     13  C   UNL     1      40.766  13.505 111.300  1.00  0.00    -0.026 C 
ATOM     14  C   UNL     1      42.543  12.611 109.834  1.00  0.00     0.005 C 
ATOM     15  C   UNL     1      41.125  13.157 109.810  1.00  0.00    -0.001 C 
ATOM     16  C   UNL     1      40.760  15.039 111.599  1.00  0.00     0.007 C 
ATOM     17  C   UNL     1      39.355  12.921 111.597  1.00  0.00     0.012 C 
ATOM     18  C   UNL     1      40.907  14.236 108.700  1.00  0.00     0.000 C 
ATOM     19  C   UNL     1      40.254  15.921 110.459  1.00  0.00     0.005 C 
ATOM     20  C   UNL     1      41.104  15.693 109.184  1.00  0.00     0.003 C 
ATOM     21  C   UNL     1      39.519  14.076 108.052  1.00  0.00     0.031 C 
ATOM     22  C   UNL     1      40.895  16.750 108.000  1.00  0.00    -0.008 C 
ATOM     23  C   UNL     1      39.312  15.064 106.949  1.00  0.00    -0.027 C 
ATOM     24  C   UNL     1      39.891  16.283 106.932  1.00  0.00    -0.065 C 
ATOM     25  C   UNL     1      42.265  16.958 107.275  1.00  0.00     0.014 C 
ATOM     26  C   UNL     1      40.432  18.125 108.556  1.00  0.00     0.016 C 
ATOM     27  C   UNL     1      39.742  17.132 105.684  1.00  0.00     0.063 C 
ATOM     28  C   UNL     1      42.194  17.790 105.975  1.00  0.00     0.033 C 
ATOM     29  C   UNL     1      41.107  17.300 104.995  1.00  0.00     0.118 C 
BRANCH  29  30
ATOM     30  O   UNL     1      41.494  16.119 104.341  1.00  0.00    -0.393 OA
ATOM     31  H   UNL     1      42.368  16.284 103.911  1.00  0.00     0.210 HD
ENDBRANCH  29  30
ENDBRANCH   9  11
ENDBRANCH   1   9
TORSDOF 7
ENDMDL
MODEL 4
REMARK VINA RESULT:    -6.113     11.109     13.645
REMARK INTER + INTRA:          -9.800
REMARK INTER:                  -8.121
REMARK INTRA:                  -1.680
REMARK UNBOUND:                -1.364
REMARK SMILES CC[C@H](CC[C@@H](C)[C@H]1CC[C@@H]2[C@H]3CC=C4C[C@H](O)CC[C@]4(C)[C@H]3CC[C@@]21C)C(C)C
REMARK SMILES IDX 5 1 4 2 3 3 2 4 1 5 28 6 29 7 30 8 6 9 7 10 8 11 9 12 26 13
REMARK SMILES IDX 10 14 11 15 25 16 27 17 12 18 24 19 23 20 13 21 21 22 14 23
REMARK SMILES IDX 15 24 20 25 22 26 16 27 19 28 17 29 18 30
REMARK H PARENT 18 31
REMARK Flexibility Score: inf
ROOT
ATOM      1  C   UNL     1      40.388   0.150 113.972  1.00  0.00     0.004 C 
ENDROOT
BRANCH   1   2
ATOM      2  C   UNL     1      41.450   1.187 114.411  1.00  0.00     0.004 C 
BRANCH   2   3
ATOM      3  C   UNL     1      42.697   1.195 113.475  1.00  0.00    -0.009 C 
BRANCH   3   4
ATOM      4  C   UNL     1      42.700  -0.030 112.517  1.00  0.00     0.000 C 
ATOM      5  C   UNL     1      44.091  -0.634 112.283  1.00  0.00     0.004 C 
ENDBRANCH   3   4
BRANCH   3   6
ATOM      6  C   UNL     1      42.825   2.588 112.734  1.00  0.00    -0.014 C 
ATOM      7  C   UNL     1      44.142   3.355 112.974  1.00  0.00     0.007 C 
ATOM      8  C   UNL     1      41.627   3.503 113.052  1.00  0.00     0.007 C 
ENDBRANCH   3   6
ENDBRANCH   2   3
ENDBRANCH   1   2
BRANCH   1   9
ATOM      9  C   UNL     1      38.959   0.764 113.807  1.00  0.00    -0.011 C 
ATOM     10  C   UNL     1      38.771   1.837 114.903  1.00  0.00     0.008 C 
BRANCH   9  11
ATOM     11  C   UNL     1      38.728   1.390 112.385  1.00  0.00    -0.002 C 
ATOM     12  C   UNL     1      39.495   0.702 111.255  1.00  0.00     0.005 C 
ATOM     13  C   UNL     1      37.239   1.518 111.850  1.00  0.00    -0.026 C 
ATOM     14  C   UNL     1      38.842   1.225 109.992  1.00  0.00     0.005 C 
ATOM     15  C   UNL     1      37.358   1.193 110.317  1.00  0.00    -0.001 C 
ATOM     16  C   UNL     1      36.708   2.958 112.144  1.00  0.00     0.007 C 
ATOM     17  C   UNL     1      36.270   0.477 112.481  1.00  0.00     0.012 C 
ATOM     18  C   UNL     1      36.495   2.005 109.296  1.00  0.00     0.000 C 
ATOM     19  C   UNL     1      35.657   3.476 111.165  1.00  0.00     0.005 C 
ATOM     20  C   UNL     1      36.217   3.467 109.720  1.00  0.00     0.003 C 
ATOM     21  C   UNL     1      35.169   1.276 109.006  1.00  0.00     0.031 C 
ATOM     22  C   UNL     1      35.354   4.254 108.625  1.00  0.00    -0.008 C 
ATOM     23  C   UNL     1      34.353   2.008 107.989  1.00  0.00    -0.027 C 
ATOM     24  C   UNL     1      34.395   3.348 107.834  1.00  0.00    -0.065 C 
ATOM     25  C   UNL     1      36.334   4.893 107.589  1.00  0.00     0.014 C 
ATOM     26  C   UNL     1      34.534   5.399 109.280  1.00  0.00     0.016 C 
ATOM     27  C   UNL     1      33.652   3.960 106.662  1.00  0.00     0.063 C 
ATOM     28  C   UNL     1      35.656   5.513 106.347  1.00  0.00     0.033 C 
ATOM     29  C   UNL     1      34.651   4.563 105.661  1.00  0.00     0.118 C 
BRANCH  29  30
ATOM     30  O   UNL     1      35.306   3.559 104.930  1.00  0.00    -0.393 OA
ATOM     31  H   UNL     1      35.005   3.623 103.991  1.00  0.00     0.210 HD
ENDBRANCH  29  30
ENDBRANCH   9  11
ENDBRANCH   1   9
TORSDOF 7
ENDMDL
MODEL 5
REMARK VINA RESULT:    -6.113      7.499      9.729
REMARK INTER + INTRA:          -9.799
REMARK INTER:                  -7.527
REMARK INTRA:                  -2.272
REMARK UNBOUND:                -1.364
REMARK SMILES CC[C@H](CC[C@@H](C)[C@H]1CC[C@@H]2[C@H]3CC=C4C[C@H](O)CC[C@]4(C)[C@H]3CC[C@@]21C)C(C)C
REMARK SMILES IDX 5 1 4 2 3 3 2 4 1 5 28 6 29 7 30 8 6 9 7 10 8 11 9 12 26 13
REMARK SMILES IDX 10 14 11 15 25 16 27 17 12 18 24 19 23 20 13 21 21 22 14 23
REMARK SMILES IDX 15 24 20 25 22 26 16 27 19 28 17 29 18 30
REMARK H PARENT 18 31
REMARK Flexibility Score: inf
ROOT
ATOM      1  C   UNL     1      39.908  14.403 108.181  1.00  0.00     0.004 C 
ENDROOT
BRANCH   1   2
ATOM      2  C   UNL     1      39.323  15.752 108.664  1.00  0.00     0.004 C 
BRANCH   2   3
ATOM      3  C   UNL     1      38.899  15.714 110.164  1.00  0.00    -0.009 C 
BRANCH   3   4
ATOM      4  C   UNL     1      39.703  16.741 111.011  1.00  0.00     0.000 C 
ATOM      5  C   UNL     1      40.611  16.099 112.069  1.00  0.00     0.004 C 
ENDBRANCH   3   4
BRANCH   3   6
ATOM      6  C   UNL     1      37.328  15.863 110.300  1.00  0.00    -0.014 C 
ATOM      7  C   UNL     1      36.588  14.637 110.874  1.00  0.00     0.007 C 
ATOM      8  C   UNL     1      36.687  16.275 108.962  1.00  0.00     0.007 C 
ENDBRANCH   3   6
ENDBRANCH   2   3
ENDBRANCH   1   2
BRANCH   1   9
ATOM      9  C   UNL     1      39.561  13.208 109.128  1.00  0.00    -0.011 C 
ATOM     10  C   UNL     1      38.836  12.130 108.291  1.00  0.00     0.008 C 
BRANCH   9  11
ATOM     11  C   UNL     1      40.831  12.598 109.822  1.00  0.00    -0.002 C 
ATOM     12  C   UNL     1      42.057  13.512 109.825  1.00  0.00     0.005 C 
ATOM     13  C   UNL     1      40.700  12.085 111.319  1.00  0.00    -0.026 C 
ATOM     14  C   UNL     1      42.990  12.878 110.837  1.00  0.00     0.005 C 
ATOM     15  C   UNL     1      42.068  12.488 111.980  1.00  0.00    -0.001 C 
ATOM     16  C   UNL     1      40.438  10.544 111.315  1.00  0.00     0.007 C 
ATOM     17  C   UNL     1      39.564  12.794 112.112  1.00  0.00     0.012 C 
ATOM     18  C   UNL     1      42.741  11.510 112.997  1.00  0.00     0.000 C 
ATOM     19  C   UNL     1      40.949   9.795 112.544  1.00  0.00     0.005 C 
ATOM     20  C   UNL     1      42.474  10.012 112.711  1.00  0.00     0.003 C 
ATOM     21  C   UNL     1      42.326  11.856 114.439  1.00  0.00     0.031 C 
ATOM     22  C   UNL     1      43.210   9.061 113.767  1.00  0.00    -0.008 C 
ATOM     23  C   UNL     1      43.003  10.967 115.433  1.00  0.00    -0.027 C 
ATOM     24  C   UNL     1      43.369   9.698 115.159  1.00  0.00    -0.065 C 
ATOM     25  C   UNL     1      44.649   8.756 113.240  1.00  0.00     0.014 C 
ATOM     26  C   UNL     1      42.457   7.710 113.918  1.00  0.00     0.016 C 
ATOM     27  C   UNL     1      44.197   8.950 116.186  1.00  0.00     0.063 C 
ATOM     28  C   UNL     1      45.567   8.020 114.241  1.00  0.00     0.033 C 
ATOM     29  C   UNL     1      45.607   8.683 115.634  1.00  0.00     0.118 C 
BRANCH  29  30
ATOM     30  O   UNL     1      46.379   9.856 115.628  1.00  0.00    -0.393 OA
ATOM     31  H   UNL     1      46.745   9.971 114.717  1.00  0.00     0.210 HD
ENDBRANCH  29  30
ENDBRANCH   9  11
ENDBRANCH   1   9
TORSDOF 7
ENDMDL
MODEL 6
REMARK VINA RESULT:    -6.092      7.951     10.709
REMARK INTER + INTRA:          -9.771
REMARK INTER:                  -8.837
REMARK INTRA:                  -0.934
REMARK UNBOUND:                -1.364
REMARK SMILES CC[C@H](CC[C@@H](C)[C@H]1CC[C@@H]2[C@H]3CC=C4C[C@H](O)CC[C@]4(C)[C@H]3CC[C@@]21C)C(C)C
REMARK SMILES IDX 5 1 4 2 3 3 2 4 1 5 28 6 29 7 30 8 6 9 7 10 8 11 9 12 26 13
REMARK SMILES IDX 10 14 11 15 25 16 27 17 12 18 24 19 23 20 13 21 21 22 14 23
REMARK SMILES IDX 15 24 20 25 22 26 16 27 19 28 17 29 18 30
REMARK H PARENT 18 31
REMARK Flexibility Score: inf
ROOT
ATOM      1  C   UNL     1      43.449  10.364 115.581  1.00  0.00     0.004 C 
ENDROOT
BRANCH   1   2
ATOM      2  C   UNL     1      44.889   9.837 115.785  1.00  0.00     0.004 C 
BRANCH   2   3
ATOM      3  C   UNL     1      44.958   8.689 116.838  1.00  0.00    -0.009 C 
BRANCH   3   4
ATOM      4  C   UNL     1      43.550   8.341 117.398  1.00  0.00     0.000 C 
ATOM      5  C   UNL     1      43.357   8.716 118.874  1.00  0.00     0.004 C 
ENDBRANCH   3   4
BRANCH   3   6
ATOM      6  C   UNL     1      45.739   7.443 116.249  1.00  0.00    -0.014 C 
ATOM      7  C   UNL     1      47.231   7.677 115.932  1.00  0.00     0.007 C 
ATOM      8  C   UNL     1      45.028   6.873 115.008  1.00  0.00     0.007 C 
ENDBRANCH   3   6
ENDBRANCH   2   3
ENDBRANCH   1   2
BRANCH   1   9
ATOM      9  C   UNL     1      43.021  10.419 114.077  1.00  0.00    -0.011 C 
ATOM     10  C   UNL     1      42.599   8.996 113.649  1.00  0.00     0.008 C 
BRANCH   9  11
ATOM     11  C   UNL     1      41.853  11.437 113.816  1.00  0.00    -0.002 C 
ATOM     12  C   UNL     1      42.024  12.792 114.505  1.00  0.00     0.005 C 
ATOM     13  C   UNL     1      41.479  11.786 112.314  1.00  0.00    -0.026 C 
ATOM     14  C   UNL     1      41.006  13.684 113.824  1.00  0.00     0.005 C 
ATOM     15  C   UNL     1      41.136  13.320 112.355  1.00  0.00    -0.001 C 
ATOM     16  C   UNL     1      40.282  10.891 111.859  1.00  0.00     0.007 C 
ATOM     17  C   UNL     1      42.666  11.593 111.326  1.00  0.00     0.012 C 
ATOM     18  C   UNL     1      39.953  13.861 111.487  1.00  0.00     0.000 C 
ATOM     19  C   UNL     1      39.378  11.506 110.793  1.00  0.00     0.005 C 
ATOM     20  C   UNL     1      38.795  12.852 111.292  1.00  0.00     0.003 C 
ATOM     21  C   UNL     1      40.463  14.353 110.120  1.00  0.00     0.031 C 
ATOM     22  C   UNL     1      37.604  13.470 110.420  1.00  0.00    -0.008 C 
ATOM     23  C   UNL     1      39.355  14.926 109.296  1.00  0.00    -0.027 C 
ATOM     24  C   UNL     1      38.074  14.512 109.391  1.00  0.00    -0.065 C 
ATOM     25  C   UNL     1      36.612  14.200 111.384  1.00  0.00     0.014 C 
ATOM     26  C   UNL     1      36.818  12.354 109.679  1.00  0.00     0.016 C 
ATOM     27  C   UNL     1      37.012  15.280 108.628  1.00  0.00     0.063 C 
ATOM     28  C   UNL     1      35.515  15.031 110.683  1.00  0.00     0.033 C 
ATOM     29  C   UNL     1      36.068  15.993 109.611  1.00  0.00     0.118 C 
BRANCH  29  30
ATOM     30  O   UNL     1      36.690  17.111 110.191  1.00  0.00    -0.393 OA
ATOM     31  H   UNL     1      36.934  16.874 111.118  1.00  0.00     0.210 HD
ENDBRANCH  29  30
ENDBRANCH   9  11
ENDBRANCH   1   9
TORSDOF 7
ENDMDL
MODEL 7
REMARK VINA RESULT:    -5.939      9.973     11.869
REMARK INTER + INTRA:          -9.560
REMARK INTER:                  -7.769
REMARK INTRA:                  -1.792
REMARK UNBOUND:                -1.364
REMARK SMILES CC[C@H](CC[C@@H](C)[C@H]1CC[C@@H]2[C@H]3CC=C4C[C@H](O)CC[C@]4(C)[C@H]3CC[C@@]21C)C(C)C
REMARK SMILES IDX 5 1 4 2 3 3 2 4 1 5 28 6 29 7 30 8 6 9 7 10 8 11 9 12 26 13
REMARK SMILES IDX 10 14 11 15 25 16 27 17 12 18 24 19 23 20 13 21 21 22 14 23
REMARK SMILES IDX 15 24 20 25 22 26 16 27 19 28 17 29 18 30
REMARK H PARENT 18 31
REMARK Flexibility Score: inf
ROOT
ATOM      1  C   UNL     1      40.253  16.847 111.145  1.00  0.00     0.004 C 
ENDROOT
BRANCH   1   2
ATOM      2  C   UNL     1      39.594  16.530 112.508  1.00  0.00     0.004 C 
BRANCH   2   3
ATOM      3  C   UNL     1      40.642  16.339 113.647  1.00  0.00    -0.009 C 
BRANCH   3   4
ATOM      4  C   UNL     1      40.158  16.973 114.981  1.00  0.00     0.000 C 
ATOM      5  C   UNL     1      41.258  17.712 115.755  1.00  0.00     0.004 C 
ENDBRANCH   3   4
BRANCH   3   6
ATOM      6  C   UNL     1      41.052  14.814 113.773  1.00  0.00    -0.014 C 
ATOM      7  C   UNL     1      42.390  14.425 113.111  1.00  0.00     0.007 C 
ATOM      8  C   UNL     1      39.932  13.890 113.262  1.00  0.00     0.007 C 
ENDBRANCH   3   6
ENDBRANCH   2   3
ENDBRANCH   1   2
BRANCH   1   9
ATOM      9  C   UNL     1      39.330  16.525 109.924  1.00  0.00    -0.011 C 
ATOM     10  C   UNL     1      39.476  17.672 108.899  1.00  0.00     0.008 C 
BRANCH   9  11
ATOM     11  C   UNL     1      39.671  15.146 109.254  1.00  0.00    -0.002 C 
ATOM     12  C   UNL     1      40.940  14.477 109.784  1.00  0.00     0.005 C 
ATOM     13  C   UNL     1      38.569  14.005 109.273  1.00  0.00    -0.026 C 
ATOM     14  C   UNL     1      40.849  13.053 109.274  1.00  0.00     0.005 C 
ATOM     15  C   UNL     1      39.392  12.685 109.498  1.00  0.00    -0.001 C 
ATOM     16  C   UNL     1      37.780  14.027 107.924  1.00  0.00     0.007 C 
ATOM     17  C   UNL     1      37.565  14.143 110.454  1.00  0.00     0.012 C 
ATOM     18  C   UNL     1      38.971  11.384 108.739  1.00  0.00     0.000 C 
ATOM     19  C   UNL     1      37.212  12.680 107.481  1.00  0.00     0.005 C 
ATOM     20  C   UNL     1      38.347  11.635 107.345  1.00  0.00     0.003 C 
ATOM     21  C   UNL     1      38.016  10.538 109.603  1.00  0.00     0.031 C 
ATOM     22  C   UNL     1      37.962  10.268 106.608  1.00  0.00    -0.008 C 
ATOM     23  C   UNL     1      37.645   9.261 108.918  1.00  0.00    -0.027 C 
ATOM     24  C   UNL     1      37.577   9.136 107.576  1.00  0.00    -0.065 C 
ATOM     25  C   UNL     1      39.206   9.772 105.802  1.00  0.00     0.014 C 
ATOM     26  C   UNL     1      36.796  10.486 105.604  1.00  0.00     0.016 C 
ATOM     27  C   UNL     1      37.354   7.754 106.993  1.00  0.00     0.063 C 
ATOM     28  C   UNL     1      39.070   8.356 105.199  1.00  0.00     0.033 C 
ATOM     29  C   UNL     1      38.605   7.299 106.223  1.00  0.00     0.118 C 
BRANCH  29  30
ATOM     30  O   UNL     1      39.639   6.939 107.101  1.00  0.00    -0.393 OA
ATOM     31  H   UNL     1      40.457   7.414 106.817  1.00  0.00     0.210 HD
ENDBRANCH  29  30
ENDBRANCH   9  11
ENDBRANCH   1   9
TORSDOF 7
ENDMDL
MODEL 8
REMARK VINA RESULT:    -5.939      7.956     10.673
REMARK INTER + INTRA:          -9.560
REMARK INTER:                  -8.715
REMARK INTRA:                  -0.845
REMARK UNBOUND:                -1.364
REMARK SMILES CC[C@H](CC[C@@H](C)[C@H]1CC[C@@H]2[C@H]3CC=C4C[C@H](O)CC[C@]4(C)[C@H]3CC[C@@]21C)C(C)C
REMARK SMILES IDX 5 1 4 2 3 3 2 4 1 5 28 6 29 7 30 8 6 9 7 10 8 11 9 12 26 13
REMARK SMILES IDX 10 14 11 15 25 16 27 17 12 18 24 19 23 20 13 21 21 22 14 23
REMARK SMILES IDX 15 24 20 25 22 26 16 27 19 28 17 29 18 30
REMARK H PARENT 18 31
REMARK Flexibility Score: inf
ROOT
ATOM      1  C   UNL     1      43.391  10.375 115.629  1.00  0.00     0.004 C 
ENDROOT
BRANCH   1   2
ATOM      2  C   UNL     1      44.752   9.682 115.877  1.00  0.00     0.004 C 
BRANCH   2   3
ATOM      3  C   UNL     1      44.595   8.285 116.552  1.00  0.00    -0.009 C 
BRANCH   3   4
ATOM      4  C   UNL     1      45.564   7.239 115.933  1.00  0.00     0.000 C 
ATOM      5  C   UNL     1      46.326   7.748 114.702  1.00  0.00     0.004 C 
ENDBRANCH   3   4
BRANCH   3   6
ATOM      6  C   UNL     1      44.712   8.414 118.127  1.00  0.00    -0.014 C 
ATOM      7  C   UNL     1      43.391   8.693 118.875  1.00  0.00     0.007 C 
ATOM      8  C   UNL     1      45.765   9.464 118.525  1.00  0.00     0.007 C 
ENDBRANCH   3   6
ENDBRANCH   2   3
ENDBRANCH   1   2
BRANCH   1   9
ATOM      9  C   UNL     1      43.009  10.458 114.115  1.00  0.00    -0.011 C 
ATOM     10  C   UNL     1      42.623   9.038 113.642  1.00  0.00     0.008 C 
BRANCH   9  11
ATOM     11  C   UNL     1      41.834  11.463 113.841  1.00  0.00    -0.002 C 
ATOM     12  C   UNL     1      42.003  12.835 114.496  1.00  0.00     0.005 C 
ATOM     13  C   UNL     1      41.444  11.776 112.334  1.00  0.00    -0.026 C 
ATOM     14  C   UNL     1      40.975  13.706 113.804  1.00  0.00     0.005 C 
ATOM     15  C   UNL     1      41.094  13.308 112.342  1.00  0.00    -0.001 C 
ATOM     16  C   UNL     1      40.247  10.864 111.911  1.00  0.00     0.007 C 
ATOM     17  C   UNL     1      42.623  11.564 111.341  1.00  0.00     0.012 C 
ATOM     18  C   UNL     1      39.900  13.822 111.473  1.00  0.00     0.000 C 
ATOM     19  C   UNL     1      39.331  11.449 110.839  1.00  0.00     0.005 C 
ATOM     20  C   UNL     1      38.746  12.804 111.312  1.00  0.00     0.003 C 
ATOM     21  C   UNL     1      40.395  14.285 110.090  1.00  0.00     0.031 C 
ATOM     22  C   UNL     1      37.544  13.396 110.437  1.00  0.00    -0.008 C 
ATOM     23  C   UNL     1      39.277  14.833 109.263  1.00  0.00    -0.027 C 
ATOM     24  C   UNL     1      38.000  14.416 109.379  1.00  0.00    -0.065 C 
ATOM     25  C   UNL     1      36.557  14.143 111.393  1.00  0.00     0.014 C 
ATOM     26  C   UNL     1      36.757  12.258 109.730  1.00  0.00     0.016 C 
ATOM     27  C   UNL     1      36.926  15.160 108.608  1.00  0.00     0.063 C 
ATOM     28  C   UNL     1      35.450  14.952 110.682  1.00  0.00     0.033 C 
ATOM     29  C   UNL     1      35.988  15.891 109.583  1.00  0.00     0.118 C 
BRANCH  29  30
ATOM     30  O   UNL     1      36.610  17.025 110.130  1.00  0.00    -0.393 OA
ATOM     31  H   UNL     1      37.417  17.216 109.594  1.00  0.00     0.210 HD
ENDBRANCH  29  30
ENDBRANCH   9  11
ENDBRANCH   1   9
TORSDOF 7
ENDMDL
MODEL 9
REMARK VINA RESULT:    -5.913     10.724     13.360
REMARK INTER + INTRA:          -9.524
REMARK INTER:                  -8.104
REMARK INTRA:                  -1.420
REMARK UNBOUND:                -1.364
REMARK SMILES CC[C@H](CC[C@@H](C)[C@H]1CC[C@@H]2[C@H]3CC=C4C[C@H](O)CC[C@]4(C)[C@H]3CC[C@@]21C)C(C)C
REMARK SMILES IDX 5 1 4 2 3 3 2 4 1 5 28 6 29 7 30 8 6 9 7 10 8 11 9 12 26 13
REMARK SMILES IDX 10 14 11 15 25 16 27 17 12 18 24 19 23 20 13 21 21 22 14 23
REMARK SMILES IDX 15 24 20 25 22 26 16 27 19 28 17 29 18 30
REMARK H PARENT 18 31
REMARK Flexibility Score: inf
ROOT
ATOM      1  C   UNL     1      40.250   0.267 114.329  1.00  0.00     0.004 C 
ENDROOT
BRANCH   1   2
ATOM      2  C   UNL     1      41.696   0.815 114.386  1.00  0.00     0.004 C 
BRANCH   2   3
ATOM      3  C   UNL     1      42.401   0.780 112.995  1.00  0.00    -0.009 C 
BRANCH   3   4
ATOM      4  C   UNL     1      43.379   1.976 112.820  1.00  0.00     0.000 C 
ATOM      5  C   UNL     1      42.681   3.314 112.540  1.00  0.00     0.004 C 
ENDBRANCH   3   4
BRANCH   3   6
ATOM      6  C   UNL     1      43.069  -0.635 112.748  1.00  0.00    -0.014 C 
ATOM      7  C   UNL     1      44.430  -0.614 112.021  1.00  0.00     0.007 C 
ATOM      8  C   UNL     1      42.105  -1.588 112.018  1.00  0.00     0.007 C 
ENDBRANCH   3   6
ENDBRANCH   2   3
ENDBRANCH   1   2
BRANCH   1   9
ATOM      9  C   UNL     1      39.181   1.375 114.054  1.00  0.00    -0.011 C 
ATOM     10  C   UNL     1      39.688   2.693 114.681  1.00  0.00     0.008 C 
BRANCH   9  11
ATOM     11  C   UNL     1      38.895   1.573 112.523  1.00  0.00    -0.002 C 
ATOM     12  C   UNL     1      38.793   0.275 111.720  1.00  0.00     0.005 C 
ATOM     13  C   UNL     1      37.620   2.418 112.097  1.00  0.00    -0.026 C 
ATOM     14  C   UNL     1      38.166   0.699 110.408  1.00  0.00     0.005 C 
ATOM     15  C   UNL     1      37.073   1.668 110.829  1.00  0.00    -0.001 C 
ATOM     16  C   UNL     1      38.051   3.893 111.812  1.00  0.00     0.007 C 
ATOM     17  C   UNL     1      36.495   2.413 113.172  1.00  0.00     0.012 C 
ATOM     18  C   UNL     1      36.507   2.502 109.633  1.00  0.00     0.000 C 
ATOM     19  C   UNL     1      37.193   4.635 110.790  1.00  0.00     0.005 C 
ATOM     20  C   UNL     1      37.190   3.877 109.438  1.00  0.00     0.003 C 
ATOM     21  C   UNL     1      34.983   2.681 109.770  1.00  0.00     0.031 C 
ATOM     22  C   UNL     1      36.588   4.672 108.186  1.00  0.00    -0.008 C 
ATOM     23  C   UNL     1      34.413   3.430 108.608  1.00  0.00    -0.027 C 
ATOM     24  C   UNL     1      35.107   4.354 107.913  1.00  0.00    -0.065 C 
ATOM     25  C   UNL     1      37.385   4.257 106.907  1.00  0.00     0.014 C 
ATOM     26  C   UNL     1      36.744   6.206 108.373  1.00  0.00     0.016 C 
ATOM     27  C   UNL     1      34.485   4.925 106.654  1.00  0.00     0.063 C 
ATOM     28  C   UNL     1      36.796   4.774 105.576  1.00  0.00     0.033 C 
ATOM     29  C   UNL     1      35.289   4.482 105.420  1.00  0.00     0.118 C 
BRANCH  29  30
ATOM     30  O   UNL     1      35.053   3.130 105.119  1.00  0.00    -0.393 OA
ATOM     31  H   UNL     1      34.594   2.724 105.894  1.00  0.00     0.210 HD
ENDBRANCH  29  30
ENDBRANCH   9  11
ENDBRANCH   1   9
TORSDOF 7
ENDMDL
