MODEL 1
REMARK VINA RESULT:    -4.731      0.000      0.000
REMARK INTER + INTRA:          -6.880
REMARK INTER:                  -6.391
REMARK INTRA:                  -0.490
REMARK UNBOUND:                -0.490
REMARK SMILES C=C1C(=O)O[C@H]2[C@@H]1CCC(C)=CCC[C@]1(C)O[C@H]21
REMARK SMILES IDX 6 1 7 2 2 3 1 4 3 5 4 6 5 7 8 8 9 9 10 10 11 11 12 12 18 14
REMARK SMILES IDX 15 15 17 16 16 17 14 18 13 19
REMARK H PARENT
REMARK Flexibility Score: 70.00
ROOT
ATOM      1  C   UNL     1      54.516 -11.229 134.149  1.00  0.00     0.216 C 
ATOM      2  C   UNL     1      55.707 -10.526 134.922  1.00  0.00     0.070 C 
ATOM      3  C   UNL     1      55.030  -9.382 135.622  1.00  0.00     0.037 C 
ATOM      4  C   UNL     1      55.633  -8.414 136.313  1.00  0.00     0.021 C 
ATOM      5  C   UNL     1      53.616  -9.455 135.335  1.00  0.00     0.334 C 
ATOM      6  O   UNL     1      52.741  -8.657 135.764  1.00  0.00    -0.247 OA
ATOM      7  O   UNL     1      53.328 -10.541 134.533  1.00  0.00    -0.455 OA
ENDROOT
BRANCH   2   8
ATOM      8  C   UNL     1      56.671 -11.339 135.833  1.00  0.00     0.017 C 
BRANCH   8   9
ATOM      9  C   UNL     1      57.734 -12.233 135.136  1.00  0.00     0.031 C 
BRANCH   9  10
ATOM     10  C   UNL     1      58.328 -11.558 133.914  1.00  0.00    -0.077 C 
ATOM     11  C   UNL     1      59.151 -10.312 134.122  1.00  0.00     0.039 C 
ATOM     12  C   UNL     1      58.119 -11.975 132.642  1.00  0.00    -0.028 CG0
ATOM     13  G   UNL     1      57.379 -13.224 132.215  1.00  0.00     0.000 G0
ENDBRANCH   9  10
ENDBRANCH   8   9
ENDBRANCH   2   8
BRANCH   1  14
ATOM     14  C   UNL     1      54.297 -12.769 134.100  1.00  0.00     0.192 C 
ATOM     15  C   UNL     1      54.955 -13.648 133.075  1.00  0.00     0.096 C 
ATOM     16  O   UNL     1      53.618 -13.227 132.959  1.00  0.00    -0.362 OA
ATOM     17  C   UNL     1      55.042 -15.145 133.375  1.00  0.00     0.045 C 
BRANCH  15  18
ATOM     18  C   UNL     1      55.858 -13.083 131.959  1.00  0.00     0.042 C 
BRANCH  18  19
ATOM     19  C   UNL     1      57.375 -13.228 132.196  1.00  0.00     0.030 CG0
ATOM     20  G   UNL     1      58.102 -11.981 132.651  1.00  0.00     0.000 G0
ENDBRANCH  18  19
ENDBRANCH  15  18
ENDBRANCH   1  14
TORSDOF 0
ENDMDL
MODEL 2
REMARK VINA RESULT:    -4.702      5.856      8.962
REMARK INTER + INTRA:          -6.841
REMARK INTER:                  -6.354
REMARK INTRA:                  -0.487
REMARK UNBOUND:                -0.490
REMARK SMILES C=C1C(=O)O[C@H]2[C@@H]1CCC(C)=CCC[C@]1(C)O[C@H]21
REMARK SMILES IDX 6 1 7 2 2 3 1 4 3 5 4 6 5 7 8 8 9 9 10 10 11 11 12 12 18 14
REMARK SMILES IDX 15 15 17 16 16 17 14 18 13 19
REMARK H PARENT
REMARK Flexibility Score: 70.00
ROOT
ATOM      1  C   UNL     1      52.359 -17.542 134.008  1.00  0.00     0.216 C 
ATOM      2  C   UNL     1      51.125 -18.252 134.703  1.00  0.00     0.070 C 
ATOM      3  C   UNL     1      51.756 -19.419 135.408  1.00  0.00     0.037 C 
ATOM      4  C   UNL     1      51.111 -20.397 136.043  1.00  0.00     0.021 C 
ATOM      5  C   UNL     1      53.183 -19.352 135.194  1.00  0.00     0.334 C 
ATOM      6  O   UNL     1      54.029 -20.169 135.646  1.00  0.00    -0.247 OA
ATOM      7  O   UNL     1      53.521 -18.250 134.434  1.00  0.00    -0.455 OA
ENDROOT
BRANCH   2   8
ATOM      8  C   UNL     1      50.123 -17.452 135.584  1.00  0.00     0.017 C 
BRANCH   8   9
ATOM      9  C   UNL     1      49.128 -16.503 134.859  1.00  0.00     0.031 C 
BRANCH   9  10
ATOM     10  C   UNL     1      48.560 -17.133 133.601  1.00  0.00    -0.077 C 
ATOM     11  C   UNL     1      47.699 -18.362 133.750  1.00  0.00     0.039 C 
ATOM     12  C   UNL     1      48.824 -16.691 132.348  1.00  0.00    -0.028 CG0
ATOM     13  G   UNL     1      49.610 -15.452 131.977  1.00  0.00     0.000 G0
ENDBRANCH   9  10
ENDBRANCH   8   9
ENDBRANCH   2   8
BRANCH   1  14
ATOM     14  C   UNL     1      52.593 -16.003 134.008  1.00  0.00     0.192 C 
ATOM     15  C   UNL     1      51.991 -15.093 132.975  1.00  0.00     0.096 C 
ATOM     16  O   UNL     1      53.328 -15.524 132.912  1.00  0.00    -0.362 OA
ATOM     17  C   UNL     1      51.903 -13.603 133.309  1.00  0.00     0.045 C 
BRANCH  15  18
ATOM     18  C   UNL     1      51.136 -15.621 131.805  1.00  0.00     0.042 C 
BRANCH  18  19
ATOM     19  C   UNL     1      49.613 -15.443 131.962  1.00  0.00     0.030 CG0
ATOM     20  G   UNL     1      48.831 -16.682 132.342  1.00  0.00     0.000 G0
ENDBRANCH  18  19
ENDBRANCH  15  18
ENDBRANCH   1  14
TORSDOF 0
ENDMDL
MODEL 3
REMARK VINA RESULT:    -4.627      3.327      5.464
REMARK INTER + INTRA:          -6.740
REMARK INTER:                  -6.283
REMARK INTRA:                  -0.457
REMARK UNBOUND:                -0.490
REMARK SMILES C=C1C(=O)O[C@H]2[C@@H]1CCC(C)=CCC[C@]1(C)O[C@H]21
REMARK SMILES IDX 6 1 7 2 2 3 1 4 3 5 4 6 5 7 8 8 9 9 10 10 11 11 12 12 18 14
REMARK SMILES IDX 15 15 17 16 16 17 14 18 13 19
REMARK H PARENT
REMARK Flexibility Score: 70.00
ROOT
ATOM      1  C   UNL     1      52.611 -13.358 135.991  1.00  0.00     0.216 C 
ATOM      2  C   UNL     1      51.587 -14.287 135.219  1.00  0.00     0.070 C 
ATOM      3  C   UNL     1      50.412 -14.348 136.153  1.00  0.00     0.037 C 
ATOM      4  C   UNL     1      49.328 -15.111 136.006  1.00  0.00     0.021 C 
ATOM      5  C   UNL     1      50.702 -13.510 137.293  1.00  0.00     0.334 C 
ATOM      6  O   UNL     1      49.936 -13.320 138.274  1.00  0.00    -0.247 OA
ATOM      7  O   UNL     1      51.940 -12.912 137.168  1.00  0.00    -0.455 OA
ENDROOT
BRANCH   2   8
ATOM      8  C   UNL     1      51.199 -14.005 133.739  1.00  0.00     0.017 C 
BRANCH   8   9
ATOM      9  C   UNL     1      52.164 -14.519 132.633  1.00  0.00     0.031 C 
BRANCH   9  10
ATOM     10  C   UNL     1      52.906 -15.769 133.066  1.00  0.00    -0.077 C 
ATOM     11  C   UNL     1      52.123 -17.053 133.183  1.00  0.00     0.039 C 
ATOM     12  C   UNL     1      54.217 -15.792 133.407  1.00  0.00    -0.028 CG0
ATOM     13  G   UNL     1      55.193 -14.639 133.308  1.00  0.00     0.000 G0
ENDBRANCH   9  10
ENDBRANCH   8   9
ENDBRANCH   2   8
BRANCH   1  14
ATOM     14  C   UNL     1      53.423 -12.210 135.324  1.00  0.00     0.192 C 
ATOM     15  C   UNL     1      54.744 -12.440 134.647  1.00  0.00     0.096 C 
ATOM     16  O   UNL     1      54.646 -11.918 135.950  1.00  0.00    -0.362 OA
ATOM     17  C   UNL     1      55.229 -11.378 133.658  1.00  0.00     0.045 C 
BRANCH  15  18
ATOM     18  C   UNL     1      55.423 -13.824 134.608  1.00  0.00     0.042 C 
BRANCH  18  19
ATOM     19  C   UNL     1      55.204 -14.635 133.315  1.00  0.00     0.030 CG0
ATOM     20  G   UNL     1      54.230 -15.790 133.407  1.00  0.00     0.000 G0
ENDBRANCH  18  19
ENDBRANCH  15  18
ENDBRANCH   1  14
TORSDOF 0
ENDMDL
MODEL 4
REMARK VINA RESULT:    -4.603      3.787      5.324
REMARK INTER + INTRA:          -6.707
REMARK INTER:                  -6.272
REMARK INTRA:                  -0.435
REMARK UNBOUND:                -0.490
REMARK SMILES C=C1C(=O)O[C@H]2[C@@H]1CCC(C)=CCC[C@]1(C)O[C@H]21
REMARK SMILES IDX 6 1 7 2 2 3 1 4 3 5 4 6 5 7 8 8 9 9 10 10 11 11 12 12 18 14
REMARK SMILES IDX 15 15 17 16 16 17 14 18 13 19
REMARK H PARENT
REMARK Flexibility Score: 70.00
ROOT
ATOM      1  C   UNL     1      53.997 -15.462 135.865  1.00  0.00     0.216 C 
ATOM      2  C   UNL     1      55.066 -14.496 135.207  1.00  0.00     0.070 C 
ATOM      3  C   UNL     1      56.187 -14.496 136.206  1.00  0.00     0.037 C 
ATOM      4  C   UNL     1      57.279 -13.732 136.165  1.00  0.00     0.021 C 
ATOM      5  C   UNL     1      55.832 -15.398 137.277  1.00  0.00     0.334 C 
ATOM      6  O   UNL     1      56.542 -15.650 138.286  1.00  0.00    -0.247 OA
ATOM      7  O   UNL     1      54.601 -15.980 137.048  1.00  0.00    -0.455 OA
ENDROOT
BRANCH   2   8
ATOM      8  C   UNL     1      55.535 -14.692 133.736  1.00  0.00     0.017 C 
BRANCH   8   9
ATOM      9  C   UNL     1      54.653 -14.076 132.613  1.00  0.00     0.031 C 
BRANCH   9  10
ATOM     10  C   UNL     1      53.884 -12.862 133.099  1.00  0.00    -0.077 C 
ATOM     11  C   UNL     1      54.655 -11.590 133.352  1.00  0.00     0.039 C 
ATOM     12  C   UNL     1      52.557 -12.865 133.371  1.00  0.00    -0.028 CG0
ATOM     13  G   UNL     1      51.593 -14.007 133.135  1.00  0.00     0.000 G0
ENDBRANCH   9  10
ENDBRANCH   8   9
ENDBRANCH   2   8
BRANCH   1  14
ATOM     14  C   UNL     1      53.221 -16.564 135.087  1.00  0.00     0.192 C 
ATOM     15  C   UNL     1      51.943 -16.286 134.349  1.00  0.00     0.096 C 
ATOM     16  O   UNL     1      51.963 -16.882 135.623  1.00  0.00    -0.362 OA
ATOM     17  C   UNL     1      51.512 -17.286 133.275  1.00  0.00     0.045 C 
BRANCH  15  18
ATOM     18  C   UNL     1      51.273 -14.897 134.350  1.00  0.00     0.042 C 
BRANCH  18  19
ATOM     19  C   UNL     1      51.587 -14.008 133.129  1.00  0.00     0.030 CG0
ATOM     20  G   UNL     1      52.563 -12.875 133.360  1.00  0.00     0.000 G0
ENDBRANCH  18  19
ENDBRANCH  15  18
ENDBRANCH   1  14
TORSDOF 0
ENDMDL
MODEL 5
REMARK VINA RESULT:    -4.497      2.168      3.763
REMARK INTER + INTRA:          -6.564
REMARK INTER:                  -6.076
REMARK INTRA:                  -0.488
REMARK UNBOUND:                -0.490
REMARK SMILES C=C1C(=O)O[C@H]2[C@@H]1CCC(C)=CCC[C@]1(C)O[C@H]21
REMARK SMILES IDX 6 1 7 2 2 3 1 4 3 5 4 6 5 7 8 8 9 9 10 10 11 11 12 12 18 14
REMARK SMILES IDX 15 15 17 16 16 17 14 18 13 19
REMARK H PARENT
REMARK Flexibility Score: 70.00
ROOT
ATOM      1  C   UNL     1      56.190 -10.659 135.111  1.00  0.00     0.216 C 
ATOM      2  C   UNL     1      54.611 -10.786 135.114  1.00  0.00     0.070 C 
ATOM      3  C   UNL     1      54.166  -9.482 135.711  1.00  0.00     0.037 C 
ATOM      4  C   UNL     1      52.916  -9.152 136.038  1.00  0.00     0.021 C 
ATOM      5  C   UNL     1      55.340  -8.680 135.964  1.00  0.00     0.334 C 
ATOM      6  O   UNL     1      55.342  -7.521 136.457  1.00  0.00    -0.247 OA
ATOM      7  O   UNL     1      56.487  -9.343 135.573  1.00  0.00    -0.455 OA
ENDROOT
BRANCH   2   8
ATOM      8  C   UNL     1      53.831 -11.189 133.830  1.00  0.00     0.017 C 
BRANCH   8   9
ATOM      9  C   UNL     1      53.850 -12.688 133.419  1.00  0.00     0.031 C 
BRANCH   9  10
ATOM     10  C   UNL     1      53.808 -13.607 134.625  1.00  0.00    -0.077 C 
ATOM     11  C   UNL     1      52.558 -13.612 135.469  1.00  0.00     0.039 C 
ATOM     12  C   UNL     1      54.845 -14.383 135.023  1.00  0.00    -0.028 CG0
ATOM     13  G   UNL     1      56.159 -14.570 134.296  1.00  0.00     0.000 G0
ENDBRANCH   9  10
ENDBRANCH   8   9
ENDBRANCH   2   8
BRANCH   1  14
ATOM     14  C   UNL     1      57.096 -11.063 133.911  1.00  0.00     0.192 C 
ATOM     15  C   UNL     1      57.602 -12.464 133.716  1.00  0.00     0.096 C 
ATOM     16  O   UNL     1      58.400 -11.444 134.267  1.00  0.00    -0.362 OA
ATOM     17  C   UNL     1      58.086 -12.854 132.319  1.00  0.00     0.045 C 
BRANCH  15  18
ATOM     18  C   UNL     1      57.306 -13.598 134.719  1.00  0.00     0.042 C 
BRANCH  18  19
ATOM     19  C   UNL     1      56.181 -14.570 134.309  1.00  0.00     0.030 CG0
ATOM     20  G   UNL     1      54.855 -14.394 135.015  1.00  0.00     0.000 G0
ENDBRANCH  18  19
ENDBRANCH  15  18
ENDBRANCH   1  14
TORSDOF 0
ENDMDL
MODEL 6
REMARK VINA RESULT:    -4.481      2.158      3.569
REMARK INTER + INTRA:          -6.543
REMARK INTER:                  -6.197
REMARK INTRA:                  -0.346
REMARK UNBOUND:                -0.490
REMARK SMILES C=C1C(=O)O[C@H]2[C@@H]1CCC(C)=CCC[C@]1(C)O[C@H]21
REMARK SMILES IDX 6 1 7 2 2 3 1 4 3 5 4 6 5 7 8 8 9 9 10 10 11 11 12 12 18 14
REMARK SMILES IDX 15 15 17 16 16 17 14 18 13 19
REMARK H PARENT
REMARK Flexibility Score: 70.00
ROOT
ATOM      1  C   UNL     1      56.171 -10.007 134.866  1.00  0.00     0.216 C 
ATOM      2  C   UNL     1      57.413 -10.927 134.521  1.00  0.00     0.070 C 
ATOM      3  C   UNL     1      58.580  -9.991 134.666  1.00  0.00     0.037 C 
ATOM      4  C   UNL     1      59.849 -10.263 134.362  1.00  0.00     0.021 C 
ATOM      5  C   UNL     1      58.075  -8.710 135.099  1.00  0.00     0.334 C 
ATOM      6  O   UNL     1      58.775  -7.688 135.328  1.00  0.00    -0.247 OA
ATOM      7  O   UNL     1      56.704  -8.743 135.256  1.00  0.00    -0.455 OA
ENDROOT
BRANCH   2   8
ATOM      8  C   UNL     1      57.619 -12.302 135.219  1.00  0.00     0.017 C 
BRANCH   8   9
ATOM      9  C   UNL     1      57.151 -13.572 134.454  1.00  0.00     0.031 C 
BRANCH   9  10
ATOM     10  C   UNL     1      56.794 -13.266 133.012  1.00  0.00    -0.077 C 
ATOM     11  C   UNL     1      57.911 -13.224 131.999  1.00  0.00     0.039 C 
ATOM     12  C   UNL     1      55.541 -12.974 132.588  1.00  0.00    -0.028 CG0
ATOM     13  G   UNL     1      54.277 -13.015 133.419  1.00  0.00     0.000 G0
ENDBRANCH   9  10
ENDBRANCH   8   9
ENDBRANCH   2   8
BRANCH   1  14
ATOM     14  C   UNL     1      54.992 -10.442 135.785  1.00  0.00     0.192 C 
ATOM     15  C   UNL     1      53.821 -11.235 135.279  1.00  0.00     0.096 C 
ATOM     16  O   UNL     1      53.760  -9.843 135.477  1.00  0.00    -0.362 OA
ATOM     17  C   UNL     1      52.971 -11.980 136.309  1.00  0.00     0.045 C 
BRANCH  15  18
ATOM     18  C   UNL     1      53.671 -11.634 133.796  1.00  0.00     0.042 C 
BRANCH  18  19
ATOM     19  C   UNL     1      54.263 -13.006 133.415  1.00  0.00     0.030 CG0
ATOM     20  G   UNL     1      55.534 -12.981 132.594  1.00  0.00     0.000 G0
ENDBRANCH  18  19
ENDBRANCH  15  18
ENDBRANCH   1  14
TORSDOF 0
ENDMDL
MODEL 7
REMARK VINA RESULT:    -4.437      4.484      6.584
REMARK INTER + INTRA:          -6.483
REMARK INTER:                  -6.000
REMARK INTRA:                  -0.483
REMARK UNBOUND:                -0.490
REMARK SMILES C=C1C(=O)O[C@H]2[C@@H]1CCC(C)=CCC[C@]1(C)O[C@H]21
REMARK SMILES IDX 6 1 7 2 2 3 1 4 3 5 4 6 5 7 8 8 9 9 10 10 11 11 12 12 18 14
REMARK SMILES IDX 15 15 17 16 16 17 14 18 13 19
REMARK H PARENT
REMARK Flexibility Score: 70.00
ROOT
ATOM      1  C   UNL     1      53.067 -14.962 133.010  1.00  0.00     0.216 C 
ATOM      2  C   UNL     1      53.764 -15.086 134.427  1.00  0.00     0.070 C 
ATOM      3  C   UNL     1      55.059 -14.350 134.236  1.00  0.00     0.037 C 
ATOM      4  C   UNL     1      56.059 -14.275 135.115  1.00  0.00     0.021 C 
ATOM      5  C   UNL     1      55.078 -13.817 132.893  1.00  0.00     0.334 C 
ATOM      6  O   UNL     1      56.010 -13.138 132.389  1.00  0.00    -0.247 OA
ATOM      7  O   UNL     1      53.915 -14.132 132.218  1.00  0.00    -0.455 OA
ENDROOT
BRANCH   2   8
ATOM      8  C   UNL     1      53.010 -14.704 135.734  1.00  0.00     0.017 C 
BRANCH   8   9
ATOM      9  C   UNL     1      51.933 -15.695 136.257  1.00  0.00     0.031 C 
BRANCH   9  10
ATOM     10  C   UNL     1      52.358 -17.140 136.077  1.00  0.00    -0.077 C 
ATOM     11  C   UNL     1      53.553 -17.630 136.856  1.00  0.00     0.039 C 
ATOM     12  C   UNL     1      51.763 -18.003 135.218  1.00  0.00    -0.028 CG0
ATOM     13  G   UNL     1      50.525 -17.737 134.390  1.00  0.00     0.000 G0
ENDBRANCH   9  10
ENDBRANCH   8   9
ENDBRANCH   2   8
BRANCH   1  14
ATOM     14  C   UNL     1      51.565 -14.610 132.803  1.00  0.00     0.192 C 
ATOM     15  C   UNL     1      50.482 -15.652 132.808  1.00  0.00     0.096 C 
ATOM     16  O   UNL     1      51.005 -15.113 131.618  1.00  0.00    -0.362 OA
ATOM     17  C   UNL     1      49.047 -15.181 133.047  1.00  0.00     0.045 C 
BRANCH  15  18
ATOM     18  C   UNL     1      50.783 -17.156 132.965  1.00  0.00     0.042 C 
BRANCH  18  19
ATOM     19  C   UNL     1      50.524 -17.742 134.367  1.00  0.00     0.030 CG0
ATOM     20  G   UNL     1      51.748 -17.999 135.220  1.00  0.00     0.000 G0
ENDBRANCH  18  19
ENDBRANCH  15  18
ENDBRANCH   1  14
TORSDOF 0
ENDMDL
MODEL 8
REMARK VINA RESULT:    -4.418      3.567      5.300
REMARK INTER + INTRA:          -6.458
REMARK INTER:                  -5.979
REMARK INTRA:                  -0.479
REMARK UNBOUND:                -0.490
REMARK SMILES C=C1C(=O)O[C@H]2[C@@H]1CCC(C)=CCC[C@]1(C)O[C@H]21
REMARK SMILES IDX 6 1 7 2 2 3 1 4 3 5 4 6 5 7 8 8 9 9 10 10 11 11 12 12 18 14
REMARK SMILES IDX 15 15 17 16 16 17 14 18 13 19
REMARK H PARENT
REMARK Flexibility Score: 70.00
ROOT
ATOM      1  C   UNL     1      54.381 -14.170 133.185  1.00  0.00     0.216 C 
ATOM      2  C   UNL     1      55.285 -13.860 134.448  1.00  0.00     0.070 C 
ATOM      3  C   UNL     1      56.492 -13.196 133.848  1.00  0.00     0.037 C 
ATOM      4  C   UNL     1      57.605 -12.851 134.497  1.00  0.00     0.021 C 
ATOM      5  C   UNL     1      56.280 -13.085 132.424  1.00  0.00     0.334 C 
ATOM      6  O   UNL     1      57.086 -12.572 131.603  1.00  0.00    -0.247 OA
ATOM      7  O   UNL     1      55.051 -13.600 132.063  1.00  0.00    -0.455 OA
ENDROOT
BRANCH   2   8
ATOM      8  C   UNL     1      54.712 -13.118 135.690  1.00  0.00     0.017 C 
BRANCH   8   9
ATOM      9  C   UNL     1      53.794 -13.927 136.649  1.00  0.00     0.031 C 
BRANCH   9  10
ATOM     10  C   UNL     1      54.276 -15.355 136.824  1.00  0.00    -0.077 C 
ATOM     11  C   UNL     1      55.599 -15.576 137.515  1.00  0.00     0.039 C 
ATOM     12  C   UNL     1      53.619 -16.440 136.350  1.00  0.00    -0.028 CG0
ATOM     13  G   UNL     1      52.260 -16.448 135.683  1.00  0.00     0.000 G0
ENDBRANCH   9  10
ENDBRANCH   8   9
ENDBRANCH   2   8
BRANCH   1  14
ATOM     14  C   UNL     1      52.846 -13.915 133.127  1.00  0.00     0.192 C 
ATOM     15  C   UNL     1      51.840 -14.922 133.606  1.00  0.00     0.096 C 
ATOM     16  O   UNL     1      52.148 -14.753 132.243  1.00  0.00    -0.362 OA
ATOM     17  C   UNL     1      50.431 -14.420 133.922  1.00  0.00     0.045 C 
BRANCH  15  18
ATOM     18  C   UNL     1      52.249 -16.309 134.143  1.00  0.00     0.042 C 
BRANCH  18  19
ATOM     19  C   UNL     1      52.253 -16.451 135.678  1.00  0.00     0.030 CG0
ATOM     20  G   UNL     1      53.610 -16.447 136.347  1.00  0.00     0.000 G0
ENDBRANCH  18  19
ENDBRANCH  15  18
ENDBRANCH   1  14
TORSDOF 0
ENDMDL
MODEL 9
REMARK VINA RESULT:    -4.384      3.491      5.890
REMARK INTER + INTRA:          -6.412
REMARK INTER:                  -5.974
REMARK INTRA:                  -0.438
REMARK UNBOUND:                -0.490
REMARK SMILES C=C1C(=O)O[C@H]2[C@@H]1CCC(C)=CCC[C@]1(C)O[C@H]21
REMARK SMILES IDX 6 1 7 2 2 3 1 4 3 5 4 6 5 7 8 8 9 9 10 10 11 11 12 12 18 14
REMARK SMILES IDX 15 15 17 16 16 17 14 18 13 19
REMARK H PARENT
REMARK Flexibility Score: 70.00
ROOT
ATOM      1  C   UNL     1      52.733 -14.325 133.068  1.00  0.00     0.216 C 
ATOM      2  C   UNL     1      51.797 -14.769 134.266  1.00  0.00     0.070 C 
ATOM      3  C   UNL     1      50.615 -15.377 133.567  1.00  0.00     0.037 C 
ATOM      4  C   UNL     1      49.488 -15.795 134.145  1.00  0.00     0.021 C 
ATOM      5  C   UNL     1      50.867 -15.340 132.146  1.00  0.00     0.334 C 
ATOM      6  O   UNL     1      50.089 -15.771 131.254  1.00  0.00    -0.247 OA
ATOM      7  O   UNL     1      52.099 -14.781 131.874  1.00  0.00    -0.455 OA
ENDROOT
BRANCH   2   8
ATOM      8  C   UNL     1      52.344 -15.630 135.441  1.00  0.00     0.017 C 
BRANCH   8   9
ATOM      9  C   UNL     1      53.067 -14.887 136.600  1.00  0.00     0.031 C 
BRANCH   9  10
ATOM     10  C   UNL     1      52.559 -13.468 136.766  1.00  0.00    -0.077 C 
ATOM     11  C   UNL     1      51.178 -13.271 137.339  1.00  0.00     0.039 C 
ATOM     12  C   UNL     1      53.249 -12.367 136.380  1.00  0.00    -0.028 CG0
ATOM     13  G   UNL     1      54.662 -12.334 135.840  1.00  0.00     0.000 G0
ENDBRANCH   9  10
ENDBRANCH   8   9
ENDBRANCH   2   8
BRANCH   1  14
ATOM     14  C   UNL     1      54.271 -14.560 133.028  1.00  0.00     0.192 C 
ATOM     15  C   UNL     1      55.253 -13.601 133.638  1.00  0.00     0.096 C 
ATOM     16  O   UNL     1      54.985 -13.628 132.257  1.00  0.00    -0.362 OA
ATOM     17  C   UNL     1      56.658 -14.123 133.941  1.00  0.00     0.045 C 
BRANCH  15  18
ATOM     18  C   UNL     1      54.814 -12.282 134.306  1.00  0.00     0.042 C 
BRANCH  18  19
ATOM     19  C   UNL     1      54.665 -12.331 135.839  1.00  0.00     0.030 CG0
ATOM     20  G   UNL     1      53.249 -12.362 136.373  1.00  0.00     0.000 G0
ENDBRANCH  18  19
ENDBRANCH  15  18
ENDBRANCH   1  14
TORSDOF 0
ENDMDL
