MODEL 1
REMARK VINA RESULT:    -3.459      0.000      0.000
REMARK INTER + INTRA:          -4.919
REMARK INTER:                  -4.470
REMARK INTRA:                  -0.449
REMARK UNBOUND:                -0.449
REMARK SMILES C=CC(=O)CCCCC
REMARK SMILES IDX 6 1 7 2 8 3 9 4 5 5 3 6 4 7 2 8 1 9
REMARK H PARENT
REMARK Flexibility Score: inf
ROOT
ATOM      1  C   UNL     1       8.414  -8.503  43.642  1.00  0.00     0.008 C 
ENDROOT
BRANCH   1   2
ATOM      2  C   UNL     1       8.009  -7.155  44.249  1.00  0.00     0.000 C 
BRANCH   2   3
ATOM      3  C   UNL     1       7.995  -6.053  43.183  1.00  0.00    -0.003 C 
ATOM      4  C   UNL     1       7.718  -6.630  41.798  1.00  0.00     0.004 C 
ENDBRANCH   2   3
ENDBRANCH   1   2
BRANCH   1   5
ATOM      5  C   UNL     1       7.579  -9.645  44.230  1.00  0.00     0.080 C 
BRANCH   5   6
ATOM      6  C   UNL     1       6.856 -10.383  43.143  1.00  0.00     0.155 C 
ATOM      7  O   UNL     1       5.790 -10.998  43.418  1.00  0.00    -0.295 OA
BRANCH   6   8
ATOM      8  C   UNL     1       7.366 -10.347  41.758  1.00  0.00     0.039 C 
ATOM      9  C   UNL     1       6.580 -10.100  40.712  1.00  0.00     0.012 C 
ENDBRANCH   6   8
ENDBRANCH   5   6
ENDBRANCH   1   5
TORSDOF 5
ENDMDL
MODEL 2
REMARK VINA RESULT:    -3.436      2.052      4.426
REMARK INTER + INTRA:          -4.889
REMARK INTER:                  -4.601
REMARK INTRA:                  -0.288
REMARK UNBOUND:                -0.449
REMARK SMILES C=CC(=O)CCCCC
REMARK SMILES IDX 6 1 7 2 8 3 9 4 5 5 3 6 4 7 2 8 1 9
REMARK H PARENT
REMARK Flexibility Score: inf
ROOT
ATOM      1  C   UNL     1       8.156  -9.111  41.744  1.00  0.00     0.008 C 
ENDROOT
BRANCH   1   2
ATOM      2  C   UNL     1       6.836  -9.866  41.937  1.00  0.00     0.000 C 
BRANCH   2   3
ATOM      3  C   UNL     1       6.901 -10.783  43.164  1.00  0.00    -0.003 C 
ATOM      4  C   UNL     1       7.407 -10.028  44.390  1.00  0.00     0.004 C 
ENDBRANCH   2   3
ENDBRANCH   1   2
BRANCH   1   5
ATOM      5  C   UNL     1       7.907  -7.617  41.514  1.00  0.00     0.080 C 
BRANCH   5   6
ATOM      6  C   UNL     1       8.343  -6.820  42.707  1.00  0.00     0.155 C 
ATOM      7  O   UNL     1       9.382  -7.164  43.334  1.00  0.00    -0.295 OA
BRANCH   6   8
ATOM      8  C   UNL     1       7.586  -5.619  43.110  1.00  0.00     0.039 C 
ATOM      9  C   UNL     1       7.860  -4.406  42.633  1.00  0.00     0.012 C 
ENDBRANCH   6   8
ENDBRANCH   5   6
ENDBRANCH   1   5
TORSDOF 5
ENDMDL
MODEL 3
REMARK VINA RESULT:    -3.370      1.644      2.614
REMARK INTER + INTRA:          -4.803
REMARK INTER:                  -4.586
REMARK INTRA:                  -0.217
REMARK UNBOUND:                -0.449
REMARK SMILES C=CC(=O)CCCCC
REMARK SMILES IDX 6 1 7 2 8 3 9 4 5 5 3 6 4 7 2 8 1 9
REMARK H PARENT
REMARK Flexibility Score: inf
ROOT
ATOM      1  C   UNL     1       8.482  -6.822  42.826  1.00  0.00     0.008 C 
ENDROOT
BRANCH   1   2
ATOM      2  C   UNL     1       7.592  -5.590  43.025  1.00  0.00     0.000 C 
BRANCH   2   3
ATOM      3  C   UNL     1       7.910  -4.508  41.987  1.00  0.00    -0.003 C 
ATOM      4  C   UNL     1       8.336  -3.206  42.659  1.00  0.00     0.004 C 
ENDBRANCH   2   3
ENDBRANCH   1   2
BRANCH   1   5
ATOM      5  C   UNL     1       7.944  -7.713  41.702  1.00  0.00     0.080 C 
BRANCH   5   6
ATOM      6  C   UNL     1       7.455  -9.019  42.253  1.00  0.00     0.155 C 
ATOM      7  O   UNL     1       6.845  -9.820  41.493  1.00  0.00    -0.295 OA
BRANCH   6   8
ATOM      8  C   UNL     1       7.729  -9.378  43.658  1.00  0.00     0.039 C 
ATOM      9  C   UNL     1       7.114 -10.387  44.272  1.00  0.00     0.012 C 
ENDBRANCH   6   8
ENDBRANCH   5   6
ENDBRANCH   1   5
TORSDOF 5
ENDMDL
MODEL 4
REMARK VINA RESULT:    -3.361      2.158      3.947
REMARK INTER + INTRA:          -4.792
REMARK INTER:                  -4.375
REMARK INTRA:                  -0.417
REMARK UNBOUND:                -0.449
REMARK SMILES C=CC(=O)CCCCC
REMARK SMILES IDX 6 1 7 2 8 3 9 4 5 5 3 6 4 7 2 8 1 9
REMARK H PARENT
REMARK Flexibility Score: inf
ROOT
ATOM      1  C   UNL     1       8.582  -8.486  43.896  1.00  0.00     0.008 C 
ENDROOT
BRANCH   1   2
ATOM      2  C   UNL     1       7.609  -9.654  44.097  1.00  0.00     0.000 C 
BRANCH   2   3
ATOM      3  C   UNL     1       7.007 -10.105  42.760  1.00  0.00    -0.003 C 
ATOM      4  C   UNL     1       7.819  -9.573  41.583  1.00  0.00     0.004 C 
ENDBRANCH   2   3
ENDBRANCH   1   2
BRANCH   1   5
ATOM      5  C   UNL     1       7.942  -7.159  44.317  1.00  0.00     0.080 C 
BRANCH   5   6
ATOM      6  C   UNL     1       8.060  -6.145  43.218  1.00  0.00     0.155 C 
ATOM      7  O   UNL     1       7.180  -5.249  43.108  1.00  0.00    -0.295 OA
BRANCH   6   8
ATOM      8  C   UNL     1       9.222  -6.173  42.308  1.00  0.00     0.039 C 
ATOM      9  C   UNL     1       9.146  -5.774  41.039  1.00  0.00     0.012 C 
ENDBRANCH   6   8
ENDBRANCH   5   6
ENDBRANCH   1   5
TORSDOF 5
ENDMDL
MODEL 5
REMARK VINA RESULT:    -3.322      2.572      4.982
REMARK INTER + INTRA:          -4.742
REMARK INTER:                  -4.539
REMARK INTRA:                  -0.202
REMARK UNBOUND:                -0.449
REMARK SMILES C=CC(=O)CCCCC
REMARK SMILES IDX 6 1 7 2 8 3 9 4 5 5 3 6 4 7 2 8 1 9
REMARK H PARENT
REMARK Flexibility Score: inf
ROOT
ATOM      1  C   UNL     1       8.112  -7.332  41.679  1.00  0.00     0.008 C 
ENDROOT
BRANCH   1   2
ATOM      2  C   UNL     1       7.772  -8.735  42.195  1.00  0.00     0.000 C 
BRANCH   2   3
ATOM      3  C   UNL     1       8.016  -8.839  43.705  1.00  0.00    -0.003 C 
ATOM      4  C   UNL     1       7.334 -10.072  44.291  1.00  0.00     0.004 C 
ENDBRANCH   2   3
ENDBRANCH   1   2
BRANCH   1   5
ATOM      5  C   UNL     1       8.633  -6.440  42.811  1.00  0.00     0.080 C 
BRANCH   5   6
ATOM      6  C   UNL     1       7.936  -5.113  42.799  1.00  0.00     0.155 C 
ATOM      7  O   UNL     1       6.781  -5.017  43.298  1.00  0.00    -0.295 OA
BRANCH   6   8
ATOM      8  C   UNL     1       8.618  -3.924  42.251  1.00  0.00     0.039 C 
ATOM      9  C   UNL     1       8.550  -2.728  42.833  1.00  0.00     0.012 C 
ENDBRANCH   6   8
ENDBRANCH   5   6
ENDBRANCH   1   5
TORSDOF 5
ENDMDL
MODEL 6
REMARK VINA RESULT:    -3.284      8.113      9.472
REMARK INTER + INTRA:          -4.693
REMARK INTER:                  -4.235
REMARK INTRA:                  -0.458
REMARK UNBOUND:                -0.449
REMARK SMILES C=CC(=O)CCCCC
REMARK SMILES IDX 6 1 7 2 8 3 9 4 5 5 3 6 4 7 2 8 1 9
REMARK H PARENT
REMARK Flexibility Score: inf
ROOT
ATOM      1  C   UNL     1       6.573  -1.146  37.619  1.00  0.00     0.008 C 
ENDROOT
BRANCH   1   2
ATOM      2  C   UNL     1       5.599  -0.545  36.599  1.00  0.00     0.000 C 
BRANCH   2   3
ATOM      3  C   UNL     1       6.289  -0.314  35.249  1.00  0.00    -0.003 C 
ATOM      4  C   UNL     1       5.568  -1.056  34.128  1.00  0.00     0.004 C 
ENDBRANCH   2   3
ENDBRANCH   1   2
BRANCH   1   5
ATOM      5  C   UNL     1       6.310  -2.642  37.816  1.00  0.00     0.080 C 
BRANCH   5   6
ATOM      6  C   UNL     1       7.398  -3.457  37.184  1.00  0.00     0.155 C 
ATOM      7  O   UNL     1       8.370  -3.843  37.890  1.00  0.00    -0.295 OA
BRANCH   6   8
ATOM      8  C   UNL     1       7.304  -3.840  35.761  1.00  0.00     0.039 C 
ATOM      9  C   UNL     1       8.368  -4.200  35.046  1.00  0.00     0.012 C 
ENDBRANCH   6   8
ENDBRANCH   5   6
ENDBRANCH   1   5
TORSDOF 5
ENDMDL
MODEL 7
REMARK VINA RESULT:    -3.267      2.585      3.979
REMARK INTER + INTRA:          -4.670
REMARK INTER:                  -4.427
REMARK INTRA:                  -0.243
REMARK UNBOUND:                -0.449
REMARK SMILES C=CC(=O)CCCCC
REMARK SMILES IDX 6 1 7 2 8 3 9 4 5 5 3 6 4 7 2 8 1 9
REMARK H PARENT
REMARK Flexibility Score: inf
ROOT
ATOM      1  C   UNL     1       7.745  -4.827  42.732  1.00  0.00     0.008 C 
ENDROOT
BRANCH   1   2
ATOM      2  C   UNL     1       8.992  -3.971  42.482  1.00  0.00     0.000 C 
BRANCH   2   3
ATOM      3  C   UNL     1       8.648  -2.477  42.513  1.00  0.00    -0.003 C 
ATOM      4  C   UNL     1       8.300  -1.961  41.120  1.00  0.00     0.004 C 
ENDBRANCH   2   3
ENDBRANCH   1   2
BRANCH   1   5
ATOM      5  C   UNL     1       7.538  -5.841  41.603  1.00  0.00     0.080 C 
BRANCH   5   6
ATOM      6  C   UNL     1       7.797  -7.235  42.092  1.00  0.00     0.155 C 
ATOM      7  O   UNL     1       7.640  -8.206  41.303  1.00  0.00    -0.295 OA
BRANCH   6   8
ATOM      8  C   UNL     1       8.275  -7.458  43.471  1.00  0.00     0.039 C 
ATOM      9  C   UNL     1       8.396  -8.675  43.998  1.00  0.00     0.012 C 
ENDBRANCH   6   8
ENDBRANCH   5   6
ENDBRANCH   1   5
TORSDOF 5
ENDMDL
MODEL 8
REMARK VINA RESULT:    -3.226      2.889      3.809
REMARK INTER + INTRA:          -4.617
REMARK INTER:                  -4.381
REMARK INTRA:                  -0.236
REMARK UNBOUND:                -0.449
REMARK SMILES C=CC(=O)CCCCC
REMARK SMILES IDX 6 1 7 2 8 3 9 4 5 5 3 6 4 7 2 8 1 9
REMARK H PARENT
REMARK Flexibility Score: inf
ROOT
ATOM      1  C   UNL     1       7.574  -5.256  42.957  1.00  0.00     0.008 C 
ENDROOT
BRANCH   1   2
ATOM      2  C   UNL     1       8.071  -3.820  42.753  1.00  0.00     0.000 C 
BRANCH   2   3
ATOM      3  C   UNL     1       8.369  -3.546  41.274  1.00  0.00    -0.003 C 
ATOM      4  C   UNL     1       8.212  -2.065  40.945  1.00  0.00     0.004 C 
ENDBRANCH   2   3
ENDBRANCH   1   2
BRANCH   1   5
ATOM      5  C   UNL     1       7.492  -6.005  41.623  1.00  0.00     0.080 C 
BRANCH   5   6
ATOM      6  C   UNL     1       8.357  -7.229  41.650  1.00  0.00     0.155 C 
ATOM      7  O   UNL     1       9.540  -7.159  41.219  1.00  0.00    -0.295 OA
BRANCH   6   8
ATOM      8  C   UNL     1       7.839  -8.488  42.221  1.00  0.00     0.039 C 
ATOM      9  C   UNL     1       7.409  -9.494  41.463  1.00  0.00     0.012 C 
ENDBRANCH   6   8
ENDBRANCH   5   6
ENDBRANCH   1   5
TORSDOF 5
ENDMDL
MODEL 9
REMARK VINA RESULT:    -3.178      3.272      5.173
REMARK INTER + INTRA:          -4.556
REMARK INTER:                  -4.262
REMARK INTRA:                  -0.294
REMARK UNBOUND:                -0.449
REMARK SMILES C=CC(=O)CCCCC
REMARK SMILES IDX 6 1 7 2 8 3 9 4 5 5 3 6 4 7 2 8 1 9
REMARK H PARENT
REMARK Flexibility Score: inf
ROOT
ATOM      1  C   UNL     1       8.298  -6.590  42.913  1.00  0.00     0.008 C 
ENDROOT
BRANCH   1   2
ATOM      2  C   UNL     1       7.882  -7.554  41.795  1.00  0.00     0.000 C 
BRANCH   2   3
ATOM      3  C   UNL     1       7.750  -8.987  42.325  1.00  0.00    -0.003 C 
ATOM      4  C   UNL     1       7.970  -9.039  43.834  1.00  0.00     0.004 C 
ENDBRANCH   2   3
ENDBRANCH   1   2
BRANCH   1   5
ATOM      5  C   UNL     1       7.481  -5.296  42.856  1.00  0.00     0.080 C 
BRANCH   5   6
ATOM      6  C   UNL     1       8.221  -4.238  42.094  1.00  0.00     0.155 C 
ATOM      7  O   UNL     1       9.085  -3.539  42.689  1.00  0.00    -0.295 OA
BRANCH   6   8
ATOM      8  C   UNL     1       7.969  -4.053  40.651  1.00  0.00     0.039 C 
ATOM      9  C   UNL     1       8.923  -4.197  39.734  1.00  0.00     0.012 C 
ENDBRANCH   6   8
ENDBRANCH   5   6
ENDBRANCH   1   5
TORSDOF 5
ENDMDL
