MODEL 1
REMARK VINA RESULT:    -2.817      0.000      0.000
REMARK INTER + INTRA:          -6.163
REMARK INTER:                  -4.958
REMARK INTRA:                  -1.205
REMARK UNBOUND:                -1.205
REMARK SMILES CCCCCCCCCCCCCCC(=O)[O-]
REMARK SMILES IDX 9 1 10 2 11 3 12 4 13 5 14 6 15 7 16 8 17 9 8 10 7 11 6 12
REMARK SMILES IDX 5 13 4 14 3 15 2 16 1 17
REMARK H PARENT
REMARK Flexibility Score: inf
ROOT
ATOM      1  C   UNL     1      -8.729 -22.946  20.657  1.00  0.00     0.000 C 
ENDROOT
BRANCH   1   2
ATOM      2  C   UNL     1      -8.470 -23.044  22.171  1.00  0.00     0.000 C 
BRANCH   2   3
ATOM      3  C   UNL     1      -9.767 -23.049  23.003  1.00  0.00     0.000 C 
BRANCH   3   4
ATOM      4  C   UNL     1     -10.297 -21.659  23.404  1.00  0.00     0.000 C 
BRANCH   4   5
ATOM      5  C   UNL     1      -9.514 -20.506  22.755  1.00  0.00     0.006 C 
BRANCH   5   6
ATOM      6  C   UNL     1     -10.337 -19.212  22.688  1.00  0.00     0.053 C 
BRANCH   6   7
ATOM      7  C   UNL     1      -9.523 -18.059  22.187  1.00  0.00     0.041 C 
ATOM      8  O   UNL     1      -8.835 -17.373  22.989  1.00  0.00    -0.550 OA
ATOM      9  O   UNL     1      -9.501 -17.757  20.831  1.00  0.00    -0.550 OA
ENDBRANCH   6   7
ENDBRANCH   5   6
ENDBRANCH   4   5
ENDBRANCH   3   4
ENDBRANCH   2   3
ENDBRANCH   1   2
BRANCH   1  10
ATOM     10  C   UNL     1     -10.214 -23.125  20.289  1.00  0.00     0.000 C 
BRANCH  10  11
ATOM     11  C   UNL     1     -10.900 -21.873  19.712  1.00  0.00    -0.000 C 
BRANCH  11  12
ATOM     12  C   UNL     1      -9.901 -20.853  19.139  1.00  0.00    -0.000 C 
BRANCH  12  13
ATOM     13  C   UNL     1     -10.059 -20.654  17.622  1.00  0.00    -0.000 C 
BRANCH  13  14
ATOM     14  C   UNL     1      -9.430 -21.800  16.810  1.00  0.00    -0.000 C 
BRANCH  14  15
ATOM     15  C   UNL     1      -7.993 -22.130  17.256  1.00  0.00    -0.000 C 
BRANCH  15  16
ATOM     16  C   UNL     1      -6.935 -22.065  16.141  1.00  0.00    -0.003 C 
ATOM     17  C   UNL     1      -5.503 -22.178  16.666  1.00  0.00     0.004 C 
ENDBRANCH  15  16
ENDBRANCH  14  15
ENDBRANCH  13  14
ENDBRANCH  12  13
ENDBRANCH  11  12
ENDBRANCH  10  11
ENDBRANCH   1  10
TORSDOF 13
ENDMDL
MODEL 2
REMARK VINA RESULT:    -2.590      2.190      3.445
REMARK INTER + INTRA:          -5.763
REMARK INTER:                  -4.490
REMARK INTRA:                  -1.273
REMARK UNBOUND:                -1.205
REMARK SMILES CCCCCCCCCCCCCCC(=O)[O-]
REMARK SMILES IDX 9 1 10 2 11 3 12 4 13 5 14 6 15 7 16 8 17 9 8 10 7 11 6 12
REMARK SMILES IDX 5 13 4 14 3 15 2 16 1 17
REMARK H PARENT
REMARK Flexibility Score: inf
ROOT
ATOM      1  C   UNL     1      -9.714 -18.374  20.154  1.00  0.00     0.000 C 
ENDROOT
BRANCH   1   2
ATOM      2  C   UNL     1      -9.965 -17.768  21.546  1.00  0.00     0.000 C 
BRANCH   2   3
ATOM      3  C   UNL     1      -9.850 -18.804  22.680  1.00  0.00     0.000 C 
BRANCH   3   4
ATOM      4  C   UNL     1     -11.123 -19.630  22.949  1.00  0.00     0.000 C 
BRANCH   4   5
ATOM      5  C   UNL     1     -10.847 -21.138  23.072  1.00  0.00     0.006 C 
BRANCH   5   6
ATOM      6  C   UNL     1      -9.356 -21.469  22.918  1.00  0.00     0.053 C 
BRANCH   6   7
ATOM      7  C   UNL     1      -9.122 -22.502  21.858  1.00  0.00     0.041 C 
ATOM      8  O   UNL     1     -10.094 -23.110  21.339  1.00  0.00    -0.550 OA
ATOM      9  O   UNL     1      -7.830 -22.774  21.425  1.00  0.00    -0.550 OA
ENDBRANCH   6   7
ENDBRANCH   5   6
ENDBRANCH   4   5
ENDBRANCH   3   4
ENDBRANCH   2   3
ENDBRANCH   1   2
BRANCH   1  10
ATOM     10  C   UNL     1     -11.002 -18.879  19.477  1.00  0.00     0.000 C 
BRANCH  10  11
ATOM     11  C   UNL     1     -11.093 -20.406  19.301  1.00  0.00    -0.000 C 
BRANCH  11  12
ATOM     12  C   UNL     1     -11.034 -20.844  17.827  1.00  0.00    -0.000 C 
BRANCH  12  13
ATOM     13  C   UNL     1     -10.185 -22.109  17.617  1.00  0.00    -0.000 C 
BRANCH  13  14
ATOM     14  C   UNL     1      -8.738 -21.934  18.109  1.00  0.00    -0.000 C 
BRANCH  14  15
ATOM     15  C   UNL     1      -7.710 -22.645  17.208  1.00  0.00    -0.000 C 
BRANCH  15  16
ATOM     16  C   UNL     1      -6.307 -22.012  17.197  1.00  0.00    -0.003 C 
ATOM     17  C   UNL     1      -5.184 -23.043  17.316  1.00  0.00     0.004 C 
ENDBRANCH  15  16
ENDBRANCH  14  15
ENDBRANCH  13  14
ENDBRANCH  12  13
ENDBRANCH  11  12
ENDBRANCH  10  11
ENDBRANCH   1  10
TORSDOF 13
ENDMDL
MODEL 3
REMARK VINA RESULT:    -2.383      2.002      3.573
REMARK INTER + INTRA:          -5.399
REMARK INTER:                  -5.253
REMARK INTRA:                  -0.146
REMARK UNBOUND:                -1.205
REMARK SMILES CCCCCCCCCCCCCCC(=O)[O-]
REMARK SMILES IDX 9 1 10 2 11 3 12 4 13 5 14 6 15 7 16 8 17 9 8 10 7 11 6 12
REMARK SMILES IDX 5 13 4 14 3 15 2 16 1 17
REMARK H PARENT
REMARK Flexibility Score: inf
ROOT
ATOM      1  C   UNL     1      -8.717 -21.795  18.367  1.00  0.00     0.000 C 
ENDROOT
BRANCH   1   2
ATOM      2  C   UNL     1     -10.189 -21.979  18.774  1.00  0.00     0.000 C 
BRANCH   2   3
ATOM      3  C   UNL     1     -10.656 -20.950  19.821  1.00  0.00     0.000 C 
BRANCH   3   4
ATOM      4  C   UNL     1     -10.079 -19.532  19.652  1.00  0.00     0.000 C 
BRANCH   4   5
ATOM      5  C   UNL     1     -10.953 -18.445  20.301  1.00  0.00     0.006 C 
BRANCH   5   6
ATOM      6  C   UNL     1     -11.036 -18.601  21.825  1.00  0.00     0.053 C 
BRANCH   6   7
ATOM      7  C   UNL     1      -9.677 -18.680  22.452  1.00  0.00     0.041 C 
ATOM      8  O   UNL     1      -8.998 -17.634  22.628  1.00  0.00    -0.550 OA
ATOM      9  O   UNL     1      -9.172 -19.906  22.868  1.00  0.00    -0.550 OA
ENDBRANCH   6   7
ENDBRANCH   5   6
ENDBRANCH   4   5
ENDBRANCH   3   4
ENDBRANCH   2   3
ENDBRANCH   1   2
BRANCH   1  10
ATOM     10  C   UNL     1      -7.894 -23.092  18.484  1.00  0.00     0.000 C 
BRANCH  10  11
ATOM     11  C   UNL     1      -6.602 -23.125  17.648  1.00  0.00    -0.000 C 
BRANCH  11  12
ATOM     12  C   UNL     1      -6.342 -21.808  16.895  1.00  0.00    -0.000 C 
BRANCH  12  13
ATOM     13  C   UNL     1      -7.078 -21.741  15.546  1.00  0.00    -0.000 C 
BRANCH  13  14
ATOM     14  C   UNL     1      -8.419 -20.993  15.644  1.00  0.00    -0.000 C 
BRANCH  14  15
ATOM     15  C   UNL     1      -8.947 -20.530  14.273  1.00  0.00    -0.000 C 
BRANCH  15  16
ATOM     16  C   UNL     1     -10.459 -20.249  14.220  1.00  0.00    -0.003 C 
ATOM     17  C   UNL     1     -11.099 -20.152  15.605  1.00  0.00     0.004 C 
ENDBRANCH  15  16
ENDBRANCH  14  15
ENDBRANCH  13  14
ENDBRANCH  12  13
ENDBRANCH  11  12
ENDBRANCH  10  11
ENDBRANCH   1  10
TORSDOF 13
ENDMDL
MODEL 4
REMARK VINA RESULT:    -2.161      1.724      2.059
REMARK INTER + INTRA:          -5.007
REMARK INTER:                  -4.263
REMARK INTRA:                  -0.745
REMARK UNBOUND:                -1.205
REMARK SMILES CCCCCCCCCCCCCCC(=O)[O-]
REMARK SMILES IDX 9 1 10 2 11 3 12 4 13 5 14 6 15 7 16 8 17 9 8 10 7 11 6 12
REMARK SMILES IDX 5 13 4 14 3 15 2 16 1 17
REMARK H PARENT
REMARK Flexibility Score: inf
ROOT
ATOM      1  C   UNL     1      -8.527 -22.448  21.172  1.00  0.00     0.000 C 
ENDROOT
BRANCH   1   2
ATOM      2  C   UNL     1      -8.567 -22.558  22.706  1.00  0.00     0.000 C 
BRANCH   2   3
ATOM      3  C   UNL     1      -9.985 -22.805  23.253  1.00  0.00     0.000 C 
BRANCH   3   4
ATOM      4  C   UNL     1     -10.944 -21.602  23.164  1.00  0.00     0.000 C 
BRANCH   4   5
ATOM      5  C   UNL     1     -10.219 -20.248  23.235  1.00  0.00     0.006 C 
BRANCH   5   6
ATOM      6  C   UNL     1     -10.825 -19.215  22.274  1.00  0.00     0.053 C 
BRANCH   6   7
ATOM      7  C   UNL     1      -9.828 -18.170  21.878  1.00  0.00     0.041 C 
ATOM      8  O   UNL     1      -9.888 -17.636  20.740  1.00  0.00    -0.550 OA
ATOM      9  O   UNL     1      -8.850 -17.765  22.778  1.00  0.00    -0.550 OA
ENDBRANCH   6   7
ENDBRANCH   5   6
ENDBRANCH   4   5
ENDBRANCH   3   4
ENDBRANCH   2   3
ENDBRANCH   1   2
BRANCH   1  10
ATOM     10  C   UNL     1      -9.749 -23.093  20.492  1.00  0.00     0.000 C 
BRANCH  10  11
ATOM     11  C   UNL     1     -10.246 -22.375  19.223  1.00  0.00    -0.000 C 
BRANCH  11  12
ATOM     12  C   UNL     1      -9.934 -20.868  19.227  1.00  0.00    -0.000 C 
BRANCH  12  13
ATOM     13  C   UNL     1     -11.125 -20.013  18.763  1.00  0.00    -0.000 C 
BRANCH  13  14
ATOM     14  C   UNL     1     -11.077 -19.705  17.256  1.00  0.00    -0.000 C 
BRANCH  14  15
ATOM     15  C   UNL     1     -10.447 -20.845  16.433  1.00  0.00    -0.000 C 
BRANCH  15  16
ATOM     16  C   UNL     1     -10.528 -20.665  14.906  1.00  0.00    -0.003 C 
ATOM     17  C   UNL     1      -9.170 -20.382  14.264  1.00  0.00     0.004 C 
ENDBRANCH  15  16
ENDBRANCH  14  15
ENDBRANCH  13  14
ENDBRANCH  12  13
ENDBRANCH  11  12
ENDBRANCH  10  11
ENDBRANCH   1  10
TORSDOF 13
ENDMDL
MODEL 5
REMARK VINA RESULT:    -2.137      1.616      2.759
REMARK INTER + INTRA:          -4.966
REMARK INTER:                  -4.054
REMARK INTRA:                  -0.912
REMARK UNBOUND:                -1.205
REMARK SMILES CCCCCCCCCCCCCCC(=O)[O-]
REMARK SMILES IDX 9 1 10 2 11 3 12 4 13 5 14 6 15 7 16 8 17 9 8 10 7 11 6 12
REMARK SMILES IDX 5 13 4 14 3 15 2 16 1 17
REMARK H PARENT
REMARK Flexibility Score: inf
ROOT
ATOM      1  C   UNL     1      -7.196 -22.247  20.150  1.00  0.00     0.000 C 
ENDROOT
BRANCH   1   2
ATOM      2  C   UNL     1      -8.054 -23.125  21.078  1.00  0.00     0.000 C 
BRANCH   2   3
ATOM      3  C   UNL     1      -8.615 -22.351  22.286  1.00  0.00     0.000 C 
BRANCH   3   4
ATOM      4  C   UNL     1     -10.142 -22.147  22.285  1.00  0.00     0.000 C 
BRANCH   4   5
ATOM      5  C   UNL     1     -10.588 -20.944  21.437  1.00  0.00     0.006 C 
BRANCH   5   6
ATOM      6  C   UNL     1      -9.881 -19.647  21.853  1.00  0.00     0.053 C 
BRANCH   6   7
ATOM      7  C   UNL     1     -10.036 -18.572  20.821  1.00  0.00     0.041 C 
ATOM      8  O   UNL     1     -10.693 -18.793  19.770  1.00  0.00    -0.550 OA
ATOM      9  O   UNL     1      -9.477 -17.318  21.033  1.00  0.00    -0.550 OA
ENDBRANCH   6   7
ENDBRANCH   5   6
ENDBRANCH   4   5
ENDBRANCH   3   4
ENDBRANCH   2   3
ENDBRANCH   1   2
BRANCH   1  10
ATOM     10  C   UNL     1      -6.513 -23.049  19.026  1.00  0.00     0.000 C 
BRANCH  10  11
ATOM     11  C   UNL     1      -7.171 -22.923  17.639  1.00  0.00    -0.000 C 
BRANCH  11  12
ATOM     12  C   UNL     1      -8.708 -22.923  17.704  1.00  0.00    -0.000 C 
BRANCH  12  13
ATOM     13  C   UNL     1      -9.295 -21.515  17.895  1.00  0.00    -0.000 C 
BRANCH  13  14
ATOM     14  C   UNL     1     -10.699 -21.374  17.281  1.00  0.00    -0.000 C 
BRANCH  14  15
ATOM     15  C   UNL     1     -10.865 -20.084  16.457  1.00  0.00    -0.000 C 
BRANCH  15  16
ATOM     16  C   UNL     1     -10.640 -20.245  14.943  1.00  0.00    -0.003 C 
ATOM     17  C   UNL     1      -9.163 -20.345  14.564  1.00  0.00     0.004 C 
ENDBRANCH  15  16
ENDBRANCH  14  15
ENDBRANCH  13  14
ENDBRANCH  12  13
ENDBRANCH  11  12
ENDBRANCH  10  11
ENDBRANCH   1  10
TORSDOF 13
ENDMDL
MODEL 6
REMARK VINA RESULT:    -1.947      2.470      5.496
REMARK INTER + INTRA:          -4.631
REMARK INTER:                  -3.410
REMARK INTRA:                  -1.221
REMARK UNBOUND:                -1.205
REMARK SMILES CCCCCCCCCCCCCCC(=O)[O-]
REMARK SMILES IDX 9 1 10 2 11 3 12 4 13 5 14 6 15 7 16 8 17 9 8 10 7 11 6 12
REMARK SMILES IDX 5 13 4 14 3 15 2 16 1 17
REMARK H PARENT
REMARK Flexibility Score: inf
ROOT
ATOM      1  C   UNL     1      -7.227 -22.311  21.225  1.00  0.00     0.000 C 
ENDROOT
BRANCH   1   2
ATOM      2  C   UNL     1      -6.542 -23.115  20.106  1.00  0.00     0.000 C 
BRANCH   2   3
ATOM      3  C   UNL     1      -7.107 -22.800  18.708  1.00  0.00     0.000 C 
BRANCH   3   4
ATOM      4  C   UNL     1      -8.607 -23.095  18.522  1.00  0.00     0.000 C 
BRANCH   4   5
ATOM      5  C   UNL     1      -9.425 -21.848  18.149  1.00  0.00     0.006 C 
BRANCH   5   6
ATOM      6  C   UNL     1      -9.234 -21.447  16.679  1.00  0.00     0.053 C 
BRANCH   6   7
ATOM      7  C   UNL     1     -10.282 -20.478  16.225  1.00  0.00     0.041 C 
ATOM      8  O   UNL     1     -10.940 -19.814  17.069  1.00  0.00    -0.550 OA
ATOM      9  O   UNL     1     -10.515 -20.289  14.868  1.00  0.00    -0.550 OA
ENDBRANCH   6   7
ENDBRANCH   5   6
ENDBRANCH   4   5
ENDBRANCH   3   4
ENDBRANCH   2   3
ENDBRANCH   1   2
BRANCH   1  10
ATOM     10  C   UNL     1      -8.310 -23.116  21.967  1.00  0.00     0.000 C 
BRANCH  10  11
ATOM     11  C   UNL     1      -8.658 -22.602  23.376  1.00  0.00    -0.000 C 
BRANCH  11  12
ATOM     12  C   UNL     1     -10.168 -22.631  23.668  1.00  0.00    -0.000 C 
BRANCH  12  13
ATOM     13  C   UNL     1     -10.963 -21.656  22.784  1.00  0.00    -0.000 C 
BRANCH  13  14
ATOM     14  C   UNL     1     -10.791 -20.191  23.221  1.00  0.00    -0.000 C 
BRANCH  14  15
ATOM     15  C   UNL     1      -9.961 -19.363  22.223  1.00  0.00    -0.000 C 
BRANCH  15  16
ATOM     16  C   UNL     1     -10.380 -19.509  20.749  1.00  0.00    -0.003 C 
ATOM     17  C   UNL     1     -10.595 -18.166  20.052  1.00  0.00     0.004 C 
ENDBRANCH  15  16
ENDBRANCH  14  15
ENDBRANCH  13  14
ENDBRANCH  12  13
ENDBRANCH  11  12
ENDBRANCH  10  11
ENDBRANCH   1  10
TORSDOF 13
ENDMDL
MODEL 7
REMARK VINA RESULT:    -1.889      2.454      6.015
REMARK INTER + INTRA:          -4.530
REMARK INTER:                  -3.623
REMARK INTRA:                  -0.907
REMARK UNBOUND:                -1.205
REMARK SMILES CCCCCCCCCCCCCCC(=O)[O-]
REMARK SMILES IDX 9 1 10 2 11 3 12 4 13 5 14 6 15 7 16 8 17 9 8 10 7 11 6 12
REMARK SMILES IDX 5 13 4 14 3 15 2 16 1 17
REMARK H PARENT
REMARK Flexibility Score: inf
ROOT
ATOM      1  C   UNL     1      -7.873 -22.160  19.082  1.00  0.00     0.000 C 
ENDROOT
BRANCH   1   2
ATOM      2  C   UNL     1      -6.871 -22.889  18.168  1.00  0.00     0.000 C 
BRANCH   2   3
ATOM      3  C   UNL     1      -6.336 -21.997  17.033  1.00  0.00     0.000 C 
BRANCH   3   4
ATOM      4  C   UNL     1      -6.985 -22.225  15.654  1.00  0.00     0.000 C 
BRANCH   4   5
ATOM      5  C   UNL     1      -7.999 -21.133  15.278  1.00  0.00     0.006 C 
BRANCH   5   6
ATOM      6  C   UNL     1      -9.301 -21.248  16.083  1.00  0.00     0.053 C 
BRANCH   6   7
ATOM      7  C   UNL     1     -10.321 -20.243  15.640  1.00  0.00     0.041 C 
ATOM      8  O   UNL     1     -10.961 -19.572  16.492  1.00  0.00    -0.550 OA
ATOM      9  O   UNL     1     -10.545 -20.029  14.286  1.00  0.00    -0.550 OA
ENDBRANCH   6   7
ENDBRANCH   5   6
ENDBRANCH   4   5
ENDBRANCH   3   4
ENDBRANCH   2   3
ENDBRANCH   1   2
BRANCH   1  10
ATOM     10  C   UNL     1      -8.702 -23.123  19.952  1.00  0.00     0.000 C 
BRANCH  10  11
ATOM     11  C   UNL     1      -8.968 -22.641  21.391  1.00  0.00    -0.000 C 
BRANCH  11  12
ATOM     12  C   UNL     1     -10.463 -22.420  21.681  1.00  0.00    -0.000 C 
BRANCH  12  13
ATOM     13  C   UNL     1     -11.125 -21.454  20.684  1.00  0.00    -0.000 C 
BRANCH  13  14
ATOM     14  C   UNL     1     -10.591 -20.017  20.815  1.00  0.00    -0.000 C 
BRANCH  14  15
ATOM     15  C   UNL     1     -10.534 -19.530  22.275  1.00  0.00    -0.000 C 
BRANCH  15  16
ATOM     16  C   UNL     1      -9.140 -19.098  22.763  1.00  0.00    -0.003 C 
ATOM     17  C   UNL     1      -8.942 -17.582  22.743  1.00  0.00     0.004 C 
ENDBRANCH  15  16
ENDBRANCH  14  15
ENDBRANCH  13  14
ENDBRANCH  12  13
ENDBRANCH  11  12
ENDBRANCH  10  11
ENDBRANCH   1  10
TORSDOF 13
ENDMDL
MODEL 8
REMARK VINA RESULT:    -1.643      1.340      2.621
REMARK INTER + INTRA:          -4.096
REMARK INTER:                  -3.124
REMARK INTRA:                  -0.972
REMARK UNBOUND:                -1.205
REMARK SMILES CCCCCCCCCCCCCCC(=O)[O-]
REMARK SMILES IDX 9 1 10 2 11 3 12 4 13 5 14 6 15 7 16 8 17 9 8 10 7 11 6 12
REMARK SMILES IDX 5 13 4 14 3 15 2 16 1 17
REMARK H PARENT
REMARK Flexibility Score: inf
ROOT
ATOM      1  C   UNL     1     -10.250 -20.907  18.285  1.00  0.00     0.000 C 
ENDROOT
BRANCH   1   2
ATOM      2  C   UNL     1     -11.025 -21.522  19.463  1.00  0.00     0.000 C 
BRANCH   2   3
ATOM      3  C   UNL     1     -10.206 -22.570  20.240  1.00  0.00     0.000 C 
BRANCH   3   4
ATOM      4  C   UNL     1     -10.099 -22.329  21.757  1.00  0.00     0.000 C 
BRANCH   4   5
ATOM      5  C   UNL     1     -10.530 -20.913  22.175  1.00  0.00     0.006 C 
BRANCH   5   6
ATOM      6  C   UNL     1      -9.332 -19.966  22.335  1.00  0.00     0.053 C 
BRANCH   6   7
ATOM      7  C   UNL     1      -9.717 -18.537  22.103  1.00  0.00     0.041 C 
ATOM      8  O   UNL     1      -9.175 -17.618  22.771  1.00  0.00    -0.550 OA
ATOM      9  O   UNL     1     -10.656 -18.218  21.129  1.00  0.00    -0.550 OA
ENDBRANCH   6   7
ENDBRANCH   5   6
ENDBRANCH   4   5
ENDBRANCH   3   4
ENDBRANCH   2   3
ENDBRANCH   1   2
BRANCH   1  10
ATOM     10  C   UNL     1     -11.124 -19.998  17.400  1.00  0.00     0.000 C 
BRANCH  10  11
ATOM     11  C   UNL     1     -11.125 -20.350  15.900  1.00  0.00    -0.000 C 
BRANCH  11  12
ATOM     12  C   UNL     1      -9.904 -19.787  15.152  1.00  0.00    -0.000 C 
BRANCH  12  13
ATOM     13  C   UNL     1      -9.004 -20.889  14.570  1.00  0.00    -0.000 C 
BRANCH  13  14
ATOM     14  C   UNL     1      -7.638 -20.967  15.276  1.00  0.00    -0.000 C 
BRANCH  14  15
ATOM     15  C   UNL     1      -7.612 -22.002  16.416  1.00  0.00    -0.000 C 
BRANCH  15  16
ATOM     16  C   UNL     1      -6.452 -23.011  16.352  1.00  0.00    -0.003 C 
ATOM     17  C   UNL     1      -5.077 -22.348  16.423  1.00  0.00     0.004 C 
ENDBRANCH  15  16
ENDBRANCH  14  15
ENDBRANCH  13  14
ENDBRANCH  12  13
ENDBRANCH  11  12
ENDBRANCH  10  11
ENDBRANCH   1  10
TORSDOF 13
ENDMDL
