MODEL 1
REMARK VINA RESULT:    -6.173      0.000      0.000
REMARK INTER + INTRA:          -8.040
REMARK INTER:                  -7.616
REMARK INTRA:                  -0.424
REMARK UNBOUND:                -0.424
REMARK SMILES COC(=O)c1ccccc1C(=O)OC
REMARK SMILES IDX 5 1 6 2 7 3 8 4 9 5 10 6 3 7 4 8 2 9 1 10 11 11 12 12 13 13
REMARK SMILES IDX 14 14
REMARK H PARENT
REMARK Flexibility Score: inf
ROOT
ATOM      1  C   UNL     1     132.852 129.995 130.773  1.00  0.00     0.074 A 
ATOM      2  C   UNL     1     133.352 131.064 130.009  1.00  0.00     0.016 A 
ATOM      3  C   UNL     1     132.540 132.151 129.685  1.00  0.00     0.001 A 
ATOM      4  C   UNL     1     131.216 132.188 130.119  1.00  0.00     0.001 A 
ATOM      5  C   UNL     1     130.692 131.127 130.858  1.00  0.00     0.016 A 
ATOM      6  C   UNL     1     131.487 130.011 131.178  1.00  0.00     0.074 A 
ENDROOT
BRANCH   1   7
ATOM      7  C   UNL     1     133.797 128.930 131.177  1.00  0.00     0.338 C 
ATOM      8  O   UNL     1     134.595 129.117 132.138  1.00  0.00    -0.246 OA
BRANCH   7   9
ATOM      9  O   UNL     1     133.840 127.735 130.452  1.00  0.00    -0.465 OA
ATOM     10  C   UNL     1     133.872 126.458 131.080  1.00  0.00     0.282 C 
ENDBRANCH   7   9
ENDBRANCH   1   7
BRANCH   6  11
ATOM     11  C   UNL     1     130.844 128.865 131.860  1.00  0.00     0.338 C 
ATOM     12  O   UNL     1     130.431 127.884 131.182  1.00  0.00    -0.246 OA
BRANCH  11  13
ATOM     13  O   UNL     1     130.744 128.846 133.255  1.00  0.00    -0.465 OA
ATOM     14  C   UNL     1     131.773 128.332 134.092  1.00  0.00     0.282 C 
ENDBRANCH  11  13
ENDBRANCH   6  11
TORSDOF 4
ENDMDL
MODEL 2
REMARK VINA RESULT:    -6.158      0.051      3.308
REMARK INTER + INTRA:          -8.022
REMARK INTER:                  -7.579
REMARK INTRA:                  -0.443
REMARK UNBOUND:                -0.424
REMARK SMILES COC(=O)c1ccccc1C(=O)OC
REMARK SMILES IDX 5 1 6 2 7 3 8 4 9 5 10 6 3 7 4 8 2 9 1 10 11 11 12 12 13 13
REMARK SMILES IDX 14 14
REMARK H PARENT
REMARK Flexibility Score: inf
ROOT
ATOM      1  C   UNL     1     131.516 129.987 131.180  1.00  0.00     0.074 A 
ATOM      2  C   UNL     1     130.707 131.102 130.897  1.00  0.00     0.016 A 
ATOM      3  C   UNL     1     131.216 132.193 130.192  1.00  0.00     0.001 A 
ATOM      4  C   UNL     1     132.540 132.188 129.758  1.00  0.00     0.001 A 
ATOM      5  C   UNL     1     133.367 131.103 130.048  1.00  0.00     0.016 A 
ATOM      6  C   UNL     1     132.881 130.001 130.776  1.00  0.00     0.074 A 
ENDROOT
BRANCH   1   7
ATOM      7  C   UNL     1     130.883 128.818 131.831  1.00  0.00     0.338 C 
ATOM      8  O   UNL     1     130.437 127.864 131.133  1.00  0.00    -0.246 OA
BRANCH   7   9
ATOM      9  O   UNL     1     130.730 128.802 133.220  1.00  0.00    -0.465 OA
ATOM     10  C   UNL     1     131.751 128.342 134.099  1.00  0.00     0.282 C 
ENDBRANCH   7   9
ENDBRANCH   1   7
BRANCH   6  11
ATOM     11  C   UNL     1     133.836 128.935 131.155  1.00  0.00     0.338 C 
ATOM     12  O   UNL     1     134.583 129.092 132.161  1.00  0.00    -0.246 OA
BRANCH  11  13
ATOM     13  O   UNL     1     133.872 127.738 130.434  1.00  0.00    -0.465 OA
ATOM     14  C   UNL     1     133.874 126.462 131.062  1.00  0.00     0.282 C 
ENDBRANCH  11  13
ENDBRANCH   6  11
TORSDOF 4
ENDMDL
MODEL 3
REMARK VINA RESULT:    -6.095      6.120      7.717
REMARK INTER + INTRA:          -7.944
REMARK INTER:                  -7.609
REMARK INTRA:                  -0.335
REMARK UNBOUND:                -0.424
REMARK SMILES COC(=O)c1ccccc1C(=O)OC
REMARK SMILES IDX 5 1 6 2 7 3 8 4 9 5 10 6 3 7 4 8 2 9 1 10 11 11 12 12 13 13
REMARK SMILES IDX 14 14
REMARK H PARENT
REMARK Flexibility Score: inf
ROOT
ATOM      1  C   UNL     1     134.588 135.957 131.187  1.00  0.00     0.074 A 
ATOM      2  C   UNL     1     135.444 134.926 130.757  1.00  0.00     0.016 A 
ATOM      3  C   UNL     1     134.934 133.799 130.111  1.00  0.00     0.001 A 
ATOM      4  C   UNL     1     133.564 133.684 129.884  1.00  0.00     0.001 A 
ATOM      5  C   UNL     1     132.695 134.683 130.323  1.00  0.00     0.016 A 
ATOM      6  C   UNL     1     133.185 135.818 130.996  1.00  0.00     0.074 A 
ENDROOT
BRANCH   1   7
ATOM      7  C   UNL     1     135.205 137.174 131.762  1.00  0.00     0.338 C 
ATOM      8  O   UNL     1     135.588 138.111 131.008  1.00  0.00    -0.246 OA
BRANCH   7   9
ATOM      9  O   UNL     1     135.411 137.255 133.142  1.00  0.00    -0.465 OA
ATOM     10  C   UNL     1     134.504 137.917 134.016  1.00  0.00     0.282 C 
ENDBRANCH   7   9
ENDBRANCH   1   7
BRANCH   6  11
ATOM     11  C   UNL     1     132.206 136.785 131.542  1.00  0.00     0.338 C 
ATOM     12  O   UNL     1     131.916 137.822 130.883  1.00  0.00    -0.246 OA
BRANCH  11  13
ATOM     13  O   UNL     1     131.564 136.523 132.757  1.00  0.00    -0.465 OA
ATOM     14  C   UNL     1     130.807 137.505 133.453  1.00  0.00     0.282 C 
ENDBRANCH  11  13
ENDBRANCH   6  11
TORSDOF 4
ENDMDL
MODEL 4
REMARK VINA RESULT:    -6.081      6.159      8.195
REMARK INTER + INTRA:          -7.926
REMARK INTER:                  -7.597
REMARK INTRA:                  -0.330
REMARK UNBOUND:                -0.424
REMARK SMILES COC(=O)c1ccccc1C(=O)OC
REMARK SMILES IDX 5 1 6 2 7 3 8 4 9 5 10 6 3 7 4 8 2 9 1 10 11 11 12 12 13 13
REMARK SMILES IDX 14 14
REMARK H PARENT
REMARK Flexibility Score: inf
ROOT
ATOM      1  C   UNL     1     133.165 135.848 131.029  1.00  0.00     0.074 A 
ATOM      2  C   UNL     1     132.693 134.713 130.347  1.00  0.00     0.016 A 
ATOM      3  C   UNL     1     133.578 133.736 129.891  1.00  0.00     0.001 A 
ATOM      4  C   UNL     1     134.947 133.876 130.109  1.00  0.00     0.001 A 
ATOM      5  C   UNL     1     135.439 135.006 130.762  1.00  0.00     0.016 A 
ATOM      6  C   UNL     1     134.566 136.014 131.212  1.00  0.00     0.074 A 
ENDROOT
BRANCH   1   7
ATOM      7  C   UNL     1     132.165 136.788 131.585  1.00  0.00     0.338 C 
ATOM      8  O   UNL     1     131.849 137.832 130.950  1.00  0.00    -0.246 OA
BRANCH   7   9
ATOM      9  O   UNL     1     131.612 136.540 132.846  1.00  0.00    -0.465 OA
ATOM     10  C   UNL     1     130.745 137.461 133.497  1.00  0.00     0.282 C 
ENDBRANCH   7   9
ENDBRANCH   1   7
BRANCH   6  11
ATOM     11  C   UNL     1     135.155 137.242 131.792  1.00  0.00     0.338 C 
ATOM     12  O   UNL     1     135.412 138.227 131.045  1.00  0.00    -0.246 OA
BRANCH  11  13
ATOM     13  O   UNL     1     135.376 137.331 133.170  1.00  0.00    -0.465 OA
ATOM     14  C   UNL     1     134.462 137.968 134.055  1.00  0.00     0.282 C 
ENDBRANCH  11  13
ENDBRANCH   6  11
TORSDOF 4
ENDMDL
MODEL 5
REMARK VINA RESULT:    -6.019      1.059      1.453
REMARK INTER + INTRA:          -7.851
REMARK INTER:                  -7.467
REMARK INTRA:                  -0.384
REMARK UNBOUND:                -0.424
REMARK SMILES COC(=O)c1ccccc1C(=O)OC
REMARK SMILES IDX 5 1 6 2 7 3 8 4 9 5 10 6 3 7 4 8 2 9 1 10 11 11 12 12 13 13
REMARK SMILES IDX 14 14
REMARK H PARENT
REMARK Flexibility Score: inf
ROOT
ATOM      1  C   UNL     1     133.166 130.560 130.835  1.00  0.00     0.074 A 
ATOM      2  C   UNL     1     133.704 131.655 130.134  1.00  0.00     0.016 A 
ATOM      3  C   UNL     1     132.875 132.664 129.644  1.00  0.00     0.001 A 
ATOM      4  C   UNL     1     131.498 132.598 129.846  1.00  0.00     0.001 A 
ATOM      5  C   UNL     1     130.941 131.509 130.518  1.00  0.00     0.016 A 
ATOM      6  C   UNL     1     131.756 130.469 131.002  1.00  0.00     0.074 A 
ENDROOT
BRANCH   1   7
ATOM      7  C   UNL     1     134.110 129.585 131.426  1.00  0.00     0.338 C 
ATOM      8  O   UNL     1     134.397 128.522 130.808  1.00  0.00    -0.246 OA
BRANCH   7   9
ATOM      9  O   UNL     1     134.639 129.822 132.699  1.00  0.00    -0.465 OA
ATOM     10  C   UNL     1     135.408 128.853 133.402  1.00  0.00     0.282 C 
ENDBRANCH   7   9
ENDBRANCH   1   7
BRANCH   6  11
ATOM     11  C   UNL     1     131.098 129.286 131.601  1.00  0.00     0.338 C 
ATOM     12  O   UNL     1     130.709 128.342 130.858  1.00  0.00    -0.246 OA
BRANCH  11  13
ATOM     13  O   UNL     1     130.957 129.190 132.989  1.00  0.00    -0.465 OA
ATOM     14  C   UNL     1     131.679 128.246 133.771  1.00  0.00     0.282 C 
ENDBRANCH  11  13
ENDBRANCH   6  11
TORSDOF 4
ENDMDL
MODEL 6
REMARK VINA RESULT:    -5.739      6.508      7.969
REMARK INTER + INTRA:          -7.504
REMARK INTER:                  -7.199
REMARK INTRA:                  -0.305
REMARK UNBOUND:                -0.424
REMARK SMILES COC(=O)c1ccccc1C(=O)OC
REMARK SMILES IDX 5 1 6 2 7 3 8 4 9 5 10 6 3 7 4 8 2 9 1 10 11 11 12 12 13 13
REMARK SMILES IDX 14 14
REMARK H PARENT
REMARK Flexibility Score: inf
ROOT
ATOM      1  C   UNL     1     133.735 136.369 131.149  1.00  0.00     0.074 A 
ATOM      2  C   UNL     1     135.068 135.937 131.270  1.00  0.00     0.016 A 
ATOM      3  C   UNL     1     136.041 136.771 131.823  1.00  0.00     0.001 A 
ATOM      4  C   UNL     1     135.698 138.048 132.264  1.00  0.00     0.001 A 
ATOM      5  C   UNL     1     134.387 138.505 132.132  1.00  0.00     0.016 A 
ATOM      6  C   UNL     1     133.395 137.689 131.558  1.00  0.00     0.074 A 
ENDROOT
BRANCH   1   7
ATOM      7  C   UNL     1     132.733 135.395 130.660  1.00  0.00     0.338 C 
ATOM      8  O   UNL     1     132.024 134.746 131.478  1.00  0.00    -0.246 OA
BRANCH   7   9
ATOM      9  O   UNL     1     132.616 135.158 129.287  1.00  0.00    -0.465 OA
ATOM     10  C   UNL     1     132.359 133.864 128.752  1.00  0.00     0.282 C 
ENDBRANCH   7   9
ENDBRANCH   1   7
BRANCH   6  11
ATOM     11  C   UNL     1     132.052 138.271 131.336  1.00  0.00     0.338 C 
ATOM     12  O   UNL     1     131.892 139.162 130.455  1.00  0.00    -0.246 OA
BRANCH  11  13
ATOM     13  O   UNL     1     130.954 137.798 132.061  1.00  0.00    -0.465 OA
ATOM     14  C   UNL     1     131.013 137.527 133.456  1.00  0.00     0.282 C 
ENDBRANCH  11  13
ENDBRANCH   6  11
TORSDOF 4
ENDMDL
MODEL 7
REMARK VINA RESULT:    -5.674      6.397      8.221
REMARK INTER + INTRA:          -7.424
REMARK INTER:                  -7.121
REMARK INTRA:                  -0.303
REMARK UNBOUND:                -0.424
REMARK SMILES COC(=O)c1ccccc1C(=O)OC
REMARK SMILES IDX 5 1 6 2 7 3 8 4 9 5 10 6 3 7 4 8 2 9 1 10 11 11 12 12 13 13
REMARK SMILES IDX 14 14
REMARK H PARENT
REMARK Flexibility Score: inf
ROOT
ATOM      1  C   UNL     1     133.387 137.535 131.462  1.00  0.00     0.074 A 
ATOM      2  C   UNL     1     134.409 138.319 132.029  1.00  0.00     0.016 A 
ATOM      3  C   UNL     1     135.706 137.820 132.151  1.00  0.00     0.001 A 
ATOM      4  C   UNL     1     136.005 136.533 131.708  1.00  0.00     0.001 A 
ATOM      5  C   UNL     1     135.002 135.731 131.164  1.00  0.00     0.016 A 
ATOM      6  C   UNL     1     133.682 136.205 131.051  1.00  0.00     0.074 A 
ENDROOT
BRANCH   1   7
ATOM      7  C   UNL     1     132.063 138.165 131.258  1.00  0.00     0.338 C 
ATOM      8  O   UNL     1     131.916 139.074 130.394  1.00  0.00    -0.246 OA
BRANCH   7   9
ATOM      9  O   UNL     1     130.988 137.786 132.068  1.00  0.00    -0.465 OA
ATOM     10  C   UNL     1     131.148 137.432 133.438  1.00  0.00     0.282 C 
ENDBRANCH   7   9
ENDBRANCH   1   7
BRANCH   6  11
ATOM     11  C   UNL     1     132.639 135.268 130.576  1.00  0.00     0.338 C 
ATOM     12  O   UNL     1     131.896 134.681 131.412  1.00  0.00    -0.246 OA
BRANCH  11  13
ATOM     13  O   UNL     1     132.442 135.074 129.205  1.00  0.00    -0.465 OA
ATOM     14  C   UNL     1     132.316 133.783 128.622  1.00  0.00     0.282 C 
ENDBRANCH  11  13
ENDBRANCH   6  11
TORSDOF 4
ENDMDL
MODEL 8
REMARK VINA RESULT:    -5.648      1.825      3.699
REMARK INTER + INTRA:          -7.392
REMARK INTER:                  -7.088
REMARK INTRA:                  -0.304
REMARK UNBOUND:                -0.424
REMARK SMILES COC(=O)c1ccccc1C(=O)OC
REMARK SMILES IDX 5 1 6 2 7 3 8 4 9 5 10 6 3 7 4 8 2 9 1 10 11 11 12 12 13 13
REMARK SMILES IDX 14 14
REMARK H PARENT
REMARK Flexibility Score: inf
ROOT
ATOM      1  C   UNL     1     132.401 130.325 131.293  1.00  0.00     0.074 A 
ATOM      2  C   UNL     1     131.078 130.746 131.070  1.00  0.00     0.016 A 
ATOM      3  C   UNL     1     130.005 130.056 131.635  1.00  0.00     0.001 A 
ATOM      4  C   UNL     1     130.236 128.937 132.433  1.00  0.00     0.001 A 
ATOM      5  C   UNL     1     131.540 128.489 132.649  1.00  0.00     0.016 A 
ATOM      6  C   UNL     1     132.635 129.156 132.071  1.00  0.00     0.074 A 
ENDROOT
BRANCH   1   7
ATOM      7  C   UNL     1     133.495 131.167 130.758  1.00  0.00     0.338 C 
ATOM      8  O   UNL     1     134.169 131.903 131.532  1.00  0.00    -0.246 OA
BRANCH   7   9
ATOM      9  O   UNL     1     133.741 131.184 129.382  1.00  0.00    -0.465 OA
ATOM     10  C   UNL     1     133.747 132.386 128.619  1.00  0.00     0.282 C 
ENDBRANCH   7   9
ENDBRANCH   1   7
BRANCH   6  11
ATOM     11  C   UNL     1     133.982 128.566 132.238  1.00  0.00     0.338 C 
ATOM     12  O   UNL     1     134.599 128.711 133.330  1.00  0.00    -0.246 OA
BRANCH  11  13
ATOM     13  O   UNL     1     134.547 127.805 131.209  1.00  0.00    -0.465 OA
ATOM     14  C   UNL     1     134.103 126.491 130.893  1.00  0.00     0.282 C 
ENDBRANCH  11  13
ENDBRANCH   6  11
TORSDOF 4
ENDMDL
MODEL 9
REMARK VINA RESULT:    -5.631      1.835      3.581
REMARK INTER + INTRA:          -7.371
REMARK INTER:                  -7.092
REMARK INTRA:                  -0.280
REMARK UNBOUND:                -0.424
REMARK SMILES COC(=O)c1ccccc1C(=O)OC
REMARK SMILES IDX 5 1 6 2 7 3 8 4 9 5 10 6 3 7 4 8 2 9 1 10 11 11 12 12 13 13
REMARK SMILES IDX 14 14
REMARK H PARENT
REMARK Flexibility Score: inf
ROOT
ATOM      1  C   UNL     1     132.663 129.161 132.063  1.00  0.00     0.074 A 
ATOM      2  C   UNL     1     131.559 128.484 132.609  1.00  0.00     0.016 A 
ATOM      3  C   UNL     1     130.260 128.942 132.387  1.00  0.00     0.001 A 
ATOM      4  C   UNL     1     130.043 130.082 131.616  1.00  0.00     0.001 A 
ATOM      5  C   UNL     1     131.125 130.782 131.084  1.00  0.00     0.016 A 
ATOM      6  C   UNL     1     132.445 130.351 131.313  1.00  0.00     0.074 A 
ENDROOT
BRANCH   1   7
ATOM      7  C   UNL     1     134.003 128.558 132.241  1.00  0.00     0.338 C 
ATOM      8  O   UNL     1     134.651 128.750 133.308  1.00  0.00    -0.246 OA
BRANCH   7   9
ATOM      9  O   UNL     1     134.571 127.820 131.199  1.00  0.00    -0.465 OA
ATOM     10  C   UNL     1     134.129 126.511 130.856  1.00  0.00     0.282 C 
ENDBRANCH   7   9
ENDBRANCH   1   7
BRANCH   6  11
ATOM     11  C   UNL     1     133.554 131.200 130.823  1.00  0.00     0.338 C 
ATOM     12  O   UNL     1     134.276 131.826 131.649  1.00  0.00    -0.246 OA
BRANCH  11  13
ATOM     13  O   UNL     1     133.836 131.265 129.455  1.00  0.00    -0.465 OA
ATOM     14  C   UNL     1     133.731 132.469 128.705  1.00  0.00     0.282 C 
ENDBRANCH  11  13
ENDBRANCH   6  11
TORSDOF 4
ENDMDL
