MODEL 1
REMARK VINA RESULT:    -3.239      0.000      0.000
REMARK INTER + INTRA:          -4.691
REMARK INTER:                  -4.943
REMARK INTRA:                   0.252
REMARK UNBOUND:                 0.252
REMARK SMILES CC1=CCC[C@@H](C)C(=O)C[C@@H](C(C)C)C(=O)C1
REMARK SMILES IDX 8 1 9 2 6 3 7 4 5 5 4 6 3 7 2 8 1 9 10 11 11 12 15 13 16 14
REMARK SMILES IDX 17 15 12 17 13 18 14 19
REMARK H PARENT
REMARK Flexibility Score: 70.00
ROOT
ATOM      1  C   UNL     1      -0.373  -9.752 -40.755  1.00  0.00     0.136 C 
ATOM      2  O   UNL     1       0.748 -10.185 -40.536  1.00  0.00    -0.299 OA
ENDROOT
BRANCH   1   3
ATOM      3  C   UNL     1      -0.903  -9.758 -42.207  1.00  0.00     0.053 C 
ATOM      4  C   UNL     1      -2.105  -8.825 -42.370  1.00  0.00     0.016 C 
BRANCH   3   5
ATOM      5  C   UNL     1      -1.242 -11.198 -42.725  1.00  0.00     0.015 C 
BRANCH   5   6
ATOM      6  C   UNL     1      -2.279 -11.753 -41.779  1.00  0.00     0.028 C 
BRANCH   6   7
ATOM      7  C   UNL     1      -2.203 -13.027 -41.038  1.00  0.00    -0.028 C 
ATOM      8  C   UNL     1      -2.395 -12.962 -39.693  1.00  0.00    -0.070 CG0
ATOM      9  C   UNL     1      -2.169 -14.208 -38.881  1.00  0.00     0.039 C 
ATOM     10  G   UNL     1      -2.964 -11.693 -39.005  1.00  0.00     0.000 G0
ENDBRANCH   6   7
ENDBRANCH   5   6
ENDBRANCH   3   5
ENDBRANCH   1   3
BRANCH   1  11
ATOM     11  C   UNL     1      -1.200  -9.157 -39.597  1.00  0.00     0.087 C 
BRANCH  11  12
ATOM     12  C   UNL     1      -1.125  -9.820 -38.154  1.00  0.00     0.066 C 
BRANCH  12  13
ATOM     13  C   UNL     1      -2.107 -11.009 -37.934  1.00  0.00     0.140 C 
ATOM     14  O   UNL     1      -2.220 -11.437 -36.795  1.00  0.00    -0.299 OA
BRANCH  13  15
ATOM     15  C   UNL     1      -2.974 -11.677 -39.017  1.00  0.00     0.106 CG0
ATOM     16  G   UNL     1      -2.376 -12.948 -39.674  1.00  0.00     0.000 G0
ENDBRANCH  13  15
ENDBRANCH  12  13
BRANCH  12  17
ATOM     17  C   UNL     1      -0.987  -8.811 -36.964  1.00  0.00    -0.006 C 
ATOM     18  C   UNL     1      -0.045  -9.348 -35.862  1.00  0.00     0.008 C 
ATOM     19  C   UNL     1      -0.400  -7.458 -37.424  1.00  0.00     0.008 C 
ENDBRANCH  12  17
ENDBRANCH  11  12
ENDBRANCH   1  11
TORSDOF 1
ENDMDL
MODEL 2
REMARK VINA RESULT:    -3.224      2.597      3.665
REMARK INTER + INTRA:          -4.668
REMARK INTER:                  -4.664
REMARK INTRA:                  -0.003
REMARK UNBOUND:                 0.252
REMARK SMILES CC1=CCC[C@@H](C)C(=O)C[C@@H](C(C)C)C(=O)C1
REMARK SMILES IDX 8 1 9 2 6 3 7 4 5 5 4 6 3 7 2 8 1 9 10 11 11 12 15 13 16 14
REMARK SMILES IDX 17 15 12 17 13 18 14 19
REMARK H PARENT
REMARK Flexibility Score: 70.00
ROOT
ATOM      1  C   UNL     1      -3.055  -8.505 -41.736  1.00  0.00     0.136 C 
ATOM      2  O   UNL     1      -3.814  -7.771 -41.122  1.00  0.00    -0.299 OA
ENDROOT
BRANCH   1   3
ATOM      3  C   UNL     1      -3.524  -9.102 -43.083  1.00  0.00     0.053 C 
ATOM      4  C   UNL     1      -3.530  -8.046 -44.192  1.00  0.00     0.016 C 
BRANCH   3   5
ATOM      5  C   UNL     1      -4.918  -9.811 -42.982  1.00  0.00     0.015 C 
BRANCH   5   6
ATOM      6  C   UNL     1      -4.637 -11.232 -42.558  1.00  0.00     0.028 C 
BRANCH   6   7
ATOM      7  C   UNL     1      -4.717 -11.775 -41.187  1.00  0.00    -0.028 C 
ATOM      8  C   UNL     1      -3.646 -12.494 -40.754  1.00  0.00    -0.070 CG0
ATOM      9  C   UNL     1      -3.751 -13.198 -39.429  1.00  0.00     0.039 C 
ATOM     10  G   UNL     1      -2.294 -12.493 -41.514  1.00  0.00     0.000 G0
ENDBRANCH   6   7
ENDBRANCH   5   6
ENDBRANCH   3   5
ENDBRANCH   1   3
BRANCH   1  11
ATOM     11  C   UNL     1      -1.684  -8.863 -41.129  1.00  0.00     0.087 C 
BRANCH  11  12
ATOM     12  C   UNL     1      -0.881 -10.119 -41.683  1.00  0.00     0.066 C 
BRANCH  12  13
ATOM     13  C   UNL     1      -1.238 -11.471 -40.997  1.00  0.00     0.140 C 
ATOM     14  O   UNL     1      -0.661 -11.738 -39.952  1.00  0.00    -0.299 OA
BRANCH  13  15
ATOM     15  C   UNL     1      -2.276 -12.493 -41.498  1.00  0.00     0.106 CG0
ATOM     16  G   UNL     1      -3.638 -12.492 -40.755  1.00  0.00     0.000 G0
ENDBRANCH  13  15
ENDBRANCH  12  13
BRANCH  12  17
ATOM     17  C   UNL     1       0.640  -9.868 -41.961  1.00  0.00    -0.006 C 
ATOM     18  C   UNL     1       1.382 -11.175 -42.321  1.00  0.00     0.008 C 
ATOM     19  C   UNL     1       0.854  -8.899 -43.145  1.00  0.00     0.008 C 
ENDBRANCH  12  17
ENDBRANCH  11  12
ENDBRANCH   1  11
TORSDOF 1
ENDMDL
MODEL 3
REMARK VINA RESULT:    -3.147      2.491      4.184
REMARK INTER + INTRA:          -4.551
REMARK INTER:                  -4.388
REMARK INTRA:                  -0.163
REMARK UNBOUND:                 0.252
REMARK SMILES CC1=CCC[C@@H](C)C(=O)C[C@@H](C(C)C)C(=O)C1
REMARK SMILES IDX 8 1 9 2 6 3 7 4 5 5 4 6 3 7 2 8 1 9 10 11 11 12 15 13 16 14
REMARK SMILES IDX 17 15 12 17 13 18 14 19
REMARK H PARENT
REMARK Flexibility Score: 70.00
ROOT
ATOM      1  C   UNL     1      -0.570 -11.246 -42.233  1.00  0.00     0.136 C 
ATOM      2  O   UNL     1       0.480 -11.870 -42.264  1.00  0.00    -0.299 OA
ENDROOT
BRANCH   1   3
ATOM      3  C   UNL     1      -0.518  -9.712 -42.040  1.00  0.00     0.053 C 
ATOM      4  C   UNL     1       0.697  -9.100 -42.741  1.00  0.00     0.016 C 
BRANCH   3   5
ATOM      5  C   UNL     1      -0.564  -9.287 -40.532  1.00  0.00     0.015 C 
BRANCH   5   6
ATOM      6  C   UNL     1      -1.887  -8.588 -40.332  1.00  0.00     0.028 C 
BRANCH   6   7
ATOM      7  C   UNL     1      -2.844  -8.195 -41.386  1.00  0.00    -0.028 C 
ATOM      8  C   UNL     1      -3.929  -8.999 -41.552  1.00  0.00    -0.070 CG0
ATOM      9  C   UNL     1      -4.843  -8.727 -42.716  1.00  0.00     0.039 C 
ATOM     10  G   UNL     1      -4.317 -10.082 -40.512  1.00  0.00     0.000 G0
ENDBRANCH   6   7
ENDBRANCH   5   6
ENDBRANCH   3   5
ENDBRANCH   1   3
BRANCH   1  11
ATOM     11  C   UNL     1      -1.910 -12.003 -42.323  1.00  0.00     0.087 C 
BRANCH  11  12
ATOM     12  C   UNL     1      -2.749 -12.281 -41.001  1.00  0.00     0.066 C 
BRANCH  12  13
ATOM     13  C   UNL     1      -4.116 -11.537 -40.932  1.00  0.00     0.140 C 
ATOM     14  O   UNL     1      -5.116 -12.179 -41.220  1.00  0.00    -0.299 OA
BRANCH  13  15
ATOM     15  C   UNL     1      -4.329 -10.073 -40.504  1.00  0.00     0.106 CG0
ATOM     16  G   UNL     1      -3.932  -8.999 -41.550  1.00  0.00     0.000 G0
ENDBRANCH  13  15
ENDBRANCH  12  13
BRANCH  12  17
ATOM     17  C   UNL     1      -1.914 -12.312 -39.676  1.00  0.00    -0.006 C 
ATOM     18  C   UNL     1      -2.822 -12.290 -38.425  1.00  0.00     0.008 C 
ATOM     19  C   UNL     1      -1.051 -13.590 -39.572  1.00  0.00     0.008 C 
ENDBRANCH  12  17
ENDBRANCH  11  12
ENDBRANCH   1  11
TORSDOF 1
ENDMDL
MODEL 4
REMARK VINA RESULT:    -2.985     12.964     15.518
REMARK INTER + INTRA:          -4.303
REMARK INTER:                  -4.081
REMARK INTRA:                  -0.222
REMARK UNBOUND:                 0.252
REMARK SMILES CC1=CCC[C@@H](C)C(=O)C[C@@H](C(C)C)C(=O)C1
REMARK SMILES IDX 8 1 9 2 6 3 7 4 5 5 4 6 3 7 2 8 1 9 10 11 11 12 15 13 16 14
REMARK SMILES IDX 17 15 12 17 13 18 14 19
REMARK H PARENT
REMARK Flexibility Score: 70.00
ROOT
ATOM      1  C   UNL     1       0.100 -22.630 -44.312  1.00  0.00     0.136 C 
ATOM      2  O   UNL     1      -0.001 -21.431 -44.518  1.00  0.00    -0.299 OA
ENDROOT
BRANCH   1   3
ATOM      3  C   UNL     1       0.137 -23.133 -42.850  1.00  0.00     0.053 C 
ATOM      4  C   UNL     1      -1.201 -22.900 -42.143  1.00  0.00     0.016 C 
BRANCH   3   5
ATOM      5  C   UNL     1       1.318 -22.516 -42.024  1.00  0.00     0.015 C 
BRANCH   5   6
ATOM      6  C   UNL     1       2.564 -23.250 -42.458  1.00  0.00     0.028 C 
BRANCH   6   7
ATOM      7  C   UNL     1       2.993 -24.593 -42.019  1.00  0.00    -0.028 C 
ATOM      8  C   UNL     1       3.026 -25.563 -42.973  1.00  0.00    -0.070 CG0
ATOM      9  C   UNL     1       3.302 -26.977 -42.539  1.00  0.00     0.039 C 
ATOM     10  G   UNL     1       2.924 -25.233 -44.485  1.00  0.00     0.000 G0
ENDBRANCH   6   7
ENDBRANCH   5   6
ENDBRANCH   3   5
ENDBRANCH   1   3
BRANCH   1  11
ATOM     11  C   UNL     1       0.250 -23.598 -45.501  1.00  0.00     0.087 C 
BRANCH  11  12
ATOM     12  C   UNL     1       0.271 -25.167 -45.243  1.00  0.00     0.066 C 
BRANCH  12  13
ATOM     13  C   UNL     1       1.693 -25.803 -45.223  1.00  0.00     0.140 C 
ATOM     14  O   UNL     1       1.857 -26.827 -45.869  1.00  0.00    -0.299 OA
BRANCH  13  15
ATOM     15  C   UNL     1       2.923 -25.241 -44.486  1.00  0.00     0.106 CG0
ATOM     16  G   UNL     1       3.016 -25.575 -42.974  1.00  0.00     0.000 G0
ENDBRANCH  13  15
ENDBRANCH  12  13
BRANCH  12  17
ATOM     17  C   UNL     1      -0.837 -25.981 -45.994  1.00  0.00    -0.006 C 
ATOM     18  C   UNL     1      -2.086 -26.201 -45.111  1.00  0.00     0.008 C 
ATOM     19  C   UNL     1      -1.320 -25.252 -47.268  1.00  0.00     0.008 C 
ENDBRANCH  12  17
ENDBRANCH  11  12
ENDBRANCH   1  11
TORSDOF 1
ENDMDL
MODEL 5
REMARK VINA RESULT:    -2.949      2.155      3.907
REMARK INTER + INTRA:          -4.248
REMARK INTER:                  -4.614
REMARK INTRA:                   0.366
REMARK UNBOUND:                 0.252
REMARK SMILES CC1=CCC[C@@H](C)C(=O)C[C@@H](C(C)C)C(=O)C1
REMARK SMILES IDX 8 1 9 2 6 3 7 4 5 5 4 6 3 7 2 8 1 9 10 11 11 12 15 13 16 14
REMARK SMILES IDX 17 15 12 17 13 18 14 19
REMARK H PARENT
REMARK Flexibility Score: 70.00
ROOT
ATOM      1  C   UNL     1       0.015 -11.050 -40.638  1.00  0.00     0.136 C 
ATOM      2  O   UNL     1       0.923 -11.706 -41.125  1.00  0.00    -0.299 OA
ENDROOT
BRANCH   1   3
ATOM      3  C   UNL     1      -0.086  -9.547 -40.986  1.00  0.00     0.053 C 
ATOM      4  C   UNL     1      -0.897  -8.782 -39.935  1.00  0.00     0.016 C 
BRANCH   3   5
ATOM      5  C   UNL     1      -0.656  -9.292 -42.423  1.00  0.00     0.015 C 
BRANCH   5   6
ATOM      6  C   UNL     1      -2.139  -9.069 -42.255  1.00  0.00     0.028 C 
BRANCH   6   7
ATOM      7  C   UNL     1      -3.220  -9.729 -43.014  1.00  0.00    -0.028 C 
ATOM      8  C   UNL     1      -3.949 -10.665 -42.347  1.00  0.00    -0.070 CG0
ATOM      9  C   UNL     1      -4.951 -11.473 -43.126  1.00  0.00     0.039 C 
ATOM     10  G   UNL     1      -3.871 -10.822 -40.806  1.00  0.00     0.000 G0
ENDBRANCH   6   7
ENDBRANCH   5   6
ENDBRANCH   3   5
ENDBRANCH   1   3
BRANCH   1  11
ATOM     11  C   UNL     1      -0.961 -11.717 -39.649  1.00  0.00     0.087 C 
BRANCH  11  12
ATOM     12  C   UNL     1      -2.034 -12.761 -40.184  1.00  0.00     0.066 C 
BRANCH  12  13
ATOM     13  C   UNL     1      -3.488 -12.210 -40.274  1.00  0.00     0.140 C 
ATOM     14  O   UNL     1      -4.386 -12.928 -39.858  1.00  0.00    -0.299 OA
BRANCH  13  15
ATOM     15  C   UNL     1      -3.898 -10.826 -40.811  1.00  0.00     0.106 CG0
ATOM     16  G   UNL     1      -3.957 -10.691 -42.355  1.00  0.00     0.000 G0
ENDBRANCH  13  15
ENDBRANCH  12  13
BRANCH  12  17
ATOM     17  C   UNL     1      -1.883 -14.217 -39.626  1.00  0.00    -0.006 C 
ATOM     18  C   UNL     1      -0.400 -14.605 -39.430  1.00  0.00     0.008 C 
ATOM     19  C   UNL     1      -2.566 -14.378 -38.249  1.00  0.00     0.008 C 
ENDBRANCH  12  17
ENDBRANCH  11  12
ENDBRANCH   1  11
TORSDOF 1
ENDMDL
MODEL 6
REMARK VINA RESULT:    -2.801      4.152      6.205
REMARK INTER + INTRA:          -4.022
REMARK INTER:                  -3.901
REMARK INTRA:                  -0.121
REMARK UNBOUND:                 0.252
REMARK SMILES CC1=CCC[C@@H](C)C(=O)C[C@@H](C(C)C)C(=O)C1
REMARK SMILES IDX 8 1 9 2 6 3 7 4 5 5 4 6 3 7 2 8 1 9 10 11 11 12 15 13 16 14
REMARK SMILES IDX 17 15 12 17 13 18 14 19
REMARK H PARENT
REMARK Flexibility Score: 70.00
ROOT
ATOM      1  C   UNL     1      -2.870 -10.751 -42.089  1.00  0.00     0.136 C 
ATOM      2  O   UNL     1      -2.320 -11.272 -41.132  1.00  0.00    -0.299 OA
ENDROOT
BRANCH   1   3
ATOM      3  C   UNL     1      -2.490  -9.300 -42.467  1.00  0.00     0.053 C 
ATOM      4  C   UNL     1      -0.983  -9.062 -42.332  1.00  0.00     0.016 C 
BRANCH   3   5
ATOM      5  C   UNL     1      -3.297  -8.229 -41.656  1.00  0.00     0.015 C 
BRANCH   5   6
ATOM      6  C   UNL     1      -4.260  -7.600 -42.633  1.00  0.00     0.028 C 
BRANCH   6   7
ATOM      7  C   UNL     1      -4.290  -7.803 -44.096  1.00  0.00    -0.028 C 
ATOM      8  C   UNL     1      -5.235  -8.658 -44.572  1.00  0.00    -0.070 CG0
ATOM      9  C   UNL     1      -5.198  -9.017 -46.033  1.00  0.00     0.039 C 
ATOM     10  G   UNL     1      -6.412  -9.155 -43.692  1.00  0.00     0.000 G0
ENDBRANCH   6   7
ENDBRANCH   5   6
ENDBRANCH   3   5
ENDBRANCH   1   3
BRANCH   1  11
ATOM     11  C   UNL     1      -3.963 -11.523 -42.854  1.00  0.00     0.087 C 
BRANCH  11  12
ATOM     12  C   UNL     1      -5.478 -11.421 -42.380  1.00  0.00     0.066 C 
BRANCH  12  13
ATOM     13  C   UNL     1      -6.421 -10.684 -43.377  1.00  0.00     0.140 C 
ATOM     14  O   UNL     1      -7.266 -11.358 -43.949  1.00  0.00    -0.299 OA
BRANCH  13  15
ATOM     15  C   UNL     1      -6.407  -9.176 -43.688  1.00  0.00     0.106 CG0
ATOM     16  G   UNL     1      -5.241  -8.680 -44.583  1.00  0.00     0.000 G0
ENDBRANCH  13  15
ENDBRANCH  12  13
BRANCH  12  17
ATOM     17  C   UNL     1      -5.681 -11.085 -40.864  1.00  0.00    -0.006 C 
ATOM     18  C   UNL     1      -6.982 -10.286 -40.622  1.00  0.00     0.008 C 
ATOM     19  C   UNL     1      -5.782 -12.363 -40.002  1.00  0.00     0.008 C 
ENDBRANCH  12  17
ENDBRANCH  11  12
ENDBRANCH   1  11
TORSDOF 1
ENDMDL
MODEL 7
REMARK VINA RESULT:    -2.760      2.522      4.118
REMARK INTER + INTRA:          -3.960
REMARK INTER:                  -4.177
REMARK INTRA:                   0.217
REMARK UNBOUND:                 0.252
REMARK SMILES CC1=CCC[C@@H](C)C(=O)C[C@@H](C(C)C)C(=O)C1
REMARK SMILES IDX 8 1 9 2 6 3 7 4 5 5 4 6 3 7 2 8 1 9 10 11 11 12 15 13 16 14
REMARK SMILES IDX 17 15 12 17 13 18 14 19
REMARK H PARENT
REMARK Flexibility Score: 70.00
ROOT
ATOM      1  C   UNL     1      -3.540  -8.524 -43.237  1.00  0.00     0.136 C 
ATOM      2  O   UNL     1      -3.926  -7.392 -43.484  1.00  0.00    -0.299 OA
ENDROOT
BRANCH   1   3
ATOM      3  C   UNL     1      -4.591  -9.635 -43.010  1.00  0.00     0.053 C 
ATOM      4  C   UNL     1      -5.195 -10.113 -44.334  1.00  0.00     0.016 C 
BRANCH   3   5
ATOM      5  C   UNL     1      -5.716  -9.213 -42.004  1.00  0.00     0.015 C 
BRANCH   5   6
ATOM      6  C   UNL     1      -5.380  -9.881 -40.693  1.00  0.00     0.028 C 
BRANCH   6   7
ATOM      7  C   UNL     1      -4.840 -11.242 -40.511  1.00  0.00    -0.028 C 
ATOM      8  C   UNL     1      -3.541 -11.334 -40.114  1.00  0.00    -0.070 CG0
ATOM      9  C   UNL     1      -2.905 -12.696 -40.071  1.00  0.00     0.039 C 
ATOM     10  G   UNL     1      -2.756 -10.106 -39.583  1.00  0.00     0.000 G0
ENDBRANCH   6   7
ENDBRANCH   5   6
ENDBRANCH   3   5
ENDBRANCH   1   3
BRANCH   1  11
ATOM     11  C   UNL     1      -2.030  -8.800 -43.097  1.00  0.00     0.087 C 
BRANCH  11  12
ATOM     12  C   UNL     1      -1.520  -9.871 -42.038  1.00  0.00     0.066 C 
BRANCH  12  13
ATOM     13  C   UNL     1      -1.740  -9.468 -40.550  1.00  0.00     0.140 C 
ATOM     14  O   UNL     1      -1.063  -8.547 -40.114  1.00  0.00    -0.299 OA
BRANCH  13  15
ATOM     15  C   UNL     1      -2.756 -10.102 -39.582  1.00  0.00     0.106 CG0
ATOM     16  G   UNL     1      -3.532 -11.330 -40.126  1.00  0.00     0.000 G0
ENDBRANCH  13  15
ENDBRANCH  12  13
BRANCH  12  17
ATOM     17  C   UNL     1      -0.143 -10.538 -42.375  1.00  0.00    -0.006 C 
ATOM     18  C   UNL     1       0.938  -9.485 -42.709  1.00  0.00     0.008 C 
ATOM     19  C   UNL     1       0.399 -11.366 -41.189  1.00  0.00     0.008 C 
ENDBRANCH  12  17
ENDBRANCH  11  12
ENDBRANCH   1  11
TORSDOF 1
ENDMDL
MODEL 8
REMARK VINA RESULT:    -2.717      4.056      5.819
REMARK INTER + INTRA:          -3.894
REMARK INTER:                  -3.794
REMARK INTRA:                  -0.100
REMARK UNBOUND:                 0.252
REMARK SMILES CC1=CCC[C@@H](C)C(=O)C[C@@H](C(C)C)C(=O)C1
REMARK SMILES IDX 8 1 9 2 6 3 7 4 5 5 4 6 3 7 2 8 1 9 10 11 11 12 15 13 16 14
REMARK SMILES IDX 17 15 12 17 13 18 14 19
REMARK H PARENT
REMARK Flexibility Score: 70.00
ROOT
ATOM      1  C   UNL     1      -5.763 -10.753 -43.915  1.00  0.00     0.136 C 
ATOM      2  O   UNL     1      -6.875 -11.247 -44.012  1.00  0.00    -0.299 OA
ENDROOT
BRANCH   1   3
ATOM      3  C   UNL     1      -5.537  -9.320 -44.452  1.00  0.00     0.053 C 
ATOM      4  C   UNL     1      -5.845  -9.228 -45.948  1.00  0.00     0.016 C 
BRANCH   3   5
ATOM      5  C   UNL     1      -4.100  -8.775 -44.144  1.00  0.00     0.015 C 
BRANCH   5   6
ATOM      6  C   UNL     1      -4.213  -7.993 -42.858  1.00  0.00     0.028 C 
BRANCH   6   7
ATOM      7  C   UNL     1      -5.457  -7.502 -42.232  1.00  0.00    -0.028 C 
ATOM      8  C   UNL     1      -5.953  -8.240 -41.203  1.00  0.00    -0.070 CG0
ATOM      9  C   UNL     1      -7.299  -7.867 -40.643  1.00  0.00     0.039 C 
ATOM     10  G   UNL     1      -5.120  -9.352 -40.513  1.00  0.00     0.000 G0
ENDBRANCH   6   7
ENDBRANCH   5   6
ENDBRANCH   3   5
ENDBRANCH   1   3
BRANCH   1  11
ATOM     11  C   UNL     1      -4.608 -11.584 -43.321  1.00  0.00     0.087 C 
BRANCH  11  12
ATOM     12  C   UNL     1      -4.472 -11.731 -41.744  1.00  0.00     0.066 C 
BRANCH  12  13
ATOM     13  C   UNL     1      -5.420 -10.808 -40.922  1.00  0.00     0.140 C 
ATOM     14  O   UNL     1      -6.487 -11.281 -40.560  1.00  0.00    -0.299 OA
BRANCH  13  15
ATOM     15  C   UNL     1      -5.123  -9.358 -40.494  1.00  0.00     0.106 CG0
ATOM     16  G   UNL     1      -5.948  -8.259 -41.213  1.00  0.00     0.000 G0
ENDBRANCH  13  15
ENDBRANCH  12  13
BRANCH  12  17
ATOM     17  C   UNL     1      -3.006 -11.863 -41.211  1.00  0.00    -0.006 C 
ATOM     18  C   UNL     1      -2.756 -13.238 -40.550  1.00  0.00     0.008 C 
ATOM     19  C   UNL     1      -1.967 -11.725 -42.347  1.00  0.00     0.008 C 
ENDBRANCH  12  17
ENDBRANCH  11  12
ENDBRANCH   1  11
TORSDOF 1
ENDMDL
MODEL 9
REMARK VINA RESULT:    -2.708      8.036     10.343
REMARK INTER + INTRA:          -3.881
REMARK INTER:                  -3.832
REMARK INTRA:                  -0.049
REMARK UNBOUND:                 0.252
REMARK SMILES CC1=CCC[C@@H](C)C(=O)C[C@@H](C(C)C)C(=O)C1
REMARK SMILES IDX 8 1 9 2 6 3 7 4 5 5 4 6 3 7 2 8 1 9 10 11 11 12 15 13 16 14
REMARK SMILES IDX 17 15 12 17 13 18 14 19
REMARK H PARENT
REMARK Flexibility Score: 70.00
ROOT
ATOM      1  C   UNL     1       0.005 -21.266 -43.719  1.00  0.00     0.136 C 
ATOM      2  O   UNL     1      -0.044 -21.737 -44.845  1.00  0.00    -0.299 OA
ENDROOT
BRANCH   1   3
ATOM      3  C   UNL     1       0.054 -22.229 -42.511  1.00  0.00     0.053 C 
ATOM      4  C   UNL     1       1.371 -23.008 -42.469  1.00  0.00     0.016 C 
BRANCH   3   5
ATOM      5  C   UNL     1      -1.172 -23.203 -42.458  1.00  0.00     0.015 C 
BRANCH   5   6
ATOM      6  C   UNL     1      -2.149 -22.599 -41.479  1.00  0.00     0.028 C 
BRANCH   6   7
ATOM      7  C   UNL     1      -1.847 -22.119 -40.116  1.00  0.00    -0.028 C 
ATOM      8  C   UNL     1      -1.955 -20.779 -39.905  1.00  0.00    -0.070 CG0
ATOM      9  C   UNL     1      -1.502 -20.230 -38.579  1.00  0.00     0.039 C 
ATOM     10  G   UNL     1      -2.647 -19.839 -40.926  1.00  0.00     0.000 G0
ENDBRANCH   6   7
ENDBRANCH   5   6
ENDBRANCH   3   5
ENDBRANCH   1   3
BRANCH   1  11
ATOM     11  C   UNL     1      -0.046 -19.736 -43.531  1.00  0.00     0.087 C 
BRANCH  11  12
ATOM     12  C   UNL     1      -0.239 -19.128 -42.074  1.00  0.00     0.066 C 
BRANCH  12  13
ATOM     13  C   UNL     1      -1.720 -18.851 -41.678  1.00  0.00     0.140 C 
ATOM     14  O   UNL     1      -2.198 -17.778 -42.014  1.00  0.00    -0.299 OA
BRANCH  13  15
ATOM     15  C   UNL     1      -2.651 -19.821 -40.927  1.00  0.00     0.106 CG0
ATOM     16  G   UNL     1      -1.962 -20.766 -39.907  1.00  0.00     0.000 G0
ENDBRANCH  13  15
ENDBRANCH  12  13
BRANCH  12  17
ATOM     17  C   UNL     1       0.799 -18.028 -41.668  1.00  0.00    -0.006 C 
ATOM     18  C   UNL     1       0.767 -17.740 -40.150  1.00  0.00     0.008 C 
ATOM     19  C   UNL     1       2.246 -18.453 -42.005  1.00  0.00     0.008 C 
ENDBRANCH  12  17
ENDBRANCH  11  12
ENDBRANCH   1  11
TORSDOF 1
ENDMDL
