MODEL 1
REMARK VINA RESULT:    -5.680      0.000      0.000
REMARK INTER + INTRA:          -6.557
REMARK INTER:                  -6.510
REMARK INTRA:                  -0.047
REMARK UNBOUND:                -0.047
REMARK SMILES O=C([O-])c1cc(O)c(O)c(O)c1
REMARK SMILES IDX 4 1 5 2 12 3 6 4 10 5 8 6 2 7 1 8 3 9 7 10 11 12 9 14
REMARK H PARENT 7 11 11 13 9 15
REMARK Flexibility Score: inf
ROOT
ATOM      1  C   UNL     1     -33.303  -3.582 -17.769  1.00  0.00     0.005 A 
ATOM      2  C   UNL     1     -33.630  -2.992 -18.997  1.00  0.00     0.060 A 
ATOM      3  C   UNL     1     -31.950  -3.705 -17.411  1.00  0.00     0.060 A 
ATOM      4  C   UNL     1     -32.629  -2.531 -19.858  1.00  0.00     0.162 A 
ATOM      5  C   UNL     1     -30.935  -3.249 -18.260  1.00  0.00     0.162 A 
ATOM      6  C   UNL     1     -31.274  -2.654 -19.499  1.00  0.00     0.200 A 
ENDROOT
BRANCH   1   7
ATOM      7  C   UNL     1     -34.370  -4.068 -16.864  1.00  0.00     0.072 C 
ATOM      8  O   UNL     1     -35.285  -3.293 -16.479  1.00  0.00    -0.545 OA
ATOM      9  O   UNL     1     -34.376  -5.388 -16.428  1.00  0.00    -0.545 OA
ENDBRANCH   1   7
BRANCH   4  10
ATOM     10  O   UNL     1     -33.003  -1.950 -21.069  1.00  0.00    -0.504 OA
ATOM     11  H   UNL     1     -32.643  -2.274 -21.959  1.00  0.00     0.293 HD
ENDBRANCH   4  10
BRANCH   5  12
ATOM     12  O   UNL     1     -29.614  -3.407 -17.834  1.00  0.00    -0.504 OA
ATOM     13  H   UNL     1     -28.818  -2.984 -18.288  1.00  0.00     0.293 HD
ENDBRANCH   5  12
BRANCH   6  14
ATOM     14  O   UNL     1     -30.306  -2.180 -20.388  1.00  0.00    -0.502 OA
ATOM     15  H   UNL     1     -30.512  -1.778 -21.291  1.00  0.00     0.293 HD
ENDBRANCH   6  14
TORSDOF 4
ENDMDL
MODEL 2
REMARK VINA RESULT:    -5.635      1.465      2.543
REMARK INTER + INTRA:          -6.505
REMARK INTER:                  -6.455
REMARK INTRA:                  -0.050
REMARK UNBOUND:                -0.047
REMARK SMILES O=C([O-])c1cc(O)c(O)c(O)c1
REMARK SMILES IDX 4 1 5 2 12 3 6 4 10 5 8 6 2 7 1 8 3 9 7 10 11 12 9 14
REMARK H PARENT 7 11 11 13 9 15
REMARK Flexibility Score: inf
ROOT
ATOM      1  C   UNL     1     -31.898  -3.763 -17.656  1.00  0.00     0.005 A 
ATOM      2  C   UNL     1     -33.244  -3.585 -18.007  1.00  0.00     0.060 A 
ATOM      3  C   UNL     1     -30.900  -3.283 -18.518  1.00  0.00     0.060 A 
ATOM      4  C   UNL     1     -33.592  -2.940 -19.197  1.00  0.00     0.162 A 
ATOM      5  C   UNL     1     -31.229  -2.634 -19.713  1.00  0.00     0.162 A 
ATOM      6  C   UNL     1     -32.591  -2.458 -20.061  1.00  0.00     0.200 A 
ENDROOT
BRANCH   1   7
ATOM      7  C   UNL     1     -31.540  -4.449 -16.393  1.00  0.00     0.072 C 
ATOM      8  O   UNL     1     -30.518  -5.182 -16.329  1.00  0.00    -0.545 OA
ATOM      9  O   UNL     1     -32.328  -4.293 -15.258  1.00  0.00    -0.545 OA
ENDBRANCH   1   7
BRANCH   4  10
ATOM     10  O   UNL     1     -34.943  -2.785 -19.504  1.00  0.00    -0.504 OA
ATOM     11  H   UNL     1     -35.433  -3.418 -20.124  1.00  0.00     0.293 HD
ENDBRANCH   4  10
BRANCH   5  12
ATOM     12  O   UNL     1     -30.180  -2.184 -20.518  1.00  0.00    -0.504 OA
ATOM     13  H   UNL     1     -30.182  -1.304 -21.013  1.00  0.00     0.293 HD
ENDBRANCH   5  12
BRANCH   6  14
ATOM     14  O   UNL     1     -32.982  -1.818 -21.240  1.00  0.00    -0.502 OA
ATOM     15  H   UNL     1     -33.158  -2.294 -22.113  1.00  0.00     0.293 HD
ENDBRANCH   6  14
TORSDOF 4
ENDMDL
MODEL 3
REMARK VINA RESULT:    -5.616      0.630      2.518
REMARK INTER + INTRA:          -6.483
REMARK INTER:                  -6.431
REMARK INTRA:                  -0.052
REMARK UNBOUND:                -0.047
REMARK SMILES O=C([O-])c1cc(O)c(O)c(O)c1
REMARK SMILES IDX 4 1 5 2 12 3 6 4 10 5 8 6 2 7 1 8 3 9 7 10 11 12 9 14
REMARK H PARENT 7 11 11 13 9 15
REMARK Flexibility Score: inf
ROOT
ATOM      1  C   UNL     1     -32.969  -3.609 -17.695  1.00  0.00     0.005 A 
ATOM      2  C   UNL     1     -31.590  -3.734 -17.476  1.00  0.00     0.060 A 
ATOM      3  C   UNL     1     -33.419  -2.994 -18.874  1.00  0.00     0.060 A 
ATOM      4  C   UNL     1     -30.672  -3.254 -18.415  1.00  0.00     0.162 A 
ATOM      5  C   UNL     1     -32.515  -2.509 -19.825  1.00  0.00     0.162 A 
ATOM      6  C   UNL     1     -31.123  -2.638 -19.597  1.00  0.00     0.200 A 
ENDROOT
BRANCH   1   7
ATOM      7  C   UNL     1     -33.934  -4.119 -16.694  1.00  0.00     0.072 C 
ATOM      8  O   UNL     1     -35.152  -4.255 -16.988  1.00  0.00    -0.545 OA
ATOM      9  O   UNL     1     -33.509  -4.456 -15.414  1.00  0.00    -0.545 OA
ENDBRANCH   1   7
BRANCH   4  10
ATOM     10  O   UNL     1     -29.310  -3.402 -18.154  1.00  0.00    -0.504 OA
ATOM     11  H   UNL     1     -28.611  -2.794 -18.565  1.00  0.00     0.293 HD
ENDBRANCH   4  10
BRANCH   5  12
ATOM     12  O   UNL     1     -33.039  -1.909 -20.973  1.00  0.00    -0.504 OA
ATOM     13  H   UNL     1     -32.611  -1.130 -21.452  1.00  0.00     0.293 HD
ENDBRANCH   5  12
BRANCH   6  14
ATOM     14  O   UNL     1     -30.171  -2.174 -20.509  1.00  0.00    -0.502 OA
ATOM     15  H   UNL     1     -30.373  -1.941 -21.470  1.00  0.00     0.293 HD
ENDBRANCH   6  14
TORSDOF 4
ENDMDL
MODEL 4
REMARK VINA RESULT:    -5.607      5.283      8.432
REMARK INTER + INTRA:          -6.473
REMARK INTER:                  -6.424
REMARK INTRA:                  -0.049
REMARK UNBOUND:                -0.047
REMARK SMILES O=C([O-])c1cc(O)c(O)c(O)c1
REMARK SMILES IDX 4 1 5 2 12 3 6 4 10 5 8 6 2 7 1 8 3 9 7 10 11 12 9 14
REMARK H PARENT 7 11 11 13 9 15
REMARK Flexibility Score: inf
ROOT
ATOM      1  C   UNL     1     -36.871  -7.061 -15.476  1.00  0.00     0.005 A 
ATOM      2  C   UNL     1     -38.136  -7.636 -15.659  1.00  0.00     0.060 A 
ATOM      3  C   UNL     1     -36.108  -7.436 -14.359  1.00  0.00     0.060 A 
ATOM      4  C   UNL     1     -38.635  -8.570 -14.746  1.00  0.00     0.162 A 
ATOM      5  C   UNL     1     -36.591  -8.369 -13.435  1.00  0.00     0.162 A 
ATOM      6  C   UNL     1     -37.870  -8.946 -13.627  1.00  0.00     0.200 A 
ENDROOT
BRANCH   1   7
ATOM      7  C   UNL     1     -36.352  -6.072 -16.448  1.00  0.00     0.072 C 
ATOM      8  O   UNL     1     -37.118  -5.217 -16.966  1.00  0.00    -0.545 OA
ATOM      9  O   UNL     1     -35.007  -6.074 -16.804  1.00  0.00    -0.545 OA
ENDBRANCH   1   7
BRANCH   4  10
ATOM     10  O   UNL     1     -39.899  -9.116 -14.970  1.00  0.00    -0.504 OA
ATOM     11  H   UNL     1     -40.225  -9.944 -14.486  1.00  0.00     0.293 HD
ENDBRANCH   4  10
BRANCH   5  12
ATOM     12  O   UNL     1     -35.772  -8.691 -12.349  1.00  0.00    -0.504 OA
ATOM     13  H   UNL     1     -35.999  -9.387 -11.655  1.00  0.00     0.293 HD
ENDBRANCH   5  12
BRANCH   6  14
ATOM     14  O   UNL     1     -38.406  -9.882 -12.739  1.00  0.00    -0.502 OA
ATOM     15  H   UNL     1     -38.312  -9.832 -11.735  1.00  0.00     0.293 HD
ENDBRANCH   6  14
TORSDOF 4
ENDMDL
MODEL 5
REMARK VINA RESULT:    -5.590      5.335      8.757
REMARK INTER + INTRA:          -6.453
REMARK INTER:                  -6.404
REMARK INTRA:                  -0.050
REMARK UNBOUND:                -0.047
REMARK SMILES O=C([O-])c1cc(O)c(O)c(O)c1
REMARK SMILES IDX 4 1 5 2 12 3 6 4 10 5 8 6 2 7 1 8 3 9 7 10 11 12 9 14
REMARK H PARENT 7 11 11 13 9 15
REMARK Flexibility Score: inf
ROOT
ATOM      1  C   UNL     1     -36.947  -7.081 -15.539  1.00  0.00     0.005 A 
ATOM      2  C   UNL     1     -36.150  -7.421 -14.437  1.00  0.00     0.060 A 
ATOM      3  C   UNL     1     -38.213  -7.672 -15.673  1.00  0.00     0.060 A 
ATOM      4  C   UNL     1     -36.605  -8.336 -13.483  1.00  0.00     0.162 A 
ATOM      5  C   UNL     1     -38.684  -8.590 -14.727  1.00  0.00     0.162 A 
ATOM      6  C   UNL     1     -37.874  -8.929 -13.617  1.00  0.00     0.200 A 
ENDROOT
BRANCH   1   7
ATOM      7  C   UNL     1     -36.457  -6.111 -16.545  1.00  0.00     0.072 C 
ATOM      8  O   UNL     1     -37.248  -5.296 -17.090  1.00  0.00    -0.545 OA
ATOM      9  O   UNL     1     -35.113  -6.086 -16.902  1.00  0.00    -0.545 OA
ENDBRANCH   1   7
BRANCH   4  10
ATOM     10  O   UNL     1     -35.777  -8.643 -12.403  1.00  0.00    -0.504 OA
ATOM     11  H   UNL     1     -36.141  -8.820 -11.475  1.00  0.00     0.293 HD
ENDBRANCH   4  10
BRANCH   5  12
ATOM     12  O   UNL     1     -39.954  -9.136 -14.929  1.00  0.00    -0.504 OA
ATOM     13  H   UNL     1     -40.134  -9.972 -15.465  1.00  0.00     0.293 HD
ENDBRANCH   5  12
BRANCH   6  14
ATOM     14  O   UNL     1     -38.289  -9.838 -12.640  1.00  0.00    -0.502 OA
ATOM     15  H   UNL     1     -39.249  -9.967 -12.357  1.00  0.00     0.293 HD
ENDBRANCH   6  14
TORSDOF 4
ENDMDL
MODEL 6
REMARK VINA RESULT:    -5.412      1.397      4.842
REMARK INTER + INTRA:          -6.250
REMARK INTER:                  -6.198
REMARK INTRA:                  -0.052
REMARK UNBOUND:                -0.047
REMARK SMILES O=C([O-])c1cc(O)c(O)c(O)c1
REMARK SMILES IDX 4 1 5 2 12 3 6 4 10 5 8 6 2 7 1 8 3 9 7 10 11 12 9 14
REMARK H PARENT 7 11 11 13 9 15
REMARK Flexibility Score: inf
ROOT
ATOM      1  C   UNL     1     -31.110  -2.623 -19.578  1.00  0.00     0.005 A 
ATOM      2  C   UNL     1     -30.773  -2.966 -18.262  1.00  0.00     0.060 A 
ATOM      3  C   UNL     1     -32.464  -2.591 -19.948  1.00  0.00     0.060 A 
ATOM      4  C   UNL     1     -31.766  -3.273 -17.326  1.00  0.00     0.162 A 
ATOM      5  C   UNL     1     -33.471  -2.895 -19.025  1.00  0.00     0.162 A 
ATOM      6  C   UNL     1     -33.123  -3.241 -17.697  1.00  0.00     0.200 A 
ENDROOT
BRANCH   1   7
ATOM      7  C   UNL     1     -30.051  -2.300 -20.562  1.00  0.00     0.072 C 
ATOM      8  O   UNL     1     -30.339  -1.741 -21.653  1.00  0.00    -0.545 OA
ATOM      9  O   UNL     1     -28.723  -2.611 -20.293  1.00  0.00    -0.545 OA
ENDBRANCH   1   7
BRANCH   4  10
ATOM     10  O   UNL     1     -31.382  -3.608 -16.028  1.00  0.00    -0.504 OA
ATOM     11  H   UNL     1     -31.967  -3.417 -15.224  1.00  0.00     0.293 HD
ENDBRANCH   4  10
BRANCH   5  12
ATOM     12  O   UNL     1     -34.796  -2.841 -19.468  1.00  0.00    -0.504 OA
ATOM     13  H   UNL     1     -35.498  -2.227 -19.083  1.00  0.00     0.293 HD
ENDBRANCH   5  12
BRANCH   6  14
ATOM     14  O   UNL     1     -34.083  -3.554 -16.731  1.00  0.00    -0.502 OA
ATOM     15  H   UNL     1     -34.723  -4.332 -16.798  1.00  0.00     0.293 HD
ENDBRANCH   6  14
TORSDOF 4
ENDMDL
MODEL 7
REMARK VINA RESULT:    -5.371      1.401      4.255
REMARK INTER + INTRA:          -6.203
REMARK INTER:                  -6.151
REMARK INTRA:                  -0.052
REMARK UNBOUND:                -0.047
REMARK SMILES O=C([O-])c1cc(O)c(O)c(O)c1
REMARK SMILES IDX 4 1 5 2 12 3 6 4 10 5 8 6 2 7 1 8 3 9 7 10 11 12 9 14
REMARK H PARENT 7 11 11 13 9 15
REMARK Flexibility Score: inf
ROOT
ATOM      1  C   UNL     1     -31.076  -2.636 -19.539  1.00  0.00     0.005 A 
ATOM      2  C   UNL     1     -32.416  -2.590 -19.948  1.00  0.00     0.060 A 
ATOM      3  C   UNL     1     -30.781  -2.983 -18.211  1.00  0.00     0.060 A 
ATOM      4  C   UNL     1     -33.448  -2.884 -19.051  1.00  0.00     0.162 A 
ATOM      5  C   UNL     1     -31.800  -3.281 -17.299  1.00  0.00     0.162 A 
ATOM      6  C   UNL     1     -33.152  -3.232 -17.720  1.00  0.00     0.200 A 
ENDROOT
BRANCH   1   7
ATOM      7  C   UNL     1     -29.991  -2.322 -20.496  1.00  0.00     0.072 C 
ATOM      8  O   UNL     1     -28.804  -2.669 -20.256  1.00  0.00    -0.545 OA
ATOM      9  O   UNL     1     -30.268  -1.640 -21.676  1.00  0.00    -0.545 OA
ENDBRANCH   1   7
BRANCH   4  10
ATOM     10  O   UNL     1     -34.765  -2.826 -19.504  1.00  0.00    -0.504 OA
ATOM     11  H   UNL     1     -35.524  -3.293 -19.023  1.00  0.00     0.293 HD
ENDBRANCH   4  10
BRANCH   5  12
ATOM     12  O   UNL     1     -31.427  -3.617 -15.996  1.00  0.00    -0.504 OA
ATOM     13  H   UNL     1     -32.078  -3.866 -15.266  1.00  0.00     0.293 HD
ENDBRANCH   5  12
BRANCH   6  14
ATOM     14  O   UNL     1     -34.212  -3.519 -16.856  1.00  0.00    -0.502 OA
ATOM     15  H   UNL     1     -34.903  -4.235 -17.024  1.00  0.00     0.293 HD
ENDBRANCH   6  14
TORSDOF 4
ENDMDL
MODEL 8
REMARK VINA RESULT:    -5.040      7.704     10.054
REMARK INTER + INTRA:          -5.823
REMARK INTER:                  -5.779
REMARK INTRA:                  -0.045
REMARK UNBOUND:                -0.047
REMARK SMILES O=C([O-])c1cc(O)c(O)c(O)c1
REMARK SMILES IDX 4 1 5 2 12 3 6 4 10 5 8 6 2 7 1 8 3 9 7 10 11 12 9 14
REMARK H PARENT 7 11 11 13 9 15
REMARK Flexibility Score: inf
ROOT
ATOM      1  C   UNL     1     -38.805  -5.878 -13.377  1.00  0.00     0.005 A 
ATOM      2  C   UNL     1     -37.938  -6.979 -13.363  1.00  0.00     0.060 A 
ATOM      3  C   UNL     1     -40.191  -6.102 -13.360  1.00  0.00     0.060 A 
ATOM      4  C   UNL     1     -38.439  -8.284 -13.333  1.00  0.00     0.162 A 
ATOM      5  C   UNL     1     -40.711  -7.401 -13.330  1.00  0.00     0.162 A 
ATOM      6  C   UNL     1     -39.828  -8.508 -13.316  1.00  0.00     0.200 A 
ENDROOT
BRANCH   1   7
ATOM      7  C   UNL     1     -38.264  -4.500 -13.409  1.00  0.00     0.072 C 
ATOM      8  O   UNL     1     -38.048  -3.922 -14.507  1.00  0.00    -0.545 OA
ATOM      9  O   UNL     1     -37.987  -3.825 -12.225  1.00  0.00    -0.545 OA
ENDBRANCH   1   7
BRANCH   4  10
ATOM     10  O   UNL     1     -37.538  -9.347 -13.320  1.00  0.00    -0.504 OA
ATOM     11  H   UNL     1     -37.366  -9.901 -12.489  1.00  0.00     0.293 HD
ENDBRANCH   4  10
BRANCH   5  12
ATOM     12  O   UNL     1     -42.101  -7.543 -13.314  1.00  0.00    -0.504 OA
ATOM     13  H   UNL     1     -42.648  -7.681 -12.477  1.00  0.00     0.293 HD
ENDBRANCH   5  12
BRANCH   6  14
ATOM     14  O   UNL     1     -40.288  -9.828 -13.286  1.00  0.00    -0.502 OA
ATOM     15  H   UNL     1     -41.234 -10.105 -13.502  1.00  0.00     0.293 HD
ENDBRANCH   6  14
TORSDOF 4
ENDMDL
MODEL 9
REMARK VINA RESULT:    -5.019      6.681      8.563
REMARK INTER + INTRA:          -5.800
REMARK INTER:                  -5.751
REMARK INTRA:                  -0.048
REMARK UNBOUND:                -0.047
REMARK SMILES O=C([O-])c1cc(O)c(O)c(O)c1
REMARK SMILES IDX 4 1 5 2 12 3 6 4 10 5 8 6 2 7 1 8 3 9 7 10 11 12 9 14
REMARK H PARENT 7 11 11 13 9 15
REMARK Flexibility Score: inf
ROOT
ATOM      1  C   UNL     1     -36.934  -6.050 -13.395  1.00  0.00     0.005 A 
ATOM      2  C   UNL     1     -38.326  -5.898 -13.333  1.00  0.00     0.060 A 
ATOM      3  C   UNL     1     -36.401  -7.240 -13.917  1.00  0.00     0.060 A 
ATOM      4  C   UNL     1     -39.176  -6.913 -13.782  1.00  0.00     0.162 A 
ATOM      5  C   UNL     1     -37.237  -8.266 -14.372  1.00  0.00     0.162 A 
ATOM      6  C   UNL     1     -38.642  -8.105 -14.306  1.00  0.00     0.200 A 
ENDROOT
BRANCH   1   7
ATOM      7  C   UNL     1     -36.041  -4.970 -12.916  1.00  0.00     0.072 C 
ATOM      8  O   UNL     1     -36.276  -4.380 -11.828  1.00  0.00    -0.545 OA
ATOM      9  O   UNL     1     -34.930  -4.593 -13.661  1.00  0.00    -0.545 OA
ENDBRANCH   1   7
BRANCH   4  10
ATOM     10  O   UNL     1     -40.554  -6.716 -13.701  1.00  0.00    -0.504 OA
ATOM     11  H   UNL     1     -41.032  -6.591 -12.817  1.00  0.00     0.293 HD
ENDBRANCH   4  10
BRANCH   5  12
ATOM     12  O   UNL     1     -36.632  -9.420 -14.878  1.00  0.00    -0.504 OA
ATOM     13  H   UNL     1     -35.987  -9.996 -14.358  1.00  0.00     0.293 HD
ENDBRANCH   5  12
BRANCH   6  14
ATOM     14  O   UNL     1     -39.528  -9.093 -14.744  1.00  0.00    -0.502 OA
ATOM     15  H   UNL     1     -40.143  -8.993 -15.538  1.00  0.00     0.293 HD
ENDBRANCH   6  14
TORSDOF 4
ENDMDL
