MODEL 1
REMARK VINA RESULT:    -6.429      0.000      0.000
REMARK INTER + INTRA:          -7.646
REMARK INTER:                  -7.744
REMARK INTRA:                   0.098
REMARK UNBOUND:                 0.098
REMARK SMILES O=c1c(O)c(-c2ccc(O)c(O)c2)oc2cc(O)cc(O)c12
REMARK SMILES IDX 5 1 3 2 2 3 1 4 22 5 20 6 19 7 17 8 16 9 15 10 14 11 6 12
REMARK SMILES IDX 7 13 8 14 9 15 13 16 11 17 10 18 12 20 4 22 21 24 18 26
REMARK H PARENT 10 19 12 21 4 23 21 25 18 27
REMARK Flexibility Score: inf
ROOT
ATOM      1  C   UNL     1      66.679  51.875  47.791  1.00  0.00     0.180 A 
ATOM      2  C   UNL     1      66.505  51.678  49.172  1.00  0.00     0.208 A 
ATOM      3  C   UNL     1      65.268  51.995  49.754  1.00  0.00     0.238 A 
ATOM      4  O   UNL     1      65.102  51.765  50.982  1.00  0.00    -0.285 OA
ATOM      5  C   UNL     1      64.225  52.519  48.954  1.00  0.00     0.111 A 
ATOM      6  C   UNL     1      62.945  52.913  49.446  1.00  0.00     0.134 A 
ATOM      7  C   UNL     1      61.945  53.295  48.543  1.00  0.00     0.093 A 
ATOM      8  C   UNL     1      62.201  53.362  47.171  1.00  0.00     0.123 A 
ATOM      9  C   UNL     1      63.466  53.037  46.687  1.00  0.00     0.094 A 
ATOM     10  C   UNL     1      64.472  52.617  47.559  1.00  0.00     0.146 A 
ATOM     11  O   UNL     1      65.660  52.306  47.055  1.00  0.00    -0.452 OA
ENDROOT
BRANCH   1  12
ATOM     12  C   UNL     1      67.961  51.588  47.108  1.00  0.00     0.025 A 
ATOM     13  C   UNL     1      68.499  52.533  46.221  1.00  0.00     0.016 A 
ATOM     14  C   UNL     1      69.718  52.291  45.583  1.00  0.00     0.051 A 
ATOM     15  C   UNL     1      70.425  51.111  45.833  1.00  0.00     0.157 A 
ATOM     16  C   UNL     1      68.684  50.411  47.374  1.00  0.00     0.062 A 
ATOM     17  C   UNL     1      69.909  50.167  46.736  1.00  0.00     0.158 A 
BRANCH  15  18
ATOM     18  O   UNL     1      71.638  50.897  45.179  1.00  0.00    -0.504 OA
ATOM     19  H   UNL     1      72.115  50.004  45.212  1.00  0.00     0.293 HD
ENDBRANCH  15  18
BRANCH  17  20
ATOM     20  O   UNL     1      70.615  48.995  47.000  1.00  0.00    -0.504 OA
ATOM     21  H   UNL     1      70.168  48.189  47.421  1.00  0.00     0.293 HD
ENDBRANCH  17  20
ENDBRANCH   1  12
BRANCH   2  22
ATOM     22  O   UNL     1      67.541  51.139  49.940  1.00  0.00    -0.502 OA
ATOM     23  H   UNL     1      68.419  50.840  49.533  1.00  0.00     0.293 HD
ENDBRANCH   2  22
BRANCH   6  24
ATOM     24  O   UNL     1      62.615  52.971  50.804  1.00  0.00    -0.507 OA
ATOM     25  H   UNL     1      63.178  53.413  51.513  1.00  0.00     0.293 HD
ENDBRANCH   6  24
BRANCH   8  26
ATOM     26  O   UNL     1      61.205  53.759  46.281  1.00  0.00    -0.508 OA
ATOM     27  H   UNL     1      61.105  53.329  45.370  1.00  0.00     0.293 HD
ENDBRANCH   8  26
TORSDOF 6
ENDMDL
MODEL 2
REMARK VINA RESULT:    -6.414     12.131     13.252
REMARK INTER + INTRA:          -7.628
REMARK INTER:                  -7.352
REMARK INTRA:                  -0.276
REMARK UNBOUND:                 0.098
REMARK SMILES O=c1c(O)c(-c2ccc(O)c(O)c2)oc2cc(O)cc(O)c12
REMARK SMILES IDX 5 1 3 2 2 3 1 4 22 5 20 6 19 7 17 8 16 9 15 10 14 11 6 12
REMARK SMILES IDX 7 13 8 14 9 15 13 16 11 17 10 18 12 20 4 22 21 24 18 26
REMARK H PARENT 10 19 12 21 4 23 21 25 18 27
REMARK Flexibility Score: inf
ROOT
ATOM      1  C   UNL     1      65.873  39.200  48.800  1.00  0.00     0.180 A 
ATOM      2  C   UNL     1      66.051  40.500  48.295  1.00  0.00     0.208 A 
ATOM      3  C   UNL     1      64.946  41.180  47.761  1.00  0.00     0.238 A 
ATOM      4  O   UNL     1      65.102  42.364  47.359  1.00  0.00    -0.285 OA
ATOM      5  C   UNL     1      63.680  40.549  47.724  1.00  0.00     0.111 A 
ATOM      6  C   UNL     1      62.500  41.129  47.169  1.00  0.00     0.134 A 
ATOM      7  C   UNL     1      61.274  40.466  47.305  1.00  0.00     0.093 A 
ATOM      8  C   UNL     1      61.197  39.213  47.917  1.00  0.00     0.123 A 
ATOM      9  C   UNL     1      62.352  38.611  48.409  1.00  0.00     0.094 A 
ATOM     10  C   UNL     1      63.584  39.264  48.321  1.00  0.00     0.146 A 
ATOM     11  O   UNL     1      64.659  38.660  48.812  1.00  0.00    -0.452 OA
ENDROOT
BRANCH   1  12
ATOM     12  C   UNL     1      66.995  38.410  49.357  1.00  0.00     0.025 A 
ATOM     13  C   UNL     1      67.065  38.189  50.741  1.00  0.00     0.016 A 
ATOM     14  C   UNL     1      68.103  37.428  51.285  1.00  0.00     0.051 A 
ATOM     15  C   UNL     1      69.076  36.865  50.456  1.00  0.00     0.157 A 
ATOM     16  C   UNL     1      67.963  37.824  48.522  1.00  0.00     0.062 A 
ATOM     17  C   UNL     1      69.005  37.059  49.066  1.00  0.00     0.158 A 
BRANCH  15  18
ATOM     18  O   UNL     1      70.101  36.113  51.027  1.00  0.00    -0.504 OA
ATOM     19  H   UNL     1      71.078  36.355  50.907  1.00  0.00     0.293 HD
ENDBRANCH  15  18
BRANCH  17  20
ATOM     20  O   UNL     1      69.964  36.488  48.231  1.00  0.00    -0.504 OA
ATOM     21  H   UNL     1      70.826  36.102  48.599  1.00  0.00     0.293 HD
ENDBRANCH  17  20
ENDBRANCH   1  12
BRANCH   2  22
ATOM     22  O   UNL     1      67.306  41.113  48.361  1.00  0.00    -0.502 OA
ATOM     23  H   UNL     1      67.541  41.929  47.809  1.00  0.00     0.293 HD
ENDBRANCH   2  22
BRANCH   6  24
ATOM     24  O   UNL     1      62.484  42.332  46.456  1.00  0.00    -0.507 OA
ATOM     25  H   UNL     1      63.170  43.065  46.550  1.00  0.00     0.293 HD
ENDBRANCH   6  24
BRANCH   8  26
ATOM     26  O   UNL     1      59.975  38.553  48.034  1.00  0.00    -0.508 OA
ATOM     27  H   UNL     1      59.573  38.040  47.258  1.00  0.00     0.293 HD
ENDBRANCH   8  26
TORSDOF 6
ENDMDL
MODEL 3
REMARK VINA RESULT:    -6.164     13.131     14.079
REMARK INTER + INTRA:          -7.327
REMARK INTER:                  -7.016
REMARK INTRA:                  -0.312
REMARK UNBOUND:                 0.098
REMARK SMILES O=c1c(O)c(-c2ccc(O)c(O)c2)oc2cc(O)cc(O)c12
REMARK SMILES IDX 5 1 3 2 2 3 1 4 22 5 20 6 19 7 17 8 16 9 15 10 14 11 6 12
REMARK SMILES IDX 7 13 8 14 9 15 13 16 11 17 10 18 12 20 4 22 21 24 18 26
REMARK H PARENT 10 19 12 21 4 23 21 25 18 27
REMARK Flexibility Score: inf
ROOT
ATOM      1  C   UNL     1      65.034  38.014  49.275  1.00  0.00     0.180 A 
ATOM      2  C   UNL     1      64.025  37.035  49.267  1.00  0.00     0.208 A 
ATOM      3  C   UNL     1      62.755  37.371  48.771  1.00  0.00     0.238 A 
ATOM      4  O   UNL     1      61.872  36.474  48.717  1.00  0.00    -0.285 OA
ATOM      5  C   UNL     1      62.505  38.683  48.304  1.00  0.00     0.111 A 
ATOM      6  C   UNL     1      61.245  39.143  47.817  1.00  0.00     0.134 A 
ATOM      7  C   UNL     1      61.147  40.424  47.258  1.00  0.00     0.093 A 
ATOM      8  C   UNL     1      62.248  41.284  47.229  1.00  0.00     0.123 A 
ATOM      9  C   UNL     1      63.467  40.864  47.755  1.00  0.00     0.094 A 
ATOM     10  C   UNL     1      63.605  39.580  48.287  1.00  0.00     0.146 A 
ATOM     11  O   UNL     1      64.788  39.217  48.769  1.00  0.00    -0.452 OA
ENDROOT
BRANCH   1  12
ATOM     12  C   UNL     1      66.391  37.744  49.805  1.00  0.00     0.025 A 
ATOM     13  C   UNL     1      66.623  37.830  51.186  1.00  0.00     0.016 A 
ATOM     14  C   UNL     1      67.890  37.558  51.710  1.00  0.00     0.051 A 
ATOM     15  C   UNL     1      68.937  37.182  50.865  1.00  0.00     0.157 A 
ATOM     16  C   UNL     1      67.441  37.344  48.959  1.00  0.00     0.062 A 
ATOM     17  C   UNL     1      68.713  37.070  49.482  1.00  0.00     0.158 A 
BRANCH  15  18
ATOM     18  O   UNL     1      70.191  36.919  51.415  1.00  0.00    -0.504 OA
ATOM     19  H   UNL     1      70.794  36.189  51.055  1.00  0.00     0.293 HD
ENDBRANCH  15  18
BRANCH  17  20
ATOM     20  O   UNL     1      69.749  36.681  48.636  1.00  0.00    -0.504 OA
ATOM     21  H   UNL     1      70.351  35.897  48.859  1.00  0.00     0.293 HD
ENDBRANCH  17  20
ENDBRANCH   1  12
BRANCH   2  22
ATOM     22  O   UNL     1      64.300  35.739  49.714  1.00  0.00    -0.502 OA
ATOM     23  H   UNL     1      64.110  34.920  49.151  1.00  0.00     0.293 HD
ENDBRANCH   2  22
BRANCH   6  24
ATOM     24  O   UNL     1      60.063  38.399  47.884  1.00  0.00    -0.507 OA
ATOM     25  H   UNL     1      59.990  37.417  47.666  1.00  0.00     0.293 HD
ENDBRANCH   6  24
BRANCH   8  26
ATOM     26  O   UNL     1      62.136  42.562  46.686  1.00  0.00    -0.508 OA
ATOM     27  H   UNL     1      61.898  43.363  47.258  1.00  0.00     0.293 HD
ENDBRANCH   8  26
TORSDOF 6
ENDMDL
MODEL 4
REMARK VINA RESULT:    -5.953     12.815     14.511
REMARK INTER + INTRA:          -7.073
REMARK INTER:                  -6.758
REMARK INTRA:                  -0.315
REMARK UNBOUND:                 0.098
REMARK SMILES O=c1c(O)c(-c2ccc(O)c(O)c2)oc2cc(O)cc(O)c12
REMARK SMILES IDX 5 1 3 2 2 3 1 4 22 5 20 6 19 7 17 8 16 9 15 10 14 11 6 12
REMARK SMILES IDX 7 13 8 14 9 15 13 16 11 17 10 18 12 20 4 22 21 24 18 26
REMARK H PARENT 10 19 12 21 4 23 21 25 18 27
REMARK Flexibility Score: inf
ROOT
ATOM      1  C   UNL     1      66.690  39.013  41.886  1.00  0.00     0.180 A 
ATOM      2  C   UNL     1      65.809  37.989  41.495  1.00  0.00     0.208 A 
ATOM      3  C   UNL     1      64.887  37.492  42.430  1.00  0.00     0.238 A 
ATOM      4  O   UNL     1      64.065  36.613  42.057  1.00  0.00    -0.285 OA
ATOM      5  C   UNL     1      64.866  38.012  43.746  1.00  0.00     0.111 A 
ATOM      6  C   UNL     1      64.001  37.554  44.785  1.00  0.00     0.134 A 
ATOM      7  C   UNL     1      63.977  38.230  46.011  1.00  0.00     0.093 A 
ATOM      8  C   UNL     1      64.834  39.305  46.258  1.00  0.00     0.123 A 
ATOM      9  C   UNL     1      65.723  39.722  45.271  1.00  0.00     0.094 A 
ATOM     10  C   UNL     1      65.745  39.090  44.025  1.00  0.00     0.146 A 
ATOM     11  O   UNL     1      66.602  39.526  43.108  1.00  0.00    -0.452 OA
ENDROOT
BRANCH   1  12
ATOM     12  C   UNL     1      67.706  39.572  40.966  1.00  0.00     0.025 A 
ATOM     13  C   UNL     1      68.999  39.026  40.950  1.00  0.00     0.016 A 
ATOM     14  C   UNL     1      69.967  39.525  40.074  1.00  0.00     0.051 A 
ATOM     15  C   UNL     1      69.655  40.562  39.192  1.00  0.00     0.157 A 
ATOM     16  C   UNL     1      67.388  40.602  40.062  1.00  0.00     0.062 A 
ATOM     17  C   UNL     1      68.358  41.103  39.182  1.00  0.00     0.158 A 
BRANCH  15  18
ATOM     18  O   UNL     1      70.643  41.041  38.332  1.00  0.00    -0.504 OA
ATOM     19  H   UNL     1      71.112  40.439  37.665  1.00  0.00     0.293 HD
ENDBRANCH  15  18
BRANCH  17  20
ATOM     20  O   UNL     1      68.036  42.128  38.295  1.00  0.00    -0.504 OA
ATOM     21  H   UNL     1      67.373  42.854  38.540  1.00  0.00     0.293 HD
ENDBRANCH  17  20
ENDBRANCH   1  12
BRANCH   2  22
ATOM     22  O   UNL     1      65.832  37.505  40.184  1.00  0.00    -0.502 OA
ATOM     23  H   UNL     1      65.280  37.920  39.443  1.00  0.00     0.293 HD
ENDBRANCH   2  22
BRANCH   6  24
ATOM     24  O   UNL     1      63.173  36.433  44.673  1.00  0.00    -0.507 OA
ATOM     25  H   UNL     1      62.194  36.463  44.436  1.00  0.00     0.293 HD
ENDBRANCH   6  24
BRANCH   8  26
ATOM     26  O   UNL     1      64.814  39.962  47.487  1.00  0.00    -0.508 OA
ATOM     27  H   UNL     1      65.396  39.660  48.259  1.00  0.00     0.293 HD
ENDBRANCH   8  26
TORSDOF 6
ENDMDL
MODEL 5
REMARK VINA RESULT:    -5.785     12.017     13.679
REMARK INTER + INTRA:          -6.870
REMARK INTER:                  -6.549
REMARK INTRA:                  -0.321
REMARK UNBOUND:                 0.098
REMARK SMILES O=c1c(O)c(-c2ccc(O)c(O)c2)oc2cc(O)cc(O)c12
REMARK SMILES IDX 5 1 3 2 2 3 1 4 22 5 20 6 19 7 17 8 16 9 15 10 14 11 6 12
REMARK SMILES IDX 7 13 8 14 9 15 13 16 11 17 10 18 12 20 4 22 21 24 18 26
REMARK H PARENT 10 19 12 21 4 23 21 25 18 27
REMARK Flexibility Score: inf
ROOT
ATOM      1  C   UNL     1      66.635  39.155  43.196  1.00  0.00     0.180 A 
ATOM      2  C   UNL     1      65.583  38.227  43.302  1.00  0.00     0.208 A 
ATOM      3  C   UNL     1      64.741  38.279  44.424  1.00  0.00     0.238 A 
ATOM      4  O   UNL     1      63.769  37.481  44.485  1.00  0.00    -0.285 OA
ATOM      5  C   UNL     1      64.969  39.245  45.432  1.00  0.00     0.111 A 
ATOM      6  C   UNL     1      64.202  39.361  46.631  1.00  0.00     0.134 A 
ATOM      7  C   UNL     1      64.434  40.437  47.497  1.00  0.00     0.093 A 
ATOM      8  C   UNL     1      65.449  41.362  47.241  1.00  0.00     0.123 A 
ATOM      9  C   UNL     1      66.241  41.223  46.105  1.00  0.00     0.094 A 
ATOM     10  C   UNL     1      66.011  40.181  45.203  1.00  0.00     0.146 A 
ATOM     11  O   UNL     1      66.783  40.091  44.127  1.00  0.00    -0.452 OA
ENDROOT
BRANCH   1  12
ATOM     12  C   UNL     1      67.580  39.149  42.056  1.00  0.00     0.025 A 
ATOM     13  C   UNL     1      68.756  38.387  42.137  1.00  0.00     0.016 A 
ATOM     14  C   UNL     1      69.651  38.350  41.064  1.00  0.00     0.051 A 
ATOM     15  C   UNL     1      69.378  39.059  39.891  1.00  0.00     0.157 A 
ATOM     16  C   UNL     1      67.297  39.844  40.866  1.00  0.00     0.062 A 
ATOM     17  C   UNL     1      68.193  39.807  39.789  1.00  0.00     0.158 A 
BRANCH  15  18
ATOM     18  O   UNL     1      70.290  39.005  38.839  1.00  0.00    -0.504 OA
ATOM     19  H   UNL     1      70.005  38.791  37.890  1.00  0.00     0.293 HD
ENDBRANCH  15  18
BRANCH  17  20
ATOM     20  O   UNL     1      67.908  40.505  38.616  1.00  0.00    -0.504 OA
ATOM     21  H   UNL     1      67.061  41.053  38.517  1.00  0.00     0.293 HD
ENDBRANCH  17  20
ENDBRANCH   1  12
BRANCH   2  22
ATOM     22  O   UNL     1      65.364  37.296  42.283  1.00  0.00    -0.502 OA
ATOM     23  H   UNL     1      65.902  36.442  42.203  1.00  0.00     0.293 HD
ENDBRANCH   2  22
BRANCH   6  24
ATOM     24  O   UNL     1      63.228  38.439  47.027  1.00  0.00    -0.507 OA
ATOM     25  H   UNL     1      63.381  37.448  47.123  1.00  0.00     0.293 HD
ENDBRANCH   6  24
BRANCH   8  26
ATOM     26  O   UNL     1      65.683  42.420  48.117  1.00  0.00    -0.508 OA
ATOM     27  H   UNL     1      66.399  42.369  48.832  1.00  0.00     0.293 HD
ENDBRANCH   8  26
TORSDOF 6
ENDMDL
MODEL 6
REMARK VINA RESULT:    -5.635      2.145      6.969
REMARK INTER + INTRA:          -6.690
REMARK INTER:                  -6.702
REMARK INTRA:                   0.012
REMARK UNBOUND:                 0.098
REMARK SMILES O=c1c(O)c(-c2ccc(O)c(O)c2)oc2cc(O)cc(O)c12
REMARK SMILES IDX 5 1 3 2 2 3 1 4 22 5 20 6 19 7 17 8 16 9 15 10 14 11 6 12
REMARK SMILES IDX 7 13 8 14 9 15 13 16 11 17 10 18 12 20 4 22 21 24 18 26
REMARK H PARENT 10 19 12 21 4 23 21 25 18 27
REMARK Flexibility Score: inf
ROOT
ATOM      1  C   UNL     1      65.721  51.248  48.901  1.00  0.00     0.180 A 
ATOM      2  C   UNL     1      65.403  52.195  47.912  1.00  0.00     0.208 A 
ATOM      3  C   UNL     1      66.309  52.412  46.862  1.00  0.00     0.238 A 
ATOM      4  O   UNL     1      65.993  53.223  45.951  1.00  0.00    -0.285 OA
ATOM      5  C   UNL     1      67.526  51.693  46.821  1.00  0.00     0.111 A 
ATOM      6  C   UNL     1      68.535  51.862  45.825  1.00  0.00     0.134 A 
ATOM      7  C   UNL     1      69.641  51.003  45.809  1.00  0.00     0.093 A 
ATOM      8  C   UNL     1      69.807  50.025  46.792  1.00  0.00     0.123 A 
ATOM      9  C   UNL     1      68.858  49.891  47.802  1.00  0.00     0.094 A 
ATOM     10  C   UNL     1      67.726  50.709  47.824  1.00  0.00     0.146 A 
ATOM     11  O   UNL     1      66.841  50.541  48.799  1.00  0.00    -0.452 OA
ENDROOT
BRANCH   1  12
ATOM     12  C   UNL     1      64.829  50.980  50.053  1.00  0.00     0.025 A 
ATOM     13  C   UNL     1      64.348  52.054  50.818  1.00  0.00     0.016 A 
ATOM     14  C   UNL     1      63.488  51.826  51.896  1.00  0.00     0.051 A 
ATOM     15  C   UNL     1      63.084  50.526  52.215  1.00  0.00     0.157 A 
ATOM     16  C   UNL     1      64.404  49.675  50.363  1.00  0.00     0.062 A 
ATOM     17  C   UNL     1      63.541  49.445  51.443  1.00  0.00     0.158 A 
BRANCH  15  18
ATOM     18  O   UNL     1      62.228  50.330  53.297  1.00  0.00    -0.504 OA
ATOM     19  H   UNL     1      62.387  50.769  54.196  1.00  0.00     0.293 HD
ENDBRANCH  15  18
BRANCH  17  20
ATOM     20  O   UNL     1      63.130  48.148  51.747  1.00  0.00    -0.504 OA
ATOM     21  H   UNL     1      62.311  47.736  51.317  1.00  0.00     0.293 HD
ENDBRANCH  17  20
ENDBRANCH   1  12
BRANCH   2  22
ATOM     22  O   UNL     1      64.185  52.879  47.961  1.00  0.00    -0.502 OA
ATOM     23  H   UNL     1      63.371  52.505  48.434  1.00  0.00     0.293 HD
ENDBRANCH   2  22
BRANCH   6  24
ATOM     24  O   UNL     1      68.511  52.868  44.853  1.00  0.00    -0.507 OA
ATOM     25  H   UNL     1      68.957  53.767  44.946  1.00  0.00     0.293 HD
ENDBRANCH   6  24
BRANCH   8  26
ATOM     26  O   UNL     1      70.919  49.185  46.777  1.00  0.00    -0.508 OA
ATOM     27  H   UNL     1      71.810  49.478  47.162  1.00  0.00     0.293 HD
ENDBRANCH   8  26
TORSDOF 6
ENDMDL
MODEL 7
REMARK VINA RESULT:    -5.587     12.316     14.972
REMARK INTER + INTRA:          -6.632
REMARK INTER:                  -6.350
REMARK INTRA:                  -0.282
REMARK UNBOUND:                 0.098
REMARK SMILES O=c1c(O)c(-c2ccc(O)c(O)c2)oc2cc(O)cc(O)c12
REMARK SMILES IDX 5 1 3 2 2 3 1 4 22 5 20 6 19 7 17 8 16 9 15 10 14 11 6 12
REMARK SMILES IDX 7 13 8 14 9 15 13 16 11 17 10 18 12 20 4 22 21 24 18 26
REMARK H PARENT 10 19 12 21 4 23 21 25 18 27
REMARK Flexibility Score: inf
ROOT
ATOM      1  C   UNL     1      64.760  38.926  47.882  1.00  0.00     0.180 A 
ATOM      2  C   UNL     1      65.360  38.715  46.628  1.00  0.00     0.208 A 
ATOM      3  C   UNL     1      66.690  38.272  46.576  1.00  0.00     0.238 A 
ATOM      4  O   UNL     1      67.203  38.034  45.450  1.00  0.00    -0.285 OA
ATOM      5  C   UNL     1      67.410  38.058  47.775  1.00  0.00     0.111 A 
ATOM      6  C   UNL     1      68.775  37.648  47.839  1.00  0.00     0.134 A 
ATOM      7  C   UNL     1      69.347  37.341  49.080  1.00  0.00     0.093 A 
ATOM      8  C   UNL     1      68.622  37.493  50.264  1.00  0.00     0.123 A 
ATOM      9  C   UNL     1      67.308  37.950  50.217  1.00  0.00     0.094 A 
ATOM     10  C   UNL     1      66.699  38.230  48.991  1.00  0.00     0.146 A 
ATOM     11  O   UNL     1      65.440  38.653  48.990  1.00  0.00    -0.452 OA
ENDROOT
BRANCH   1  12
ATOM     12  C   UNL     1      63.369  39.416  48.019  1.00  0.00     0.025 A 
ATOM     13  C   UNL     1      62.364  38.534  48.443  1.00  0.00     0.016 A 
ATOM     14  C   UNL     1      61.049  38.981  48.600  1.00  0.00     0.051 A 
ATOM     15  C   UNL     1      60.723  40.317  48.350  1.00  0.00     0.157 A 
ATOM     16  C   UNL     1      63.043  40.765  47.790  1.00  0.00     0.062 A 
ATOM     17  C   UNL     1      61.724  41.216  47.947  1.00  0.00     0.158 A 
BRANCH  15  18
ATOM     18  O   UNL     1      59.402  40.733  48.513  1.00  0.00    -0.504 OA
ATOM     19  H   UNL     1      58.620  40.100  48.396  1.00  0.00     0.293 HD
ENDBRANCH  15  18
BRANCH  17  20
ATOM     20  O   UNL     1      61.408  42.552  47.711  1.00  0.00    -0.504 OA
ATOM     21  H   UNL     1      60.801  43.073  48.333  1.00  0.00     0.293 HD
ENDBRANCH  17  20
ENDBRANCH   1  12
BRANCH   2  22
ATOM     22  O   UNL     1      64.623  38.912  45.456  1.00  0.00    -0.502 OA
ATOM     23  H   UNL     1      64.594  39.803  44.977  1.00  0.00     0.293 HD
ENDBRANCH   2  22
BRANCH   6  24
ATOM     24  O   UNL     1      69.615  37.552  46.724  1.00  0.00    -0.507 OA
ATOM     25  H   UNL     1      70.569  37.229  46.750  1.00  0.00     0.293 HD
ENDBRANCH   6  24
BRANCH   8  26
ATOM     26  O   UNL     1      69.204  37.201  51.496  1.00  0.00    -0.508 OA
ATOM     27  H   UNL     1      70.169  37.437  51.696  1.00  0.00     0.293 HD
ENDBRANCH   8  26
TORSDOF 6
ENDMDL
MODEL 8
REMARK VINA RESULT:    -5.586      2.222      3.876
REMARK INTER + INTRA:          -6.631
REMARK INTER:                  -6.316
REMARK INTRA:                  -0.315
REMARK UNBOUND:                 0.098
REMARK SMILES O=c1c(O)c(-c2ccc(O)c(O)c2)oc2cc(O)cc(O)c12
REMARK SMILES IDX 5 1 3 2 2 3 1 4 22 5 20 6 19 7 17 8 16 9 15 10 14 11 6 12
REMARK SMILES IDX 7 13 8 14 9 15 13 16 11 17 10 18 12 20 4 22 21 24 18 26
REMARK H PARENT 10 19 12 21 4 23 21 25 18 27
REMARK Flexibility Score: inf
ROOT
ATOM      1  C   UNL     1      68.471  52.099  47.084  1.00  0.00     0.180 A 
ATOM      2  C   UNL     1      67.337  52.766  46.588  1.00  0.00     0.208 A 
ATOM      3  C   UNL     1      66.083  52.491  47.156  1.00  0.00     0.238 A 
ATOM      4  O   UNL     1      65.080  53.132  46.744  1.00  0.00    -0.285 OA
ATOM      5  C   UNL     1      65.975  51.543  48.201  1.00  0.00     0.111 A 
ATOM      6  C   UNL     1      64.750  51.158  48.823  1.00  0.00     0.134 A 
ATOM      7  C   UNL     1      64.777  50.308  49.936  1.00  0.00     0.093 A 
ATOM      8  C   UNL     1      65.980  49.777  50.408  1.00  0.00     0.123 A 
ATOM      9  C   UNL     1      67.176  50.101  49.771  1.00  0.00     0.094 A 
ATOM     10  C   UNL     1      67.184  50.974  48.681  1.00  0.00     0.146 A 
ATOM     11  O   UNL     1      68.347  51.264  48.109  1.00  0.00    -0.452 OA
ENDROOT
BRANCH   1  12
ATOM     12  C   UNL     1      69.823  52.318  46.520  1.00  0.00     0.025 A 
ATOM     13  C   UNL     1      70.608  53.378  46.997  1.00  0.00     0.016 A 
ATOM     14  C   UNL     1      71.894  53.589  46.495  1.00  0.00     0.051 A 
ATOM     15  C   UNL     1      72.421  52.737  45.521  1.00  0.00     0.157 A 
ATOM     16  C   UNL     1      70.363  51.448  45.555  1.00  0.00     0.062 A 
ATOM     17  C   UNL     1      71.654  51.657  45.051  1.00  0.00     0.158 A 
BRANCH  15  18
ATOM     18  O   UNL     1      73.707  52.973  45.036  1.00  0.00    -0.504 OA
ATOM     19  H   UNL     1      74.101  53.906  44.989  1.00  0.00     0.293 HD
ENDBRANCH  15  18
BRANCH  17  20
ATOM     20  O   UNL     1      72.179  50.795  44.090  1.00  0.00    -0.504 OA
ATOM     21  H   UNL     1      71.849  49.841  43.995  1.00  0.00     0.293 HD
ENDBRANCH  17  20
ENDBRANCH   1  12
BRANCH   2  22
ATOM     22  O   UNL     1      67.469  53.714  45.569  1.00  0.00    -0.502 OA
ATOM     23  H   UNL     1      66.790  54.451  45.422  1.00  0.00     0.293 HD
ENDBRANCH   2  22
BRANCH   6  24
ATOM     24  O   UNL     1      63.487  51.557  48.373  1.00  0.00    -0.507 OA
ATOM     25  H   UNL     1      62.935  52.290  48.789  1.00  0.00     0.293 HD
ENDBRANCH   6  24
BRANCH   8  26
ATOM     26  O   UNL     1      65.996  48.920  51.506  1.00  0.00    -0.508 OA
ATOM     27  H   UNL     1      65.226  48.884  52.162  1.00  0.00     0.293 HD
ENDBRANCH   8  26
TORSDOF 6
ENDMDL
MODEL 9
REMARK VINA RESULT:    -5.584     12.624     15.144
REMARK INTER + INTRA:          -6.628
REMARK INTER:                  -6.305
REMARK INTRA:                  -0.323
REMARK UNBOUND:                 0.098
REMARK SMILES O=c1c(O)c(-c2ccc(O)c(O)c2)oc2cc(O)cc(O)c12
REMARK SMILES IDX 5 1 3 2 2 3 1 4 22 5 20 6 19 7 17 8 16 9 15 10 14 11 6 12
REMARK SMILES IDX 7 13 8 14 9 15 13 16 11 17 10 18 12 20 4 22 21 24 18 26
REMARK H PARENT 10 19 12 21 4 23 21 25 18 27
REMARK Flexibility Score: inf
ROOT
ATOM      1  C   UNL     1      65.835  38.718  44.483  1.00  0.00     0.180 A 
ATOM      2  C   UNL     1      66.600  37.589  44.825  1.00  0.00     0.208 A 
ATOM      3  C   UNL     1      67.228  36.858  43.805  1.00  0.00     0.238 A 
ATOM      4  O   UNL     1      67.956  35.880  44.124  1.00  0.00    -0.285 OA
ATOM      5  C   UNL     1      67.072  37.253  42.456  1.00  0.00     0.111 A 
ATOM      6  C   UNL     1      67.631  36.562  41.339  1.00  0.00     0.134 A 
ATOM      7  C   UNL     1      67.522  37.117  40.058  1.00  0.00     0.093 A 
ATOM      8  C   UNL     1      66.816  38.304  39.845  1.00  0.00     0.123 A 
ATOM      9  C   UNL     1      66.217  38.955  40.920  1.00  0.00     0.094 A 
ATOM     10  C   UNL     1      66.340  38.445  42.215  1.00  0.00     0.146 A 
ATOM     11  O   UNL     1      65.761  39.102  43.213  1.00  0.00    -0.452 OA
ENDROOT
BRANCH   1  12
ATOM     12  C   UNL     1      65.122  39.525  45.499  1.00  0.00     0.025 A 
ATOM     13  C   UNL     1      63.813  39.177  45.865  1.00  0.00     0.016 A 
ATOM     14  C   UNL     1      63.130  39.912  46.837  1.00  0.00     0.051 A 
ATOM     15  C   UNL     1      63.748  40.995  47.468  1.00  0.00     0.157 A 
ATOM     16  C   UNL     1      65.750  40.602  46.151  1.00  0.00     0.062 A 
ATOM     17  C   UNL     1      65.067  41.341  47.127  1.00  0.00     0.158 A 
BRANCH  15  18
ATOM     18  O   UNL     1      63.041  41.711  48.433  1.00  0.00    -0.504 OA
ATOM     19  H   UNL     1      62.150  42.149  48.232  1.00  0.00     0.293 HD
ENDBRANCH  15  18
BRANCH  17  20
ATOM     20  O   UNL     1      65.694  42.410  47.763  1.00  0.00    -0.504 OA
ATOM     21  H   UNL     1      65.988  43.235  47.251  1.00  0.00     0.293 HD
ENDBRANCH  17  20
ENDBRANCH   1  12
BRANCH   2  22
ATOM     22  O   UNL     1      66.758  37.229  46.167  1.00  0.00    -0.502 OA
ATOM     23  H   UNL     1      66.167  36.542  46.618  1.00  0.00     0.293 HD
ENDBRANCH   2  22
BRANCH   6  24
ATOM     24  O   UNL     1      68.275  35.324  41.430  1.00  0.00    -0.507 OA
ATOM     25  H   UNL     1      67.967  34.557  42.008  1.00  0.00     0.293 HD
ENDBRANCH   6  24
BRANCH   8  26
ATOM     26  O   UNL     1      66.699  38.841  38.565  1.00  0.00    -0.508 OA
ATOM     27  H   UNL     1      66.175  39.690  38.391  1.00  0.00     0.293 HD
ENDBRANCH   8  26
TORSDOF 6
ENDMDL
