MODEL 1
REMARK VINA RESULT:    -2.791      0.000      0.000
REMARK INTER + INTRA:          -3.314
REMARK INTER:                  -3.281
REMARK INTRA:                  -0.033
REMARK UNBOUND:                -0.033
REMARK SMILES O=C([O-])CCC(=O)[O-]
REMARK SMILES IDX 4 1 2 2 1 3 3 4 5 5 6 6 7 7 8 8
REMARK H PARENT
REMARK Flexibility Score: inf
ROOT
ATOM      1  C   UNL     1      19.489   8.010  28.916  1.00  0.00     0.059 C 
ENDROOT
BRANCH   1   2
ATOM      2  C   UNL     1      18.738   6.921  28.218  1.00  0.00     0.042 C 
ATOM      3  O   UNL     1      17.509   7.050  27.978  1.00  0.00    -0.550 OA
ATOM      4  O   UNL     1      19.386   5.740  27.875  1.00  0.00    -0.550 OA
ENDBRANCH   1   2
BRANCH   1   5
ATOM      5  C   UNL     1      20.140   8.948  27.899  1.00  0.00     0.059 C 
BRANCH   5   6
ATOM      6  C   UNL     1      20.948   9.996  28.596  1.00  0.00     0.042 C 
ATOM      7  O   UNL     1      20.852  10.145  29.843  1.00  0.00    -0.550 OA
ATOM      8  O   UNL     1      21.843  10.777  27.876  1.00  0.00    -0.550 OA
ENDBRANCH   5   6
ENDBRANCH   1   5
TORSDOF 3
ENDMDL
MODEL 2
REMARK VINA RESULT:    -2.738      0.681      4.284
REMARK INTER + INTRA:          -3.252
REMARK INTER:                  -3.202
REMARK INTRA:                  -0.050
REMARK UNBOUND:                -0.033
REMARK SMILES O=C([O-])CCC(=O)[O-]
REMARK SMILES IDX 4 1 2 2 1 3 3 4 5 5 6 6 7 7 8 8
REMARK H PARENT
REMARK Flexibility Score: inf
ROOT
ATOM      1  C   UNL     1      20.203   8.538  27.888  1.00  0.00     0.059 C 
ENDROOT
BRANCH   1   2
ATOM      2  C   UNL     1      20.652   9.762  28.621  1.00  0.00     0.042 C 
ATOM      3  O   UNL     1      20.459   9.866  29.861  1.00  0.00    -0.550 OA
ATOM      4  O   UNL     1      21.240  10.813  27.926  1.00  0.00    -0.550 OA
ENDBRANCH   1   2
BRANCH   1   5
ATOM      5  C   UNL     1      18.679   8.421  27.926  1.00  0.00     0.059 C 
BRANCH   5   6
ATOM      6  C   UNL     1      18.266   6.983  27.964  1.00  0.00     0.042 C 
ATOM      7  O   UNL     1      19.131   6.073  27.875  1.00  0.00    -0.550 OA
ATOM      8  O   UNL     1      16.931   6.648  28.147  1.00  0.00    -0.550 OA
ENDBRANCH   5   6
ENDBRANCH   1   5
TORSDOF 3
ENDMDL
MODEL 3
REMARK VINA RESULT:    -2.689     22.907     23.372
REMARK INTER + INTRA:          -3.193
REMARK INTER:                  -3.151
REMARK INTRA:                  -0.042
REMARK UNBOUND:                -0.033
REMARK SMILES O=C([O-])CCC(=O)[O-]
REMARK SMILES IDX 4 1 2 2 1 3 3 4 5 5 6 6 7 7 8 8
REMARK H PARENT
REMARK Flexibility Score: inf
ROOT
ATOM      1  C   UNL     1      19.167  23.963  45.533  1.00  0.00     0.059 C 
ENDROOT
BRANCH   1   2
ATOM      2  C   UNL     1      17.745  24.299  45.213  1.00  0.00     0.042 C 
ATOM      3  O   UNL     1      16.875  24.304  46.123  1.00  0.00    -0.550 OA
ATOM      4  O   UNL     1      17.370  24.561  43.901  1.00  0.00    -0.550 OA
ENDBRANCH   1   2
BRANCH   1   5
ATOM      5  C   UNL     1      19.279  23.408  46.953  1.00  0.00     0.059 C 
BRANCH   5   6
ATOM      6  C   UNL     1      20.467  22.506  47.070  1.00  0.00     0.042 C 
ATOM      7  O   UNL     1      20.603  21.765  48.079  1.00  0.00    -0.550 OA
ATOM      8  O   UNL     1      21.401  22.449  46.043  1.00  0.00    -0.550 OA
ENDBRANCH   5   6
ENDBRANCH   1   5
TORSDOF 3
ENDMDL
MODEL 4
REMARK VINA RESULT:    -2.327     19.405     20.501
REMARK INTER + INTRA:          -2.768
REMARK INTER:                  -2.676
REMARK INTRA:                  -0.092
REMARK UNBOUND:                -0.033
REMARK SMILES O=C([O-])CCC(=O)[O-]
REMARK SMILES IDX 4 1 2 2 1 3 3 4 5 5 6 6 7 7 8 8
REMARK H PARENT
REMARK Flexibility Score: inf
ROOT
ATOM      1  C   UNL     1      30.596  23.978  32.002  1.00  0.00     0.059 C 
ENDROOT
BRANCH   1   2
ATOM      2  C   UNL     1      30.757  24.506  30.612  1.00  0.00     0.042 C 
ATOM      3  O   UNL     1      31.888  24.507  30.060  1.00  0.00    -0.550 OA
ATOM      4  O   UNL     1      29.664  25.043  29.941  1.00  0.00    -0.550 OA
ENDBRANCH   1   2
BRANCH   1   5
ATOM      5  C   UNL     1      30.691  25.115  33.020  1.00  0.00     0.059 C 
BRANCH   5   6
ATOM      6  C   UNL     1      31.993  25.053  33.754  1.00  0.00     0.042 C 
ATOM      7  O   UNL     1      33.077  24.979  33.116  1.00  0.00    -0.550 OA
ATOM      8  O   UNL     1      32.015  25.124  35.141  1.00  0.00    -0.550 OA
ENDBRANCH   5   6
ENDBRANCH   1   5
TORSDOF 3
ENDMDL
MODEL 5
REMARK VINA RESULT:    -2.271     18.158     19.311
REMARK INTER + INTRA:          -2.703
REMARK INTER:                  -2.608
REMARK INTRA:                  -0.095
REMARK UNBOUND:                -0.033
REMARK SMILES O=C([O-])CCC(=O)[O-]
REMARK SMILES IDX 4 1 2 2 1 3 3 4 5 5 6 6 7 7 8 8
REMARK H PARENT
REMARK Flexibility Score: inf
ROOT
ATOM      1  C   UNL     1      30.983  23.781  29.922  1.00  0.00     0.059 C 
ENDROOT
BRANCH   1   2
ATOM      2  C   UNL     1      30.017  23.883  28.785  1.00  0.00     0.042 C 
ATOM      3  O   UNL     1      29.274  24.893  28.672  1.00  0.00    -0.550 OA
ATOM      4  O   UNL     1      29.901  22.839  27.875  1.00  0.00    -0.550 OA
ENDBRANCH   1   2
BRANCH   1   5
ATOM      5  C   UNL     1      31.026  25.094  30.706  1.00  0.00     0.059 C 
BRANCH   5   6
ATOM      6  C   UNL     1      30.642  24.864  32.133  1.00  0.00     0.042 C 
ATOM      7  O   UNL     1      31.529  24.762  33.020  1.00  0.00    -0.550 OA
ATOM      8  O   UNL     1      29.301  24.810  32.492  1.00  0.00    -0.550 OA
ENDBRANCH   5   6
ENDBRANCH   1   5
TORSDOF 3
ENDMDL
MODEL 6
REMARK VINA RESULT:    -2.253     18.132     19.454
REMARK INTER + INTRA:          -2.681
REMARK INTER:                  -2.579
REMARK INTRA:                  -0.102
REMARK UNBOUND:                -0.033
REMARK SMILES O=C([O-])CCC(=O)[O-]
REMARK SMILES IDX 4 1 2 2 1 3 3 4 5 5 6 6 7 7 8 8
REMARK H PARENT
REMARK Flexibility Score: inf
ROOT
ATOM      1  C   UNL     1      30.927  25.125  30.710  1.00  0.00     0.059 C 
ENDROOT
BRANCH   1   2
ATOM      2  C   UNL     1      30.498  24.895  32.125  1.00  0.00     0.042 C 
ATOM      3  O   UNL     1      29.274  24.818  32.411  1.00  0.00    -0.550 OA
ATOM      4  O   UNL     1      31.448  24.813  33.136  1.00  0.00    -0.550 OA
ENDBRANCH   1   2
BRANCH   1   5
ATOM      5  C   UNL     1      30.959  23.804  29.940  1.00  0.00     0.059 C 
BRANCH   5   6
ATOM      6  C   UNL     1      29.992  23.841  28.799  1.00  0.00     0.042 C 
ATOM      7  O   UNL     1      29.238  24.837  28.640  1.00  0.00    -0.550 OA
ATOM      8  O   UNL     1      29.956  22.797  27.884  1.00  0.00    -0.550 OA
ENDBRANCH   5   6
ENDBRANCH   1   5
TORSDOF 3
ENDMDL
MODEL 7
REMARK VINA RESULT:    -2.225     19.310     20.685
REMARK INTER + INTRA:          -2.648
REMARK INTER:                  -2.528
REMARK INTRA:                  -0.120
REMARK UNBOUND:                -0.033
REMARK SMILES O=C([O-])CCC(=O)[O-]
REMARK SMILES IDX 4 1 2 2 1 3 3 4 5 5 6 6 7 7 8 8
REMARK H PARENT
REMARK Flexibility Score: inf
ROOT
ATOM      1  C   UNL     1      30.850  25.125  32.941  1.00  0.00     0.059 C 
ENDROOT
BRANCH   1   2
ATOM      2  C   UNL     1      32.154  25.053  33.670  1.00  0.00     0.042 C 
ATOM      3  O   UNL     1      32.175  24.974  34.926  1.00  0.00    -0.550 OA
ATOM      4  O   UNL     1      33.350  25.122  32.965  1.00  0.00    -0.550 OA
ENDBRANCH   1   2
BRANCH   1   5
ATOM      5  C   UNL     1      30.756  24.006  31.903  1.00  0.00     0.059 C 
BRANCH   5   6
ATOM      6  C   UNL     1      30.776  24.573  30.519  1.00  0.00     0.042 C 
ATOM      7  O   UNL     1      31.872  24.836  29.958  1.00  0.00    -0.550 OA
ATOM      8  O   UNL     1      29.586  24.767  29.829  1.00  0.00    -0.550 OA
ENDBRANCH   5   6
ENDBRANCH   1   5
TORSDOF 3
ENDMDL
MODEL 8
REMARK VINA RESULT:    -2.167     18.376     19.713
REMARK INTER + INTRA:          -2.580
REMARK INTER:                  -2.510
REMARK INTRA:                  -0.070
REMARK UNBOUND:                -0.033
REMARK SMILES O=C([O-])CCC(=O)[O-]
REMARK SMILES IDX 4 1 2 2 1 3 3 4 5 5 6 6 7 7 8 8
REMARK H PARENT
REMARK Flexibility Score: inf
ROOT
ATOM      1  C   UNL     1      31.398  25.049  30.908  1.00  0.00     0.059 C 
ENDROOT
BRANCH   1   2
ATOM      2  C   UNL     1      30.779  24.996  32.269  1.00  0.00     0.042 C 
ATOM      3  O   UNL     1      31.494  25.125  33.297  1.00  0.00    -0.550 OA
ATOM      4  O   UNL     1      29.417  24.754  32.405  1.00  0.00    -0.550 OA
ENDBRANCH   1   2
BRANCH   1   5
ATOM      5  C   UNL     1      30.345  24.783  29.831  1.00  0.00     0.059 C 
BRANCH   5   6
ATOM      6  C   UNL     1      30.748  23.618  28.984  1.00  0.00     0.042 C 
ATOM      7  O   UNL     1      29.931  23.115  28.168  1.00  0.00    -0.550 OA
ATOM      8  O   UNL     1      32.041  23.116  29.060  1.00  0.00    -0.550 OA
ENDBRANCH   5   6
ENDBRANCH   1   5
TORSDOF 3
ENDMDL
MODEL 9
REMARK VINA RESULT:    -2.105     19.477     20.364
REMARK INTER + INTRA:          -2.508
REMARK INTER:                  -2.407
REMARK INTRA:                  -0.101
REMARK UNBOUND:                -0.033
REMARK SMILES O=C([O-])CCC(=O)[O-]
REMARK SMILES IDX 4 1 2 2 1 3 3 4 5 5 6 6 7 7 8 8
REMARK H PARENT
REMARK Flexibility Score: inf
ROOT
ATOM      1  C   UNL     1      30.746  24.172  30.697  1.00  0.00     0.059 C 
ENDROOT
BRANCH   1   2
ATOM      2  C   UNL     1      30.428  24.662  32.074  1.00  0.00     0.042 C 
ATOM      3  O   UNL     1      29.251  24.995  32.373  1.00  0.00    -0.550 OA
ATOM      4  O   UNL     1      31.441  24.796  33.016  1.00  0.00    -0.550 OA
ENDBRANCH   1   2
BRANCH   1   5
ATOM      5  C   UNL     1      31.724  25.122  30.004  1.00  0.00     0.059 C 
BRANCH   5   6
ATOM      6  C   UNL     1      33.044  24.451  29.793  1.00  0.00     0.042 C 
ATOM      7  O   UNL     1      33.174  23.574  28.899  1.00  0.00    -0.550 OA
ATOM      8  O   UNL     1      34.145  24.828  30.552  1.00  0.00    -0.550 OA
ENDBRANCH   5   6
ENDBRANCH   1   5
TORSDOF 3
ENDMDL
