MODEL 1
REMARK VINA RESULT:    -3.638      0.000      0.000
REMARK INTER + INTRA:          -5.531
REMARK INTER:                  -5.127
REMARK INTRA:                  -0.404
REMARK UNBOUND:                -0.404
REMARK SMILES CCCCCCCCC(=O)[O-]
REMARK SMILES IDX 6 1 7 2 8 3 9 4 10 5 11 6 5 7 4 8 3 9 2 10 1 11
REMARK H PARENT
REMARK Flexibility Score: inf
ROOT
ATOM      1  C   UNL     1     -22.544   6.334  22.914  1.00  0.00     0.000 C 
ENDROOT
BRANCH   1   2
ATOM      2  C   UNL     1     -21.508   7.385  22.484  1.00  0.00     0.006 C 
BRANCH   2   3
ATOM      3  C   UNL     1     -21.570   7.692  20.983  1.00  0.00     0.053 C 
BRANCH   3   4
ATOM      4  C   UNL     1     -20.797   6.672  20.208  1.00  0.00     0.041 C 
ATOM      5  O   UNL     1     -21.283   6.170  19.160  1.00  0.00    -0.550 OA
ATOM      6  O   UNL     1     -19.562   6.236  20.672  1.00  0.00    -0.550 OA
ENDBRANCH   3   4
ENDBRANCH   2   3
ENDBRANCH   1   2
BRANCH   1   7
ATOM      7  C   UNL     1     -23.971   6.695  22.468  1.00  0.00     0.000 C 
BRANCH   7   8
ATOM      8  C   UNL     1     -25.048   6.077  23.376  1.00  0.00    -0.000 C 
BRANCH   8   9
ATOM      9  C   UNL     1     -24.508   4.917  24.225  1.00  0.00    -0.000 C 
BRANCH   9  10
ATOM     10  C   UNL     1     -25.006   5.019  25.671  1.00  0.00    -0.003 C 
ATOM     11  C   UNL     1     -23.872   4.782  26.664  1.00  0.00     0.004 C 
ENDBRANCH   9  10
ENDBRANCH   8   9
ENDBRANCH   7   8
ENDBRANCH   1   7
TORSDOF 7
ENDMDL
MODEL 2
REMARK VINA RESULT:    -3.580      1.340      1.817
REMARK INTER + INTRA:          -5.449
REMARK INTER:                  -5.016
REMARK INTRA:                  -0.433
REMARK UNBOUND:                -0.404
REMARK SMILES CCCCCCCCC(=O)[O-]
REMARK SMILES IDX 6 1 7 2 8 3 9 4 10 5 11 6 5 7 4 8 3 9 2 10 1 11
REMARK H PARENT
REMARK Flexibility Score: inf
ROOT
ATOM      1  C   UNL     1     -23.068   6.284  21.998  1.00  0.00     0.000 C 
ENDROOT
BRANCH   1   2
ATOM      2  C   UNL     1     -22.240   7.558  21.763  1.00  0.00     0.006 C 
BRANCH   2   3
ATOM      3  C   UNL     1     -21.928   7.792  20.280  1.00  0.00     0.053 C 
BRANCH   3   4
ATOM      4  C   UNL     1     -21.046   6.702  19.754  1.00  0.00     0.041 C 
ATOM      5  O   UNL     1     -21.379   6.061  18.723  1.00  0.00    -0.550 OA
ATOM      6  O   UNL     1     -19.883   6.362  20.432  1.00  0.00    -0.550 OA
ENDBRANCH   3   4
ENDBRANCH   2   3
ENDBRANCH   1   2
BRANCH   1   7
ATOM      7  C   UNL     1     -24.346   6.551  22.811  1.00  0.00     0.000 C 
BRANCH   7   8
ATOM      8  C   UNL     1     -24.676   5.409  23.785  1.00  0.00    -0.000 C 
BRANCH   8   9
ATOM      9  C   UNL     1     -23.449   4.548  24.123  1.00  0.00    -0.000 C 
BRANCH   9  10
ATOM     10  C   UNL     1     -23.746   3.061  23.901  1.00  0.00    -0.003 C 
ATOM     11  C   UNL     1     -23.108   2.558  22.609  1.00  0.00     0.004 C 
ENDBRANCH   9  10
ENDBRANCH   8   9
ENDBRANCH   7   8
ENDBRANCH   1   7
TORSDOF 7
ENDMDL
MODEL 3
REMARK VINA RESULT:    -3.562      1.803      2.879
REMARK INTER + INTRA:          -5.424
REMARK INTER:                  -4.683
REMARK INTRA:                  -0.741
REMARK UNBOUND:                -0.404
REMARK SMILES CCCCCCCCC(=O)[O-]
REMARK SMILES IDX 6 1 7 2 8 3 9 4 10 5 11 6 5 7 4 8 3 9 2 10 1 11
REMARK H PARENT
REMARK Flexibility Score: inf
ROOT
ATOM      1  C   UNL     1     -23.617   7.007  22.197  1.00  0.00     0.000 C 
ENDROOT
BRANCH   1   2
ATOM      2  C   UNL     1     -22.276   7.677  21.860  1.00  0.00     0.006 C 
BRANCH   2   3
ATOM      3  C   UNL     1     -22.021   7.756  20.350  1.00  0.00     0.053 C 
BRANCH   3   4
ATOM      4  C   UNL     1     -21.106   6.654  19.916  1.00  0.00     0.041 C 
ATOM      5  O   UNL     1     -20.054   6.413  20.564  1.00  0.00    -0.550 OA
ATOM      6  O   UNL     1     -21.390   5.928  18.766  1.00  0.00    -0.550 OA
ENDBRANCH   3   4
ENDBRANCH   2   3
ENDBRANCH   1   2
BRANCH   1   7
ATOM      7  C   UNL     1     -23.441   5.661  22.920  1.00  0.00     0.000 C 
BRANCH   7   8
ATOM      8  C   UNL     1     -22.036   5.494  23.523  1.00  0.00    -0.000 C 
BRANCH   8   9
ATOM      9  C   UNL     1     -21.355   4.191  23.078  1.00  0.00    -0.000 C 
BRANCH   9  10
ATOM     10  C   UNL     1     -22.076   3.580  21.872  1.00  0.00    -0.003 C 
ATOM     11  C   UNL     1     -22.555   2.164  22.174  1.00  0.00     0.004 C 
ENDBRANCH   9  10
ENDBRANCH   8   9
ENDBRANCH   7   8
ENDBRANCH   1   7
TORSDOF 7
ENDMDL
MODEL 4
REMARK VINA RESULT:    -3.544      0.921      1.485
REMARK INTER + INTRA:          -5.399
REMARK INTER:                  -4.888
REMARK INTRA:                  -0.511
REMARK UNBOUND:                -0.404
REMARK SMILES CCCCCCCCC(=O)[O-]
REMARK SMILES IDX 6 1 7 2 8 3 9 4 10 5 11 6 5 7 4 8 3 9 2 10 1 11
REMARK H PARENT
REMARK Flexibility Score: inf
ROOT
ATOM      1  C   UNL     1     -22.316   5.926  23.129  1.00  0.00     0.000 C 
ENDROOT
BRANCH   1   2
ATOM      2  C   UNL     1     -21.571   4.993  22.161  1.00  0.00     0.006 C 
BRANCH   2   3
ATOM      3  C   UNL     1     -21.999   5.196  20.703  1.00  0.00     0.053 C 
BRANCH   3   4
ATOM      4  C   UNL     1     -20.959   5.971  19.956  1.00  0.00     0.041 C 
ATOM      5  O   UNL     1     -19.866   6.262  20.511  1.00  0.00    -0.550 OA
ATOM      6  O   UNL     1     -21.216   6.417  18.666  1.00  0.00    -0.550 OA
ENDBRANCH   3   4
ENDBRANCH   2   3
ENDBRANCH   1   2
BRANCH   1   7
ATOM      7  C   UNL     1     -23.561   6.567  22.492  1.00  0.00     0.000 C 
BRANCH   7   8
ATOM      8  C   UNL     1     -24.859   6.194  23.227  1.00  0.00    -0.000 C 
BRANCH   8   9
ATOM      9  C   UNL     1     -24.724   4.898  24.042  1.00  0.00    -0.000 C 
BRANCH   9  10
ATOM     10  C   UNL     1     -25.125   5.126  25.504  1.00  0.00    -0.003 C 
ATOM     11  C   UNL     1     -24.013   4.693  26.454  1.00  0.00     0.004 C 
ENDBRANCH   9  10
ENDBRANCH   8   9
ENDBRANCH   7   8
ENDBRANCH   1   7
TORSDOF 7
ENDMDL
MODEL 5
REMARK VINA RESULT:    -3.487      3.179      5.561
REMARK INTER + INTRA:          -5.318
REMARK INTER:                  -4.788
REMARK INTRA:                  -0.530
REMARK UNBOUND:                -0.404
REMARK SMILES CCCCCCCCC(=O)[O-]
REMARK SMILES IDX 6 1 7 2 8 3 9 4 10 5 11 6 5 7 4 8 3 9 2 10 1 11
REMARK H PARENT
REMARK Flexibility Score: inf
ROOT
ATOM      1  C   UNL     1     -23.457   7.342  22.243  1.00  0.00     0.000 C 
ENDROOT
BRANCH   1   2
ATOM      2  C   UNL     1     -24.336   6.268  22.903  1.00  0.00     0.006 C 
BRANCH   2   3
ATOM      3  C   UNL     1     -23.513   5.206  23.642  1.00  0.00     0.053 C 
BRANCH   3   4
ATOM      4  C   UNL     1     -24.375   4.455  24.608  1.00  0.00     0.041 C 
ATOM      5  O   UNL     1     -24.961   5.066  25.541  1.00  0.00    -0.550 OA
ATOM      6  O   UNL     1     -24.491   3.075  24.508  1.00  0.00    -0.550 OA
ENDBRANCH   3   4
ENDBRANCH   2   3
ENDBRANCH   1   2
BRANCH   1   7
ATOM      7  C   UNL     1     -21.991   7.270  22.704  1.00  0.00     0.000 C 
BRANCH   7   8
ATOM      8  C   UNL     1     -20.999   7.354  21.533  1.00  0.00    -0.000 C 
BRANCH   8   9
ATOM      9  C   UNL     1     -21.693   7.627  20.190  1.00  0.00    -0.000 C 
BRANCH   9  10
ATOM     10  C   UNL     1     -21.351   6.538  19.166  1.00  0.00    -0.003 C 
ATOM     11  C   UNL     1     -21.029   5.215  19.854  1.00  0.00     0.004 C 
ENDBRANCH   9  10
ENDBRANCH   8   9
ENDBRANCH   7   8
ENDBRANCH   1   7
TORSDOF 7
ENDMDL
MODEL 6
REMARK VINA RESULT:    -3.465      1.988      2.652
REMARK INTER + INTRA:          -5.287
REMARK INTER:                  -4.785
REMARK INTRA:                  -0.502
REMARK UNBOUND:                -0.404
REMARK SMILES CCCCCCCCC(=O)[O-]
REMARK SMILES IDX 6 1 7 2 8 3 9 4 10 5 11 6 5 7 4 8 3 9 2 10 1 11
REMARK H PARENT
REMARK Flexibility Score: inf
ROOT
ATOM      1  C   UNL     1     -23.558   6.974  22.199  1.00  0.00     0.000 C 
ENDROOT
BRANCH   1   2
ATOM      2  C   UNL     1     -22.111   7.476  22.070  1.00  0.00     0.006 C 
BRANCH   2   3
ATOM      3  C   UNL     1     -21.697   7.709  20.612  1.00  0.00     0.053 C 
BRANCH   3   4
ATOM      4  C   UNL     1     -20.913   6.542  20.099  1.00  0.00     0.041 C 
ATOM      5  O   UNL     1     -21.447   5.718  19.310  1.00  0.00    -0.550 OA
ATOM      6  O   UNL     1     -19.609   6.336  20.531  1.00  0.00    -0.550 OA
ENDBRANCH   3   4
ENDBRANCH   2   3
ENDBRANCH   1   2
BRANCH   1   7
ATOM      7  C   UNL     1     -23.681   5.758  23.134  1.00  0.00     0.000 C 
BRANCH   7   8
ATOM      8  C   UNL     1     -22.384   4.935  23.206  1.00  0.00    -0.000 C 
BRANCH   8   9
ATOM      9  C   UNL     1     -22.357   3.786  22.187  1.00  0.00    -0.000 C 
BRANCH   9  10
ATOM     10  C   UNL     1     -23.041   2.537  22.753  1.00  0.00    -0.003 C 
ATOM     11  C   UNL     1     -22.703   1.300  21.926  1.00  0.00     0.004 C 
ENDBRANCH   9  10
ENDBRANCH   8   9
ENDBRANCH   7   8
ENDBRANCH   1   7
TORSDOF 7
ENDMDL
MODEL 7
REMARK VINA RESULT:    -3.409     24.284     25.245
REMARK INTER + INTRA:          -5.208
REMARK INTER:                  -4.824
REMARK INTRA:                  -0.384
REMARK UNBOUND:                -0.404
REMARK SMILES CCCCCCCCC(=O)[O-]
REMARK SMILES IDX 6 1 7 2 8 3 9 4 10 5 11 6 5 7 4 8 3 9 2 10 1 11
REMARK H PARENT
REMARK Flexibility Score: inf
ROOT
ATOM      1  C   UNL     1      -6.406  -8.483  32.710  1.00  0.00     0.000 C 
ENDROOT
BRANCH   1   2
ATOM      2  C   UNL     1      -7.097  -9.855  32.667  1.00  0.00     0.006 C 
BRANCH   2   3
ATOM      3  C   UNL     1      -7.547 -10.243  31.253  1.00  0.00     0.053 C 
BRANCH   3   4
ATOM      4  C   UNL     1      -6.741 -11.399  30.748  1.00  0.00     0.041 C 
ATOM      5  O   UNL     1      -5.695 -11.754  31.352  1.00  0.00    -0.550 OA
ATOM      6  O   UNL     1      -7.118 -12.051  29.581  1.00  0.00    -0.550 OA
ENDBRANCH   3   4
ENDBRANCH   2   3
ENDBRANCH   1   2
BRANCH   1   7
ATOM      7  C   UNL     1      -4.984  -8.556  33.293  1.00  0.00     0.000 C 
BRANCH   7   8
ATOM      8  C   UNL     1      -4.959  -9.125  34.721  1.00  0.00    -0.000 C 
BRANCH   8   9
ATOM      9  C   UNL     1      -5.991  -8.455  35.641  1.00  0.00    -0.000 C 
BRANCH   9  10
ATOM     10  C   UNL     1      -5.416  -7.182  36.274  1.00  0.00    -0.003 C 
ATOM     11  C   UNL     1      -6.002  -5.931  35.626  1.00  0.00     0.004 C 
ENDBRANCH   9  10
ENDBRANCH   8   9
ENDBRANCH   7   8
ENDBRANCH   1   7
TORSDOF 7
ENDMDL
MODEL 8
REMARK VINA RESULT:    -3.355      2.367      4.775
REMARK INTER + INTRA:          -5.132
REMARK INTER:                  -4.387
REMARK INTRA:                  -0.745
REMARK UNBOUND:                -0.404
REMARK SMILES CCCCCCCCC(=O)[O-]
REMARK SMILES IDX 6 1 7 2 8 3 9 4 10 5 11 6 5 7 4 8 3 9 2 10 1 11
REMARK H PARENT
REMARK Flexibility Score: inf
ROOT
ATOM      1  C   UNL     1     -22.613   7.283  22.344  1.00  0.00     0.000 C 
ENDROOT
BRANCH   1   2
ATOM      2  C   UNL     1     -23.891   6.440  22.480  1.00  0.00     0.006 C 
BRANCH   2   3
ATOM      3  C   UNL     1     -23.820   5.447  23.646  1.00  0.00     0.053 C 
BRANCH   3   4
ATOM      4  C   UNL     1     -22.777   4.407  23.383  1.00  0.00     0.041 C 
ATOM      5  O   UNL     1     -21.677   4.443  23.996  1.00  0.00    -0.550 OA
ATOM      6  O   UNL     1     -23.000   3.426  22.425  1.00  0.00    -0.550 OA
ENDBRANCH   3   4
ENDBRANCH   2   3
ENDBRANCH   1   2
BRANCH   1   7
ATOM      7  C   UNL     1     -22.354   7.736  20.897  1.00  0.00     0.000 C 
BRANCH   7   8
ATOM      8  C   UNL     1     -21.129   7.049  20.273  1.00  0.00    -0.000 C 
BRANCH   8   9
ATOM      9  C   UNL     1     -21.405   5.589  19.883  1.00  0.00    -0.000 C 
BRANCH   9  10
ATOM     10  C   UNL     1     -20.368   4.650  20.510  1.00  0.00    -0.003 C 
ATOM     11  C   UNL     1     -19.399   5.416  21.405  1.00  0.00     0.004 C 
ENDBRANCH   9  10
ENDBRANCH   8   9
ENDBRANCH   7   8
ENDBRANCH   1   7
TORSDOF 7
ENDMDL
