MODEL 1
REMARK VINA RESULT:    -7.139      0.000      0.000
REMARK INTER + INTRA:          -9.018
REMARK INTER:                  -8.808
REMARK INTRA:                  -0.210
REMARK UNBOUND:                -0.210
REMARK SMILES O=c1c(O)c(-c2cc(O)c(O)c(O)c2)oc2cc(O)cc(O)c12
REMARK SMILES IDX 5 1 3 2 2 3 1 4 23 5 21 6 20 7 18 8 17 9 16 10 15 11 6 12
REMARK SMILES IDX 7 13 8 14 14 15 10 16 12 17 9 18 11 20 13 22 4 24 22 26
REMARK SMILES IDX 19 28
REMARK H PARENT 9 19 11 21 13 23 4 25 22 27 19 29
REMARK Flexibility Score: inf
ROOT
ATOM      1  C   UNL     1      27.692  13.088  65.474  1.00  0.00     0.180 A 
ATOM      2  C   UNL     1      27.219  13.262  66.790  1.00  0.00     0.208 A 
ATOM      3  C   UNL     1      26.143  14.135  67.013  1.00  0.00     0.238 A 
ATOM      4  O   UNL     1      25.718  14.307  68.189  1.00  0.00    -0.285 OA
ATOM      5  C   UNL     1      25.547  14.801  65.923  1.00  0.00     0.111 A 
ATOM      6  C   UNL     1      24.456  15.694  66.063  1.00  0.00     0.134 A 
ATOM      7  C   UNL     1      23.913  16.310  64.927  1.00  0.00     0.093 A 
ATOM      8  C   UNL     1      24.435  16.053  63.657  1.00  0.00     0.123 A 
ATOM      9  C   UNL     1      25.512  15.173  63.512  1.00  0.00     0.094 A 
ATOM     10  C   UNL     1      26.069  14.549  64.633  1.00  0.00     0.146 A 
ATOM     11  O   UNL     1      27.095  13.721  64.468  1.00  0.00    -0.452 OA
ENDROOT
BRANCH   1  12
ATOM     12  C   UNL     1      28.834  12.200  65.160  1.00  0.00     0.029 A 
ATOM     13  C   UNL     1      30.120  12.459  65.658  1.00  0.00     0.062 A 
ATOM     14  C   UNL     1      31.192  11.620  65.330  1.00  0.00     0.162 A 
ATOM     15  C   UNL     1      28.643  11.109  64.300  1.00  0.00     0.062 A 
ATOM     16  C   UNL     1      30.994  10.515  64.489  1.00  0.00     0.200 A 
ATOM     17  C   UNL     1      29.706  10.261  63.964  1.00  0.00     0.162 A 
BRANCH  14  18
ATOM     18  O   UNL     1      32.465  11.879  65.835  1.00  0.00    -0.504 OA
ATOM     19  H   UNL     1      32.600  12.256  66.766  1.00  0.00     0.293 HD
ENDBRANCH  14  18
BRANCH  16  20
ATOM     20  O   UNL     1      32.096   9.706  64.199  1.00  0.00    -0.502 OA
ATOM     21  H   UNL     1      32.638   9.770  63.350  1.00  0.00     0.293 HD
ENDBRANCH  16  20
BRANCH  17  22
ATOM     22  O   UNL     1      29.436   9.188  63.111  1.00  0.00    -0.504 OA
ATOM     23  H   UNL     1      29.299   9.277  62.115  1.00  0.00     0.293 HD
ENDBRANCH  17  22
ENDBRANCH   1  12
BRANCH   2  24
ATOM     24  O   UNL     1      27.796  12.553  67.846  1.00  0.00    -0.502 OA
ATOM     25  H   UNL     1      28.767  12.668  68.109  1.00  0.00     0.293 HD
ENDBRANCH   2  24
BRANCH   6  26
ATOM     26  O   UNL     1      23.912  15.970  67.318  1.00  0.00    -0.507 OA
ATOM     27  H   UNL     1      23.492  16.868  67.530  1.00  0.00     0.293 HD
ENDBRANCH   6  26
BRANCH   8  28
ATOM     28  O   UNL     1      23.875  16.677  62.545  1.00  0.00    -0.508 OA
ATOM     29  H   UNL     1      24.106  17.633  62.301  1.00  0.00     0.293 HD
ENDBRANCH   8  28
TORSDOF 7
ENDMDL
MODEL 2
REMARK VINA RESULT:    -6.919      0.273      1.780
REMARK INTER + INTRA:          -8.746
REMARK INTER:                  -8.561
REMARK INTRA:                  -0.185
REMARK UNBOUND:                -0.210
REMARK SMILES O=c1c(O)c(-c2cc(O)c(O)c(O)c2)oc2cc(O)cc(O)c12
REMARK SMILES IDX 5 1 3 2 2 3 1 4 23 5 21 6 20 7 18 8 17 9 16 10 15 11 6 12
REMARK SMILES IDX 7 13 8 14 14 15 10 16 12 17 9 18 11 20 13 22 4 24 22 26
REMARK SMILES IDX 19 28
REMARK H PARENT 9 19 11 21 13 23 4 25 22 27 19 29
REMARK Flexibility Score: inf
ROOT
ATOM      1  C   UNL     1      27.771  13.111  65.552  1.00  0.00     0.180 A 
ATOM      2  C   UNL     1      27.341  13.190  66.891  1.00  0.00     0.208 A 
ATOM      3  C   UNL     1      26.276  14.045  67.212  1.00  0.00     0.238 A 
ATOM      4  O   UNL     1      25.890  14.132  68.410  1.00  0.00    -0.285 OA
ATOM      5  C   UNL     1      25.648  14.790  66.193  1.00  0.00     0.111 A 
ATOM      6  C   UNL     1      24.566  15.672  66.433  1.00  0.00     0.134 A 
ATOM      7  C   UNL     1      23.989  16.370  65.363  1.00  0.00     0.093 A 
ATOM      8  C   UNL     1      24.469  16.206  64.061  1.00  0.00     0.123 A 
ATOM      9  C   UNL     1      25.538  15.337  63.818  1.00  0.00     0.094 A 
ATOM     10  C   UNL     1      26.128  14.632  64.872  1.00  0.00     0.146 A 
ATOM     11  O   UNL     1      27.145  13.817  64.615  1.00  0.00    -0.452 OA
ENDROOT
BRANCH   1  12
ATOM     12  C   UNL     1      28.899  12.247  65.137  1.00  0.00     0.029 A 
ATOM     13  C   UNL     1      28.701  11.143  64.294  1.00  0.00     0.062 A 
ATOM     14  C   UNL     1      29.777  10.323  63.932  1.00  0.00     0.162 A 
ATOM     15  C   UNL     1      30.184  12.499  65.639  1.00  0.00     0.062 A 
ATOM     16  C   UNL     1      31.065  10.591  64.416  1.00  0.00     0.200 A 
ATOM     17  C   UNL     1      31.269  11.689  65.284  1.00  0.00     0.162 A 
BRANCH  14  18
ATOM     18  O   UNL     1      29.574   9.232  63.088  1.00  0.00    -0.504 OA
ATOM     19  H   UNL     1      29.710   8.280  63.409  1.00  0.00     0.293 HD
ENDBRANCH  14  18
BRANCH  16  20
ATOM     20  O   UNL     1      32.105   9.746  64.017  1.00  0.00    -0.502 OA
ATOM     21  H   UNL     1      33.066   9.857  64.305  1.00  0.00     0.293 HD
ENDBRANCH  16  20
BRANCH  17  22
ATOM     22  O   UNL     1      32.520  12.010  65.816  1.00  0.00    -0.504 OA
ATOM     23  H   UNL     1      32.708  12.840  66.359  1.00  0.00     0.293 HD
ENDBRANCH  17  22
ENDBRANCH   1  12
BRANCH   2  24
ATOM     24  O   UNL     1      27.949  12.404  67.874  1.00  0.00    -0.502 OA
ATOM     25  H   UNL     1      28.779  11.855  67.691  1.00  0.00     0.293 HD
ENDBRANCH   2  24
BRANCH   6  26
ATOM     26  O   UNL     1      24.063  15.857  67.721  1.00  0.00    -0.507 OA
ATOM     27  H   UNL     1      23.536  15.133  68.196  1.00  0.00     0.293 HD
ENDBRANCH   6  26
BRANCH   8  28
ATOM     28  O   UNL     1      23.876  16.911  63.016  1.00  0.00    -0.508 OA
ATOM     29  H   UNL     1      23.730  17.911  63.068  1.00  0.00     0.293 HD
ENDBRANCH   8  28
TORSDOF 7
ENDMDL
MODEL 3
REMARK VINA RESULT:    -6.836      6.926      8.789
REMARK INTER + INTRA:          -8.645
REMARK INTER:                  -8.298
REMARK INTRA:                  -0.346
REMARK UNBOUND:                -0.210
REMARK SMILES O=c1c(O)c(-c2cc(O)c(O)c(O)c2)oc2cc(O)cc(O)c12
REMARK SMILES IDX 5 1 3 2 2 3 1 4 23 5 21 6 20 7 18 8 17 9 16 10 15 11 6 12
REMARK SMILES IDX 7 13 8 14 14 15 10 16 12 17 9 18 11 20 13 22 4 24 22 26
REMARK SMILES IDX 19 28
REMARK H PARENT 9 19 11 21 13 23 4 25 22 27 19 29
REMARK Flexibility Score: inf
ROOT
ATOM      1  C   UNL     1      34.324  12.219  63.664  1.00  0.00     0.180 A 
ATOM      2  C   UNL     1      33.888  12.439  64.985  1.00  0.00     0.208 A 
ATOM      3  C   UNL     1      34.580  13.363  65.783  1.00  0.00     0.238 A 
ATOM      4  O   UNL     1      34.204  13.560  66.971  1.00  0.00    -0.285 OA
ATOM      5  C   UNL     1      35.679  14.063  65.245  1.00  0.00     0.111 A 
ATOM      6  C   UNL     1      36.427  15.014  65.982  1.00  0.00     0.134 A 
ATOM      7  C   UNL     1      37.502  15.676  65.372  1.00  0.00     0.093 A 
ATOM      8  C   UNL     1      37.844  15.408  64.044  1.00  0.00     0.123 A 
ATOM      9  C   UNL     1      37.109  14.471  63.311  1.00  0.00     0.094 A 
ATOM     10  C   UNL     1      36.034  13.799  63.902  1.00  0.00     0.146 A 
ATOM     11  O   UNL     1      35.356  12.909  63.186  1.00  0.00    -0.452 OA
ENDROOT
BRANCH   1  12
ATOM     12  C   UNL     1      33.659  11.248  62.767  1.00  0.00     0.029 A 
ATOM     13  C   UNL     1      33.927   9.873  62.851  1.00  0.00     0.062 A 
ATOM     14  C   UNL     1      33.305   8.973  61.977  1.00  0.00     0.162 A 
ATOM     15  C   UNL     1      32.785  11.712  61.773  1.00  0.00     0.062 A 
ATOM     16  C   UNL     1      32.414   9.437  60.999  1.00  0.00     0.200 A 
ATOM     17  C   UNL     1      32.155  10.823  60.894  1.00  0.00     0.162 A 
BRANCH  14  18
ATOM     18  O   UNL     1      33.571   7.607  62.071  1.00  0.00    -0.504 OA
ATOM     19  H   UNL     1      34.285   7.247  62.694  1.00  0.00     0.293 HD
ENDBRANCH  14  18
BRANCH  16  20
ATOM     20  O   UNL     1      31.814   8.495  60.158  1.00  0.00    -0.502 OA
ATOM     21  H   UNL     1      30.894   8.600  59.756  1.00  0.00     0.293 HD
ENDBRANCH  16  20
BRANCH  17  22
ATOM     22  O   UNL     1      31.289  11.360  59.938  1.00  0.00    -0.504 OA
ATOM     23  H   UNL     1      30.612  10.818  59.421  1.00  0.00     0.293 HD
ENDBRANCH  17  22
ENDBRANCH   1  12
BRANCH   2  24
ATOM     24  O   UNL     1      32.766  11.767  65.478  1.00  0.00    -0.502 OA
ATOM     25  H   UNL     1      31.847  12.193  65.503  1.00  0.00     0.293 HD
ENDBRANCH   2  24
BRANCH   6  26
ATOM     26  O   UNL     1      36.110  15.303  67.310  1.00  0.00    -0.507 OA
ATOM     27  H   UNL     1      35.222  15.033  67.717  1.00  0.00     0.293 HD
ENDBRANCH   6  26
BRANCH   8  28
ATOM     28  O   UNL     1      38.915  16.081  63.462  1.00  0.00    -0.508 OA
ATOM     29  H   UNL     1      39.464  15.663  62.721  1.00  0.00     0.293 HD
ENDBRANCH   8  28
TORSDOF 7
ENDMDL
MODEL 4
REMARK VINA RESULT:    -6.829      4.808      8.427
REMARK INTER + INTRA:          -8.635
REMARK INTER:                  -8.272
REMARK INTRA:                  -0.363
REMARK UNBOUND:                -0.210
REMARK SMILES O=c1c(O)c(-c2cc(O)c(O)c(O)c2)oc2cc(O)cc(O)c12
REMARK SMILES IDX 5 1 3 2 2 3 1 4 23 5 21 6 20 7 18 8 17 9 16 10 15 11 6 12
REMARK SMILES IDX 7 13 8 14 14 15 10 16 12 17 9 18 11 20 13 22 4 24 22 26
REMARK SMILES IDX 19 28
REMARK H PARENT 9 19 11 21 13 23 4 25 22 27 19 29
REMARK Flexibility Score: inf
ROOT
ATOM      1  C   UNL     1      33.184  11.310  65.279  1.00  0.00     0.180 A 
ATOM      2  C   UNL     1      34.172  10.518  65.895  1.00  0.00     0.208 A 
ATOM      3  C   UNL     1      35.437  11.076  66.136  1.00  0.00     0.238 A 
ATOM      4  O   UNL     1      36.332  10.373  66.678  1.00  0.00    -0.285 OA
ATOM      5  C   UNL     1      35.687  12.417  65.777  1.00  0.00     0.111 A 
ATOM      6  C   UNL     1      36.933  13.055  65.989  1.00  0.00     0.134 A 
ATOM      7  C   UNL     1      37.100  14.395  65.611  1.00  0.00     0.093 A 
ATOM      8  C   UNL     1      36.050  15.109  65.029  1.00  0.00     0.123 A 
ATOM      9  C   UNL     1      34.817  14.483  64.817  1.00  0.00     0.094 A 
ATOM     10  C   UNL     1      34.630  13.147  65.185  1.00  0.00     0.146 A 
ATOM     11  O   UNL     1      33.451  12.575  64.967  1.00  0.00    -0.452 OA
ENDROOT
BRANCH   1  12
ATOM     12  C   UNL     1      31.833  10.788  64.974  1.00  0.00     0.029 A 
ATOM     13  C   UNL     1      31.534  10.217  63.728  1.00  0.00     0.062 A 
ATOM     14  C   UNL     1      30.243   9.750  63.451  1.00  0.00     0.162 A 
ATOM     15  C   UNL     1      30.812  10.916  65.928  1.00  0.00     0.062 A 
ATOM     16  C   UNL     1      29.230   9.857  64.415  1.00  0.00     0.200 A 
ATOM     17  C   UNL     1      29.518  10.452  65.665  1.00  0.00     0.162 A 
BRANCH  14  18
ATOM     18  O   UNL     1      29.955   9.177  62.214  1.00  0.00    -0.504 OA
ATOM     19  H   UNL     1      30.206   9.635  61.345  1.00  0.00     0.293 HD
ENDBRANCH  14  18
BRANCH  16  20
ATOM     20  O   UNL     1      27.961   9.369  64.090  1.00  0.00    -0.502 OA
ATOM     21  H   UNL     1      27.143   9.490  64.669  1.00  0.00     0.293 HD
ENDBRANCH  16  20
BRANCH  17  22
ATOM     22  O   UNL     1      28.557  10.605  66.668  1.00  0.00    -0.504 OA
ATOM     23  H   UNL     1      27.586  10.820  66.494  1.00  0.00     0.293 HD
ENDBRANCH  17  22
ENDBRANCH   1  12
BRANCH   2  24
ATOM     24  O   UNL     1      33.883   9.208  66.286  1.00  0.00    -0.502 OA
ATOM     25  H   UNL     1      33.538   8.513  65.635  1.00  0.00     0.293 HD
ENDBRANCH   2  24
BRANCH   6  26
ATOM     26  O   UNL     1      38.001  12.370  66.569  1.00  0.00    -0.507 OA
ATOM     27  H   UNL     1      38.717  11.924  66.006  1.00  0.00     0.293 HD
ENDBRANCH   6  26
BRANCH   8  28
ATOM     28  O   UNL     1      36.242  16.440  64.665  1.00  0.00    -0.508 OA
ATOM     29  H   UNL     1      35.898  17.201  65.238  1.00  0.00     0.293 HD
ENDBRANCH   8  28
TORSDOF 7
ENDMDL
MODEL 5
REMARK VINA RESULT:    -6.771      4.701      8.319
REMARK INTER + INTRA:          -8.564
REMARK INTER:                  -8.205
REMARK INTRA:                  -0.359
REMARK UNBOUND:                -0.210
REMARK SMILES O=c1c(O)c(-c2cc(O)c(O)c(O)c2)oc2cc(O)cc(O)c12
REMARK SMILES IDX 5 1 3 2 2 3 1 4 23 5 21 6 20 7 18 8 17 9 16 10 15 11 6 12
REMARK SMILES IDX 7 13 8 14 14 15 10 16 12 17 9 18 11 20 13 22 4 24 22 26
REMARK SMILES IDX 19 28
REMARK H PARENT 9 19 11 21 13 23 4 25 22 27 19 29
REMARK Flexibility Score: inf
ROOT
ATOM      1  C   UNL     1      33.092  11.374  65.316  1.00  0.00     0.180 A 
ATOM      2  C   UNL     1      34.055  10.549  65.930  1.00  0.00     0.208 A 
ATOM      3  C   UNL     1      35.343  11.061  66.151  1.00  0.00     0.238 A 
ATOM      4  O   UNL     1      36.216  10.328  66.690  1.00  0.00    -0.285 OA
ATOM      5  C   UNL     1      35.640  12.387  65.776  1.00  0.00     0.111 A 
ATOM      6  C   UNL     1      36.912  12.979  65.969  1.00  0.00     0.134 A 
ATOM      7  C   UNL     1      37.127  14.308  65.577  1.00  0.00     0.093 A 
ATOM      8  C   UNL     1      36.098  15.056  64.999  1.00  0.00     0.123 A 
ATOM      9  C   UNL     1      34.840  14.477  64.806  1.00  0.00     0.094 A 
ATOM     10  C   UNL     1      34.606  13.152  65.189  1.00  0.00     0.146 A 
ATOM     11  O   UNL     1      33.404  12.624  64.989  1.00  0.00    -0.452 OA
ENDROOT
BRANCH   1  12
ATOM     12  C   UNL     1      31.717  10.901  65.031  1.00  0.00     0.029 A 
ATOM     13  C   UNL     1      30.693  11.017  65.983  1.00  0.00     0.062 A 
ATOM     14  C   UNL     1      29.406  10.543  65.704  1.00  0.00     0.162 A 
ATOM     15  C   UNL     1      31.443  10.273  63.808  1.00  0.00     0.062 A 
ATOM     16  C   UNL     1      29.127   9.936  64.471  1.00  0.00     0.200 A 
ATOM     17  C   UNL     1      30.160   9.795  63.514  1.00  0.00     0.162 A 
BRANCH  14  18
ATOM     18  O   UNL     1      28.391  10.668  66.652  1.00  0.00    -0.504 OA
ATOM     19  H   UNL     1      27.887  11.538  66.777  1.00  0.00     0.293 HD
ENDBRANCH  14  18
BRANCH  16  20
ATOM     20  O   UNL     1      27.824   9.487  64.240  1.00  0.00    -0.502 OA
ATOM     21  H   UNL     1      27.460   9.251  63.328  1.00  0.00     0.293 HD
ENDBRANCH  16  20
BRANCH  17  22
ATOM     22  O   UNL     1      29.961   9.191  62.271  1.00  0.00    -0.504 OA
ATOM     23  H   UNL     1      29.053   8.975  61.886  1.00  0.00     0.293 HD
ENDBRANCH  17  22
ENDBRANCH   1  12
BRANCH   2  24
ATOM     24  O   UNL     1      33.719   9.255  66.335  1.00  0.00    -0.502 OA
ATOM     25  H   UNL     1      33.831   8.941  67.291  1.00  0.00     0.293 HD
ENDBRANCH   2  24
BRANCH   6  26
ATOM     26  O   UNL     1      37.960  12.258  66.545  1.00  0.00    -0.507 OA
ATOM     27  H   UNL     1      38.706  11.863  65.984  1.00  0.00     0.293 HD
ENDBRANCH   6  26
BRANCH   8  28
ATOM     28  O   UNL     1      36.337  16.375  64.621  1.00  0.00    -0.508 OA
ATOM     29  H   UNL     1      37.135  16.626  64.049  1.00  0.00     0.293 HD
ENDBRANCH   8  28
TORSDOF 7
ENDMDL
MODEL 6
REMARK VINA RESULT:    -6.699      2.822      7.960
REMARK INTER + INTRA:          -8.475
REMARK INTER:                  -8.154
REMARK INTRA:                  -0.321
REMARK UNBOUND:                -0.210
REMARK SMILES O=c1c(O)c(-c2cc(O)c(O)c(O)c2)oc2cc(O)cc(O)c12
REMARK SMILES IDX 5 1 3 2 2 3 1 4 23 5 21 6 20 7 18 8 17 9 16 10 15 11 6 12
REMARK SMILES IDX 7 13 8 14 14 15 10 16 12 17 9 18 11 20 13 22 4 24 22 26
REMARK SMILES IDX 19 28
REMARK H PARENT 9 19 11 21 13 23 4 25 22 27 19 29
REMARK Flexibility Score: inf
ROOT
ATOM      1  C   UNL     1      30.506  10.919  64.095  1.00  0.00     0.180 A 
ATOM      2  C   UNL     1      30.095   9.882  63.234  1.00  0.00     0.208 A 
ATOM      3  C   UNL     1      30.957   9.474  62.204  1.00  0.00     0.238 A 
ATOM      4  O   UNL     1      30.594   8.555  61.420  1.00  0.00    -0.285 OA
ATOM      5  C   UNL     1      32.217  10.091  62.064  1.00  0.00     0.111 A 
ATOM      6  C   UNL     1      33.145   9.735  61.056  1.00  0.00     0.134 A 
ATOM      7  C   UNL     1      34.384  10.389  60.989  1.00  0.00     0.093 A 
ATOM      8  C   UNL     1      34.713  11.389  61.908  1.00  0.00     0.123 A 
ATOM      9  C   UNL     1      33.800  11.745  62.906  1.00  0.00     0.094 A 
ATOM     10  C   UNL     1      32.559  11.105  62.989  1.00  0.00     0.146 A 
ATOM     11  O   UNL     1      31.708  11.467  63.942  1.00  0.00    -0.452 OA
ENDROOT
BRANCH   1  12
ATOM     12  C   UNL     1      29.646  11.418  65.192  1.00  0.00     0.029 A 
ATOM     13  C   UNL     1      28.554  12.261  64.938  1.00  0.00     0.062 A 
ATOM     14  C   UNL     1      27.767  12.742  65.992  1.00  0.00     0.162 A 
ATOM     15  C   UNL     1      29.960  11.090  66.519  1.00  0.00     0.062 A 
ATOM     16  C   UNL     1      28.068  12.393  67.316  1.00  0.00     0.200 A 
ATOM     17  C   UNL     1      29.181  11.562  67.582  1.00  0.00     0.162 A 
BRANCH  14  18
ATOM     18  O   UNL     1      26.679  13.574  65.732  1.00  0.00    -0.504 OA
ATOM     19  H   UNL     1      25.849  13.230  65.262  1.00  0.00     0.293 HD
ENDBRANCH  14  18
BRANCH  16  20
ATOM     20  O   UNL     1      27.246  12.894  68.330  1.00  0.00    -0.502 OA
ATOM     21  H   UNL     1      27.571  13.134  69.255  1.00  0.00     0.293 HD
ENDBRANCH  16  20
BRANCH  17  22
ATOM     22  O   UNL     1      29.550  11.183  68.875  1.00  0.00    -0.504 OA
ATOM     23  H   UNL     1      28.948  10.680  69.511  1.00  0.00     0.293 HD
ENDBRANCH  17  22
ENDBRANCH   1  12
BRANCH   2  24
ATOM     24  O   UNL     1      28.860   9.255  63.424  1.00  0.00    -0.502 OA
ATOM     25  H   UNL     1      28.776   8.255  63.556  1.00  0.00     0.293 HD
ENDBRANCH   2  24
BRANCH   6  26
ATOM     26  O   UNL     1      32.847   8.739  60.125  1.00  0.00    -0.507 OA
ATOM     27  H   UNL     1      33.025   7.760  60.316  1.00  0.00     0.293 HD
ENDBRANCH   6  26
BRANCH   8  28
ATOM     28  O   UNL     1      35.950  12.022  61.820  1.00  0.00    -0.508 OA
ATOM     29  H   UNL     1      36.358  12.502  62.614  1.00  0.00     0.293 HD
ENDBRANCH   8  28
TORSDOF 7
ENDMDL
MODEL 7
REMARK VINA RESULT:    -6.685      5.224      8.706
REMARK INTER + INTRA:          -8.458
REMARK INTER:                  -8.146
REMARK INTRA:                  -0.312
REMARK UNBOUND:                -0.210
REMARK SMILES O=c1c(O)c(-c2cc(O)c(O)c(O)c2)oc2cc(O)cc(O)c12
REMARK SMILES IDX 5 1 3 2 2 3 1 4 23 5 21 6 20 7 18 8 17 9 16 10 15 11 6 12
REMARK SMILES IDX 7 13 8 14 14 15 10 16 12 17 9 18 11 20 13 22 4 24 22 26
REMARK SMILES IDX 19 28
REMARK H PARENT 9 19 11 21 13 23 4 25 22 27 19 29
REMARK Flexibility Score: inf
ROOT
ATOM      1  C   UNL     1      34.184   9.375  61.789  1.00  0.00     0.180 A 
ATOM      2  C   UNL     1      34.696  10.462  62.524  1.00  0.00     0.208 A 
ATOM      3  C   UNL     1      33.829  11.184  63.358  1.00  0.00     0.238 A 
ATOM      4  O   UNL     1      34.274  12.166  64.013  1.00  0.00    -0.285 OA
ATOM      5  C   UNL     1      32.476  10.799  63.459  1.00  0.00     0.111 A 
ATOM      6  C   UNL     1      31.539  11.472  64.280  1.00  0.00     0.134 A 
ATOM      7  C   UNL     1      30.212  11.021  64.333  1.00  0.00     0.093 A 
ATOM      8  C   UNL     1      29.804   9.913  63.585  1.00  0.00     0.123 A 
ATOM      9  C   UNL     1      30.726   9.245  62.773  1.00  0.00     0.094 A 
ATOM     10  C   UNL     1      32.053   9.680  62.705  1.00  0.00     0.146 A 
ATOM     11  O   UNL     1      32.907   9.031  61.920  1.00  0.00    -0.452 OA
ENDROOT
BRANCH   1  12
ATOM     12  C   UNL     1      35.031   8.576  60.874  1.00  0.00     0.029 A 
ATOM     13  C   UNL     1      34.949   8.731  59.481  1.00  0.00     0.062 A 
ATOM     14  C   UNL     1      35.741   7.948  58.631  1.00  0.00     0.162 A 
ATOM     15  C   UNL     1      35.892   7.603  61.402  1.00  0.00     0.062 A 
ATOM     16  C   UNL     1      36.619   6.993  59.163  1.00  0.00     0.200 A 
ATOM     17  C   UNL     1      36.690   6.815  60.564  1.00  0.00     0.162 A 
BRANCH  14  18
ATOM     18  O   UNL     1      35.660   8.113  57.249  1.00  0.00    -0.504 OA
ATOM     19  H   UNL     1      34.791   8.369  56.795  1.00  0.00     0.293 HD
ENDBRANCH  14  18
BRANCH  16  20
ATOM     20  O   UNL     1      37.392   6.244  58.271  1.00  0.00    -0.502 OA
ATOM     21  H   UNL     1      38.382   6.081  58.379  1.00  0.00     0.293 HD
ENDBRANCH  16  20
BRANCH  17  22
ATOM     22  O   UNL     1      37.531   5.875  61.165  1.00  0.00    -0.504 OA
ATOM     23  H   UNL     1      38.490   6.057  61.423  1.00  0.00     0.293 HD
ENDBRANCH  17  22
ENDBRANCH   1  12
BRANCH   2  24
ATOM     24  O   UNL     1      36.051  10.793  62.443  1.00  0.00    -0.502 OA
ATOM     25  H   UNL     1      36.406  11.462  61.771  1.00  0.00     0.293 HD
ENDBRANCH   2  24
BRANCH   6  26
ATOM     26  O   UNL     1      31.915  12.580  65.040  1.00  0.00    -0.507 OA
ATOM     27  H   UNL     1      32.800  13.053  64.890  1.00  0.00     0.293 HD
ENDBRANCH   6  26
BRANCH   8  28
ATOM     28  O   UNL     1      28.481   9.485  63.658  1.00  0.00    -0.508 OA
ATOM     29  H   UNL     1      27.955   9.533  64.522  1.00  0.00     0.293 HD
ENDBRANCH   8  28
TORSDOF 7
ENDMDL
MODEL 8
REMARK VINA RESULT:    -6.611      5.442      7.863
REMARK INTER + INTRA:          -8.367
REMARK INTER:                  -8.008
REMARK INTRA:                  -0.359
REMARK UNBOUND:                -0.210
REMARK SMILES O=c1c(O)c(-c2cc(O)c(O)c(O)c2)oc2cc(O)cc(O)c12
REMARK SMILES IDX 5 1 3 2 2 3 1 4 23 5 21 6 20 7 18 8 17 9 16 10 15 11 6 12
REMARK SMILES IDX 7 13 8 14 14 15 10 16 12 17 9 18 11 20 13 22 4 24 22 26
REMARK SMILES IDX 19 28
REMARK H PARENT 9 19 11 21 13 23 4 25 22 27 19 29
REMARK Flexibility Score: inf
ROOT
ATOM      1  C   UNL     1      33.493  11.890  64.780  1.00  0.00     0.180 A 
ATOM      2  C   UNL     1      32.215  11.831  65.370  1.00  0.00     0.208 A 
ATOM      3  C   UNL     1      31.212  11.076  64.742  1.00  0.00     0.238 A 
ATOM      4  O   UNL     1      30.062  11.025  65.256  1.00  0.00    -0.285 OA
ATOM      5  C   UNL     1      31.506  10.381  63.551  1.00  0.00     0.111 A 
ATOM      6  C   UNL     1      30.552   9.596  62.858  1.00  0.00     0.134 A 
ATOM      7  C   UNL     1      30.925   8.927  61.683  1.00  0.00     0.093 A 
ATOM      8  C   UNL     1      32.228   9.026  61.188  1.00  0.00     0.123 A 
ATOM      9  C   UNL     1      33.173   9.801  61.868  1.00  0.00     0.094 A 
ATOM     10  C   UNL     1      32.821  10.476  63.041  1.00  0.00     0.146 A 
ATOM     11  O   UNL     1      33.737  11.210  63.664  1.00  0.00    -0.452 OA
ENDROOT
BRANCH   1  12
ATOM     12  C   UNL     1      34.597  12.679  65.371  1.00  0.00     0.029 A 
ATOM     13  C   UNL     1      35.459  12.125  66.330  1.00  0.00     0.062 A 
ATOM     14  C   UNL     1      36.483  12.894  66.895  1.00  0.00     0.162 A 
ATOM     15  C   UNL     1      34.754  14.025  65.012  1.00  0.00     0.062 A 
ATOM     16  C   UNL     1      36.653  14.234  66.516  1.00  0.00     0.200 A 
ATOM     17  C   UNL     1      35.774  14.807  65.568  1.00  0.00     0.162 A 
BRANCH  14  18
ATOM     18  O   UNL     1      37.341  12.334  67.841  1.00  0.00    -0.504 OA
ATOM     19  H   UNL     1      38.177  12.816  68.151  1.00  0.00     0.293 HD
ENDBRANCH  14  18
BRANCH  16  20
ATOM     20  O   UNL     1      37.696  14.955  67.105  1.00  0.00    -0.502 OA
ATOM     21  H   UNL     1      38.312  14.583  67.814  1.00  0.00     0.293 HD
ENDBRANCH  16  20
BRANCH  17  22
ATOM     22  O   UNL     1      35.874  16.136  65.152  1.00  0.00    -0.504 OA
ATOM     23  H   UNL     1      35.710  16.447  64.205  1.00  0.00     0.293 HD
ENDBRANCH  17  22
ENDBRANCH   1  12
BRANCH   2  24
ATOM     24  O   UNL     1      31.965  12.489  66.577  1.00  0.00    -0.502 OA
ATOM     25  H   UNL     1      31.125  13.033  66.733  1.00  0.00     0.293 HD
ENDBRANCH   2  24
BRANCH   6  26
ATOM     26  O   UNL     1      29.243   9.477  63.327  1.00  0.00    -0.507 OA
ATOM     27  H   UNL     1      28.799   8.573  63.441  1.00  0.00     0.293 HD
ENDBRANCH   6  26
BRANCH   8  28
ATOM     28  O   UNL     1      32.572   8.350  60.020  1.00  0.00    -0.508 OA
ATOM     29  H   UNL     1      33.214   8.750  59.346  1.00  0.00     0.293 HD
ENDBRANCH   8  28
TORSDOF 7
ENDMDL
MODEL 9
REMARK VINA RESULT:    -6.504      5.940      9.325
REMARK INTER + INTRA:          -8.235
REMARK INTER:                  -7.910
REMARK INTRA:                  -0.325
REMARK UNBOUND:                -0.210
REMARK SMILES O=c1c(O)c(-c2cc(O)c(O)c(O)c2)oc2cc(O)cc(O)c12
REMARK SMILES IDX 5 1 3 2 2 3 1 4 23 5 21 6 20 7 18 8 17 9 16 10 15 11 6 12
REMARK SMILES IDX 7 13 8 14 14 15 10 16 12 17 9 18 11 20 13 22 4 24 22 26
REMARK SMILES IDX 19 28
REMARK H PARENT 9 19 11 21 13 23 4 25 22 27 19 29
REMARK Flexibility Score: inf
ROOT
ATOM      1  C   UNL     1      35.014  12.137  62.620  1.00  0.00     0.180 A 
ATOM      2  C   UNL     1      35.409  11.318  61.544  1.00  0.00     0.208 A 
ATOM      3  C   UNL     1      34.493  10.390  61.027  1.00  0.00     0.238 A 
ATOM      4  O   UNL     1      34.839   9.644  60.071  1.00  0.00    -0.285 OA
ATOM      5  C   UNL     1      33.197  10.308  61.577  1.00  0.00     0.111 A 
ATOM      6  C   UNL     1      32.214   9.402  61.110  1.00  0.00     0.134 A 
ATOM      7  C   UNL     1      30.944   9.388  61.704  1.00  0.00     0.093 A 
ATOM      8  C   UNL     1      30.637  10.260  62.752  1.00  0.00     0.123 A 
ATOM      9  C   UNL     1      31.604  11.157  63.217  1.00  0.00     0.094 A 
ATOM     10  C   UNL     1      32.876  11.185  62.639  1.00  0.00     0.146 A 
ATOM     11  O   UNL     1      33.778  12.043  63.104  1.00  0.00    -0.452 OA
ENDROOT
BRANCH   1  12
ATOM     12  C   UNL     1      35.928  13.128  63.233  1.00  0.00     0.029 A 
ATOM     13  C   UNL     1      36.165  14.373  62.631  1.00  0.00     0.062 A 
ATOM     14  C   UNL     1      37.052  15.287  63.214  1.00  0.00     0.162 A 
ATOM     15  C   UNL     1      36.617  12.797  64.409  1.00  0.00     0.062 A 
ATOM     16  C   UNL     1      37.722  14.963  64.402  1.00  0.00     0.200 A 
ATOM     17  C   UNL     1      37.505  13.701  65.003  1.00  0.00     0.162 A 
BRANCH  14  18
ATOM     18  O   UNL     1      37.277  16.525  62.614  1.00  0.00    -0.504 OA
ATOM     19  H   UNL     1      37.993  16.650  61.908  1.00  0.00     0.293 HD
ENDBRANCH  14  18
BRANCH  16  20
ATOM     20  O   UNL     1      38.590  15.915  64.946  1.00  0.00    -0.502 OA
ATOM     21  H   UNL     1      38.369  16.491  65.745  1.00  0.00     0.293 HD
ENDBRANCH  16  20
BRANCH  17  22
ATOM     22  O   UNL     1      38.146  13.305  66.179  1.00  0.00    -0.504 OA
ATOM     23  H   UNL     1      38.137  12.361  66.538  1.00  0.00     0.293 HD
ENDBRANCH  17  22
ENDBRANCH   1  12
BRANCH   2  24
ATOM     24  O   UNL     1      36.683  11.454  60.986  1.00  0.00    -0.502 OA
ATOM     25  H   UNL     1      36.911  12.189  60.328  1.00  0.00     0.293 HD
ENDBRANCH   2  24
BRANCH   6  26
ATOM     26  O   UNL     1      32.490   8.519  60.065  1.00  0.00    -0.507 OA
ATOM     27  H   UNL     1      32.798   7.569  60.238  1.00  0.00     0.293 HD
ENDBRANCH   6  26
BRANCH   8  28
ATOM     28  O   UNL     1      29.367  10.227  63.323  1.00  0.00    -0.508 OA
ATOM     29  H   UNL     1      28.693  10.965  63.159  1.00  0.00     0.293 HD
ENDBRANCH   8  28
TORSDOF 7
ENDMDL
