MODEL 1
REMARK VINA RESULT:    -5.190      0.000      0.000
REMARK INTER + INTRA:          -7.105
REMARK INTER:                  -7.010
REMARK INTRA:                  -0.095
REMARK UNBOUND:                -0.095
REMARK SMILES [NH3+]CCCC[C@@H]([NH3+])C(=O)[O-]
REMARK SMILES IDX 4 1 3 2 2 3 1 4 5 8 6 9 7 10 8 14 9 15 10 16
REMARK H PARENT 1 5 1 6 1 7 7 11 7 12 7 13
REMARK Flexibility Score: inf
ROOT
ATOM      1  C   UNL     1      34.991  25.625  32.928  1.00  0.00     0.012 C 
ENDROOT
BRANCH   1   2
ATOM      2  C   UNL     1      33.900  24.548  32.845  1.00  0.00     0.061 C 
BRANCH   2   3
ATOM      3  C   UNL     1      32.483  25.141  32.818  1.00  0.00     0.258 C 
BRANCH   3   4
ATOM      4  N   UNL     1      31.719  24.695  31.650  1.00  0.00    -0.358 N 
ATOM      5  H   UNL     1      32.385  24.332  30.930  1.00  0.00     0.344 HD
ATOM      6  H   UNL     1      31.068  23.922  31.914  1.00  0.00     0.344 HD
ATOM      7  H   UNL     1      31.182  25.493  31.239  1.00  0.00     0.344 HD
ENDBRANCH   3   4
ENDBRANCH   2   3
ENDBRANCH   1   2
BRANCH   1   8
ATOM      8  C   UNL     1      36.235  25.093  33.657  1.00  0.00     0.072 C 
BRANCH   8   9
ATOM      9  C   UNL     1      37.243  26.209  34.009  1.00  0.00     0.227 C 
BRANCH   9  10
ATOM     10  N   UNL     1      37.017  27.422  33.208  1.00  0.00    -0.350 N 
ATOM     11  H   UNL     1      36.008  27.699  33.231  1.00  0.00     0.345 HD
ATOM     12  H   UNL     1      37.311  27.259  32.220  1.00  0.00     0.345 HD
ATOM     13  H   UNL     1      37.595  28.209  33.583  1.00  0.00     0.345 HD
ENDBRANCH   9  10
BRANCH   9  14
ATOM     14  C   UNL     1      37.149  26.531  35.476  1.00  0.00     0.099 C 
ATOM     15  O   UNL     1      36.234  26.031  36.184  1.00  0.00    -0.544 OA
ATOM     16  O   UNL     1      38.089  27.368  36.065  1.00  0.00    -0.544 OA
ENDBRANCH   9  14
ENDBRANCH   8   9
ENDBRANCH   1   8
TORSDOF 7
ENDMDL
MODEL 2
REMARK VINA RESULT:    -4.693      0.997      1.499
REMARK INTER + INTRA:          -6.434
REMARK INTER:                  -6.356
REMARK INTRA:                  -0.078
REMARK UNBOUND:                -0.095
REMARK SMILES [NH3+]CCCC[C@@H]([NH3+])C(=O)[O-]
REMARK SMILES IDX 4 1 3 2 2 3 1 4 5 8 6 9 7 10 8 14 9 15 10 16
REMARK H PARENT 1 5 1 6 1 7 7 11 7 12 7 13
REMARK Flexibility Score: inf
ROOT
ATOM      1  C   UNL     1      36.047  24.972  33.373  1.00  0.00     0.012 C 
ENDROOT
BRANCH   1   2
ATOM      2  C   UNL     1      34.664  24.384  33.056  1.00  0.00     0.061 C 
BRANCH   2   3
ATOM      3  C   UNL     1      33.574  25.462  32.939  1.00  0.00     0.258 C 
BRANCH   3   4
ATOM      4  N   UNL     1      32.384  24.970  32.239  1.00  0.00    -0.358 N 
ATOM      5  H   UNL     1      31.532  25.298  32.750  1.00  0.00     0.344 HD
ATOM      6  H   UNL     1      32.351  25.351  31.267  1.00  0.00     0.344 HD
ATOM      7  H   UNL     1      32.380  23.925  32.216  1.00  0.00     0.344 HD
ENDBRANCH   3   4
ENDBRANCH   2   3
ENDBRANCH   1   2
BRANCH   1   8
ATOM      8  C   UNL     1      36.068  25.602  34.774  1.00  0.00     0.072 C 
BRANCH   8   9
ATOM      9  C   UNL     1      37.383  26.356  35.070  1.00  0.00     0.227 C 
BRANCH   9  10
ATOM     10  N   UNL     1      37.795  27.198  33.937  1.00  0.00    -0.350 N 
ATOM     11  H   UNL     1      37.339  26.879  33.051  1.00  0.00     0.345 HD
ATOM     12  H   UNL     1      38.833  27.167  33.825  1.00  0.00     0.345 HD
ATOM     13  H   UNL     1      37.528  28.194  34.118  1.00  0.00     0.345 HD
ENDBRANCH   9  10
BRANCH   9  14
ATOM     14  C   UNL     1      37.218  27.196  36.308  1.00  0.00     0.099 C 
ATOM     15  O   UNL     1      38.125  27.996  36.664  1.00  0.00    -0.544 OA
ATOM     16  O   UNL     1      36.049  27.110  37.055  1.00  0.00    -0.544 OA
ENDBRANCH   9  14
ENDBRANCH   8   9
ENDBRANCH   1   8
TORSDOF 7
ENDMDL
MODEL 3
REMARK VINA RESULT:    -4.664     19.493     20.614
REMARK INTER + INTRA:          -6.395
REMARK INTER:                  -5.938
REMARK INTRA:                  -0.458
REMARK UNBOUND:                -0.095
REMARK SMILES [NH3+]CCCC[C@@H]([NH3+])C(=O)[O-]
REMARK SMILES IDX 4 1 3 2 2 3 1 4 5 8 6 9 7 10 8 14 9 15 10 16
REMARK H PARENT 1 5 1 6 1 7 7 11 7 12 7 13
REMARK Flexibility Score: inf
ROOT
ATOM      1  C   UNL     1      20.067  11.940  39.570  1.00  0.00     0.012 C 
ENDROOT
BRANCH   1   2
ATOM      2  C   UNL     1      19.734  13.268  40.266  1.00  0.00     0.061 C 
BRANCH   2   3
ATOM      3  C   UNL     1      19.036  14.268  39.331  1.00  0.00     0.258 C 
BRANCH   3   4
ATOM      4  N   UNL     1      19.751  15.544  39.256  1.00  0.00    -0.358 N 
ATOM      5  H   UNL     1      19.160  16.289  39.691  1.00  0.00     0.344 HD
ATOM      6  H   UNL     1      20.650  15.489  39.784  1.00  0.00     0.344 HD
ATOM      7  H   UNL     1      19.935  15.802  38.259  1.00  0.00     0.344 HD
ENDBRANCH   3   4
ENDBRANCH   2   3
ENDBRANCH   1   2
BRANCH   1   8
ATOM      8  C   UNL     1      21.396  12.039  38.806  1.00  0.00     0.072 C 
BRANCH   8   9
ATOM      9  C   UNL     1      21.232  11.798  37.289  1.00  0.00     0.227 C 
BRANCH   9  10
ATOM     10  N   UNL     1      20.124  10.875  37.000  1.00  0.00    -0.350 N 
ATOM     11  H   UNL     1      19.202  11.360  37.097  1.00  0.00     0.345 HD
ATOM     12  H   UNL     1      20.158  10.058  37.650  1.00  0.00     0.345 HD
ATOM     13  H   UNL     1      20.214  10.505  36.025  1.00  0.00     0.345 HD
ENDBRANCH   9  10
BRANCH   9  14
ATOM     14  C   UNL     1      21.010  13.111  36.589  1.00  0.00     0.099 C 
ATOM     15  O   UNL     1      21.577  14.159  36.998  1.00  0.00    -0.544 OA
ATOM     16  O   UNL     1      20.191  13.171  35.468  1.00  0.00    -0.544 OA
ENDBRANCH   9  14
ENDBRANCH   8   9
ENDBRANCH   1   8
TORSDOF 7
ENDMDL
MODEL 4
REMARK VINA RESULT:    -4.549      3.100      4.286
REMARK INTER + INTRA:          -6.240
REMARK INTER:                  -5.838
REMARK INTRA:                  -0.401
REMARK UNBOUND:                -0.095
REMARK SMILES [NH3+]CCCC[C@@H]([NH3+])C(=O)[O-]
REMARK SMILES IDX 4 1 3 2 2 3 1 4 5 8 6 9 7 10 8 14 9 15 10 16
REMARK H PARENT 1 5 1 6 1 7 7 11 7 12 7 13
REMARK Flexibility Score: inf
ROOT
ATOM      1  C   UNL     1      37.425  27.149  34.577  1.00  0.00     0.012 C 
ENDROOT
BRANCH   1   2
ATOM      2  C   UNL     1      37.771  27.251  36.070  1.00  0.00     0.061 C 
BRANCH   2   3
ATOM      3  C   UNL     1      36.523  27.317  36.964  1.00  0.00     0.258 C 
BRANCH   3   4
ATOM      4  N   UNL     1      35.461  26.424  36.496  1.00  0.00    -0.358 N 
ATOM      5  H   UNL     1      35.720  26.056  35.552  1.00  0.00     0.344 HD
ATOM      6  H   UNL     1      35.354  25.613  37.146  1.00  0.00     0.344 HD
ATOM      7  H   UNL     1      34.556  26.942  36.416  1.00  0.00     0.344 HD
ENDBRANCH   3   4
ENDBRANCH   2   3
ENDBRANCH   1   2
BRANCH   1   8
ATOM      8  C   UNL     1      38.046  25.890  33.954  1.00  0.00     0.072 C 
BRANCH   8   9
ATOM      9  C   UNL     1      37.231  25.352  32.757  1.00  0.00     0.227 C 
BRANCH   9  10
ATOM     10  N   UNL     1      37.794  24.099  32.232  1.00  0.00    -0.350 N 
ATOM     11  H   UNL     1      38.519  24.294  31.503  1.00  0.00     0.345 HD
ATOM     12  H   UNL     1      37.036  23.509  31.822  1.00  0.00     0.345 HD
ATOM     13  H   UNL     1      38.232  23.552  33.010  1.00  0.00     0.345 HD
ENDBRANCH   9  10
BRANCH   9  14
ATOM     14  C   UNL     1      35.800  25.144  33.171  1.00  0.00     0.099 C 
ATOM     15  O   UNL     1      35.513  24.344  34.102  1.00  0.00    -0.544 OA
ATOM     16  O   UNL     1      34.784  25.854  32.542  1.00  0.00    -0.544 OA
ENDBRANCH   9  14
ENDBRANCH   8   9
ENDBRANCH   1   8
TORSDOF 7
ENDMDL
MODEL 5
REMARK VINA RESULT:    -4.539     18.907     20.245
REMARK INTER + INTRA:          -6.226
REMARK INTER:                  -5.893
REMARK INTRA:                  -0.333
REMARK UNBOUND:                -0.095
REMARK SMILES [NH3+]CCCC[C@@H]([NH3+])C(=O)[O-]
REMARK SMILES IDX 4 1 3 2 2 3 1 4 5 8 6 9 7 10 8 14 9 15 10 16
REMARK H PARENT 1 5 1 6 1 7 7 11 7 12 7 13
REMARK Flexibility Score: inf
ROOT
ATOM      1  C   UNL     1      20.631  11.555  38.538  1.00  0.00     0.012 C 
ENDROOT
BRANCH   1   2
ATOM      2  C   UNL     1      20.786  11.940  40.017  1.00  0.00     0.061 C 
BRANCH   2   3
ATOM      3  C   UNL     1      19.694  12.911  40.494  1.00  0.00     0.258 C 
BRANCH   3   4
ATOM      4  N   UNL     1      18.555  12.955  39.574  1.00  0.00    -0.358 N 
ATOM      5  H   UNL     1      17.748  12.453  40.011  1.00  0.00     0.344 HD
ATOM      6  H   UNL     1      18.268  13.944  39.397  1.00  0.00     0.344 HD
ATOM      7  H   UNL     1      18.795  12.483  38.672  1.00  0.00     0.344 HD
ENDBRANCH   3   4
ENDBRANCH   2   3
ENDBRANCH   1   2
BRANCH   1   8
ATOM      8  C   UNL     1      21.787  12.119  37.699  1.00  0.00     0.072 C 
BRANCH   8   9
ATOM      9  C   UNL     1      21.299  12.981  36.514  1.00  0.00     0.227 C 
BRANCH   9  10
ATOM     10  N   UNL     1      20.003  12.516  35.998  1.00  0.00    -0.350 N 
ATOM     11  H   UNL     1      19.868  12.818  35.005  1.00  0.00     0.345 HD
ATOM     12  H   UNL     1      19.226  12.893  36.585  1.00  0.00     0.345 HD
ATOM     13  H   UNL     1      19.954  11.471  36.046  1.00  0.00     0.345 HD
ENDBRANCH   9  10
BRANCH   9  14
ATOM     14  C   UNL     1      21.200  14.420  36.941  1.00  0.00     0.099 C 
ATOM     15  O   UNL     1      20.438  14.756  37.887  1.00  0.00    -0.544 OA
ATOM     16  O   UNL     1      21.970  15.388  36.307  1.00  0.00    -0.544 OA
ENDBRANCH   9  14
ENDBRANCH   8   9
ENDBRANCH   1   8
TORSDOF 7
ENDMDL
MODEL 6
REMARK VINA RESULT:    -4.470     19.044     20.647
REMARK INTER + INTRA:          -6.133
REMARK INTER:                  -5.609
REMARK INTRA:                  -0.525
REMARK UNBOUND:                -0.095
REMARK SMILES [NH3+]CCCC[C@@H]([NH3+])C(=O)[O-]
REMARK SMILES IDX 4 1 3 2 2 3 1 4 5 8 6 9 7 10 8 14 9 15 10 16
REMARK H PARENT 1 5 1 6 1 7 7 11 7 12 7 13
REMARK Flexibility Score: inf
ROOT
ATOM      1  C   UNL     1      20.958  11.725  37.738  1.00  0.00     0.012 C 
ENDROOT
BRANCH   1   2
ATOM      2  C   UNL     1      21.885  12.705  37.003  1.00  0.00     0.061 C 
BRANCH   2   3
ATOM      3  C   UNL     1      21.111  13.749  36.181  1.00  0.00     0.258 C 
BRANCH   3   4
ATOM      4  N   UNL     1      21.340  15.112  36.666  1.00  0.00    -0.358 N 
ATOM      5  H   UNL     1      21.546  15.731  35.848  1.00  0.00     0.344 HD
ATOM      6  H   UNL     1      20.486  15.477  37.145  1.00  0.00     0.344 HD
ATOM      7  H   UNL     1      22.157  15.136  37.318  1.00  0.00     0.344 HD
ENDBRANCH   3   4
ENDBRANCH   2   3
ENDBRANCH   1   2
BRANCH   1   8
ATOM      8  C   UNL     1      20.883  12.058  39.235  1.00  0.00     0.072 C 
BRANCH   8   9
ATOM      9  C   UNL     1      19.454  12.424  39.694  1.00  0.00     0.227 C 
BRANCH   9  10
ATOM     10  N   UNL     1      19.253  12.146  41.124  1.00  0.00    -0.350 N 
ATOM     11  H   UNL     1      19.456  12.996  41.700  1.00  0.00     0.345 HD
ATOM     12  H   UNL     1      19.873  11.362  41.429  1.00  0.00     0.345 HD
ATOM     13  H   UNL     1      18.264  11.848  41.293  1.00  0.00     0.345 HD
ENDBRANCH   9  10
BRANCH   9  14
ATOM     14  C   UNL     1      19.186  13.876  39.405  1.00  0.00     0.099 C 
ATOM     15  O   UNL     1      18.017  14.273  39.152  1.00  0.00    -0.544 OA
ATOM     16  O   UNL     1      20.227  14.795  39.438  1.00  0.00    -0.544 OA
ENDBRANCH   9  14
ENDBRANCH   8   9
ENDBRANCH   1   8
TORSDOF 7
ENDMDL
MODEL 7
REMARK VINA RESULT:    -4.348     19.398     20.574
REMARK INTER + INTRA:          -5.968
REMARK INTER:                  -5.841
REMARK INTRA:                  -0.127
REMARK UNBOUND:                -0.095
REMARK SMILES [NH3+]CCCC[C@@H]([NH3+])C(=O)[O-]
REMARK SMILES IDX 4 1 3 2 2 3 1 4 5 8 6 9 7 10 8 14 9 15 10 16
REMARK H PARENT 1 5 1 6 1 7 7 11 7 12 7 13
REMARK Flexibility Score: inf
ROOT
ATOM      1  C   UNL     1      21.002  14.638  37.357  1.00  0.00     0.012 C 
ENDROOT
BRANCH   1   2
ATOM      2  C   UNL     1      21.196  14.465  35.843  1.00  0.00     0.061 C 
BRANCH   2   3
ATOM      3  C   UNL     1      20.432  13.254  35.283  1.00  0.00     0.258 C 
BRANCH   3   4
ATOM      4  N   UNL     1      19.493  13.635  34.226  1.00  0.00    -0.358 N 
ATOM      5  H   UNL     1      19.750  13.129  33.347  1.00  0.00     0.344 HD
ATOM      6  H   UNL     1      18.519  13.363  34.488  1.00  0.00     0.344 HD
ATOM      7  H   UNL     1      19.543  14.664  34.047  1.00  0.00     0.344 HD
ENDBRANCH   3   4
ENDBRANCH   2   3
ENDBRANCH   1   2
BRANCH   1   8
ATOM      8  C   UNL     1      20.217  13.459  37.950  1.00  0.00     0.072 C 
BRANCH   8   9
ATOM      9  C   UNL     1      19.624  13.775  39.340  1.00  0.00     0.227 C 
BRANCH   9  10
ATOM     10  N   UNL     1      18.201  14.138  39.257  1.00  0.00    -0.350 N 
ATOM     11  H   UNL     1      17.640  13.605  39.962  1.00  0.00     0.345 HD
ATOM     12  H   UNL     1      17.835  13.940  38.299  1.00  0.00     0.345 HD
ATOM     13  H   UNL     1      18.084  15.163  39.433  1.00  0.00     0.345 HD
ENDBRANCH   9  10
BRANCH   9  14
ATOM     14  C   UNL     1      19.804  12.590  40.249  1.00  0.00     0.099 C 
ATOM     15  O   UNL     1      18.865  12.208  40.998  1.00  0.00    -0.544 OA
ATOM     16  O   UNL     1      21.007  11.893  40.252  1.00  0.00    -0.544 OA
ENDBRANCH   9  14
ENDBRANCH   8   9
ENDBRANCH   1   8
TORSDOF 7
ENDMDL
MODEL 8
REMARK VINA RESULT:    -4.194      2.711      3.042
REMARK INTER + INTRA:          -5.760
REMARK INTER:                  -5.675
REMARK INTRA:                  -0.085
REMARK UNBOUND:                -0.095
REMARK SMILES [NH3+]CCCC[C@@H]([NH3+])C(=O)[O-]
REMARK SMILES IDX 4 1 3 2 2 3 1 4 5 8 6 9 7 10 8 14 9 15 10 16
REMARK H PARENT 1 5 1 6 1 7 7 11 7 12 7 13
REMARK Flexibility Score: inf
ROOT
ATOM      1  C   UNL     1      35.620  25.687  34.219  1.00  0.00     0.012 C 
ENDROOT
BRANCH   1   2
ATOM      2  C   UNL     1      36.056  24.634  33.189  1.00  0.00     0.061 C 
BRANCH   2   3
ATOM      3  C   UNL     1      37.425  24.947  32.565  1.00  0.00     0.258 C 
BRANCH   3   4
ATOM      4  N   UNL     1      38.100  23.741  32.079  1.00  0.00    -0.358 N 
ATOM      5  H   UNL     1      37.490  22.913  32.270  1.00  0.00     0.344 HD
ATOM      6  H   UNL     1      38.257  23.802  31.048  1.00  0.00     0.344 HD
ATOM      7  H   UNL     1      39.011  23.607  32.574  1.00  0.00     0.344 HD
ENDBRANCH   3   4
ENDBRANCH   2   3
ENDBRANCH   1   2
BRANCH   1   8
ATOM      8  C   UNL     1      36.448  25.572  35.507  1.00  0.00     0.072 C 
BRANCH   8   9
ATOM      9  C   UNL     1      37.385  26.781  35.723  1.00  0.00     0.227 C 
BRANCH   9  10
ATOM     10  N   UNL     1      37.374  27.693  34.570  1.00  0.00    -0.350 N 
ATOM     11  H   UNL     1      38.331  28.074  34.388  1.00  0.00     0.345 HD
ATOM     12  H   UNL     1      36.712  28.483  34.744  1.00  0.00     0.345 HD
ATOM     13  H   UNL     1      37.040  27.186  33.718  1.00  0.00     0.345 HD
ENDBRANCH   9  10
BRANCH   9  14
ATOM     14  C   UNL     1      36.981  27.518  36.972  1.00  0.00     0.099 C 
ATOM     15  O   UNL     1      35.802  27.438  37.409  1.00  0.00    -0.544 OA
ATOM     16  O   UNL     1      37.917  28.275  37.665  1.00  0.00    -0.544 OA
ENDBRANCH   9  14
ENDBRANCH   8   9
ENDBRANCH   1   8
TORSDOF 7
ENDMDL
MODEL 9
REMARK VINA RESULT:    -4.129     19.364     20.600
REMARK INTER + INTRA:          -5.672
REMARK INTER:                  -5.234
REMARK INTRA:                  -0.438
REMARK UNBOUND:                -0.095
REMARK SMILES [NH3+]CCCC[C@@H]([NH3+])C(=O)[O-]
REMARK SMILES IDX 4 1 3 2 2 3 1 4 5 8 6 9 7 10 8 14 9 15 10 16
REMARK H PARENT 1 5 1 6 1 7 7 11 7 12 7 13
REMARK Flexibility Score: inf
ROOT
ATOM      1  C   UNL     1      20.102  14.743  39.090  1.00  0.00     0.012 C 
ENDROOT
BRANCH   1   2
ATOM      2  C   UNL     1      18.869  13.850  39.298  1.00  0.00     0.061 C 
BRANCH   2   3
ATOM      3  C   UNL     1      19.031  12.882  40.481  1.00  0.00     0.258 C 
BRANCH   3   4
ATOM      4  N   UNL     1      20.405  12.391  40.608  1.00  0.00    -0.358 N 
ATOM      5  H   UNL     1      21.036  13.199  40.814  1.00  0.00     0.344 HD
ATOM      6  H   UNL     1      20.477  11.710  41.397  1.00  0.00     0.344 HD
ATOM      7  H   UNL     1      20.716  11.942  39.716  1.00  0.00     0.344 HD
ENDBRANCH   3   4
ENDBRANCH   2   3
ENDBRANCH   1   2
BRANCH   1   8
ATOM      8  C   UNL     1      20.664  14.582  37.670  1.00  0.00     0.072 C 
BRANCH   8   9
ATOM      9  C   UNL     1      20.223  13.263  36.999  1.00  0.00     0.227 C 
BRANCH   9  10
ATOM     10  N   UNL     1      20.049  13.422  35.547  1.00  0.00    -0.350 N 
ATOM     11  H   UNL     1      19.311  12.772  35.188  1.00  0.00     0.345 HD
ATOM     12  H   UNL     1      20.950  13.232  35.054  1.00  0.00     0.345 HD
ATOM     13  H   UNL     1      19.772  14.407  35.327  1.00  0.00     0.345 HD
ENDBRANCH   9  10
BRANCH   9  14
ATOM     14  C   UNL     1      21.234  12.186  37.285  1.00  0.00     0.099 C 
ATOM     15  O   UNL     1      22.453  12.367  37.024  1.00  0.00    -0.544 OA
ATOM     16  O   UNL     1      20.829  10.989  37.863  1.00  0.00    -0.544 OA
ENDBRANCH   9  14
ENDBRANCH   8   9
ENDBRANCH   1   8
TORSDOF 7
ENDMDL
