MODEL 1
REMARK VINA RESULT:    -3.326      0.000      0.000
REMARK INTER + INTRA:          -4.664
REMARK INTER:                  -4.395
REMARK INTRA:                  -0.269
REMARK UNBOUND:                -0.269
REMARK SMILES CCCCCCCO
REMARK SMILES IDX 5 1 4 2 3 3 2 4 1 5 6 6 7 7 8 8
REMARK H PARENT 8 9
REMARK Flexibility Score: inf
ROOT
ATOM      1  C   UNL     1     161.602 179.251 179.422  1.00  0.00     0.002 C 
ENDROOT
BRANCH   1   2
ATOM      2  C   UNL     1     161.849 180.125 180.660  1.00  0.00     0.000 C 
BRANCH   2   3
ATOM      3  C   UNL     1     162.427 179.296 181.813  1.00  0.00    -0.000 C 
BRANCH   3   4
ATOM      4  C   UNL     1     163.896 178.940 181.553  1.00  0.00    -0.003 C 
ATOM      5  C   UNL     1     164.096 177.429 181.494  1.00  0.00     0.004 C 
ENDBRANCH   3   4
ENDBRANCH   2   3
ENDBRANCH   1   2
BRANCH   1   6
ATOM      6  C   UNL     1     162.310 179.779 178.163  1.00  0.00     0.028 C 
BRANCH   6   7
ATOM      7  C   UNL     1     163.583 179.004 177.805  1.00  0.00     0.156 C 
BRANCH   7   8
ATOM      8  O   UNL     1     164.439 179.802 177.036  1.00  0.00    -0.396 OA
ATOM      9  H   UNL     1     165.250 179.254 176.868  1.00  0.00     0.210 HD
ENDBRANCH   7   8
ENDBRANCH   6   7
ENDBRANCH   1   6
TORSDOF 6
ENDMDL
MODEL 2
REMARK VINA RESULT:    -3.247     12.411     13.599
REMARK INTER + INTRA:          -4.560
REMARK INTER:                  -4.258
REMARK INTRA:                  -0.302
REMARK UNBOUND:                -0.269
REMARK SMILES CCCCCCCO
REMARK SMILES IDX 5 1 4 2 3 3 2 4 1 5 6 6 7 7 8 8
REMARK H PARENT 8 9
REMARK Flexibility Score: inf
ROOT
ATOM      1  C   UNL     1     177.058 176.881 180.827  1.00  0.00     0.002 C 
ENDROOT
BRANCH   1   2
ATOM      2  C   UNL     1     176.550 177.871 181.884  1.00  0.00     0.000 C 
BRANCH   2   3
ATOM      3  C   UNL     1     176.094 179.183 181.234  1.00  0.00    -0.000 C 
BRANCH   3   4
ATOM      4  C   UNL     1     174.564 179.272 181.188  1.00  0.00    -0.003 C 
ATOM      5  C   UNL     1     174.039 179.013 179.779  1.00  0.00     0.004 C 
ENDBRANCH   3   4
ENDBRANCH   2   3
ENDBRANCH   1   2
BRANCH   1   6
ATOM      6  C   UNL     1     177.535 177.570 179.537  1.00  0.00     0.028 C 
BRANCH   6   7
ATOM      7  C   UNL     1     176.984 176.927 178.259  1.00  0.00     0.156 C 
BRANCH   7   8
ATOM      8  O   UNL     1     177.713 177.360 177.144  1.00  0.00    -0.396 OA
ATOM      9  H   UNL     1     177.763 178.349 177.214  1.00  0.00     0.210 HD
ENDBRANCH   7   8
ENDBRANCH   6   7
ENDBRANCH   1   6
TORSDOF 6
ENDMDL
MODEL 3
REMARK VINA RESULT:    -3.203      1.241      2.810
REMARK INTER + INTRA:          -4.503
REMARK INTER:                  -4.093
REMARK INTRA:                  -0.410
REMARK UNBOUND:                -0.269
REMARK SMILES CCCCCCCO
REMARK SMILES IDX 5 1 4 2 3 3 2 4 1 5 6 6 7 7 8 8
REMARK H PARENT 8 9
REMARK Flexibility Score: inf
ROOT
ATOM      1  C   UNL     1     163.927 178.861 181.493  1.00  0.00     0.002 C 
ENDROOT
BRANCH   1   2
ATOM      2  C   UNL     1     162.462 178.767 181.044  1.00  0.00     0.000 C 
BRANCH   2   3
ATOM      3  C   UNL     1     161.968 180.110 180.492  1.00  0.00    -0.000 C 
BRANCH   3   4
ATOM      4  C   UNL     1     161.465 179.962 179.051  1.00  0.00    -0.003 C 
ATOM      5  C   UNL     1     161.549 178.512 178.583  1.00  0.00     0.004 C 
ENDBRANCH   3   4
ENDBRANCH   2   3
ENDBRANCH   1   2
BRANCH   1   6
ATOM      6  C   UNL     1     164.780 179.758 180.579  1.00  0.00     0.028 C 
BRANCH   6   7
ATOM      7  C   UNL     1     165.350 179.022 179.361  1.00  0.00     0.156 C 
BRANCH   7   8
ATOM      8  O   UNL     1     164.884 179.608 178.176  1.00  0.00    -0.396 OA
ATOM      9  H   UNL     1     164.458 180.465 178.442  1.00  0.00     0.210 HD
ENDBRANCH   7   8
ENDBRANCH   6   7
ENDBRANCH   1   6
TORSDOF 6
ENDMDL
MODEL 4
REMARK VINA RESULT:    -3.166     13.395     14.128
REMARK INTER + INTRA:          -4.453
REMARK INTER:                  -4.039
REMARK INTRA:                  -0.413
REMARK UNBOUND:                -0.269
REMARK SMILES CCCCCCCO
REMARK SMILES IDX 5 1 4 2 3 3 2 4 1 5 6 6 7 7 8 8
REMARK H PARENT 8 9
REMARK Flexibility Score: inf
ROOT
ATOM      1  C   UNL     1     176.436 179.532 181.471  1.00  0.00     0.002 C 
ENDROOT
BRANCH   1   2
ATOM      2  C   UNL     1     176.812 178.106 181.899  1.00  0.00     0.000 C 
BRANCH   2   3
ATOM      3  C   UNL     1     175.914 177.071 181.211  1.00  0.00    -0.000 C 
BRANCH   3   4
ATOM      4  C   UNL     1     176.742 176.098 180.365  1.00  0.00    -0.003 C 
ATOM      5  C   UNL     1     178.236 176.367 180.519  1.00  0.00     0.004 C 
ENDBRANCH   3   4
ENDBRANCH   2   3
ENDBRANCH   1   2
BRANCH   1   6
ATOM      6  C   UNL     1     177.365 180.098 180.383  1.00  0.00     0.028 C 
BRANCH   6   7
ATOM      7  C   UNL     1     176.783 179.997 178.969  1.00  0.00     0.156 C 
BRANCH   7   8
ATOM      8  O   UNL     1     177.430 178.985 178.248  1.00  0.00    -0.396 OA
ATOM      9  H   UNL     1     178.274 179.384 177.909  1.00  0.00     0.210 HD
ENDBRANCH   7   8
ENDBRANCH   6   7
ENDBRANCH   1   6
TORSDOF 6
ENDMDL
MODEL 5
REMARK VINA RESULT:    -3.149      1.736      2.398
REMARK INTER + INTRA:          -4.431
REMARK INTER:                  -4.260
REMARK INTRA:                  -0.171
REMARK UNBOUND:                -0.269
REMARK SMILES CCCCCCCO
REMARK SMILES IDX 5 1 4 2 3 3 2 4 1 5 6 6 7 7 8 8
REMARK H PARENT 8 9
REMARK Flexibility Score: inf
ROOT
ATOM      1  C   UNL     1     164.664 179.137 180.925  1.00  0.00     0.002 C 
ENDROOT
BRANCH   1   2
ATOM      2  C   UNL     1     163.499 178.770 181.855  1.00  0.00     0.000 C 
BRANCH   2   3
ATOM      3  C   UNL     1     162.310 178.222 181.058  1.00  0.00    -0.000 C 
BRANCH   3   4
ATOM      4  C   UNL     1     162.396 176.698 180.919  1.00  0.00    -0.003 C 
ATOM      5  C   UNL     1     161.031 176.047 181.126  1.00  0.00     0.004 C 
ENDBRANCH   3   4
ENDBRANCH   2   3
ENDBRANCH   1   2
BRANCH   1   6
ATOM      6  C   UNL     1     164.197 179.673 179.560  1.00  0.00     0.028 C 
BRANCH   6   7
ATOM      7  C   UNL     1     164.840 178.955 178.368  1.00  0.00     0.156 C 
BRANCH   7   8
ATOM      8  O   UNL     1     164.627 179.682 177.190  1.00  0.00    -0.396 OA
ATOM      9  H   UNL     1     164.060 179.108 176.611  1.00  0.00     0.210 HD
ENDBRANCH   7   8
ENDBRANCH   6   7
ENDBRANCH   1   6
TORSDOF 6
ENDMDL
MODEL 6
REMARK VINA RESULT:    -3.138      2.438      3.318
REMARK INTER + INTRA:          -4.417
REMARK INTER:                  -4.253
REMARK INTRA:                  -0.164
REMARK UNBOUND:                -0.269
REMARK SMILES CCCCCCCO
REMARK SMILES IDX 5 1 4 2 3 3 2 4 1 5 6 6 7 7 8 8
REMARK H PARENT 8 9
REMARK Flexibility Score: inf
ROOT
ATOM      1  C   UNL     1     164.714 178.303 180.893  1.00  0.00     0.002 C 
ENDROOT
BRANCH   1   2
ATOM      2  C   UNL     1     163.702 178.768 181.950  1.00  0.00     0.000 C 
BRANCH   2   3
ATOM      3  C   UNL     1     162.276 178.756 181.388  1.00  0.00    -0.000 C 
BRANCH   3   4
ATOM      4  C   UNL     1     162.075 177.586 180.418  1.00  0.00    -0.003 C 
ATOM      5  C   UNL     1     161.384 176.412 181.106  1.00  0.00     0.004 C 
ENDBRANCH   3   4
ENDBRANCH   2   3
ENDBRANCH   1   2
BRANCH   1   6
ATOM      6  C   UNL     1     165.703 179.407 180.481  1.00  0.00     0.028 C 
BRANCH   6   7
ATOM      7  C   UNL     1     167.159 178.933 180.423  1.00  0.00     0.156 C 
BRANCH   7   8
ATOM      8  O   UNL     1     167.777 179.401 179.255  1.00  0.00    -0.396 OA
ATOM      9  H   UNL     1     168.056 178.593 178.749  1.00  0.00     0.210 HD
ENDBRANCH   7   8
ENDBRANCH   6   7
ENDBRANCH   1   6
TORSDOF 6
ENDMDL
MODEL 7
REMARK VINA RESULT:    -3.111     12.095     13.118
REMARK INTER + INTRA:          -4.380
REMARK INTER:                  -4.047
REMARK INTRA:                  -0.333
REMARK UNBOUND:                -0.269
REMARK SMILES CCCCCCCO
REMARK SMILES IDX 5 1 4 2 3 3 2 4 1 5 6 6 7 7 8 8
REMARK H PARENT 8 9
REMARK Flexibility Score: inf
ROOT
ATOM      1  C   UNL     1     177.485 179.239 179.704  1.00  0.00     0.002 C 
ENDROOT
BRANCH   1   2
ATOM      2  C   UNL     1     177.087 179.689 181.117  1.00  0.00     0.000 C 
BRANCH   2   3
ATOM      3  C   UNL     1     176.376 178.560 181.873  1.00  0.00    -0.000 C 
BRANCH   3   4
ATOM      4  C   UNL     1     175.074 178.160 181.168  1.00  0.00    -0.003 C 
ATOM      5  C   UNL     1     174.092 179.326 181.120  1.00  0.00     0.004 C 
ENDBRANCH   3   4
ENDBRANCH   2   3
ENDBRANCH   1   2
BRANCH   1   6
ATOM      6  C   UNL     1     176.883 180.125 178.599  1.00  0.00     0.028 C 
BRANCH   6   7
ATOM      7  C   UNL     1     175.832 179.408 177.745  1.00  0.00     0.156 C 
BRANCH   7   8
ATOM      8  O   UNL     1     174.628 180.125 177.751  1.00  0.00    -0.396 OA
ATOM      9  H   UNL     1     174.840 181.021 177.378  1.00  0.00     0.210 HD
ENDBRANCH   7   8
ENDBRANCH   6   7
ENDBRANCH   1   6
TORSDOF 6
ENDMDL
MODEL 8
REMARK VINA RESULT:    -0.731     13.497     14.433
REMARK INTER + INTRA:          -1.236
REMARK INTER:                  -1.028
REMARK INTRA:                  -0.208
REMARK UNBOUND:                -0.269
REMARK SMILES CCCCCCCO
REMARK SMILES IDX 5 1 4 2 3 3 2 4 1 5 6 6 7 7 8 8
REMARK H PARENT 8 9
REMARK Flexibility Score: inf
ROOT
ATOM      1  C   UNL     1     176.014 176.517 181.018  1.00  0.00     0.002 C 
ENDROOT
BRANCH   1   2
ATOM      2  C   UNL     1     176.266 177.772 181.866  1.00  0.00     0.000 C 
BRANCH   2   3
ATOM      3  C   UNL     1     175.880 179.041 181.097  1.00  0.00    -0.000 C 
BRANCH   3   4
ATOM      4  C   UNL     1     177.118 179.881 180.763  1.00  0.00    -0.003 C 
ATOM      5  C   UNL     1     177.230 180.125 179.261  1.00  0.00     0.004 C 
ENDBRANCH   3   4
ENDBRANCH   2   3
ENDBRANCH   1   2
BRANCH   1   6
ATOM      6  C   UNL     1     177.256 176.062 180.234  1.00  0.00     0.028 C 
BRANCH   6   7
ATOM      7  C   UNL     1     177.500 174.550 180.297  1.00  0.00     0.156 C 
BRANCH   7   8
ATOM      8  O   UNL     1     178.339 174.148 179.250  1.00  0.00    -0.396 OA
ATOM      9  H   UNL     1     178.104 173.203 179.055  1.00  0.00     0.210 HD
ENDBRANCH   7   8
ENDBRANCH   6   7
ENDBRANCH   1   6
TORSDOF 6
ENDMDL
