MODEL 1
REMARK VINA RESULT:    -3.465      0.000      0.000
REMARK INTER + INTRA:          -4.381
REMARK INTER:                  -4.174
REMARK INTRA:                  -0.207
REMARK UNBOUND:                -0.207
REMARK SMILES OCC(O)CO
REMARK SMILES IDX 3 1 5 2 6 3 2 5 1 6 4 8
REMARK H PARENT 6 4 1 7 4 9
REMARK Flexibility Score: inf
ROOT
ATOM      1  C   UNL     1      15.473  13.108  14.134  1.00  0.00     0.165 C 
ENDROOT
BRANCH   1   2
ATOM      2  C   UNL     1      15.942  13.364  12.693  1.00  0.00     0.190 C 
BRANCH   2   3
ATOM      3  O   UNL     1      15.578  14.653  12.278  1.00  0.00    -0.394 OA
ATOM      4  H   UNL     1      15.953  15.283  12.947  1.00  0.00     0.210 HD
ENDBRANCH   2   3
ENDBRANCH   1   2
BRANCH   1   5
ATOM      5  C   UNL     1      13.949  13.210  14.229  1.00  0.00     0.190 C 
BRANCH   5   6
ATOM      6  O   UNL     1      13.564  14.557  14.205  1.00  0.00    -0.394 OA
ATOM      7  H   UNL     1      12.947  14.652  13.433  1.00  0.00     0.210 HD
ENDBRANCH   5   6
ENDBRANCH   1   5
BRANCH   1   8
ATOM      8  O   UNL     1      16.052  14.051  15.000  1.00  0.00    -0.388 OA
ATOM      9  H   UNL     1      16.929  13.682  15.285  1.00  0.00     0.211 HD
ENDBRANCH   1   8
TORSDOF 5
ENDMDL
MODEL 2
REMARK VINA RESULT:    -3.200     14.227     14.999
REMARK INTER + INTRA:          -4.062
REMARK INTER:                  -4.059
REMARK INTRA:                  -0.002
REMARK UNBOUND:                -0.207
REMARK SMILES OCC(O)CO
REMARK SMILES IDX 3 1 5 2 6 3 2 5 1 6 4 8
REMARK H PARENT 6 4 1 7 4 9
REMARK Flexibility Score: inf
ROOT
ATOM      1  C   UNL     1      21.795  23.370  22.508  1.00  0.00     0.165 C 
ENDROOT
BRANCH   1   2
ATOM      2  C   UNL     1      21.070  23.550  23.851  1.00  0.00     0.190 C 
BRANCH   2   3
ATOM      3  O   UNL     1      21.747  24.476  24.657  1.00  0.00    -0.394 OA
ATOM      4  H   UNL     1      22.531  24.788  24.134  1.00  0.00     0.210 HD
ENDBRANCH   2   3
ENDBRANCH   1   2
BRANCH   1   5
ATOM      5  C   UNL     1      21.829  21.892  22.110  1.00  0.00     0.190 C 
BRANCH   5   6
ATOM      6  O   UNL     1      22.949  21.645  21.306  1.00  0.00    -0.394 OA
ATOM      7  H   UNL     1      23.676  21.372  21.924  1.00  0.00     0.210 HD
ENDBRANCH   5   6
ENDBRANCH   1   5
BRANCH   1   8
ATOM      8  O   UNL     1      23.113  23.849  22.608  1.00  0.00    -0.388 OA
ATOM      9  H   UNL     1      23.627  23.173  23.124  1.00  0.00     0.211 HD
ENDBRANCH   1   8
TORSDOF 5
ENDMDL
MODEL 3
REMARK VINA RESULT:    -3.176     14.146     14.781
REMARK INTER + INTRA:          -4.033
REMARK INTER:                  -4.030
REMARK INTRA:                  -0.003
REMARK UNBOUND:                -0.207
REMARK SMILES OCC(O)CO
REMARK SMILES IDX 3 1 5 2 6 3 2 5 1 6 4 8
REMARK H PARENT 6 4 1 7 4 9
REMARK Flexibility Score: inf
ROOT
ATOM      1  C   UNL     1      21.983  23.313  22.758  1.00  0.00     0.165 C 
ENDROOT
BRANCH   1   2
ATOM      2  C   UNL     1      21.756  21.897  22.206  1.00  0.00     0.190 C 
BRANCH   2   3
ATOM      3  O   UNL     1      22.797  21.532  21.341  1.00  0.00    -0.394 OA
ATOM      4  H   UNL     1      22.424  20.856  20.717  1.00  0.00     0.210 HD
ENDBRANCH   2   3
ENDBRANCH   1   2
BRANCH   1   5
ATOM      5  C   UNL     1      21.052  23.582  23.944  1.00  0.00     0.190 C 
BRANCH   5   6
ATOM      6  O   UNL     1      21.637  24.527  24.797  1.00  0.00    -0.394 OA
ATOM      7  H   UNL     1      21.078  24.539  25.617  1.00  0.00     0.210 HD
ENDBRANCH   5   6
ENDBRANCH   1   5
BRANCH   1   8
ATOM      8  O   UNL     1      21.733  24.263  21.753  1.00  0.00    -0.388 OA
ATOM      9  H   UNL     1      20.748  24.389  21.713  1.00  0.00     0.211 HD
ENDBRANCH   1   8
TORSDOF 5
ENDMDL
MODEL 4
REMARK VINA RESULT:    -3.131     18.909     19.257
REMARK INTER + INTRA:          -3.979
REMARK INTER:                  -3.765
REMARK INTRA:                  -0.214
REMARK UNBOUND:                -0.207
REMARK SMILES OCC(O)CO
REMARK SMILES IDX 3 1 5 2 6 3 2 5 1 6 4 8
REMARK H PARENT 6 4 1 7 4 9
REMARK Flexibility Score: inf
ROOT
ATOM      1  C   UNL     1      27.273  25.978  22.838  1.00  0.00     0.165 C 
ENDROOT
BRANCH   1   2
ATOM      2  C   UNL     1      26.361  27.167  23.179  1.00  0.00     0.190 C 
BRANCH   2   3
ATOM      3  O   UNL     1      25.045  26.912  22.769  1.00  0.00    -0.394 OA
ATOM      4  H   UNL     1      24.917  25.929  22.820  1.00  0.00     0.210 HD
ENDBRANCH   2   3
ENDBRANCH   1   2
BRANCH   1   5
ATOM      5  C   UNL     1      28.039  26.244  21.539  1.00  0.00     0.190 C 
BRANCH   5   6
ATOM      6  O   UNL     1      27.201  26.892  20.622  1.00  0.00    -0.394 OA
ATOM      7  H   UNL     1      26.379  26.339  20.563  1.00  0.00     0.210 HD
ENDBRANCH   5   6
ENDBRANCH   1   5
BRANCH   1   8
ATOM      8  O   UNL     1      26.503  24.813  22.687  1.00  0.00    -0.388 OA
ATOM      9  H   UNL     1      25.728  25.051  22.113  1.00  0.00     0.211 HD
ENDBRANCH   1   8
TORSDOF 5
ENDMDL
MODEL 5
REMARK VINA RESULT:    -3.100     18.866     19.429
REMARK INTER + INTRA:          -3.941
REMARK INTER:                  -3.747
REMARK INTRA:                  -0.194
REMARK UNBOUND:                -0.207
REMARK SMILES OCC(O)CO
REMARK SMILES IDX 3 1 5 2 6 3 2 5 1 6 4 8
REMARK H PARENT 6 4 1 7 4 9
REMARK Flexibility Score: inf
ROOT
ATOM      1  C   UNL     1      27.039  26.983  23.211  1.00  0.00     0.165 C 
ENDROOT
BRANCH   1   2
ATOM      2  C   UNL     1      27.742  26.428  21.963  1.00  0.00     0.190 C 
BRANCH   2   3
ATOM      3  O   UNL     1      27.067  26.822  20.800  1.00  0.00    -0.394 OA
ATOM      4  H   UNL     1      27.732  26.800  20.064  1.00  0.00     0.210 HD
ENDBRANCH   2   3
ENDBRANCH   1   2
BRANCH   1   5
ATOM      5  C   UNL     1      25.909  26.049  23.652  1.00  0.00     0.190 C 
BRANCH   5   6
ATOM      6  O   UNL     1      26.005  24.834  22.961  1.00  0.00    -0.394 OA
ATOM      7  H   UNL     1      26.939  24.521  23.084  1.00  0.00     0.210 HD
ENDBRANCH   5   6
ENDBRANCH   1   5
BRANCH   1   8
ATOM      8  O   UNL     1      26.503  28.252  22.933  1.00  0.00    -0.388 OA
ATOM      9  H   UNL     1      27.109  28.683  22.274  1.00  0.00     0.211 HD
ENDBRANCH   1   8
TORSDOF 5
ENDMDL
MODEL 6
REMARK VINA RESULT:    -3.036     13.878     14.645
REMARK INTER + INTRA:          -3.864
REMARK INTER:                  -3.848
REMARK INTRA:                  -0.016
REMARK UNBOUND:                -0.207
REMARK SMILES OCC(O)CO
REMARK SMILES IDX 3 1 5 2 6 3 2 5 1 6 4 8
REMARK H PARENT 6 4 1 7 4 9
REMARK Flexibility Score: inf
ROOT
ATOM      1  C   UNL     1      21.594  23.191  22.714  1.00  0.00     0.165 C 
ENDROOT
BRANCH   1   2
ATOM      2  C   UNL     1      21.812  21.791  22.117  1.00  0.00     0.190 C 
BRANCH   2   3
ATOM      3  O   UNL     1      20.883  20.882  22.641  1.00  0.00    -0.394 OA
ATOM      4  H   UNL     1      20.218  21.416  23.148  1.00  0.00     0.210 HD
ENDBRANCH   2   3
ENDBRANCH   1   2
BRANCH   1   5
ATOM      5  C   UNL     1      22.928  23.800  23.155  1.00  0.00     0.190 C 
BRANCH   5   6
ATOM      6  O   UNL     1      23.980  23.179  22.469  1.00  0.00    -0.394 OA
ATOM      7  H   UNL     1      24.709  23.851  22.418  1.00  0.00     0.210 HD
ENDBRANCH   5   6
ENDBRANCH   1   5
BRANCH   1   8
ATOM      8  O   UNL     1      20.737  23.109  23.824  1.00  0.00    -0.388 OA
ATOM      9  H   UNL     1      21.142  22.457  24.455  1.00  0.00     0.211 HD
ENDBRANCH   1   8
TORSDOF 5
ENDMDL
MODEL 7
REMARK VINA RESULT:    -3.004      0.624      2.333
REMARK INTER + INTRA:          -3.825
REMARK INTER:                  -3.649
REMARK INTRA:                  -0.176
REMARK UNBOUND:                -0.207
REMARK SMILES OCC(O)CO
REMARK SMILES IDX 3 1 5 2 6 3 2 5 1 6 4 8
REMARK H PARENT 6 4 1 7 4 9
REMARK Flexibility Score: inf
ROOT
ATOM      1  C   UNL     1      15.406  13.788  14.278  1.00  0.00     0.165 C 
ENDROOT
BRANCH   1   2
ATOM      2  C   UNL     1      13.890  13.535  14.245  1.00  0.00     0.190 C 
BRANCH   2   3
ATOM      3  O   UNL     1      13.191  14.744  14.121  1.00  0.00    -0.394 OA
ATOM      4  H   UNL     1      13.874  15.458  14.027  1.00  0.00     0.210 HD
ENDBRANCH   2   3
ENDBRANCH   1   2
BRANCH   1   5
ATOM      5  C   UNL     1      16.006  13.630  12.879  1.00  0.00     0.190 C 
BRANCH   5   6
ATOM      6  O   UNL     1      15.621  14.710  12.075  1.00  0.00    -0.394 OA
ATOM      7  H   UNL     1      14.694  14.516  11.778  1.00  0.00     0.210 HD
ENDBRANCH   5   6
ENDBRANCH   1   5
BRANCH   1   8
ATOM      8  O   UNL     1      16.024  12.875  15.149  1.00  0.00    -0.388 OA
ATOM      9  H   UNL     1      15.446  12.808  15.955  1.00  0.00     0.211 HD
ENDBRANCH   1   8
TORSDOF 5
ENDMDL
MODEL 8
REMARK VINA RESULT:    -2.980     19.719     20.412
REMARK INTER + INTRA:          -3.797
REMARK INTER:                  -3.579
REMARK INTRA:                  -0.218
REMARK UNBOUND:                -0.207
REMARK SMILES OCC(O)CO
REMARK SMILES IDX 3 1 5 2 6 3 2 5 1 6 4 8
REMARK H PARENT 6 4 1 7 4 9
REMARK Flexibility Score: inf
ROOT
ATOM      1  C   UNL     1      27.815  26.216  21.819  1.00  0.00     0.165 C 
ENDROOT
BRANCH   1   2
ATOM      2  C   UNL     1      27.182  26.779  23.101  1.00  0.00     0.190 C 
BRANCH   2   3
ATOM      3  O   UNL     1      26.656  28.058  22.870  1.00  0.00    -0.394 OA
ATOM      4  H   UNL     1      25.693  27.935  22.664  1.00  0.00     0.210 HD
ENDBRANCH   2   3
ENDBRANCH   1   2
BRANCH   1   5
ATOM      5  C   UNL     1      29.327  26.457  21.816  1.00  0.00     0.190 C 
BRANCH   5   6
ATOM      6  O   UNL     1      29.601  27.744  22.295  1.00  0.00    -0.394 OA
ATOM      7  H   UNL     1      29.741  28.312  21.493  1.00  0.00     0.210 HD
ENDBRANCH   5   6
ENDBRANCH   1   5
BRANCH   1   8
ATOM      8  O   UNL     1      27.249  26.837  20.693  1.00  0.00    -0.388 OA
ATOM      9  H   UNL     1      27.786  26.555  19.906  1.00  0.00     0.211 HD
ENDBRANCH   1   8
TORSDOF 5
ENDMDL
MODEL 9
REMARK VINA RESULT:    -2.929     19.715     20.249
REMARK INTER + INTRA:          -3.736
REMARK INTER:                  -3.523
REMARK INTRA:                  -0.213
REMARK UNBOUND:                -0.207
REMARK SMILES OCC(O)CO
REMARK SMILES IDX 3 1 5 2 6 3 2 5 1 6 4 8
REMARK H PARENT 6 4 1 7 4 9
REMARK Flexibility Score: inf
ROOT
ATOM      1  C   UNL     1      28.328  26.707  22.729  1.00  0.00     0.165 C 
ENDROOT
BRANCH   1   2
ATOM      2  C   UNL     1      28.233  26.245  21.266  1.00  0.00     0.190 C 
BRANCH   2   3
ATOM      3  O   UNL     1      27.127  26.830  20.635  1.00  0.00    -0.394 OA
ATOM      4  H   UNL     1      27.484  27.383  19.891  1.00  0.00     0.210 HD
ENDBRANCH   2   3
ENDBRANCH   1   2
BRANCH   1   5
ATOM      5  C   UNL     1      26.931  26.952  23.306  1.00  0.00     0.190 C 
BRANCH   5   6
ATOM      6  O   UNL     1      26.509  28.249  22.987  1.00  0.00    -0.394 OA
ATOM      7  H   UNL     1      26.711  28.807  23.783  1.00  0.00     0.210 HD
ENDBRANCH   5   6
ENDBRANCH   1   5
BRANCH   1   8
ATOM      8  O   UNL     1      29.072  27.896  22.808  1.00  0.00    -0.388 OA
ATOM      9  H   UNL     1      29.161  28.117  23.773  1.00  0.00     0.211 HD
ENDBRANCH   1   8
TORSDOF 5
ENDMDL
