MODEL 1
REMARK VINA RESULT:    -4.086      0.000      0.000
REMARK INTER + INTRA:          -7.788
REMARK INTER:                  -6.236
REMARK INTRA:                  -1.553
REMARK UNBOUND:                -1.553
REMARK SMILES OC[C@@H]1O[C@@](CO)(O[C@H]2O[C@@H](CO)[C@@H](O)[C@H](O)[C@H]2O)[C@H](O)[C@@H]1O
REMARK SMILES IDX 8 1 9 2 11 3 14 4 10 5 16 6 18 7 12 8 13 9 15 11 17 13 19 15
REMARK SMILES IDX 5 17 20 18 4 19 22 20 3 21 6 22 7 23 21 25 23 27 2 29 1 30
REMARK H PARENT 13 10 15 12 17 14 19 16 7 24 21 26 23 28 1 31
REMARK Flexibility Score: inf
ROOT
ATOM      1  O   UNL     1     -18.835  -7.152  18.501  1.00  0.00    -0.313 OA
ENDROOT
BRANCH   1   2
ATOM      2  C   UNL     1     -19.443  -6.847  17.251  1.00  0.00     0.285 C 
ATOM      3  C   UNL     1     -21.540  -7.924  17.675  1.00  0.00     0.178 C 
ATOM      4  C   UNL     1     -22.264  -6.560  17.826  1.00  0.00     0.177 C 
ATOM      5  O   UNL     1     -20.361  -7.865  16.877  1.00  0.00    -0.341 OA
ATOM      6  C   UNL     1     -21.299  -5.438  18.228  1.00  0.00     0.179 C 
ATOM      7  C   UNL     1     -20.091  -5.453  17.286  1.00  0.00     0.202 C 
BRANCH   3   8
ATOM      8  C   UNL     1     -21.344  -8.727  18.982  1.00  0.00     0.191 C 
BRANCH   8   9
ATOM      9  O   UNL     1     -20.437  -9.782  18.823  1.00  0.00    -0.394 OA
ATOM     10  H   UNL     1     -19.649  -9.557  19.382  1.00  0.00     0.210 HD
ENDBRANCH   8   9
ENDBRANCH   3   8
BRANCH   4  11
ATOM     11  O   UNL     1     -23.307  -6.669  18.762  1.00  0.00    -0.387 OA
ATOM     12  H   UNL     1     -23.013  -7.321  19.450  1.00  0.00     0.211 HD
ENDBRANCH   4  11
BRANCH   6  13
ATOM     13  O   UNL     1     -21.965  -4.205  18.129  1.00  0.00    -0.387 OA
ATOM     14  H   UNL     1     -22.859  -4.386  17.737  1.00  0.00     0.211 HD
ENDBRANCH   6  13
BRANCH   7  15
ATOM     15  O   UNL     1     -19.137  -4.510  17.705  1.00  0.00    -0.385 OA
ATOM     16  H   UNL     1     -19.443  -4.156  18.581  1.00  0.00     0.211 HD
ENDBRANCH   7  15
ENDBRANCH   1   2
BRANCH   1  17
ATOM     17  C   UNL     1     -17.426  -7.365  18.427  1.00  0.00     0.224 C 
ATOM     18  C   UNL     1     -17.022  -7.357  16.927  1.00  0.00     0.208 C 
ATOM     19  O   UNL     1     -16.708  -6.320  19.076  1.00  0.00    -0.337 OA
ATOM     20  C   UNL     1     -15.865  -6.381  16.860  1.00  0.00     0.180 C 
ATOM     21  C   UNL     1     -16.116  -5.513  18.088  1.00  0.00     0.179 C 
BRANCH  17  22
ATOM     22  C   UNL     1     -17.072  -8.704  19.121  1.00  0.00     0.225 C 
BRANCH  22  23
ATOM     23  O   UNL     1     -15.702  -8.973  18.995  1.00  0.00    -0.391 OA
ATOM     24  H   UNL     1     -15.246  -8.092  18.993  1.00  0.00     0.210 HD
ENDBRANCH  22  23
ENDBRANCH  17  22
BRANCH  18  25
ATOM     25  O   UNL     1     -16.670  -8.625  16.432  1.00  0.00    -0.385 OA
ATOM     26  H   UNL     1     -15.684  -8.701  16.521  1.00  0.00     0.211 HD
ENDBRANCH  18  25
BRANCH  20  27
ATOM     27  O   UNL     1     -14.615  -7.033  16.899  1.00  0.00    -0.387 OA
ATOM     28  H   UNL     1     -14.415  -7.268  17.841  1.00  0.00     0.211 HD
ENDBRANCH  20  27
BRANCH  21  29
ATOM     29  C   UNL     1     -14.859  -4.830  18.648  1.00  0.00     0.191 C 
BRANCH  29  30
ATOM     30  O   UNL     1     -14.190  -4.117  17.642  1.00  0.00    -0.394 OA
ATOM     31  H   UNL     1     -13.221  -4.178  17.848  1.00  0.00     0.210 HD
ENDBRANCH  29  30
ENDBRANCH  21  29
ENDBRANCH   1  17
TORSDOF 13
ENDMDL
MODEL 2
REMARK VINA RESULT:    -4.029      3.325      5.686
REMARK INTER + INTRA:          -7.702
REMARK INTER:                  -6.129
REMARK INTRA:                  -1.573
REMARK UNBOUND:                -1.553
REMARK SMILES OC[C@@H]1O[C@@](CO)(O[C@H]2O[C@@H](CO)[C@@H](O)[C@H](O)[C@H]2O)[C@H](O)[C@@H]1O
REMARK SMILES IDX 8 1 9 2 11 3 14 4 10 5 16 6 18 7 12 8 13 9 15 11 17 13 19 15
REMARK SMILES IDX 5 17 20 18 4 19 22 20 3 21 6 22 7 23 21 25 23 27 2 29 1 30
REMARK H PARENT 13 10 15 12 17 14 19 16 7 24 21 26 23 28 1 31
REMARK Flexibility Score: inf
ROOT
ATOM      1  O   UNL     1     -13.805  -7.148  17.035  1.00  0.00    -0.313 OA
ENDROOT
BRANCH   1   2
ATOM      2  C   UNL     1     -14.733  -7.689  17.968  1.00  0.00     0.285 C 
ATOM      3  C   UNL     1     -15.448  -5.605  18.910  1.00  0.00     0.178 C 
ATOM      4  C   UNL     1     -16.824  -5.702  18.201  1.00  0.00     0.177 C 
ATOM      5  O   UNL     1     -14.821  -6.867  19.124  1.00  0.00    -0.341 OA
ATOM      6  C   UNL     1     -16.765  -6.584  16.947  1.00  0.00     0.179 C 
ATOM      7  C   UNL     1     -16.102  -7.918  17.304  1.00  0.00     0.202 C 
BRANCH   3   8
ATOM      8  C   UNL     1     -14.479  -4.537  18.352  1.00  0.00     0.191 C 
BRANCH   8   9
ATOM      9  O   UNL     1     -13.207  -4.624  18.930  1.00  0.00    -0.394 OA
ATOM     10  H   UNL     1     -13.176  -3.931  19.639  1.00  0.00     0.210 HD
ENDBRANCH   8   9
ENDBRANCH   3   8
BRANCH   4  11
ATOM     11  O   UNL     1     -17.289  -4.416  17.873  1.00  0.00    -0.387 OA
ATOM     12  H   UNL     1     -18.225  -4.516  17.560  1.00  0.00     0.211 HD
ENDBRANCH   4  11
BRANCH   6  13
ATOM     13  O   UNL     1     -18.072  -6.811  16.485  1.00  0.00    -0.387 OA
ATOM     14  H   UNL     1     -18.595  -7.166  17.251  1.00  0.00     0.211 HD
ENDBRANCH   6  13
BRANCH   7  15
ATOM     15  O   UNL     1     -15.929  -8.699  16.149  1.00  0.00    -0.385 OA
ATOM     16  H   UNL     1     -15.209  -8.273  15.614  1.00  0.00     0.211 HD
ENDBRANCH   7  15
ENDBRANCH   1   2
BRANCH   1  17
ATOM     17  C   UNL     1     -12.466  -7.607  17.213  1.00  0.00     0.224 C 
ATOM     18  C   UNL     1     -11.809  -7.715  15.809  1.00  0.00     0.208 C 
ATOM     19  O   UNL     1     -11.699  -6.686  17.981  1.00  0.00    -0.337 OA
ATOM     20  C   UNL     1     -10.503  -6.960  15.951  1.00  0.00     0.180 C 
ATOM     21  C   UNL     1     -10.808  -6.025  17.116  1.00  0.00     0.179 C 
BRANCH  17  22
ATOM     22  C   UNL     1     -12.484  -8.966  17.957  1.00  0.00     0.225 C 
BRANCH  22  23
ATOM     23  O   UNL     1     -11.178  -9.446  18.129  1.00  0.00    -0.391 OA
ATOM     24  H   UNL     1     -10.894  -9.155  19.034  1.00  0.00     0.210 HD
ENDBRANCH  22  23
ENDBRANCH  17  22
BRANCH  18  25
ATOM     25  O   UNL     1     -11.608  -9.040  15.382  1.00  0.00    -0.385 OA
ATOM     26  H   UNL     1     -10.762  -9.348  15.802  1.00  0.00     0.211 HD
ENDBRANCH  18  25
BRANCH  20  27
ATOM     27  O   UNL     1      -9.416  -7.820  16.211  1.00  0.00    -0.387 OA
ATOM     28  H   UNL     1      -9.077  -7.627  17.123  1.00  0.00     0.211 HD
ENDBRANCH  20  27
BRANCH  21  29
ATOM     29  C   UNL     1      -9.567  -5.557  17.893  1.00  0.00     0.191 C 
BRANCH  29  30
ATOM     30  O   UNL     1      -9.057  -4.370  17.348  1.00  0.00    -0.394 OA
ATOM     31  H   UNL     1      -9.825  -3.892  16.940  1.00  0.00     0.210 HD
ENDBRANCH  29  30
ENDBRANCH  21  29
ENDBRANCH   1  17
TORSDOF 13
ENDMDL
MODEL 3
REMARK VINA RESULT:    -3.912      1.578      6.257
REMARK INTER + INTRA:          -7.524
REMARK INTER:                  -5.955
REMARK INTRA:                  -1.569
REMARK UNBOUND:                -1.553
REMARK SMILES OC[C@@H]1O[C@@](CO)(O[C@H]2O[C@@H](CO)[C@@H](O)[C@H](O)[C@H]2O)[C@H](O)[C@@H]1O
REMARK SMILES IDX 8 1 9 2 11 3 14 4 10 5 16 6 18 7 12 8 13 9 15 11 17 13 19 15
REMARK SMILES IDX 5 17 20 18 4 19 22 20 3 21 6 22 7 23 21 25 23 27 2 29 1 30
REMARK H PARENT 13 10 15 12 17 14 19 16 7 24 21 26 23 28 1 31
REMARK Flexibility Score: inf
ROOT
ATOM      1  O   UNL     1     -17.341  -6.739  18.417  1.00  0.00    -0.313 OA
ENDROOT
BRANCH   1   2
ATOM      2  C   UNL     1     -16.784  -7.503  17.354  1.00  0.00     0.285 C 
ATOM      3  C   UNL     1     -14.567  -6.604  17.481  1.00  0.00     0.178 C 
ATOM      4  C   UNL     1     -14.016  -7.921  18.089  1.00  0.00     0.177 C 
ATOM      5  O   UNL     1     -15.748  -6.778  16.704  1.00  0.00    -0.341 OA
ATOM      6  C   UNL     1     -15.111  -8.729  18.798  1.00  0.00     0.179 C 
ATOM      7  C   UNL     1     -16.312  -8.877  17.859  1.00  0.00     0.202 C 
BRANCH   3   8
ATOM      8  C   UNL     1     -14.655  -5.403  18.452  1.00  0.00     0.191 C 
BRANCH   8   9
ATOM      9  O   UNL     1     -15.476  -4.383  17.956  1.00  0.00    -0.394 OA
ATOM     10  H   UNL     1     -15.332  -4.363  16.975  1.00  0.00     0.210 HD
ENDBRANCH   8   9
ENDBRANCH   3   8
BRANCH   4  11
ATOM     11  O   UNL     1     -12.963  -7.639  18.976  1.00  0.00    -0.387 OA
ATOM     12  H   UNL     1     -12.117  -7.772  18.474  1.00  0.00     0.211 HD
ENDBRANCH   4  11
BRANCH   6  13
ATOM     13  O   UNL     1     -14.603  -9.998  19.124  1.00  0.00    -0.387 OA
ATOM     14  H   UNL     1     -14.834 -10.169  20.075  1.00  0.00     0.211 HD
ENDBRANCH   6  13
BRANCH   7  15
ATOM     15  O   UNL     1     -17.374  -9.512  18.526  1.00  0.00    -0.385 OA
ATOM     16  H   UNL     1     -18.055  -8.816  18.717  1.00  0.00     0.211 HD
ENDBRANCH   7  15
ENDBRANCH   1   2
BRANCH   1  17
ATOM     17  C   UNL     1     -18.712  -6.390  18.226  1.00  0.00     0.224 C 
ATOM     18  C   UNL     1     -19.110  -6.797  16.780  1.00  0.00     0.208 C 
ATOM     19  O   UNL     1     -19.559  -7.097  19.125  1.00  0.00    -0.337 OA
ATOM     20  C   UNL     1     -20.382  -7.601  16.958  1.00  0.00     0.180 C 
ATOM     21  C   UNL     1     -20.247  -8.086  18.398  1.00  0.00     0.179 C 
BRANCH  17  22
ATOM     22  C   UNL     1     -18.894  -4.872  18.477  1.00  0.00     0.225 C 
BRANCH  22  23
ATOM     23  O   UNL     1     -20.247  -4.517  18.370  1.00  0.00    -0.391 OA
ATOM     24  H   UNL     1     -20.764  -5.311  18.665  1.00  0.00     0.210 HD
ENDBRANCH  22  23
ENDBRANCH  17  22
BRANCH  18  25
ATOM     25  O   UNL     1     -19.296  -5.702  15.917  1.00  0.00    -0.385 OA
ATOM     26  H   UNL     1     -19.250  -6.059  14.991  1.00  0.00     0.211 HD
ENDBRANCH  18  25
BRANCH  20  27
ATOM     27  O   UNL     1     -21.539  -6.821  16.751  1.00  0.00    -0.387 OA
ATOM     28  H   UNL     1     -22.260  -7.172  17.334  1.00  0.00     0.211 HD
ENDBRANCH  20  27
BRANCH  21  29
ATOM     29  C   UNL     1     -21.582  -8.412  19.083  1.00  0.00     0.191 C 
BRANCH  29  30
ATOM     30  O   UNL     1     -22.479  -8.994  18.175  1.00  0.00    -0.394 OA
ATOM     31  H   UNL     1     -22.081  -8.882  17.272  1.00  0.00     0.210 HD
ENDBRANCH  29  30
ENDBRANCH  21  29
ENDBRANCH   1  17
TORSDOF 13
ENDMDL
MODEL 4
REMARK VINA RESULT:    -3.863      1.520      2.808
REMARK INTER + INTRA:          -7.449
REMARK INTER:                  -6.551
REMARK INTRA:                  -0.898
REMARK UNBOUND:                -1.553
REMARK SMILES OC[C@@H]1O[C@@](CO)(O[C@H]2O[C@@H](CO)[C@@H](O)[C@H](O)[C@H]2O)[C@H](O)[C@@H]1O
REMARK SMILES IDX 8 1 9 2 11 3 14 4 10 5 16 6 18 7 12 8 13 9 15 11 17 13 19 15
REMARK SMILES IDX 5 17 20 18 4 19 22 20 3 21 6 22 7 23 21 25 23 27 2 29 1 30
REMARK H PARENT 13 10 15 12 17 14 19 16 7 24 21 26 23 28 1 31
REMARK Flexibility Score: inf
ROOT
ATOM      1  O   UNL     1     -19.626  -6.409  18.073  1.00  0.00    -0.313 OA
ENDROOT
BRANCH   1   2
ATOM      2  C   UNL     1     -20.653  -6.376  17.089  1.00  0.00     0.285 C 
ATOM      3  C   UNL     1     -21.472  -8.598  17.448  1.00  0.00     0.178 C 
ATOM      4  C   UNL     1     -22.759  -8.065  18.131  1.00  0.00     0.177 C 
ATOM      5  O   UNL     1     -20.872  -7.672  16.547  1.00  0.00    -0.341 OA
ATOM      6  C   UNL     1     -22.557  -6.666  18.726  1.00  0.00     0.179 C 
ATOM      7  C   UNL     1     -21.937  -5.753  17.663  1.00  0.00     0.202 C 
BRANCH   3   8
ATOM      8  C   UNL     1     -20.447  -9.278  18.386  1.00  0.00     0.191 C 
BRANCH   8   9
ATOM      9  O   UNL     1     -19.202  -9.451  17.770  1.00  0.00    -0.394 OA
ATOM     10  H   UNL     1     -19.388  -9.811  16.865  1.00  0.00     0.210 HD
ENDBRANCH   8   9
ENDBRANCH   3   8
BRANCH   4  11
ATOM     11  O   UNL     1     -23.184  -8.963  19.125  1.00  0.00    -0.387 OA
ATOM     12  H   UNL     1     -22.847  -8.619  19.992  1.00  0.00     0.211 HD
ENDBRANCH   4  11
BRANCH   6  13
ATOM     13  O   UNL     1     -23.803  -6.154  19.125  1.00  0.00    -0.387 OA
ATOM     14  H   UNL     1     -23.749  -5.982  20.102  1.00  0.00     0.211 HD
ENDBRANCH   6  13
BRANCH   7  15
ATOM     15  O   UNL     1     -21.634  -4.498  18.217  1.00  0.00    -0.385 OA
ATOM     16  H   UNL     1     -22.497  -4.072  18.462  1.00  0.00     0.211 HD
ENDBRANCH   7  15
ENDBRANCH   1   2
BRANCH   1  17
ATOM     17  C   UNL     1     -18.357  -5.953  17.605  1.00  0.00     0.224 C 
ATOM     18  C   UNL     1     -17.516  -5.534  18.843  1.00  0.00     0.208 C 
ATOM     19  O   UNL     1     -17.649  -6.988  16.930  1.00  0.00    -0.337 OA
ATOM     20  C   UNL     1     -16.199  -6.258  18.659  1.00  0.00     0.180 C 
ATOM     21  C   UNL     1     -16.605  -7.425  17.765  1.00  0.00     0.179 C 
BRANCH  17  22
ATOM     22  C   UNL     1     -18.566  -4.780  16.615  1.00  0.00     0.225 C 
BRANCH  22  23
ATOM     23  O   UNL     1     -18.845  -5.268  15.331  1.00  0.00    -0.391 OA
ATOM     24  H   UNL     1     -19.147  -4.488  14.799  1.00  0.00     0.210 HD
ENDBRANCH  22  23
ENDBRANCH  17  22
BRANCH  18  25
ATOM     25  O   UNL     1     -17.341  -4.143  18.959  1.00  0.00    -0.385 OA
ATOM     26  H   UNL     1     -17.584  -3.752  18.080  1.00  0.00     0.211 HD
ENDBRANCH  18  25
BRANCH  20  27
ATOM     27  O   UNL     1     -15.216  -5.436  18.070  1.00  0.00    -0.387 OA
ATOM     28  H   UNL     1     -15.664  -4.637  17.691  1.00  0.00     0.211 HD
ENDBRANCH  20  27
BRANCH  21  29
ATOM     29  C   UNL     1     -15.460  -8.003  16.920  1.00  0.00     0.191 C 
BRANCH  29  30
ATOM     30  O   UNL     1     -15.202  -7.188  15.807  1.00  0.00    -0.394 OA
ATOM     31  H   UNL     1     -15.475  -7.707  15.007  1.00  0.00     0.210 HD
ENDBRANCH  29  30
ENDBRANCH  21  29
ENDBRANCH   1  17
TORSDOF 13
ENDMDL
MODEL 5
REMARK VINA RESULT:    -3.747      3.292      7.475
REMARK INTER + INTRA:          -7.271
REMARK INTER:                  -5.833
REMARK INTRA:                  -1.438
REMARK UNBOUND:                -1.553
REMARK SMILES OC[C@@H]1O[C@@](CO)(O[C@H]2O[C@@H](CO)[C@@H](O)[C@H](O)[C@H]2O)[C@H](O)[C@@H]1O
REMARK SMILES IDX 8 1 9 2 11 3 14 4 10 5 16 6 18 7 12 8 13 9 15 11 17 13 19 15
REMARK SMILES IDX 5 17 20 18 4 19 22 20 3 21 6 22 7 23 21 25 23 27 2 29 1 30
REMARK H PARENT 13 10 15 12 17 14 19 16 7 24 21 26 23 28 1 31
REMARK Flexibility Score: inf
ROOT
ATOM      1  O   UNL     1     -13.535  -7.474  16.698  1.00  0.00    -0.313 OA
ENDROOT
BRANCH   1   2
ATOM      2  C   UNL     1     -12.738  -7.468  17.876  1.00  0.00     0.285 C 
ATOM      3  C   UNL     1     -10.849  -8.620  16.956  1.00  0.00     0.178 C 
ATOM      4  C   UNL     1     -10.002  -7.320  16.943  1.00  0.00     0.177 C 
ATOM      5  O   UNL     1     -11.898  -8.614  17.921  1.00  0.00    -0.341 OA
ATOM      6  C   UNL     1     -10.880  -6.062  16.896  1.00  0.00     0.179 C 
ATOM      7  C   UNL     1     -11.947  -6.154  17.992  1.00  0.00     0.202 C 
BRANCH   3   8
ATOM      8  C   UNL     1     -11.306  -9.137  15.572  1.00  0.00     0.191 C 
BRANCH   8   9
ATOM      9  O   UNL     1     -12.294 -10.124  15.676  1.00  0.00    -0.394 OA
ATOM     10  H   UNL     1     -13.164  -9.653  15.609  1.00  0.00     0.210 HD
ENDBRANCH   8   9
ENDBRANCH   3   8
BRANCH   4  11
ATOM     11  O   UNL     1      -9.112  -7.337  15.856  1.00  0.00    -0.387 OA
ATOM     12  H   UNL     1      -9.550  -7.850  15.129  1.00  0.00     0.211 HD
ENDBRANCH   4  11
BRANCH   6  13
ATOM     13  O   UNL     1     -10.072  -4.933  17.112  1.00  0.00    -0.387 OA
ATOM     14  H   UNL     1      -9.356  -5.203  17.746  1.00  0.00     0.211 HD
ENDBRANCH   6  13
BRANCH   7  15
ATOM     15  O   UNL     1     -12.835  -5.070  17.896  1.00  0.00    -0.385 OA
ATOM     16  H   UNL     1     -12.801  -4.748  16.957  1.00  0.00     0.211 HD
ENDBRANCH   7  15
ENDBRANCH   1   2
BRANCH   1  17
ATOM     17  C   UNL     1     -14.923  -7.707  16.935  1.00  0.00     0.224 C 
ATOM     18  C   UNL     1     -15.129  -7.831  18.470  1.00  0.00     0.208 C 
ATOM     19  O   UNL     1     -15.719  -6.620  16.477  1.00  0.00    -0.337 OA
ATOM     20  C   UNL     1     -16.267  -6.877  18.770  1.00  0.00     0.180 C 
ATOM     21  C   UNL     1     -16.177  -5.905  17.598  1.00  0.00     0.179 C 
BRANCH  17  22
ATOM     22  C   UNL     1     -15.365  -8.986  16.181  1.00  0.00     0.225 C 
BRANCH  22  23
ATOM     23  O   UNL     1     -14.966  -8.924  14.838  1.00  0.00    -0.391 OA
ATOM     24  H   UNL     1     -15.423  -8.134  14.451  1.00  0.00     0.210 HD
ENDBRANCH  22  23
ENDBRANCH  17  22
BRANCH  18  25
ATOM     25  O   UNL     1     -15.414  -9.141  18.897  1.00  0.00    -0.385 OA
ATOM     26  H   UNL     1     -14.556  -9.530  19.211  1.00  0.00     0.211 HD
ENDBRANCH  18  25
BRANCH  20  27
ATOM     27  O   UNL     1     -17.512  -7.537  18.838  1.00  0.00    -0.387 OA
ATOM     28  H   UNL     1     -17.396  -8.458  18.489  1.00  0.00     0.211 HD
ENDBRANCH  20  27
BRANCH  21  29
ATOM     29  C   UNL     1     -17.497  -5.192  17.266  1.00  0.00     0.191 C 
BRANCH  29  30
ATOM     30  O   UNL     1     -18.236  -5.924  16.327  1.00  0.00    -0.394 OA
ATOM     31  H   UNL     1     -18.645  -5.263  15.709  1.00  0.00     0.210 HD
ENDBRANCH  29  30
ENDBRANCH  21  29
ENDBRANCH   1  17
TORSDOF 13
ENDMDL
MODEL 6
REMARK VINA RESULT:    -3.728      4.019      6.807
REMARK INTER + INTRA:          -7.243
REMARK INTER:                  -6.427
REMARK INTRA:                  -0.816
REMARK UNBOUND:                -1.553
REMARK SMILES OC[C@@H]1O[C@@](CO)(O[C@H]2O[C@@H](CO)[C@@H](O)[C@H](O)[C@H]2O)[C@H](O)[C@@H]1O
REMARK SMILES IDX 8 1 9 2 11 3 14 4 10 5 16 6 18 7 12 8 13 9 15 11 17 13 19 15
REMARK SMILES IDX 5 17 20 18 4 19 22 20 3 21 6 22 7 23 21 25 23 27 2 29 1 30
REMARK H PARENT 13 10 15 12 17 14 19 16 7 24 21 26 23 28 1 31
REMARK Flexibility Score: inf
ROOT
ATOM      1  O   UNL     1     -12.645  -6.664  16.794  1.00  0.00    -0.313 OA
ENDROOT
BRANCH   1   2
ATOM      2  C   UNL     1     -13.490  -7.620  17.422  1.00  0.00     0.285 C 
ATOM      3  C   UNL     1     -14.353  -6.173  19.125  1.00  0.00     0.178 C 
ATOM      4  C   UNL     1     -15.739  -6.103  18.430  1.00  0.00     0.177 C 
ATOM      5  O   UNL     1     -13.610  -7.348  18.812  1.00  0.00    -0.341 OA
ATOM      6  C   UNL     1     -15.643  -6.394  16.927  1.00  0.00     0.179 C 
ATOM      7  C   UNL     1     -14.854  -7.690  16.715  1.00  0.00     0.202 C 
BRANCH   3   8
ATOM      8  C   UNL     1     -13.501  -4.884  19.053  1.00  0.00     0.191 C 
BRANCH   8   9
ATOM      9  O   UNL     1     -13.781  -4.130  17.906  1.00  0.00    -0.394 OA
ATOM     10  H   UNL     1     -14.301  -3.342  18.212  1.00  0.00     0.210 HD
ENDBRANCH   8   9
ENDBRANCH   3   8
BRANCH   4  11
ATOM     11  O   UNL     1     -16.325  -4.845  18.649  1.00  0.00    -0.387 OA
ATOM     12  H   UNL     1     -15.964  -4.501  19.507  1.00  0.00     0.211 HD
ENDBRANCH   4  11
BRANCH   6  13
ATOM     13  O   UNL     1     -16.940  -6.536  16.406  1.00  0.00    -0.387 OA
ATOM     14  H   UNL     1     -17.152  -5.699  15.915  1.00  0.00     0.211 HD
ENDBRANCH   6  13
BRANCH   7  15
ATOM     15  O   UNL     1     -14.652  -7.917  15.344  1.00  0.00    -0.385 OA
ATOM     16  H   UNL     1     -14.869  -7.070  14.873  1.00  0.00     0.211 HD
ENDBRANCH   7  15
ENDBRANCH   1   2
BRANCH   1  17
ATOM     17  C   UNL     1     -11.261  -7.012  16.805  1.00  0.00     0.224 C 
ATOM     18  C   UNL     1     -11.160  -8.562  16.761  1.00  0.00     0.208 C 
ATOM     19  O   UNL     1     -10.586  -6.500  15.661  1.00  0.00    -0.337 OA
ATOM     20  C   UNL     1     -10.188  -8.838  15.633  1.00  0.00     0.180 C 
ATOM     21  C   UNL     1     -10.318  -7.573  14.791  1.00  0.00     0.179 C 
BRANCH  17  22
ATOM     22  C   UNL     1     -10.593  -6.418  18.071  1.00  0.00     0.225 C 
BRANCH  22  23
ATOM     23  O   UNL     1     -10.176  -5.102  17.831  1.00  0.00    -0.391 OA
ATOM     24  H   UNL     1     -10.639  -4.812  17.003  1.00  0.00     0.210 HD
ENDBRANCH  22  23
ENDBRANCH  17  22
BRANCH  18  25
ATOM     25  O   UNL     1     -10.735  -9.134  17.974  1.00  0.00    -0.385 OA
ATOM     26  H   UNL     1     -11.227  -9.991  18.072  1.00  0.00     0.211 HD
ENDBRANCH  18  25
BRANCH  20  27
ATOM     27  O   UNL     1      -8.875  -9.052  16.100  1.00  0.00    -0.387 OA
ATOM     28  H   UNL     1      -8.442  -8.169  16.226  1.00  0.00     0.211 HD
ENDBRANCH  20  27
BRANCH  21  29
ATOM     29  C   UNL     1      -9.085  -7.258  13.930  1.00  0.00     0.191 C 
BRANCH  29  30
ATOM     30  O   UNL     1      -9.319  -6.140  13.116  1.00  0.00    -0.394 OA
ATOM     31  H   UNL     1     -10.292  -5.953  13.163  1.00  0.00     0.210 HD
ENDBRANCH  29  30
ENDBRANCH  21  29
ENDBRANCH   1  17
TORSDOF 13
ENDMDL
MODEL 7
REMARK VINA RESULT:    -3.474      1.731      3.029
REMARK INTER + INTRA:          -6.855
REMARK INTER:                  -5.187
REMARK INTRA:                  -1.669
REMARK UNBOUND:                -1.553
REMARK SMILES OC[C@@H]1O[C@@](CO)(O[C@H]2O[C@@H](CO)[C@@H](O)[C@H](O)[C@H]2O)[C@H](O)[C@@H]1O
REMARK SMILES IDX 8 1 9 2 11 3 14 4 10 5 16 6 18 7 12 8 13 9 15 11 17 13 19 15
REMARK SMILES IDX 5 17 20 18 4 19 22 20 3 21 6 22 7 23 21 25 23 27 2 29 1 30
REMARK H PARENT 13 10 15 12 17 14 19 16 7 24 21 26 23 28 1 31
REMARK Flexibility Score: inf
ROOT
ATOM      1  O   UNL     1     -17.550  -7.950  17.213  1.00  0.00    -0.313 OA
ENDROOT
BRANCH   1   2
ATOM      2  C   UNL     1     -18.440  -7.981  18.322  1.00  0.00     0.285 C 
ATOM      3  C   UNL     1     -18.764  -5.614  18.503  1.00  0.00     0.178 C 
ATOM      4  C   UNL     1     -20.207  -5.720  17.944  1.00  0.00     0.177 C 
ATOM      5  O   UNL     1     -18.294  -6.812  19.117  1.00  0.00    -0.341 OA
ATOM      6  C   UNL     1     -20.398  -6.975  17.081  1.00  0.00     0.179 C 
ATOM      7  C   UNL     1     -19.889  -8.196  17.852  1.00  0.00     0.202 C 
BRANCH   3   8
ATOM      8  C   UNL     1     -17.722  -4.974  17.555  1.00  0.00     0.191 C 
BRANCH   8   9
ATOM      9  O   UNL     1     -17.979  -5.271  16.211  1.00  0.00    -0.394 OA
ATOM     10  H   UNL     1     -17.598  -6.173  16.050  1.00  0.00     0.210 HD
ENDBRANCH   8   9
ENDBRANCH   3   8
BRANCH   4  11
ATOM     11  O   UNL     1     -20.524  -4.566  17.207  1.00  0.00    -0.387 OA
ATOM     12  H   UNL     1     -21.372  -4.209  17.578  1.00  0.00     0.211 HD
ENDBRANCH   4  11
BRANCH   6  13
ATOM     13  O   UNL     1     -21.765  -7.129  16.796  1.00  0.00    -0.387 OA
ATOM     14  H   UNL     1     -22.166  -6.220  16.788  1.00  0.00     0.211 HD
ENDBRANCH   6  13
BRANCH   7  15
ATOM     15  O   UNL     1     -19.945  -9.342  17.040  1.00  0.00    -0.385 OA
ATOM     16  H   UNL     1     -20.104 -10.116  17.641  1.00  0.00     0.211 HD
ENDBRANCH   7  15
ENDBRANCH   1   2
BRANCH   1  17
ATOM     17  C   UNL     1     -16.242  -8.443  17.502  1.00  0.00     0.224 C 
ATOM     18  C   UNL     1     -15.539  -8.748  16.150  1.00  0.00     0.208 C 
ATOM     19  O   UNL     1     -15.460  -7.472  18.188  1.00  0.00    -0.337 OA
ATOM     20  C   UNL     1     -14.205  -8.040  16.258  1.00  0.00     0.180 C 
ATOM     21  C   UNL     1     -14.506  -6.959  17.290  1.00  0.00     0.179 C 
BRANCH  17  22
ATOM     22  C   UNL     1     -16.354  -9.701  18.399  1.00  0.00     0.225 C 
BRANCH  22  23
ATOM     23  O   UNL     1     -15.082 -10.125  18.808  1.00  0.00    -0.391 OA
ATOM     24  H   UNL     1     -15.202 -11.037  19.180  1.00  0.00     0.210 HD
ENDBRANCH  22  23
ENDBRANCH  17  22
BRANCH  18  25
ATOM     25  O   UNL     1     -15.387 -10.122  15.891  1.00  0.00    -0.385 OA
ATOM     26  H   UNL     1     -16.302 -10.505  15.840  1.00  0.00     0.211 HD
ENDBRANCH  18  25
BRANCH  20  27
ATOM     27  O   UNL     1     -13.171  -8.910  16.664  1.00  0.00    -0.387 OA
ATOM     28  H   UNL     1     -13.126  -9.663  16.020  1.00  0.00     0.211 HD
ENDBRANCH  20  27
BRANCH  21  29
ATOM     29  C   UNL     1     -13.274  -6.457  18.059  1.00  0.00     0.191 C 
BRANCH  29  30
ATOM     30  O   UNL     1     -12.225  -6.160  17.177  1.00  0.00    -0.394 OA
ATOM     31  H   UNL     1     -12.591  -6.250  16.259  1.00  0.00     0.210 HD
ENDBRANCH  29  30
ENDBRANCH  21  29
ENDBRANCH   1  17
TORSDOF 13
ENDMDL
MODEL 8
REMARK VINA RESULT:    -3.428      2.511      4.488
REMARK INTER + INTRA:          -6.785
REMARK INTER:                  -5.090
REMARK INTRA:                  -1.695
REMARK UNBOUND:                -1.553
REMARK SMILES OC[C@@H]1O[C@@](CO)(O[C@H]2O[C@@H](CO)[C@@H](O)[C@H](O)[C@H]2O)[C@H](O)[C@@H]1O
REMARK SMILES IDX 8 1 9 2 11 3 14 4 10 5 16 6 18 7 12 8 13 9 15 11 17 13 19 15
REMARK SMILES IDX 5 17 20 18 4 19 22 20 3 21 6 22 7 23 21 25 23 27 2 29 1 30
REMARK H PARENT 13 10 15 12 17 14 19 16 7 24 21 26 23 28 1 31
REMARK Flexibility Score: inf
ROOT
ATOM      1  O   UNL     1     -15.340  -7.444  17.223  1.00  0.00    -0.313 OA
ENDROOT
BRANCH   1   2
ATOM      2  C   UNL     1     -16.317  -7.568  18.249  1.00  0.00     0.285 C 
ATOM      3  C   UNL     1     -16.722  -5.226  18.551  1.00  0.00     0.178 C 
ATOM      4  C   UNL     1     -18.110  -5.329  17.866  1.00  0.00     0.177 C 
ATOM      5  O   UNL     1     -16.271  -6.449  19.125  1.00  0.00    -0.341 OA
ATOM      6  C   UNL     1     -18.194  -6.529  16.913  1.00  0.00     0.179 C 
ATOM      7  C   UNL     1     -17.715  -7.786  17.646  1.00  0.00     0.202 C 
BRANCH   3   8
ATOM      8  C   UNL     1     -15.625  -4.501  17.736  1.00  0.00     0.191 C 
BRANCH   8   9
ATOM      9  O   UNL     1     -14.364  -4.607  18.337  1.00  0.00    -0.394 OA
ATOM     10  H   UNL     1     -13.708  -4.668  17.595  1.00  0.00     0.210 HD
ENDBRANCH   8   9
ENDBRANCH   3   8
BRANCH   4  11
ATOM     11  O   UNL     1     -18.399  -4.137  17.179  1.00  0.00    -0.387 OA
ATOM     12  H   UNL     1     -18.757  -3.497  17.846  1.00  0.00     0.211 HD
ENDBRANCH   4  11
BRANCH   6  13
ATOM     13  O   UNL     1     -19.528  -6.696  16.504  1.00  0.00    -0.387 OA
ATOM     14  H   UNL     1     -19.997  -7.183  17.231  1.00  0.00     0.211 HD
ENDBRANCH   6  13
BRANCH   7  15
ATOM     15  O   UNL     1     -17.671  -8.877  16.762  1.00  0.00    -0.385 OA
ATOM     16  H   UNL     1     -18.295  -8.672  16.016  1.00  0.00     0.211 HD
ENDBRANCH   7  15
ENDBRANCH   1   2
BRANCH   1  17
ATOM     17  C   UNL     1     -14.109  -8.110  17.507  1.00  0.00     0.224 C 
ATOM     18  C   UNL     1     -13.504  -8.585  16.157  1.00  0.00     0.208 C 
ATOM     19  O   UNL     1     -13.172  -7.232  18.119  1.00  0.00    -0.337 OA
ATOM     20  C   UNL     1     -12.076  -8.079  16.193  1.00  0.00     0.180 C 
ATOM     21  C   UNL     1     -12.182  -6.913  17.171  1.00  0.00     0.179 C 
BRANCH  17  22
ATOM     22  C   UNL     1     -14.376  -9.289  18.476  1.00  0.00     0.225 C 
BRANCH  22  23
ATOM     23  O   UNL     1     -13.169  -9.884  18.866  1.00  0.00    -0.391 OA
ATOM     24  H   UNL     1     -12.547  -9.775  18.101  1.00  0.00     0.210 HD
ENDBRANCH  22  23
ENDBRANCH  17  22
BRANCH  18  25
ATOM     25  O   UNL     1     -13.563  -9.978  15.972  1.00  0.00    -0.385 OA
ATOM     26  H   UNL     1     -13.996 -10.354  16.784  1.00  0.00     0.211 HD
ENDBRANCH  18  25
BRANCH  20  27
ATOM     27  O   UNL     1     -11.169  -9.070  16.622  1.00  0.00    -0.387 OA
ATOM     28  H   UNL     1     -11.558  -9.959  16.414  1.00  0.00     0.211 HD
ENDBRANCH  20  27
BRANCH  21  29
ATOM     29  C   UNL     1     -10.866  -6.561  17.880  1.00  0.00     0.191 C 
BRANCH  29  30
ATOM     30  O   UNL     1     -10.496  -5.234  17.614  1.00  0.00    -0.394 OA
ATOM     31  H   UNL     1     -10.321  -4.807  18.493  1.00  0.00     0.210 HD
ENDBRANCH  29  30
ENDBRANCH  21  29
ENDBRANCH   1  17
TORSDOF 13
ENDMDL
