MODEL 1
REMARK VINA RESULT:    -4.715      0.000      0.000
REMARK INTER + INTRA:          -6.982
REMARK INTER:                  -6.369
REMARK INTRA:                  -0.613
REMARK UNBOUND:                -0.613
REMARK SMILES CCCCCCC=CC(=O)[O-]
REMARK SMILES IDX 5 1 6 2 7 3 8 4 9 5 10 6 11 7 4 8 3 9 2 10 1 11
REMARK H PARENT
REMARK Flexibility Score: inf
ROOT
ATOM      1  C   UNL     1      21.895  11.978  37.641  1.00  0.00     0.004 C 
ENDROOT
BRANCH   1   2
ATOM      2  C   UNL     1      20.530  11.672  38.276  1.00  0.00     0.027 C 
BRANCH   2   3
ATOM      3  C   UNL     1      20.554  11.905  39.763  1.00  0.00    -0.025 C 
ATOM      4  C   UNL     1      20.012  12.951  40.406  1.00  0.00     0.020 C 
BRANCH   4   5
ATOM      5  C   UNL     1      19.257  14.067  39.796  1.00  0.00     0.064 C 
ATOM      6  O   UNL     1      18.030  13.912  39.558  1.00  0.00    -0.545 OA
ATOM      7  O   UNL     1      19.857  15.273  39.460  1.00  0.00    -0.545 OA
ENDBRANCH   4   5
ENDBRANCH   2   3
ENDBRANCH   1   2
BRANCH   1   8
ATOM      8  C   UNL     1      21.953  13.372  36.996  1.00  0.00     0.000 C 
BRANCH   8   9
ATOM      9  C   UNL     1      20.632  13.796  36.319  1.00  0.00    -0.000 C 
BRANCH   9  10
ATOM     10  C   UNL     1      20.752  13.847  34.789  1.00  0.00    -0.003 C 
ATOM     11  C   UNL     1      19.534  13.217  34.119  1.00  0.00     0.004 C 
ENDBRANCH   9  10
ENDBRANCH   8   9
ENDBRANCH   1   8
TORSDOF 6
ENDMDL
MODEL 2
REMARK VINA RESULT:    -4.454      2.557      4.633
REMARK INTER + INTRA:          -6.629
REMARK INTER:                  -6.052
REMARK INTRA:                  -0.578
REMARK UNBOUND:                -0.613
REMARK SMILES CCCCCCC=CC(=O)[O-]
REMARK SMILES IDX 5 1 6 2 7 3 8 4 9 5 10 6 11 7 4 8 3 9 2 10 1 11
REMARK H PARENT
REMARK Flexibility Score: inf
ROOT
ATOM      1  C   UNL     1      20.443  11.360  38.460  1.00  0.00     0.004 C 
ENDROOT
BRANCH   1   2
ATOM      2  C   UNL     1      21.186  11.895  37.227  1.00  0.00     0.027 C 
BRANCH   2   3
ATOM      3  C   UNL     1      21.136  13.399  37.168  1.00  0.00    -0.025 C 
ATOM      4  C   UNL     1      20.914  14.138  36.070  1.00  0.00     0.020 C 
BRANCH   4   5
ATOM      5  C   UNL     1      20.641  13.634  34.707  1.00  0.00     0.064 C 
ATOM      6  O   UNL     1      21.590  13.568  33.883  1.00  0.00    -0.545 OA
ATOM      7  O   UNL     1      19.371  13.248  34.299  1.00  0.00    -0.545 OA
ENDBRANCH   4   5
ENDBRANCH   2   3
ENDBRANCH   1   2
BRANCH   1   8
ATOM      8  C   UNL     1      20.961  11.964  39.776  1.00  0.00     0.000 C 
BRANCH   8   9
ATOM      9  C   UNL     1      19.837  12.401  40.739  1.00  0.00    -0.000 C 
BRANCH   9  10
ATOM     10  C   UNL     1      18.564  12.828  39.994  1.00  0.00    -0.003 C 
ATOM     11  C   UNL     1      18.651  14.283  39.541  1.00  0.00     0.004 C 
ENDBRANCH   9  10
ENDBRANCH   8   9
ENDBRANCH   1   8
TORSDOF 6
ENDMDL
MODEL 3
REMARK VINA RESULT:    -4.409      2.053      4.142
REMARK INTER + INTRA:          -6.569
REMARK INTER:                  -5.979
REMARK INTRA:                  -0.590
REMARK UNBOUND:                -0.613
REMARK SMILES CCCCCCC=CC(=O)[O-]
REMARK SMILES IDX 5 1 6 2 7 3 8 4 9 5 10 6 11 7 4 8 3 9 2 10 1 11
REMARK H PARENT
REMARK Flexibility Score: inf
ROOT
ATOM      1  C   UNL     1      20.187  10.999  38.688  1.00  0.00     0.004 C 
ENDROOT
BRANCH   1   2
ATOM      2  C   UNL     1      20.627  11.511  37.309  1.00  0.00     0.027 C 
BRANCH   2   3
ATOM      3  C   UNL     1      22.020  12.081  37.357  1.00  0.00    -0.025 C 
ATOM      4  C   UNL     1      22.398  13.278  36.880  1.00  0.00     0.020 C 
BRANCH   4   5
ATOM      5  C   UNL     1      21.528  14.289  36.242  1.00  0.00     0.064 C 
ATOM      6  O   UNL     1      21.386  15.408  36.802  1.00  0.00    -0.545 OA
ATOM      7  O   UNL     1      20.847  14.042  35.058  1.00  0.00    -0.545 OA
ENDBRANCH   4   5
ENDBRANCH   2   3
ENDBRANCH   1   2
BRANCH   1   8
ATOM      8  C   UNL     1      20.629  11.921  39.836  1.00  0.00     0.000 C 
BRANCH   8   9
ATOM      9  C   UNL     1      19.455  12.481  40.667  1.00  0.00    -0.000 C 
BRANCH   9  10
ATOM     10  C   UNL     1      18.643  13.531  39.893  1.00  0.00    -0.003 C 
ATOM     11  C   UNL     1      19.512  14.723  39.503  1.00  0.00     0.004 C 
ENDBRANCH   9  10
ENDBRANCH   8   9
ENDBRANCH   1   8
TORSDOF 6
ENDMDL
MODEL 4
REMARK VINA RESULT:    -3.682      1.900      2.981
REMARK INTER + INTRA:          -5.586
REMARK INTER:                  -4.889
REMARK INTRA:                  -0.697
REMARK UNBOUND:                -0.613
REMARK SMILES CCCCCCC=CC(=O)[O-]
REMARK SMILES IDX 5 1 6 2 7 3 8 4 9 5 10 6 11 7 4 8 3 9 2 10 1 11
REMARK H PARENT
REMARK Flexibility Score: inf
ROOT
ATOM      1  C   UNL     1      20.791  15.210  37.679  1.00  0.00     0.004 C 
ENDROOT
BRANCH   1   2
ATOM      2  C   UNL     1      20.048  15.380  39.012  1.00  0.00     0.027 C 
BRANCH   2   3
ATOM      3  C   UNL     1      18.988  14.325  39.185  1.00  0.00    -0.025 C 
ATOM      4  C   UNL     1      19.024  13.307  40.059  1.00  0.00     0.020 C 
BRANCH   4   5
ATOM      5  C   UNL     1      20.089  13.029  41.047  1.00  0.00     0.064 C 
ATOM      6  O   UNL     1      20.103  13.681  42.124  1.00  0.00    -0.545 OA
ATOM      7  O   UNL     1      21.084  12.089  40.821  1.00  0.00    -0.545 OA
ENDBRANCH   4   5
ENDBRANCH   2   3
ENDBRANCH   1   2
BRANCH   1   8
ATOM      8  C   UNL     1      20.352  13.954  36.906  1.00  0.00     0.000 C 
BRANCH   8   9
ATOM      9  C   UNL     1      21.529  13.061  36.458  1.00  0.00    -0.000 C 
BRANCH   9  10
ATOM     10  C   UNL     1      21.786  11.904  37.434  1.00  0.00    -0.003 C 
ATOM     11  C   UNL     1      20.557  11.008  37.564  1.00  0.00     0.004 C 
ENDBRANCH   9  10
ENDBRANCH   8   9
ENDBRANCH   1   8
TORSDOF 6
ENDMDL
MODEL 5
REMARK VINA RESULT:    -3.658      2.005      2.402
REMARK INTER + INTRA:          -5.554
REMARK INTER:                  -5.262
REMARK INTRA:                  -0.292
REMARK UNBOUND:                -0.613
REMARK SMILES CCCCCCC=CC(=O)[O-]
REMARK SMILES IDX 5 1 6 2 7 3 8 4 9 5 10 6 11 7 4 8 3 9 2 10 1 11
REMARK H PARENT
REMARK Flexibility Score: inf
ROOT
ATOM      1  C   UNL     1      20.560  14.088  37.825  1.00  0.00     0.004 C 
ENDROOT
BRANCH   1   2
ATOM      2  C   UNL     1      19.715  14.960  38.765  1.00  0.00     0.027 C 
BRANCH   2   3
ATOM      3  C   UNL     1      18.630  14.157  39.429  1.00  0.00    -0.025 C 
ATOM      4  C   UNL     1      18.804  13.251  40.405  1.00  0.00     0.020 C 
BRANCH   4   5
ATOM      5  C   UNL     1      20.083  12.880  41.046  1.00  0.00     0.064 C 
ATOM      6  O   UNL     1      20.428  13.474  42.101  1.00  0.00    -0.545 OA
ATOM      7  O   UNL     1      20.926  11.913  40.517  1.00  0.00    -0.545 OA
ENDBRANCH   4   5
ENDBRANCH   2   3
ENDBRANCH   1   2
BRANCH   1   8
ATOM      8  C   UNL     1      21.290  14.905  36.747  1.00  0.00     0.000 C 
BRANCH   8   9
ATOM      9  C   UNL     1      21.246  14.259  35.345  1.00  0.00    -0.000 C 
BRANCH   9  10
ATOM     10  C   UNL     1      20.174  13.165  35.242  1.00  0.00    -0.003 C 
ATOM     11  C   UNL     1      19.454  13.223  33.897  1.00  0.00     0.004 C 
ENDBRANCH   9  10
ENDBRANCH   8   9
ENDBRANCH   1   8
TORSDOF 6
ENDMDL
MODEL 6
REMARK VINA RESULT:    -2.756      2.078      4.111
REMARK INTER + INTRA:          -4.336
REMARK INTER:                  -3.790
REMARK INTRA:                  -0.546
REMARK UNBOUND:                -0.613
REMARK SMILES CCCCCCC=CC(=O)[O-]
REMARK SMILES IDX 5 1 6 2 7 3 8 4 9 5 10 6 11 7 4 8 3 9 2 10 1 11
REMARK H PARENT
REMARK Flexibility Score: inf
ROOT
ATOM      1  C   UNL     1      20.911  15.297  37.406  1.00  0.00     0.004 C 
ENDROOT
BRANCH   1   2
ATOM      2  C   UNL     1      20.654  14.064  36.528  1.00  0.00     0.027 C 
BRANCH   2   3
ATOM      3  C   UNL     1      21.859  13.162  36.486  1.00  0.00    -0.025 C 
ATOM      4  C   UNL     1      22.058  12.077  37.251  1.00  0.00     0.020 C 
BRANCH   4   5
ATOM      5  C   UNL     1      21.130  11.528  38.263  1.00  0.00     0.064 C 
ATOM      6  O   UNL     1      20.125  10.876  37.875  1.00  0.00    -0.545 OA
ATOM      7  O   UNL     1      21.317  11.722  39.625  1.00  0.00    -0.545 OA
ENDBRANCH   4   5
ENDBRANCH   2   3
ENDBRANCH   1   2
BRANCH   1   8
ATOM      8  C   UNL     1      20.313  15.160  38.816  1.00  0.00     0.000 C 
BRANCH   8   9
ATOM      9  C   UNL     1      19.069  14.248  38.874  1.00  0.00    -0.000 C 
BRANCH   9  10
ATOM     10  C   UNL     1      18.821  13.690  40.284  1.00  0.00    -0.003 C 
ATOM     11  C   UNL     1      18.018  12.393  40.230  1.00  0.00     0.004 C 
ENDBRANCH   9  10
ENDBRANCH   8   9
ENDBRANCH   1   8
TORSDOF 6
ENDMDL
MODEL 7
REMARK VINA RESULT:    -2.337      1.767      2.308
REMARK INTER + INTRA:          -3.770
REMARK INTER:                  -3.593
REMARK INTRA:                  -0.177
REMARK UNBOUND:                -0.613
REMARK SMILES CCCCCCC=CC(=O)[O-]
REMARK SMILES IDX 5 1 6 2 7 3 8 4 9 5 10 6 11 7 4 8 3 9 2 10 1 11
REMARK H PARENT
REMARK Flexibility Score: inf
ROOT
ATOM      1  C   UNL     1      19.878  12.264  38.253  1.00  0.00     0.004 C 
ENDROOT
BRANCH   1   2
ATOM      2  C   UNL     1      20.312  11.800  39.651  1.00  0.00     0.027 C 
BRANCH   2   3
ATOM      3  C   UNL     1      19.315  12.216  40.699  1.00  0.00    -0.025 C 
ATOM      4  C   UNL     1      19.545  13.061  41.716  1.00  0.00     0.020 C 
BRANCH   4   5
ATOM      5  C   UNL     1      20.807  13.778  41.999  1.00  0.00     0.064 C 
ATOM      6  O   UNL     1      20.781  15.032  42.114  1.00  0.00    -0.545 OA
ATOM      7  O   UNL     1      22.023  13.120  42.124  1.00  0.00    -0.545 OA
ENDBRANCH   4   5
ENDBRANCH   2   3
ENDBRANCH   1   2
BRANCH   1   8
ATOM      8  C   UNL     1      20.974  12.069  37.192  1.00  0.00     0.000 C 
BRANCH   8   9
ATOM      9  C   UNL     1      21.712  13.372  36.818  1.00  0.00    -0.000 C 
BRANCH   9  10
ATOM     10  C   UNL     1      20.890  14.254  35.867  1.00  0.00    -0.003 C 
ATOM     11  C   UNL     1      21.102  13.843  34.412  1.00  0.00     0.004 C 
ENDBRANCH   9  10
ENDBRANCH   8   9
ENDBRANCH   1   8
TORSDOF 6
ENDMDL
MODEL 8
REMARK VINA RESULT:    -1.976      1.550      2.036
REMARK INTER + INTRA:          -3.282
REMARK INTER:                  -3.232
REMARK INTRA:                  -0.050
REMARK UNBOUND:                -0.613
REMARK SMILES CCCCCCC=CC(=O)[O-]
REMARK SMILES IDX 5 1 6 2 7 3 8 4 9 5 10 6 11 7 4 8 3 9 2 10 1 11
REMARK H PARENT
REMARK Flexibility Score: inf
ROOT
ATOM      1  C   UNL     1      20.504  13.190  38.335  1.00  0.00     0.004 C 
ENDROOT
BRANCH   1   2
ATOM      2  C   UNL     1      20.932  12.129  39.358  1.00  0.00     0.027 C 
BRANCH   2   3
ATOM      3  C   UNL     1      20.938  12.688  40.756  1.00  0.00    -0.025 C 
ATOM      4  C   UNL     1      19.879  12.767  41.578  1.00  0.00     0.020 C 
BRANCH   4   5
ATOM      5  C   UNL     1      18.507  12.296  41.297  1.00  0.00     0.064 C 
ATOM      6  O   UNL     1      17.875  12.806  40.334  1.00  0.00    -0.545 OA
ATOM      7  O   UNL     1      17.883  11.324  42.067  1.00  0.00    -0.545 OA
ENDBRANCH   4   5
ENDBRANCH   2   3
ENDBRANCH   1   2
BRANCH   1   8
ATOM      8  C   UNL     1      21.138  12.975  36.951  1.00  0.00     0.000 C 
BRANCH   8   9
ATOM      9  C   UNL     1      20.112  12.946  35.798  1.00  0.00    -0.000 C 
BRANCH   9  10
ATOM     10  C   UNL     1      20.663  13.577  34.511  1.00  0.00    -0.003 C 
ATOM     11  C   UNL     1      19.741  13.307  33.325  1.00  0.00     0.004 C 
ENDBRANCH   9  10
ENDBRANCH   8   9
ENDBRANCH   1   8
TORSDOF 6
ENDMDL
