MODEL 1
REMARK VINA RESULT:     6.893      0.000      0.000
REMARK INTER + INTRA:           9.941
REMARK INTER:                  10.116
REMARK INTRA:                  -0.175
REMARK UNBOUND:                -0.175
REMARK SMILES O=C([O-])CCCCCCCC(=O)[O-]
REMARK SMILES IDX 7 1 6 2 5 3 4 4 2 5 1 6 3 7 8 8 9 9 10 10 11 11 12 12 13 13
REMARK H PARENT
REMARK Flexibility Score: inf
ROOT
ATOM      1  C   UNL     1      16.431  17.844  17.386  1.00  0.00     0.000 C 
ENDROOT
BRANCH   1   2
ATOM      2  C   UNL     1      16.348  17.095  18.721  1.00  0.00     0.000 C 
BRANCH   2   3
ATOM      3  C   UNL     1      17.135  17.831  19.816  1.00  0.00     0.006 C 
BRANCH   3   4
ATOM      4  C   UNL     1      18.409  17.078  20.221  1.00  0.00     0.053 C 
BRANCH   4   5
ATOM      5  C   UNL     1      19.558  18.011  20.446  1.00  0.00     0.041 C 
ATOM      6  O   UNL     1      19.486  18.903  21.332  1.00  0.00    -0.550 OA
ATOM      7  O   UNL     1      20.723  17.873  19.703  1.00  0.00    -0.550 OA
ENDBRANCH   4   5
ENDBRANCH   3   4
ENDBRANCH   2   3
ENDBRANCH   1   2
BRANCH   1   8
ATOM      8  C   UNL     1      17.468  17.197  16.455  1.00  0.00     0.000 C 
BRANCH   8   9
ATOM      9  C   UNL     1      17.002  17.144  14.989  1.00  0.00     0.006 C 
BRANCH   9  10
ATOM     10  C   UNL     1      17.919  17.889  14.006  1.00  0.00     0.053 C 
BRANCH  10  11
ATOM     11  C   UNL     1      17.967  19.359  14.289  1.00  0.00     0.041 C 
ATOM     12  O   UNL     1      16.986  19.934  14.830  1.00  0.00    -0.550 OA
ATOM     13  O   UNL     1      19.085  20.100  13.925  1.00  0.00    -0.550 OA
ENDBRANCH  10  11
ENDBRANCH   9  10
ENDBRANCH   8   9
ENDBRANCH   1   8
TORSDOF 8
ENDMDL
MODEL 2
REMARK VINA RESULT:     6.934      0.093      5.629
REMARK INTER + INTRA:          10.001
REMARK INTER:                  10.060
REMARK INTRA:                  -0.059
REMARK UNBOUND:                -0.175
REMARK SMILES O=C([O-])CCCCCCCC(=O)[O-]
REMARK SMILES IDX 7 1 6 2 5 3 4 4 2 5 1 6 3 7 8 8 9 9 10 10 11 11 12 12 13 13
REMARK H PARENT
REMARK Flexibility Score: inf
ROOT
ATOM      1  C   UNL     1      16.447  17.868  17.294  1.00  0.00     0.000 C 
ENDROOT
BRANCH   1   2
ATOM      2  C   UNL     1      17.531  17.254  16.399  1.00  0.00     0.000 C 
BRANCH   2   3
ATOM      3  C   UNL     1      17.038  17.116  14.952  1.00  0.00     0.006 C 
BRANCH   3   4
ATOM      4  C   UNL     1      17.929  17.875  13.960  1.00  0.00     0.053 C 
BRANCH   4   5
ATOM      5  C   UNL     1      17.956  19.344  14.246  1.00  0.00     0.041 C 
ATOM      6  O   UNL     1      16.973  19.898  14.806  1.00  0.00    -0.550 OA
ATOM      7  O   UNL     1      19.079  20.096  13.927  1.00  0.00    -0.550 OA
ENDBRANCH   4   5
ENDBRANCH   3   4
ENDBRANCH   2   3
ENDBRANCH   1   2
BRANCH   1   8
ATOM      8  C   UNL     1      16.334  17.107  18.623  1.00  0.00     0.000 C 
BRANCH   8   9
ATOM      9  C   UNL     1      17.081  17.804  19.775  1.00  0.00     0.006 C 
BRANCH   9  10
ATOM     10  C   UNL     1      18.338  17.061  20.255  1.00  0.00     0.053 C 
BRANCH  10  11
ATOM     11  C   UNL     1      19.517  17.976  20.380  1.00  0.00     0.041 C 
ATOM     12  O   UNL     1      20.523  17.818  19.639  1.00  0.00    -0.550 OA
ATOM     13  O   UNL     1      19.519  18.981  21.339  1.00  0.00    -0.550 OA
ENDBRANCH  10  11
ENDBRANCH   9  10
ENDBRANCH   8   9
ENDBRANCH   1   8
TORSDOF 8
ENDMDL
MODEL 3
REMARK VINA RESULT:     6.938      1.461      5.744
REMARK INTER + INTRA:          10.008
REMARK INTER:                   9.771
REMARK INTRA:                   0.237
REMARK UNBOUND:                -0.175
REMARK SMILES O=C([O-])CCCCCCCC(=O)[O-]
REMARK SMILES IDX 7 1 6 2 5 3 4 4 2 5 1 6 3 7 8 8 9 9 10 10 11 11 12 12 13 13
REMARK H PARENT
REMARK Flexibility Score: inf
ROOT
ATOM      1  C   UNL     1      16.148  17.640  18.703  1.00  0.00     0.000 C 
ENDROOT
BRANCH   1   2
ATOM      2  C   UNL     1      16.972  17.415  17.430  1.00  0.00     0.000 C 
BRANCH   2   3
ATOM      3  C   UNL     1      16.326  18.114  16.225  1.00  0.00     0.006 C 
BRANCH   3   4
ATOM      4  C   UNL     1      16.265  17.206  14.990  1.00  0.00     0.053 C 
BRANCH   4   5
ATOM      5  C   UNL     1      17.558  17.204  14.235  1.00  0.00     0.041 C 
ATOM      6  O   UNL     1      18.092  16.116  13.895  1.00  0.00    -0.550 OA
ATOM      7  O   UNL     1      18.156  18.405  13.875  1.00  0.00    -0.550 OA
ENDBRANCH   4   5
ENDBRANCH   3   4
ENDBRANCH   2   3
ENDBRANCH   1   2
BRANCH   1   8
ATOM      8  C   UNL     1      16.577  16.670  19.814  1.00  0.00     0.000 C 
BRANCH   8   9
ATOM      9  C   UNL     1      17.851  17.128  20.547  1.00  0.00     0.006 C 
BRANCH   9  10
ATOM     10  C   UNL     1      18.965  17.638  19.621  1.00  0.00     0.053 C 
BRANCH  10  11
ATOM     11  C   UNL     1      20.145  18.149  20.390  1.00  0.00     0.041 C 
ATOM     12  O   UNL     1      21.314  17.910  19.991  1.00  0.00    -0.550 OA
ATOM     13  O   UNL     1      19.950  18.862  21.567  1.00  0.00    -0.550 OA
ENDBRANCH  10  11
ENDBRANCH   9  10
ENDBRANCH   8   9
ENDBRANCH   1   8
TORSDOF 8
ENDMDL
MODEL 4
REMARK VINA RESULT:     8.338      1.441      1.861
REMARK INTER + INTRA:          12.062
REMARK INTER:                  12.455
REMARK INTRA:                  -0.393
REMARK UNBOUND:                -0.175
REMARK SMILES O=C([O-])CCCCCCCC(=O)[O-]
REMARK SMILES IDX 7 1 6 2 5 3 4 4 2 5 1 6 3 7 8 8 9 9 10 10 11 11 12 12 13 13
REMARK H PARENT
REMARK Flexibility Score: inf
ROOT
ATOM      1  C   UNL     1      16.116  18.118  19.080  1.00  0.00     0.000 C 
ENDROOT
BRANCH   1   2
ATOM      2  C   UNL     1      16.487  16.815  19.799  1.00  0.00     0.000 C 
BRANCH   2   3
ATOM      3  C   UNL     1      17.835  16.950  20.521  1.00  0.00     0.006 C 
BRANCH   3   4
ATOM      4  C   UNL     1      18.949  17.436  19.586  1.00  0.00     0.053 C 
BRANCH   4   5
ATOM      5  C   UNL     1      20.048  18.122  20.337  1.00  0.00     0.041 C 
ATOM      6  O   UNL     1      19.788  18.775  21.382  1.00  0.00    -0.550 OA
ATOM      7  O   UNL     1      21.363  18.012  19.904  1.00  0.00    -0.550 OA
ENDBRANCH   4   5
ENDBRANCH   3   4
ENDBRANCH   2   3
ENDBRANCH   1   2
BRANCH   1   8
ATOM      8  C   UNL     1      15.649  17.840  17.643  1.00  0.00     0.000 C 
BRANCH   8   9
ATOM      9  C   UNL     1      16.816  17.554  16.682  1.00  0.00     0.006 C 
BRANCH   9  10
ATOM     10  C   UNL     1      16.384  17.188  15.253  1.00  0.00     0.053 C 
BRANCH  10  11
ATOM     11  C   UNL     1      17.530  17.236  14.290  1.00  0.00     0.041 C 
ATOM     12  O   UNL     1      18.058  16.170  13.878  1.00  0.00    -0.550 OA
ATOM     13  O   UNL     1      18.038  18.461  13.875  1.00  0.00    -0.550 OA
ENDBRANCH  10  11
ENDBRANCH   9  10
ENDBRANCH   8   9
ENDBRANCH   1   8
TORSDOF 8
ENDMDL
