MODEL 1
REMARK VINA RESULT:    -4.752      0.000      0.000
REMARK INTER + INTRA:          -6.356
REMARK INTER:                  -6.696
REMARK INTRA:                   0.340
REMARK UNBOUND:                 0.340
REMARK SMILES CC1=CCC(=C(C)C)C(=O)CC(C)=CCC1
REMARK SMILES IDX 12 1 14 2 13 3 15 4 16 5 2 6 1 7 3 8 11 10 9 11 10 12 5 13
REMARK SMILES IDX 6 14 7 15 8 16 4 17
REMARK H PARENT
REMARK Flexibility Score: 60.00
ROOT
ATOM      1  C   UNL     1      18.936  28.013 -14.351  1.00  0.00    -0.070 C 
ATOM      2  C   UNL     1      19.344  28.306 -13.094  1.00  0.00    -0.027 C 
ATOM      3  C   UNL     1      17.815  27.015 -14.503  1.00  0.00     0.039 C 
ENDROOT
BRANCH   2   4
ATOM      4  C   UNL     1      20.509  29.190 -12.715  1.00  0.00     0.032 C 
BRANCH   4   5
ATOM      5  C   UNL     1      21.861  28.458 -12.807  1.00  0.00     0.034 C 
BRANCH   5   6
ATOM      6  C   UNL     1      22.894  29.258 -13.578  1.00  0.00    -0.077 C 
ATOM      7  C   UNL     1      23.420  30.529 -12.960  1.00  0.00     0.039 C 
ATOM      8  C   UNL     1      23.390  28.883 -14.779  1.00  0.00    -0.023 CG0
ATOM      9  G   UNL     1      23.016  27.632 -15.537  1.00  0.00     0.000 G0
ENDBRANCH   5   6
ENDBRANCH   4   5
ENDBRANCH   2   4
BRANCH   1  10
ATOM     10  C   UNL     1      19.584  28.579 -15.603  1.00  0.00     0.111 C 
BRANCH  10  11
ATOM     11  C   UNL     1      20.543  27.595 -16.227  1.00  0.00     0.163 C 
ATOM     12  O   UNL     1      20.117  26.438 -16.490  1.00  0.00    -0.294 OA
BRANCH  11  13
ATOM     13  C   UNL     1      21.945  27.974 -16.583  1.00  0.00    -0.002 C 
ATOM     14  C   UNL     1      22.254  28.532 -17.793  1.00  0.00    -0.069 C 
ATOM     15  C   UNL     1      21.206  28.728 -18.866  1.00  0.00     0.039 C 
ATOM     16  C   UNL     1      23.669  28.946 -18.131  1.00  0.00     0.039 C 
BRANCH  13  17
ATOM     17  C   UNL     1      23.028  27.644 -15.571  1.00  0.00     0.066 CG0
ATOM     18  G   UNL     1      23.391  28.884 -14.788  1.00  0.00     0.000 G0
ENDBRANCH  13  17
ENDBRANCH  11  13
ENDBRANCH  10  11
ENDBRANCH   1  10
TORSDOF 0
ENDMDL
MODEL 2
REMARK VINA RESULT:    -4.573     10.377     12.484
REMARK INTER + INTRA:          -6.103
REMARK INTER:                  -6.531
REMARK INTRA:                   0.428
REMARK UNBOUND:                 0.340
REMARK SMILES CC1=CCC(=C(C)C)C(=O)CC(C)=CCC1
REMARK SMILES IDX 12 1 14 2 13 3 15 4 16 5 2 6 1 7 3 8 11 10 9 11 10 12 5 13
REMARK SMILES IDX 6 14 7 15 8 16 4 17
REMARK H PARENT
REMARK Flexibility Score: 60.00
ROOT
ATOM      1  C   UNL     1      35.490  31.617 -13.777  1.00  0.00    -0.070 C 
ATOM      2  C   UNL     1      35.183  31.095 -12.566  1.00  0.00    -0.027 C 
ATOM      3  C   UNL     1      36.531  32.708 -13.820  1.00  0.00     0.039 C 
ENDROOT
BRANCH   2   4
ATOM      4  C   UNL     1      34.106  30.077 -12.278  1.00  0.00     0.032 C 
BRANCH   4   5
ATOM      5  C   UNL     1      32.688  30.663 -12.409  1.00  0.00     0.034 C 
BRANCH   5   6
ATOM      6  C   UNL     1      31.798  29.816 -13.298  1.00  0.00    -0.077 C 
ATOM      7  C   UNL     1      31.549  28.382 -12.902  1.00  0.00     0.039 C 
ATOM      8  C   UNL     1      31.192  30.281 -14.414  1.00  0.00    -0.023 CG0
ATOM      9  G   UNL     1      31.290  31.688 -14.951  1.00  0.00     0.000 G0
ENDBRANCH   5   6
ENDBRANCH   4   5
ENDBRANCH   2   4
BRANCH   1  10
ATOM     10  C   UNL     1      34.801  31.214 -15.070  1.00  0.00     0.111 C 
BRANCH  10  11
ATOM     11  C   UNL     1      33.743  32.211 -15.471  1.00  0.00     0.163 C 
ATOM     12  O   UNL     1      34.033  33.437 -15.416  1.00  0.00    -0.294 OA
BRANCH  11  13
ATOM     13  C   UNL     1      32.401  31.783 -15.975  1.00  0.00    -0.002 C 
ATOM     14  C   UNL     1      32.173  31.550 -17.303  1.00  0.00    -0.069 C 
ATOM     15  C   UNL     1      33.245  31.785 -18.344  1.00  0.00     0.039 C 
ATOM     16  C   UNL     1      30.824  31.081 -17.800  1.00  0.00     0.039 C 
BRANCH  13  17
ATOM     17  C   UNL     1      31.279  31.688 -14.957  1.00  0.00     0.066 CG0
ATOM     18  G   UNL     1      31.206  30.284 -14.405  1.00  0.00     0.000 G0
ENDBRANCH  13  17
ENDBRANCH  11  13
ENDBRANCH  10  11
ENDBRANCH   1  10
TORSDOF 0
ENDMDL
MODEL 3
REMARK VINA RESULT:    -4.412      2.204      5.069
REMARK INTER + INTRA:          -5.877
REMARK INTER:                  -6.217
REMARK INTRA:                   0.340
REMARK UNBOUND:                 0.340
REMARK SMILES CC1=CCC(=C(C)C)C(=O)CC(C)=CCC1
REMARK SMILES IDX 12 1 14 2 13 3 15 4 16 5 2 6 1 7 3 8 11 10 9 11 10 12 5 13
REMARK SMILES IDX 6 14 7 15 8 16 4 17
REMARK H PARENT
REMARK Flexibility Score: 60.00
ROOT
ATOM      1  C   UNL     1      21.628  28.408 -16.201  1.00  0.00    -0.070 C 
ATOM      2  C   UNL     1      20.315  28.361 -16.531  1.00  0.00    -0.027 C 
ATOM      3  C   UNL     1      22.565  29.082 -17.173  1.00  0.00     0.039 C 
ENDROOT
BRANCH   2   4
ATOM      4  C   UNL     1      19.226  27.650 -15.765  1.00  0.00     0.032 C 
BRANCH   4   5
ATOM      5  C   UNL     1      18.657  28.503 -14.615  1.00  0.00     0.034 C 
BRANCH   5   6
ATOM      6  C   UNL     1      18.721  27.783 -13.282  1.00  0.00    -0.077 C 
ATOM      7  C   UNL     1      17.813  26.598 -13.066  1.00  0.00     0.039 C 
ATOM      8  C   UNL     1      19.564  28.126 -12.283  1.00  0.00    -0.023 CG0
ATOM      9  G   UNL     1      20.568  29.254 -12.323  1.00  0.00     0.000 G0
ENDBRANCH   5   6
ENDBRANCH   4   5
ENDBRANCH   2   4
BRANCH   1  10
ATOM     10  C   UNL     1      22.208  27.768 -14.952  1.00  0.00     0.111 C 
BRANCH  10  11
ATOM     11  C   UNL     1      22.543  28.800 -13.903  1.00  0.00     0.163 C 
ATOM     12  O   UNL     1      23.283  29.765 -14.236  1.00  0.00    -0.294 OA
BRANCH  11  13
ATOM     13  C   UNL     1      21.981  28.732 -12.518  1.00  0.00    -0.002 C 
ATOM     14  C   UNL     1      22.675  28.158 -11.489  1.00  0.00    -0.069 C 
ATOM     15  C   UNL     1      24.015  27.493 -11.709  1.00  0.00     0.039 C 
ATOM     16  C   UNL     1      22.116  28.127 -10.083  1.00  0.00     0.039 C 
BRANCH  13  17
ATOM     17  C   UNL     1      20.574  29.264 -12.317  1.00  0.00     0.066 CG0
ATOM     18  G   UNL     1      19.595  28.115 -12.273  1.00  0.00     0.000 G0
ENDBRANCH  13  17
ENDBRANCH  11  13
ENDBRANCH  10  11
ENDBRANCH   1  10
TORSDOF 0
ENDMDL
MODEL 4
REMARK VINA RESULT:    -4.361      9.421     12.073
REMARK INTER + INTRA:          -5.805
REMARK INTER:                  -6.155
REMARK INTRA:                   0.350
REMARK UNBOUND:                 0.340
REMARK SMILES CC1=CCC(=C(C)C)C(=O)CC(C)=CCC1
REMARK SMILES IDX 12 1 14 2 13 3 15 4 16 5 2 6 1 7 3 8 11 10 9 11 10 12 5 13
REMARK SMILES IDX 6 14 7 15 8 16 4 17
REMARK H PARENT
REMARK Flexibility Score: 60.00
ROOT
ATOM      1  C   UNL     1      34.655  31.129 -12.787  1.00  0.00    -0.070 C 
ATOM      2  C   UNL     1      34.882  31.785 -13.950  1.00  0.00    -0.027 C 
ATOM      3  C   UNL     1      35.525  31.484 -11.607  1.00  0.00     0.039 C 
ENDROOT
BRANCH   2   4
ATOM      4  C   UNL     1      34.208  31.518 -15.274  1.00  0.00     0.032 C 
BRANCH   4   5
ATOM      5  C   UNL     1      32.872  32.271 -15.421  1.00  0.00     0.034 C 
BRANCH   5   6
ATOM      6  C   UNL     1      31.729  31.344 -15.785  1.00  0.00    -0.077 C 
ATOM      7  C   UNL     1      31.707  30.746 -17.169  1.00  0.00     0.039 C 
ATOM      8  C   UNL     1      30.739  31.003 -14.930  1.00  0.00    -0.023 CG0
ATOM      9  G   UNL     1      30.608  31.468 -13.499  1.00  0.00     0.000 G0
ENDBRANCH   5   6
ENDBRANCH   4   5
ENDBRANCH   2   4
BRANCH   1  10
ATOM     10  C   UNL     1      33.627  30.022 -12.629  1.00  0.00     0.111 C 
BRANCH  10  11
ATOM     11  C   UNL     1      32.386  30.512 -11.924  1.00  0.00     0.163 C 
ATOM     12  O   UNL     1      32.525  31.087 -10.811  1.00  0.00    -0.294 OA
BRANCH  11  13
ATOM     13  C   UNL     1      31.026  30.380 -12.532  1.00  0.00    -0.002 C 
ATOM     14  C   UNL     1      30.229  29.297 -12.284  1.00  0.00    -0.069 C 
ATOM     15  C   UNL     1      30.709  28.137 -11.439  1.00  0.00     0.039 C 
ATOM     16  C   UNL     1      28.840  29.189 -12.872  1.00  0.00     0.039 C 
BRANCH  13  17
ATOM     17  C   UNL     1      30.594  31.467 -13.499  1.00  0.00     0.066 CG0
ATOM     18  G   UNL     1      30.745  30.978 -14.920  1.00  0.00     0.000 G0
ENDBRANCH  13  17
ENDBRANCH  11  13
ENDBRANCH  10  11
ENDBRANCH   1  10
TORSDOF 0
ENDMDL
MODEL 5
REMARK VINA RESULT:    -4.264      1.513      3.786
REMARK INTER + INTRA:          -5.668
REMARK INTER:                  -6.031
REMARK INTRA:                   0.363
REMARK UNBOUND:                 0.340
REMARK SMILES CC1=CCC(=C(C)C)C(=O)CC(C)=CCC1
REMARK SMILES IDX 12 1 14 2 13 3 15 4 16 5 2 6 1 7 3 8 11 10 9 11 10 12 5 13
REMARK SMILES IDX 6 14 7 15 8 16 4 17
REMARK H PARENT
REMARK Flexibility Score: 60.00
ROOT
ATOM      1  C   UNL     1      18.858  27.735 -14.104  1.00  0.00    -0.070 C 
ATOM      2  C   UNL     1      19.029  27.153 -15.315  1.00  0.00    -0.027 C 
ATOM      3  C   UNL     1      17.771  27.183 -13.215  1.00  0.00     0.039 C 
ENDROOT
BRANCH   2   4
ATOM      4  C   UNL     1      19.977  27.607 -16.399  1.00  0.00     0.032 C 
BRANCH   4   5
ATOM      5  C   UNL     1      21.435  27.195 -16.121  1.00  0.00     0.034 C 
BRANCH   5   6
ATOM      6  C   UNL     1      22.392  28.366 -16.228  1.00  0.00    -0.077 C 
ATOM      7  C   UNL     1      22.505  29.077 -17.553  1.00  0.00     0.039 C 
ATOM      8  C   UNL     1      23.132  28.827 -15.195  1.00  0.00    -0.023 CG0
ATOM      9  G   UNL     1      23.129  28.273 -13.790  1.00  0.00     0.000 G0
ENDBRANCH   5   6
ENDBRANCH   4   5
ENDBRANCH   2   4
BRANCH   1  10
ATOM     10  C   UNL     1      19.649  28.941 -13.627  1.00  0.00     0.111 C 
BRANCH  10  11
ATOM     11  C   UNL     1      20.793  28.536 -12.730  1.00  0.00     0.163 C 
ATOM     12  O   UNL     1      20.568  27.679 -11.833  1.00  0.00    -0.294 OA
BRANCH  11  13
ATOM     13  C   UNL     1      22.174  29.079 -12.914  1.00  0.00    -0.002 C 
ATOM     14  C   UNL     1      22.552  30.280 -12.379  1.00  0.00    -0.069 C 
ATOM     15  C   UNL     1      21.571  31.160 -11.635  1.00  0.00     0.039 C 
ATOM     16  C   UNL     1      23.961  30.805 -12.538  1.00  0.00     0.039 C 
BRANCH  13  17
ATOM     17  C   UNL     1      23.123  28.275 -13.784  1.00  0.00     0.066 CG0
ATOM     18  G   UNL     1      23.118  28.825 -15.190  1.00  0.00     0.000 G0
ENDBRANCH  13  17
ENDBRANCH  11  13
ENDBRANCH  10  11
ENDBRANCH   1  10
TORSDOF 0
ENDMDL
MODEL 6
REMARK VINA RESULT:    -4.247      7.032      9.399
REMARK INTER + INTRA:          -5.644
REMARK INTER:                  -6.150
REMARK INTRA:                   0.505
REMARK UNBOUND:                 0.340
REMARK SMILES CC1=CCC(=C(C)C)C(=O)CC(C)=CCC1
REMARK SMILES IDX 12 1 14 2 13 3 15 4 16 5 2 6 1 7 3 8 11 10 9 11 10 12 5 13
REMARK SMILES IDX 6 14 7 15 8 16 4 17
REMARK H PARENT
REMARK Flexibility Score: 60.00
ROOT
ATOM      1  C   UNL     1      18.459  25.617 -24.916  1.00  0.00    -0.070 C 
ATOM      2  C   UNL     1      18.071  26.387 -23.872  1.00  0.00    -0.027 C 
ATOM      3  C   UNL     1      17.387  24.852 -25.653  1.00  0.00     0.039 C 
ENDROOT
BRANCH   2   4
ATOM      4  C   UNL     1      18.978  27.149 -22.936  1.00  0.00     0.032 C 
BRANCH   4   5
ATOM      5  C   UNL     1      19.537  26.266 -21.805  1.00  0.00     0.034 C 
BRANCH   5   6
ATOM      6  C   UNL     1      21.053  26.295 -21.751  1.00  0.00    -0.077 C 
ATOM      7  C   UNL     1      21.726  27.535 -21.218  1.00  0.00     0.039 C 
ATOM      8  C   UNL     1      21.836  25.261 -22.131  1.00  0.00    -0.023 CG0
ATOM      9  G   UNL     1      21.351  23.931 -22.655  1.00  0.00     0.000 G0
ENDBRANCH   5   6
ENDBRANCH   4   5
ENDBRANCH   2   4
BRANCH   1  10
ATOM     10  C   UNL     1      19.907  25.434 -25.338  1.00  0.00     0.111 C 
BRANCH  10  11
ATOM     11  C   UNL     1      20.405  24.044 -25.027  1.00  0.00     0.163 C 
ATOM     12  O   UNL     1      19.824  23.069 -25.576  1.00  0.00    -0.294 OA
BRANCH  11  13
ATOM     13  C   UNL     1      21.587  23.807 -24.141  1.00  0.00    -0.002 C 
ATOM     14  C   UNL     1      22.803  23.438 -24.647  1.00  0.00    -0.069 C 
ATOM     15  C   UNL     1      23.001  23.179 -26.124  1.00  0.00     0.039 C 
ATOM     16  C   UNL     1      24.003  23.237 -23.748  1.00  0.00     0.039 C 
BRANCH  13  17
ATOM     17  C   UNL     1      21.362  23.920 -22.644  1.00  0.00     0.066 CG0
ATOM     18  G   UNL     1      21.846  25.264 -22.154  1.00  0.00     0.000 G0
ENDBRANCH  13  17
ENDBRANCH  11  13
ENDBRANCH  10  11
ENDBRANCH   1  10
TORSDOF 0
ENDMDL
MODEL 7
REMARK VINA RESULT:    -4.156     10.341     12.601
REMARK INTER + INTRA:          -5.516
REMARK INTER:                  -6.015
REMARK INTRA:                   0.499
REMARK UNBOUND:                 0.340
REMARK SMILES CC1=CCC(=C(C)C)C(=O)CC(C)=CCC1
REMARK SMILES IDX 12 1 14 2 13 3 15 4 16 5 2 6 1 7 3 8 11 10 9 11 10 12 5 13
REMARK SMILES IDX 6 14 7 15 8 16 4 17
REMARK H PARENT
REMARK Flexibility Score: 60.00
ROOT
ATOM      1  C   UNL     1      32.319  31.382 -15.657  1.00  0.00    -0.070 C 
ATOM      2  C   UNL     1      33.640  31.579 -15.877  1.00  0.00    -0.027 C 
ATOM      3  C   UNL     1      31.498  30.834 -16.798  1.00  0.00     0.039 C 
ENDROOT
BRANCH   2   4
ATOM      4  C   UNL     1      34.621  32.212 -14.920  1.00  0.00     0.032 C 
BRANCH   4   5
ATOM      5  C   UNL     1      35.467  31.171 -14.164  1.00  0.00     0.034 C 
BRANCH   5   6
ATOM      6  C   UNL     1      35.396  31.357 -12.660  1.00  0.00    -0.077 C 
ATOM      7  C   UNL     1      36.337  32.344 -12.017  1.00  0.00     0.039 C 
ATOM      8  C   UNL     1      34.518  30.706 -11.865  1.00  0.00    -0.023 CG0
ATOM      9  G   UNL     1      33.479  29.711 -12.324  1.00  0.00     0.000 G0
ENDBRANCH   5   6
ENDBRANCH   4   5
ENDBRANCH   2   4
BRANCH   1  10
ATOM     10  C   UNL     1      31.616  31.741 -14.359  1.00  0.00     0.111 C 
BRANCH  10  11
ATOM     11  C   UNL     1      31.361  30.521 -13.509  1.00  0.00     0.163 C 
ATOM     12  O   UNL     1      30.545  29.660 -13.937  1.00  0.00    -0.294 OA
BRANCH  11  13
ATOM     13  C   UNL     1      32.084  30.289 -12.220  1.00  0.00    -0.002 C 
ATOM     14  C   UNL     1      31.548  30.661 -11.018  1.00  0.00    -0.069 C 
ATOM     15  C   UNL     1      30.228  31.395 -10.932  1.00  0.00     0.039 C 
ATOM     16  C   UNL     1      32.268  30.389  -9.716  1.00  0.00     0.039 C 
BRANCH  13  17
ATOM     17  C   UNL     1      33.475  29.687 -12.307  1.00  0.00     0.066 CG0
ATOM     18  G   UNL     1      34.501  30.706 -11.874  1.00  0.00     0.000 G0
ENDBRANCH  13  17
ENDBRANCH  11  13
ENDBRANCH  10  11
ENDBRANCH   1  10
TORSDOF 0
ENDMDL
MODEL 8
REMARK VINA RESULT:    -4.085     10.121     12.491
REMARK INTER + INTRA:          -5.416
REMARK INTER:                  -5.938
REMARK INTRA:                   0.522
REMARK UNBOUND:                 0.340
REMARK SMILES CC1=CCC(=C(C)C)C(=O)CC(C)=CCC1
REMARK SMILES IDX 12 1 14 2 13 3 15 4 16 5 2 6 1 7 3 8 11 10 9 11 10 12 5 13
REMARK SMILES IDX 6 14 7 15 8 16 4 17
REMARK H PARENT
REMARK Flexibility Score: 60.00
ROOT
ATOM      1  C   UNL     1      32.472  31.670 -16.230  1.00  0.00    -0.070 C 
ATOM      2  C   UNL     1      31.180  31.280 -16.112  1.00  0.00    -0.027 C 
ATOM      3  C   UNL     1      33.156  31.417 -17.551  1.00  0.00     0.039 C 
ENDROOT
BRANCH   2   4
ATOM      4  C   UNL     1      30.340  31.339 -14.858  1.00  0.00     0.032 C 
BRANCH   4   5
ATOM      5  C   UNL     1      30.447  30.057 -14.013  1.00  0.00     0.034 C 
BRANCH   5   6
ATOM      6  C   UNL     1      30.830  30.349 -12.575  1.00  0.00    -0.077 C 
ATOM      7  C   UNL     1      29.756  30.836 -11.634  1.00  0.00     0.039 C 
ATOM      8  C   UNL     1      32.075  30.173 -12.079  1.00  0.00    -0.023 CG0
ATOM      9  G   UNL     1      33.269  29.663 -12.851  1.00  0.00     0.000 G0
ENDBRANCH   5   6
ENDBRANCH   4   5
ENDBRANCH   2   4
BRANCH   1  10
ATOM     10  C   UNL     1      33.277  32.282 -15.097  1.00  0.00     0.111 C 
BRANCH  10  11
ATOM     11  C   UNL     1      34.292  31.310 -14.548  1.00  0.00     0.163 C 
ATOM     12  O   UNL     1      35.237  30.952 -15.301  1.00  0.00    -0.294 OA
BRANCH  11  13
ATOM     13  C   UNL     1      34.231  30.814 -13.138  1.00  0.00    -0.002 C 
ATOM     14  C   UNL     1      35.051  31.315 -12.164  1.00  0.00    -0.069 C 
ATOM     15  C   UNL     1      36.113  32.346 -12.475  1.00  0.00     0.039 C 
ATOM     16  C   UNL     1      34.958  30.835 -10.732  1.00  0.00     0.039 C 
BRANCH  13  17
ATOM     17  C   UNL     1      33.271  29.676 -12.846  1.00  0.00     0.066 CG0
ATOM     18  G   UNL     1      32.080  30.196 -12.076  1.00  0.00     0.000 G0
ENDBRANCH  13  17
ENDBRANCH  11  13
ENDBRANCH  10  11
ENDBRANCH   1  10
TORSDOF 0
ENDMDL
MODEL 9
REMARK VINA RESULT:    -3.979     14.521     16.428
REMARK INTER + INTRA:          -5.267
REMARK INTER:                  -5.973
REMARK INTRA:                   0.706
REMARK UNBOUND:                 0.340
REMARK SMILES CC1=CCC(=C(C)C)C(=O)CC(C)=CCC1
REMARK SMILES IDX 12 1 14 2 13 3 15 4 16 5 2 6 1 7 3 8 11 10 9 11 10 12 5 13
REMARK SMILES IDX 6 14 7 15 8 16 4 17
REMARK H PARENT
REMARK Flexibility Score: 60.00
ROOT
ATOM      1  C   UNL     1      32.894  34.915 -22.043  1.00  0.00    -0.070 C 
ATOM      2  C   UNL     1      33.480  34.645 -23.234  1.00  0.00    -0.027 C 
ATOM      3  C   UNL     1      33.634  34.500 -20.795  1.00  0.00     0.039 C 
ENDROOT
BRANCH   2   4
ATOM      4  C   UNL     1      32.877  34.875 -24.599  1.00  0.00     0.032 C 
BRANCH   4   5
ATOM      5  C   UNL     1      33.763  35.757 -25.497  1.00  0.00     0.034 C 
BRANCH   5   6
ATOM      6  C   UNL     1      33.980  37.138 -24.910  1.00  0.00    -0.077 C 
ATOM      7  C   UNL     1      35.394  37.645 -24.777  1.00  0.00     0.039 C 
ATOM      8  C   UNL     1      32.974  37.954 -24.521  1.00  0.00    -0.023 CG0
ATOM      9  G   UNL     1      31.500  37.641 -24.608  1.00  0.00     0.000 G0
ENDBRANCH   5   6
ENDBRANCH   4   5
ENDBRANCH   2   4
BRANCH   1  10
ATOM     10  C   UNL     1      31.519  35.545 -21.901  1.00  0.00     0.111 C 
BRANCH  10  11
ATOM     11  C   UNL     1      31.568  37.038 -22.116  1.00  0.00     0.163 C 
ATOM     12  O   UNL     1      32.280  37.727 -21.337  1.00  0.00    -0.294 OA
BRANCH  11  13
ATOM     13  C   UNL     1      30.845  37.698 -23.247  1.00  0.00    -0.002 C 
ATOM     14  C   UNL     1      29.619  38.280 -23.075  1.00  0.00    -0.069 C 
ATOM     15  C   UNL     1      28.893  38.221 -21.750  1.00  0.00     0.039 C 
ATOM     16  C   UNL     1      28.912  38.979 -24.215  1.00  0.00     0.039 C 
BRANCH  13  17
ATOM     17  C   UNL     1      31.498  37.633 -24.616  1.00  0.00     0.066 CG0
ATOM     18  G   UNL     1      32.967  37.963 -24.498  1.00  0.00     0.000 G0
ENDBRANCH  13  17
ENDBRANCH  11  13
ENDBRANCH  10  11
ENDBRANCH   1  10
TORSDOF 0
ENDMDL
