MODEL 1
REMARK VINA RESULT:    -1.203      0.000      0.000
REMARK INTER + INTRA:          -0.703
REMARK INTER:                  -1.837
REMARK INTRA:                   1.134
REMARK UNBOUND:                 1.134
REMARK SMILES CC1=CCC[C@@H](C)C(=O)C[C@@H](C(C)C)C(=O)C1
REMARK SMILES IDX 8 1 9 2 6 3 7 4 5 5 4 6 3 7 2 8 1 9 10 11 11 12 15 13 16 14
REMARK SMILES IDX 17 15 12 17 13 18 14 19
REMARK H PARENT
REMARK Flexibility Score: 70.00
ROOT
ATOM      1  C   UNL     1      78.896  14.787   0.888  1.00  0.00     0.136 C 
ATOM      2  O   UNL     1      79.707  14.388   0.063  1.00  0.00    -0.299 OA
ENDROOT
BRANCH   1   3
ATOM      3  C   UNL     1      78.567  13.875   2.060  1.00  0.00     0.053 C 
ATOM      4  C   UNL     1      77.091  13.928   2.488  1.00  0.00     0.016 C 
BRANCH   3   5
ATOM      5  C   UNL     1      79.557  14.052   3.234  1.00  0.00     0.015 C 
BRANCH   5   6
ATOM      6  C   UNL     1      78.886  14.130   4.620  1.00  0.00     0.028 C 
BRANCH   6   7
ATOM      7  C   UNL     1      79.299  15.354   5.401  1.00  0.00    -0.028 C 
ATOM      8  C   UNL     1      79.135  16.637   4.993  1.00  0.00    -0.070 CG0
ATOM      9  C   UNL     1      79.532  17.732   5.952  1.00  0.00     0.039 C 
ATOM     10  G   UNL     1      78.612  17.024   3.615  1.00  0.00     0.000 G0
ENDBRANCH   6   7
ENDBRANCH   5   6
ENDBRANCH   3   5
ENDBRANCH   1   3
BRANCH   1  11
ATOM     11  C   UNL     1      78.269  16.150   0.672  1.00  0.00     0.087 C 
BRANCH  11  12
ATOM     12  C   UNL     1      79.215  17.309   1.085  1.00  0.00     0.066 C 
BRANCH  12  13
ATOM     13  C   UNL     1      79.634  17.180   2.541  1.00  0.00     0.140 C 
ATOM     14  O   UNL     1      80.816  17.184   2.851  1.00  0.00    -0.299 OA
BRANCH  13  15
ATOM     15  C   UNL     1      78.584  17.022   3.614  1.00  0.00     0.106 CG0
ATOM     16  G   UNL     1      79.154  16.653   4.978  1.00  0.00     0.000 G0
ENDBRANCH  13  15
ENDBRANCH  12  13
BRANCH  12  17
ATOM     17  C   UNL     1      78.636  18.711   0.710  1.00  0.00    -0.006 C 
ATOM     18  C   UNL     1      77.129  18.875   0.980  1.00  0.00     0.008 C 
ATOM     19  C   UNL     1      79.426  19.846   1.378  1.00  0.00     0.008 C 
ENDBRANCH  12  17
ENDBRANCH  11  12
ENDBRANCH   1  11
TORSDOF 1
ENDMDL
