MODEL 1
REMARK VINA RESULT:    -4.794      0.000      0.000
REMARK INTER + INTRA:         -10.568
REMARK INTER:                  -8.998
REMARK INTRA:                  -1.571
REMARK UNBOUND:                -1.571
REMARK SMILES CCCCCCCCC=CCCCCCCCC(=O)[O-]
REMARK SMILES IDX 10 1 9 2 11 3 12 4 13 5 14 6 15 7 16 8 17 9 18 10 19 11
REMARK SMILES IDX 20 12 8 13 7 14 6 15 5 16 4 17 3 18 2 19 1 20
REMARK H PARENT
REMARK Flexibility Score: inf
ROOT
ATOM      1  C   UNL     1      29.589  -5.915   1.437  1.00  0.00    -0.031 C 
ATOM      2  C   UNL     1      29.167  -4.732   0.971  1.00  0.00    -0.031 C 
ENDROOT
BRANCH   1   3
ATOM      3  C   UNL     1      28.620  -6.975   1.894  1.00  0.00     0.027 C 
BRANCH   3   4
ATOM      4  C   UNL     1      27.241  -6.850   1.222  1.00  0.00     0.004 C 
BRANCH   4   5
ATOM      5  C   UNL     1      27.057  -7.738  -0.023  1.00  0.00     0.000 C 
BRANCH   5   6
ATOM      6  C   UNL     1      27.187  -6.955  -1.337  1.00  0.00     0.000 C 
BRANCH   6   7
ATOM      7  C   UNL     1      28.579  -7.152  -1.957  1.00  0.00     0.000 C 
BRANCH   7   8
ATOM      8  C   UNL     1      29.068  -5.912  -2.722  1.00  0.00     0.006 C 
BRANCH   8   9
ATOM      9  C   UNL     1      29.936  -6.270  -3.935  1.00  0.00     0.053 C 
BRANCH   9  10
ATOM     10  C   UNL     1      29.912  -5.161  -4.939  1.00  0.00     0.041 C 
ATOM     11  O   UNL     1      29.922  -3.961  -4.558  1.00  0.00    -0.550 OA
ATOM     12  O   UNL     1      29.829  -5.453  -6.294  1.00  0.00    -0.550 OA
ENDBRANCH   9  10
ENDBRANCH   8   9
ENDBRANCH   7   8
ENDBRANCH   6   7
ENDBRANCH   5   6
ENDBRANCH   4   5
ENDBRANCH   3   4
ENDBRANCH   1   3
BRANCH   2  13
ATOM     13  C   UNL     1      30.152  -3.692   0.510  1.00  0.00     0.027 C 
BRANCH  13  14
ATOM     14  C   UNL     1      30.489  -2.687   1.619  1.00  0.00     0.004 C 
BRANCH  14  15
ATOM     15  C   UNL     1      31.255  -1.466   1.078  1.00  0.00     0.000 C 
BRANCH  15  16
ATOM     16  C   UNL     1      30.582  -0.865  -0.173  1.00  0.00     0.000 C 
BRANCH  16  17
ATOM     17  C   UNL     1      31.526  -0.752  -1.383  1.00  0.00    -0.000 C 
BRANCH  17  18
ATOM     18  C   UNL     1      30.841  -1.104  -2.710  1.00  0.00    -0.000 C 
BRANCH  18  19
ATOM     19  C   UNL     1      30.468   0.161  -3.490  1.00  0.00    -0.003 C 
ATOM     20  C   UNL     1      31.658   1.108  -3.606  1.00  0.00     0.004 C 
ENDBRANCH  18  19
ENDBRANCH  17  18
ENDBRANCH  16  17
ENDBRANCH  15  16
ENDBRANCH  14  15
ENDBRANCH  13  14
ENDBRANCH   2  13
TORSDOF 15
ENDMDL
MODEL 2
REMARK VINA RESULT:    -4.759     12.231     15.297
REMARK INTER + INTRA:         -10.504
REMARK INTER:                  -8.210
REMARK INTRA:                  -2.294
REMARK UNBOUND:                -1.571
REMARK SMILES CCCCCCCCC=CCCCCCCCC(=O)[O-]
REMARK SMILES IDX 10 1 9 2 11 3 12 4 13 5 14 6 15 7 16 8 17 9 18 10 19 11
REMARK SMILES IDX 20 12 8 13 7 14 6 15 5 16 4 17 3 18 2 19 1 20
REMARK H PARENT
REMARK Flexibility Score: inf
ROOT
ATOM      1  C   UNL     1      24.485  -0.830 -10.757  1.00  0.00    -0.031 C 
ATOM      2  C   UNL     1      24.137  -1.762 -11.656  1.00  0.00    -0.031 C 
ENDROOT
BRANCH   1   3
ATOM      3  C   UNL     1      24.806   0.583 -11.168  1.00  0.00     0.027 C 
BRANCH   3   4
ATOM      4  C   UNL     1      24.201   0.958 -12.534  1.00  0.00     0.004 C 
BRANCH   4   5
ATOM      5  C   UNL     1      25.190   0.876 -13.711  1.00  0.00     0.000 C 
BRANCH   5   6
ATOM      6  C   UNL     1      24.638   0.074 -14.898  1.00  0.00     0.000 C 
BRANCH   6   7
ATOM      7  C   UNL     1      23.128  -0.165 -14.743  1.00  0.00     0.000 C 
BRANCH   7   8
ATOM      8  C   UNL     1      22.481  -0.714 -16.024  1.00  0.00     0.006 C 
BRANCH   8   9
ATOM      9  C   UNL     1      20.956  -0.842 -15.909  1.00  0.00     0.053 C 
BRANCH   9  10
ATOM     10  C   UNL     1      20.481  -2.073 -16.612  1.00  0.00     0.041 C 
ATOM     11  O   UNL     1      19.903  -1.983 -17.727  1.00  0.00    -0.550 OA
ATOM     12  O   UNL     1      20.633  -3.317 -16.014  1.00  0.00    -0.550 OA
ENDBRANCH   9  10
ENDBRANCH   8   9
ENDBRANCH   7   8
ENDBRANCH   6   7
ENDBRANCH   5   6
ENDBRANCH   4   5
ENDBRANCH   3   4
ENDBRANCH   1   3
BRANCH   2  13
ATOM     13  C   UNL     1      23.809  -3.165 -11.221  1.00  0.00     0.027 C 
BRANCH  13  14
ATOM     14  C   UNL     1      23.839  -4.152 -12.395  1.00  0.00     0.004 C 
BRANCH  14  15
ATOM     15  C   UNL     1      24.416  -3.513 -13.671  1.00  0.00     0.000 C 
BRANCH  15  16
ATOM     16  C   UNL     1      23.819  -4.131 -14.952  1.00  0.00     0.000 C 
BRANCH  16  17
ATOM     17  C   UNL     1      24.558  -3.716 -16.237  1.00  0.00    -0.000 C 
BRANCH  17  18
ATOM     18  C   UNL     1      25.976  -3.195 -15.969  1.00  0.00    -0.000 C 
BRANCH  18  19
ATOM     19  C   UNL     1      27.031  -4.160 -16.521  1.00  0.00    -0.003 C 
ATOM     20  C   UNL     1      27.584  -5.060 -15.421  1.00  0.00     0.004 C 
ENDBRANCH  18  19
ENDBRANCH  17  18
ENDBRANCH  16  17
ENDBRANCH  15  16
ENDBRANCH  14  15
ENDBRANCH  13  14
ENDBRANCH   2  13
TORSDOF 15
ENDMDL
MODEL 3
REMARK VINA RESULT:    -4.735      2.014      5.807
REMARK INTER + INTRA:         -10.458
REMARK INTER:                  -9.226
REMARK INTRA:                  -1.232
REMARK UNBOUND:                -1.571
REMARK SMILES CCCCCCCCC=CCCCCCCCC(=O)[O-]
REMARK SMILES IDX 10 1 9 2 11 3 12 4 13 5 14 6 15 7 16 8 17 9 18 10 19 11
REMARK SMILES IDX 20 12 8 13 7 14 6 15 5 16 4 17 3 18 2 19 1 20
REMARK H PARENT
REMARK Flexibility Score: inf
ROOT
ATOM      1  C   UNL     1      28.832  -4.401   1.062  1.00  0.00    -0.031 C 
ATOM      2  C   UNL     1      28.194  -5.503   1.478  1.00  0.00    -0.031 C 
ENDROOT
BRANCH   1   3
ATOM      3  C   UNL     1      28.322  -3.022   1.390  1.00  0.00     0.027 C 
BRANCH   3   4
ATOM      4  C   UNL     1      29.407  -2.114   1.997  1.00  0.00     0.004 C 
BRANCH   4   5
ATOM      5  C   UNL     1      30.846  -2.488   1.595  1.00  0.00     0.000 C 
BRANCH   5   6
ATOM      6  C   UNL     1      31.663  -1.280   1.114  1.00  0.00     0.000 C 
BRANCH   6   7
ATOM      7  C   UNL     1      31.010  -0.631  -0.116  1.00  0.00     0.000 C 
BRANCH   7   8
ATOM      8  C   UNL     1      31.992  -0.461  -1.287  1.00  0.00     0.006 C 
BRANCH   8   9
ATOM      9  C   UNL     1      31.365  -0.818  -2.640  1.00  0.00     0.053 C 
BRANCH   9  10
ATOM     10  C   UNL     1      31.035   0.424  -3.406  1.00  0.00     0.041 C 
ATOM     11  O   UNL     1      31.956   1.144  -3.873  1.00  0.00    -0.550 OA
ATOM     12  O   UNL     1      29.710   0.812  -3.562  1.00  0.00    -0.550 OA
ENDBRANCH   9  10
ENDBRANCH   8   9
ENDBRANCH   7   8
ENDBRANCH   6   7
ENDBRANCH   5   6
ENDBRANCH   4   5
ENDBRANCH   3   4
ENDBRANCH   1   3
BRANCH   2  13
ATOM     13  C   UNL     1      28.728  -6.871   1.148  1.00  0.00     0.027 C 
BRANCH  13  14
ATOM     14  C   UNL     1      27.745  -7.681   0.294  1.00  0.00     0.004 C 
BRANCH  14  15
ATOM     15  C   UNL     1      27.304  -6.912  -0.964  1.00  0.00     0.000 C 
BRANCH  15  16
ATOM     16  C   UNL     1      28.245  -7.164  -2.160  1.00  0.00     0.000 C 
BRANCH  16  17
ATOM     17  C   UNL     1      29.140  -5.960  -2.503  1.00  0.00    -0.000 C 
BRANCH  17  18
ATOM     18  C   UNL     1      29.930  -6.153  -3.804  1.00  0.00    -0.000 C 
BRANCH  18  19
ATOM     19  C   UNL     1      29.798  -4.928  -4.715  1.00  0.00    -0.003 C 
ATOM     20  C   UNL     1      29.999  -5.307  -6.179  1.00  0.00     0.004 C 
ENDBRANCH  18  19
ENDBRANCH  17  18
ENDBRANCH  16  17
ENDBRANCH  15  16
ENDBRANCH  14  15
ENDBRANCH  13  14
ENDBRANCH   2  13
TORSDOF 15
ENDMDL
MODEL 4
REMARK VINA RESULT:    -4.659     11.919     14.697
REMARK INTER + INTRA:         -10.316
REMARK INTER:                  -8.199
REMARK INTRA:                  -2.117
REMARK UNBOUND:                -1.571
REMARK SMILES CCCCCCCCC=CCCCCCCCC(=O)[O-]
REMARK SMILES IDX 10 1 9 2 11 3 12 4 13 5 14 6 15 7 16 8 17 9 18 10 19 11
REMARK SMILES IDX 20 12 8 13 7 14 6 15 5 16 4 17 3 18 2 19 1 20
REMARK H PARENT
REMARK Flexibility Score: inf
ROOT
ATOM      1  C   UNL     1      23.866  -1.821 -11.683  1.00  0.00    -0.031 C 
ATOM      2  C   UNL     1      24.782  -0.985 -11.176  1.00  0.00    -0.031 C 
ENDROOT
BRANCH   1   3
ATOM      3  C   UNL     1      23.851  -3.285 -11.328  1.00  0.00     0.027 C 
BRANCH   3   4
ATOM      4  C   UNL     1      23.805  -4.198 -12.566  1.00  0.00     0.004 C 
BRANCH   4   5
ATOM      5  C   UNL     1      23.765  -3.446 -13.909  1.00  0.00     0.000 C 
BRANCH   5   6
ATOM      6  C   UNL     1      24.992  -3.731 -14.788  1.00  0.00     0.000 C 
BRANCH   6   7
ATOM      7  C   UNL     1      24.655  -3.549 -16.275  1.00  0.00     0.000 C 
BRANCH   7   8
ATOM      8  C   UNL     1      25.859  -3.817 -17.192  1.00  0.00     0.006 C 
BRANCH   8   9
ATOM      9  C   UNL     1      26.490  -5.194 -16.953  1.00  0.00     0.053 C 
BRANCH   9  10
ATOM     10  C   UNL     1      27.827  -5.049 -16.299  1.00  0.00     0.041 C 
ATOM     11  O   UNL     1      27.972  -5.332 -15.081  1.00  0.00    -0.550 OA
ATOM     12  O   UNL     1      28.904  -4.554 -17.023  1.00  0.00    -0.550 OA
ENDBRANCH   9  10
ENDBRANCH   8   9
ENDBRANCH   7   8
ENDBRANCH   6   7
ENDBRANCH   5   6
ENDBRANCH   4   5
ENDBRANCH   3   4
ENDBRANCH   1   3
BRANCH   2  13
ATOM     13  C   UNL     1      24.772   0.477 -11.537  1.00  0.00     0.027 C 
BRANCH  13  14
ATOM     14  C   UNL     1      24.073   0.733 -12.877  1.00  0.00     0.004 C 
BRANCH  14  15
ATOM     15  C   UNL     1      25.027   0.546 -14.071  1.00  0.00     0.000 C 
BRANCH  15  16
ATOM     16  C   UNL     1      24.293   0.038 -15.329  1.00  0.00     0.000 C 
BRANCH  16  17
ATOM     17  C   UNL     1      22.799  -0.248 -15.095  1.00  0.00    -0.000 C 
BRANCH  17  18
ATOM     18  C   UNL     1      22.031  -0.515 -16.396  1.00  0.00    -0.000 C 
BRANCH  18  19
ATOM     19  C   UNL     1      20.772  -1.347 -16.131  1.00  0.00    -0.003 C 
ATOM     20  C   UNL     1      21.046  -2.836 -16.317  1.00  0.00     0.004 C 
ENDBRANCH  18  19
ENDBRANCH  17  18
ENDBRANCH  16  17
ENDBRANCH  15  16
ENDBRANCH  14  15
ENDBRANCH  13  14
ENDBRANCH   2  13
TORSDOF 15
ENDMDL
MODEL 5
REMARK VINA RESULT:    -4.534     12.295     15.464
REMARK INTER + INTRA:         -10.081
REMARK INTER:                  -7.757
REMARK INTRA:                  -2.324
REMARK UNBOUND:                -1.571
REMARK SMILES CCCCCCCCC=CCCCCCCCC(=O)[O-]
REMARK SMILES IDX 10 1 9 2 11 3 12 4 13 5 14 6 15 7 16 8 17 9 18 10 19 11
REMARK SMILES IDX 20 12 8 13 7 14 6 15 5 16 4 17 3 18 2 19 1 20
REMARK H PARENT
REMARK Flexibility Score: inf
ROOT
ATOM      1  C   UNL     1      21.967  -2.768 -15.731  1.00  0.00    -0.031 C 
ATOM      2  C   UNL     1      22.213  -2.229 -16.933  1.00  0.00    -0.031 C 
ENDROOT
BRANCH   1   3
ATOM      3  C   UNL     1      22.523  -4.112 -15.339  1.00  0.00     0.027 C 
BRANCH   3   4
ATOM      4  C   UNL     1      23.444  -4.038 -14.107  1.00  0.00     0.004 C 
BRANCH   4   5
ATOM      5  C   UNL     1      24.947  -4.123 -14.430  1.00  0.00     0.000 C 
BRANCH   5   6
ATOM      6  C   UNL     1      25.478  -2.862 -15.128  1.00  0.00     0.000 C 
BRANCH   6   7
ATOM      7  C   UNL     1      25.900  -3.171 -16.572  1.00  0.00     0.000 C 
BRANCH   7   8
ATOM      8  C   UNL     1      25.705  -4.651 -16.942  1.00  0.00     0.006 C 
BRANCH   8   9
ATOM      9  C   UNL     1      26.985  -5.297 -17.487  1.00  0.00     0.053 C 
BRANCH   9  10
ATOM     10  C   UNL     1      28.152  -4.960 -16.614  1.00  0.00     0.041 C 
ATOM     11  O   UNL     1      28.146  -5.280 -15.397  1.00  0.00    -0.550 OA
ATOM     12  O   UNL     1      29.226  -4.250 -17.135  1.00  0.00    -0.550 OA
ENDBRANCH   9  10
ENDBRANCH   8   9
ENDBRANCH   7   8
ENDBRANCH   6   7
ENDBRANCH   5   6
ENDBRANCH   4   5
ENDBRANCH   3   4
ENDBRANCH   1   3
BRANCH   2  13
ATOM     13  C   UNL     1      21.656  -0.880 -17.300  1.00  0.00     0.027 C 
BRANCH  13  14
ATOM     14  C   UNL     1      22.307   0.250 -16.493  1.00  0.00     0.004 C 
BRANCH  14  15
ATOM     15  C   UNL     1      23.839   0.106 -16.431  1.00  0.00     0.000 C 
BRANCH  15  16
ATOM     16  C   UNL     1      24.391   0.364 -15.014  1.00  0.00     0.000 C 
BRANCH  16  17
ATOM     17  C   UNL     1      23.397   0.011 -13.893  1.00  0.00    -0.000 C 
BRANCH  17  18
ATOM     18  C   UNL     1      24.089  -0.449 -12.604  1.00  0.00    -0.000 C 
BRANCH  18  19
ATOM     19  C   UNL     1      24.665   0.743 -11.833  1.00  0.00    -0.003 C 
ATOM     20  C   UNL     1      25.447   0.282 -10.607  1.00  0.00     0.004 C 
ENDBRANCH  18  19
ENDBRANCH  17  18
ENDBRANCH  16  17
ENDBRANCH  15  16
ENDBRANCH  14  15
ENDBRANCH  13  14
ENDBRANCH   2  13
TORSDOF 15
ENDMDL
MODEL 6
REMARK VINA RESULT:    -4.489     12.182     15.670
REMARK INTER + INTRA:          -9.996
REMARK INTER:                  -7.745
REMARK INTRA:                  -2.251
REMARK UNBOUND:                -1.571
REMARK SMILES CCCCCCCCC=CCCCCCCCC(=O)[O-]
REMARK SMILES IDX 10 1 9 2 11 3 12 4 13 5 14 6 15 7 16 8 17 9 18 10 19 11
REMARK SMILES IDX 20 12 8 13 7 14 6 15 5 16 4 17 3 18 2 19 1 20
REMARK H PARENT
REMARK Flexibility Score: inf
ROOT
ATOM      1  C   UNL     1      21.950  -2.031 -16.672  1.00  0.00    -0.031 C 
ATOM      2  C   UNL     1      22.639  -1.000 -16.165  1.00  0.00    -0.031 C 
ENDROOT
BRANCH   1   3
ATOM      3  C   UNL     1      21.719  -3.292 -15.880  1.00  0.00     0.027 C 
BRANCH   3   4
ATOM      4  C   UNL     1      23.028  -3.929 -15.381  1.00  0.00     0.004 C 
BRANCH   4   5
ATOM      5  C   UNL     1      22.972  -4.445 -13.931  1.00  0.00     0.000 C 
BRANCH   5   6
ATOM      6  C   UNL     1      24.072  -3.844 -13.043  1.00  0.00     0.000 C 
BRANCH   6   7
ATOM      7  C   UNL     1      24.675  -2.589 -13.691  1.00  0.00     0.000 C 
BRANCH   7   8
ATOM      8  C   UNL     1      24.259  -1.295 -12.974  1.00  0.00     0.006 C 
BRANCH   8   9
ATOM      9  C   UNL     1      24.384  -1.398 -11.448  1.00  0.00     0.053 C 
BRANCH   9  10
ATOM     10  C   UNL     1      25.008  -0.158 -10.891  1.00  0.00     0.041 C 
ATOM     11  O   UNL     1      25.794  -0.230  -9.910  1.00  0.00    -0.550 OA
ATOM     12  O   UNL     1      24.685   1.083 -11.425  1.00  0.00    -0.550 OA
ENDBRANCH   9  10
ENDBRANCH   8   9
ENDBRANCH   7   8
ENDBRANCH   6   7
ENDBRANCH   5   6
ENDBRANCH   4   5
ENDBRANCH   3   4
ENDBRANCH   1   3
BRANCH   2  13
ATOM     13  C   UNL     1      22.848   0.255 -16.971  1.00  0.00     0.027 C 
BRANCH  13  14
ATOM     14  C   UNL     1      24.242   0.302 -17.609  1.00  0.00     0.004 C 
BRANCH  14  15
ATOM     15  C   UNL     1      25.270  -0.521 -16.812  1.00  0.00     0.000 C 
BRANCH  15  16
ATOM     16  C   UNL     1      25.856  -1.682 -17.642  1.00  0.00     0.000 C 
BRANCH  16  17
ATOM     17  C   UNL     1      26.276  -2.894 -16.792  1.00  0.00    -0.000 C 
BRANCH  17  18
ATOM     18  C   UNL     1      26.001  -4.235 -17.485  1.00  0.00    -0.000 C 
BRANCH  18  19
ATOM     19  C   UNL     1      26.764  -5.375 -16.801  1.00  0.00    -0.003 C 
ATOM     20  C   UNL     1      28.119  -4.901 -16.287  1.00  0.00     0.004 C 
ENDBRANCH  18  19
ENDBRANCH  17  18
ENDBRANCH  16  17
ENDBRANCH  15  16
ENDBRANCH  14  15
ENDBRANCH  13  14
ENDBRANCH   2  13
TORSDOF 15
ENDMDL
MODEL 7
REMARK VINA RESULT:    -4.453     12.554     15.976
REMARK INTER + INTRA:          -9.929
REMARK INTER:                  -8.035
REMARK INTRA:                  -1.893
REMARK UNBOUND:                -1.571
REMARK SMILES CCCCCCCCC=CCCCCCCCC(=O)[O-]
REMARK SMILES IDX 10 1 9 2 11 3 12 4 13 5 14 6 15 7 16 8 17 9 18 10 19 11
REMARK SMILES IDX 20 12 8 13 7 14 6 15 5 16 4 17 3 18 2 19 1 20
REMARK H PARENT
REMARK Flexibility Score: inf
ROOT
ATOM      1  C   UNL     1      21.311  -3.341 -15.876  1.00  0.00    -0.031 C 
ATOM      2  C   UNL     1      22.567  -3.731 -15.621  1.00  0.00    -0.031 C 
ENDROOT
BRANCH   1   3
ATOM      3  C   UNL     1      20.951  -2.621 -17.149  1.00  0.00     0.027 C 
BRANCH   3   4
ATOM      4  C   UNL     1      22.120  -1.796 -17.717  1.00  0.00     0.004 C 
BRANCH   4   5
ATOM      5  C   UNL     1      22.218  -0.364 -17.160  1.00  0.00     0.000 C 
BRANCH   5   6
ATOM      6  C   UNL     1      23.491  -0.132 -16.333  1.00  0.00     0.000 C 
BRANCH   6   7
ATOM      7  C   UNL     1      23.156   0.019 -14.842  1.00  0.00     0.000 C 
BRANCH   7   8
ATOM      8  C   UNL     1      24.410   0.154 -13.964  1.00  0.00     0.006 C 
BRANCH   8   9
ATOM      9  C   UNL     1      24.133   0.887 -12.645  1.00  0.00     0.053 C 
BRANCH   9  10
ATOM     10  C   UNL     1      24.810   0.190 -11.508  1.00  0.00     0.041 C 
ATOM     11  O   UNL     1      25.496   0.846 -10.681  1.00  0.00    -0.550 OA
ATOM     12  O   UNL     1      24.725  -1.191 -11.391  1.00  0.00    -0.550 OA
ENDBRANCH   9  10
ENDBRANCH   8   9
ENDBRANCH   7   8
ENDBRANCH   6   7
ENDBRANCH   5   6
ENDBRANCH   4   5
ENDBRANCH   3   4
ENDBRANCH   1   3
BRANCH   2  13
ATOM     13  C   UNL     1      22.902  -4.459 -14.346  1.00  0.00     0.027 C 
BRANCH  13  14
ATOM     14  C   UNL     1      24.136  -3.867 -13.654  1.00  0.00     0.004 C 
BRANCH  14  15
ATOM     15  C   UNL     1      25.059  -3.136 -14.646  1.00  0.00     0.000 C 
BRANCH  15  16
ATOM     16  C   UNL     1      26.206  -4.037 -15.146  1.00  0.00     0.000 C 
BRANCH  16  17
ATOM     17  C   UNL     1      26.196  -4.258 -16.669  1.00  0.00    -0.000 C 
BRANCH  17  18
ATOM     18  C   UNL     1      26.595  -3.003 -17.457  1.00  0.00    -0.000 C 
BRANCH  18  19
ATOM     19  C   UNL     1      27.997  -3.154 -18.057  1.00  0.00    -0.003 C 
ATOM     20  C   UNL     1      28.754  -4.308 -17.407  1.00  0.00     0.004 C 
ENDBRANCH  18  19
ENDBRANCH  17  18
ENDBRANCH  16  17
ENDBRANCH  15  16
ENDBRANCH  14  15
ENDBRANCH  13  14
ENDBRANCH   2  13
TORSDOF 15
ENDMDL
MODEL 8
REMARK VINA RESULT:    -4.442     12.911     16.037
REMARK INTER + INTRA:          -9.908
REMARK INTER:                  -7.651
REMARK INTRA:                  -2.257
REMARK UNBOUND:                -1.571
REMARK SMILES CCCCCCCCC=CCCCCCCCC(=O)[O-]
REMARK SMILES IDX 10 1 9 2 11 3 12 4 13 5 14 6 15 7 16 8 17 9 18 10 19 11
REMARK SMILES IDX 20 12 8 13 7 14 6 15 5 16 4 17 3 18 2 19 1 20
REMARK H PARENT
REMARK Flexibility Score: inf
ROOT
ATOM      1  C   UNL     1      20.977  -0.500 -16.572  1.00  0.00    -0.031 C 
ATOM      2  C   UNL     1      21.907  -0.396 -17.530  1.00  0.00    -0.031 C 
ENDROOT
BRANCH   1   3
ATOM      3  C   UNL     1      20.329  -1.818 -16.239  1.00  0.00     0.027 C 
BRANCH   3   4
ATOM      4  C   UNL     1      21.226  -3.024 -16.574  1.00  0.00     0.004 C 
BRANCH   4   5
ATOM      5  C   UNL     1      22.244  -3.383 -15.476  1.00  0.00     0.000 C 
BRANCH   5   6
ATOM      6  C   UNL     1      23.608  -3.801 -16.044  1.00  0.00     0.000 C 
BRANCH   6   7
ATOM      7  C   UNL     1      24.682  -3.799 -14.945  1.00  0.00     0.000 C 
BRANCH   7   8
ATOM      8  C   UNL     1      26.081  -3.457 -15.485  1.00  0.00     0.006 C 
BRANCH   8   9
ATOM      9  C   UNL     1      27.075  -4.614 -15.323  1.00  0.00     0.053 C 
BRANCH   9  10
ATOM     10  C   UNL     1      27.443  -5.177 -16.659  1.00  0.00     0.041 C 
ATOM     11  O   UNL     1      28.572  -4.934 -17.160  1.00  0.00    -0.550 OA
ATOM     12  O   UNL     1      26.520  -5.929 -17.374  1.00  0.00    -0.550 OA
ENDBRANCH   9  10
ENDBRANCH   8   9
ENDBRANCH   7   8
ENDBRANCH   6   7
ENDBRANCH   5   6
ENDBRANCH   4   5
ENDBRANCH   3   4
ENDBRANCH   1   3
BRANCH   2  13
ATOM     13  C   UNL     1      22.550   0.930 -17.838  1.00  0.00     0.027 C 
BRANCH  13  14
ATOM     14  C   UNL     1      24.064   0.905 -17.595  1.00  0.00     0.004 C 
BRANCH  14  15
ATOM     15  C   UNL     1      24.488  -0.290 -16.722  1.00  0.00     0.000 C 
BRANCH  15  16
ATOM     16  C   UNL     1      24.884   0.144 -15.295  1.00  0.00     0.000 C 
BRANCH  16  17
ATOM     17  C   UNL     1      23.774  -0.086 -14.253  1.00  0.00    -0.000 C 
BRANCH  17  18
ATOM     18  C   UNL     1      24.322  -0.448 -12.867  1.00  0.00    -0.000 C 
BRANCH  18  19
ATOM     19  C   UNL     1      24.483   0.802 -11.995  1.00  0.00    -0.003 C 
ATOM     20  C   UNL     1      25.317   0.504 -10.753  1.00  0.00     0.004 C 
ENDBRANCH  18  19
ENDBRANCH  17  18
ENDBRANCH  16  17
ENDBRANCH  15  16
ENDBRANCH  14  15
ENDBRANCH  13  14
ENDBRANCH   2  13
TORSDOF 15
ENDMDL
MODEL 9
REMARK VINA RESULT:    -4.401     11.990     15.467
REMARK INTER + INTRA:          -9.831
REMARK INTER:                  -7.778
REMARK INTRA:                  -2.053
REMARK UNBOUND:                -1.571
REMARK SMILES CCCCCCCCC=CCCCCCCCC(=O)[O-]
REMARK SMILES IDX 10 1 9 2 11 3 12 4 13 5 14 6 15 7 16 8 17 9 18 10 19 11
REMARK SMILES IDX 20 12 8 13 7 14 6 15 5 16 4 17 3 18 2 19 1 20
REMARK H PARENT
REMARK Flexibility Score: inf
ROOT
ATOM      1  C   UNL     1      22.469  -1.787 -15.928  1.00  0.00    -0.031 C 
ATOM      2  C   UNL     1      22.130  -3.051 -16.216  1.00  0.00    -0.031 C 
ENDROOT
BRANCH   1   3
ATOM      3  C   UNL     1      22.329  -0.682 -16.942  1.00  0.00     0.027 C 
BRANCH   3   4
ATOM      4  C   UNL     1      23.687  -0.146 -17.431  1.00  0.00     0.004 C 
BRANCH   4   5
ATOM      5  C   UNL     1      24.884  -0.553 -16.553  1.00  0.00     0.000 C 
BRANCH   5   6
ATOM      6  C   UNL     1      25.966  -1.313 -17.335  1.00  0.00     0.000 C 
BRANCH   6   7
ATOM      7  C   UNL     1      25.404  -2.616 -17.921  1.00  0.00     0.000 C 
BRANCH   7   8
ATOM      8  C   UNL     1      26.358  -3.808 -17.737  1.00  0.00     0.006 C 
BRANCH   8   9
ATOM      9  C   UNL     1      26.426  -4.290 -16.282  1.00  0.00     0.053 C 
BRANCH   9  10
ATOM     10  C   UNL     1      27.774  -4.869 -15.987  1.00  0.00     0.041 C 
ATOM     11  O   UNL     1      27.977  -5.484 -14.908  1.00  0.00    -0.550 OA
ATOM     12  O   UNL     1      28.819  -4.687 -16.884  1.00  0.00    -0.550 OA
ENDBRANCH   9  10
ENDBRANCH   8   9
ENDBRANCH   7   8
ENDBRANCH   6   7
ENDBRANCH   5   6
ENDBRANCH   4   5
ENDBRANCH   3   4
ENDBRANCH   1   3
BRANCH   2  13
ATOM     13  C   UNL     1      22.268  -4.138 -15.183  1.00  0.00     0.027 C 
BRANCH  13  14
ATOM     14  C   UNL     1      23.653  -4.131 -14.523  1.00  0.00     0.004 C 
BRANCH  14  15
ATOM     15  C   UNL     1      23.561  -4.238 -12.990  1.00  0.00     0.000 C 
BRANCH  15  16
ATOM     16  C   UNL     1      24.100  -2.976 -12.286  1.00  0.00     0.000 C 
BRANCH  16  17
ATOM     17  C   UNL     1      24.748  -1.964 -13.248  1.00  0.00    -0.000 C 
BRANCH  17  18
ATOM     18  C   UNL     1      25.491  -0.837 -12.520  1.00  0.00    -0.000 C 
BRANCH  18  19
ATOM     19  C   UNL     1      24.714  -0.377 -11.281  1.00  0.00    -0.003 C 
ATOM     20  C   UNL     1      25.656   0.167 -10.211  1.00  0.00     0.004 C 
ENDBRANCH  18  19
ENDBRANCH  17  18
ENDBRANCH  16  17
ENDBRANCH  15  16
ENDBRANCH  14  15
ENDBRANCH  13  14
ENDBRANCH   2  13
TORSDOF 15
ENDMDL
