MODEL 1
REMARK VINA RESULT:    -4.705      0.000      0.000
REMARK INTER + INTRA:          -8.314
REMARK INTER:                  -7.456
REMARK INTRA:                  -0.858
REMARK UNBOUND:                -0.858
REMARK SMILES CCCCCCCCCCCC(=O)[O-]
REMARK SMILES IDX 7 1 8 2 9 3 10 4 11 5 12 6 13 7 14 8 6 9 5 10 4 11 3 12 2 13
REMARK SMILES IDX 1 14
REMARK H PARENT
REMARK Flexibility Score: inf
ROOT
ATOM      1  C   UNL     1     -21.168  39.574  86.975  1.00  0.00     0.000 C 
ENDROOT
BRANCH   1   2
ATOM      2  C   UNL     1     -20.608  38.197  86.590  1.00  0.00     0.000 C 
BRANCH   2   3
ATOM      3  C   UNL     1     -20.153  38.180  85.126  1.00  0.00     0.000 C 
BRANCH   3   4
ATOM      4  C   UNL     1     -18.869  37.353  84.958  1.00  0.00     0.006 C 
BRANCH   4   5
ATOM      5  C   UNL     1     -18.549  37.071  83.484  1.00  0.00     0.053 C 
BRANCH   5   6
ATOM      6  C   UNL     1     -17.205  36.433  83.320  1.00  0.00     0.041 C 
ATOM      7  O   UNL     1     -16.167  37.145  83.260  1.00  0.00    -0.550 OA
ATOM      8  O   UNL     1     -17.100  35.053  83.201  1.00  0.00    -0.550 OA
ENDBRANCH   5   6
ENDBRANCH   4   5
ENDBRANCH   3   4
ENDBRANCH   2   3
ENDBRANCH   1   2
BRANCH   1   9
ATOM      9  C   UNL     1     -20.066  40.576  87.352  1.00  0.00     0.000 C 
BRANCH   9  10
ATOM     10  C   UNL     1     -19.526  40.354  88.776  1.00  0.00    -0.000 C 
BRANCH  10  11
ATOM     11  C   UNL     1     -20.628  39.941  89.766  1.00  0.00    -0.000 C 
BRANCH  11  12
ATOM     12  C   UNL     1     -20.414  38.526  90.330  1.00  0.00    -0.000 C 
BRANCH  12  13
ATOM     13  C   UNL     1     -18.963  38.045  90.180  1.00  0.00    -0.003 C 
ATOM     14  C   UNL     1     -18.854  36.737  89.397  1.00  0.00     0.004 C 
ENDBRANCH  12  13
ENDBRANCH  11  12
ENDBRANCH  10  11
ENDBRANCH   9  10
ENDBRANCH   1   9
TORSDOF 10
ENDMDL
MODEL 2
REMARK VINA RESULT:    -4.552      5.081      7.126
REMARK INTER + INTRA:          -8.071
REMARK INTER:                  -7.150
REMARK INTRA:                  -0.920
REMARK UNBOUND:                -0.858
REMARK SMILES CCCCCCCCCCCC(=O)[O-]
REMARK SMILES IDX 7 1 8 2 9 3 10 4 11 5 12 6 13 7 14 8 6 9 5 10 4 11 3 12 2 13
REMARK SMILES IDX 1 14
REMARK H PARENT
REMARK Flexibility Score: inf
ROOT
ATOM      1  C   UNL     1     -20.469  44.164  86.716  1.00  0.00     0.000 C 
ENDROOT
BRANCH   1   2
ATOM      2  C   UNL     1     -19.972  43.000  85.847  1.00  0.00     0.000 C 
BRANCH   2   3
ATOM      3  C   UNL     1     -19.864  41.709  86.667  1.00  0.00     0.000 C 
BRANCH   3   4
ATOM      4  C   UNL     1     -21.254  41.194  87.070  1.00  0.00     0.006 C 
BRANCH   4   5
ATOM      5  C   UNL     1     -21.404  39.685  86.835  1.00  0.00     0.053 C 
BRANCH   5   6
ATOM      6  C   UNL     1     -20.846  38.888  87.972  1.00  0.00     0.041 C 
ATOM      7  O   UNL     1     -20.372  37.739  87.769  1.00  0.00    -0.550 OA
ATOM      8  O   UNL     1     -20.879  39.401  89.263  1.00  0.00    -0.550 OA
ENDBRANCH   5   6
ENDBRANCH   4   5
ENDBRANCH   3   4
ENDBRANCH   2   3
ENDBRANCH   1   2
BRANCH   1   9
ATOM      9  C   UNL     1     -21.333  45.163  85.929  1.00  0.00     0.000 C 
BRANCH   9  10
ATOM     10  C   UNL     1     -20.846  45.351  84.480  1.00  0.00    -0.000 C 
BRANCH  10  11
ATOM     11  C   UNL     1     -20.381  46.789  84.198  1.00  0.00    -0.000 C 
BRANCH  11  12
ATOM     12  C   UNL     1     -18.853  46.896  84.049  1.00  0.00    -0.000 C 
BRANCH  12  13
ATOM     13  C   UNL     1     -18.178  45.523  83.912  1.00  0.00    -0.003 C 
ATOM     14  C   UNL     1     -17.163  45.252  85.023  1.00  0.00     0.004 C 
ENDBRANCH  12  13
ENDBRANCH  11  12
ENDBRANCH  10  11
ENDBRANCH   9  10
ENDBRANCH   1   9
TORSDOF 10
ENDMDL
MODEL 3
REMARK VINA RESULT:    -4.527      5.887      8.049
REMARK INTER + INTRA:          -8.031
REMARK INTER:                  -6.792
REMARK INTRA:                  -1.240
REMARK UNBOUND:                -0.858
REMARK SMILES CCCCCCCCCCCC(=O)[O-]
REMARK SMILES IDX 7 1 8 2 9 3 10 4 11 5 12 6 13 7 14 8 6 9 5 10 4 11 3 12 2 13
REMARK SMILES IDX 1 14
REMARK H PARENT
REMARK Flexibility Score: inf
ROOT
ATOM      1  C   UNL     1     -21.368  46.354  86.106  1.00  0.00     0.000 C 
ENDROOT
BRANCH   1   2
ATOM      2  C   UNL     1     -21.624  44.864  86.371  1.00  0.00     0.000 C 
BRANCH   2   3
ATOM      3  C   UNL     1     -20.351  44.168  86.867  1.00  0.00     0.000 C 
BRANCH   3   4
ATOM      4  C   UNL     1     -20.145  42.821  86.156  1.00  0.00     0.006 C 
BRANCH   4   5
ATOM      5  C   UNL     1     -20.965  41.695  86.797  1.00  0.00     0.053 C 
BRANCH   5   6
ATOM      6  C   UNL     1     -20.505  41.399  88.191  1.00  0.00     0.041 C 
ATOM      7  O   UNL     1     -19.466  40.713  88.384  1.00  0.00    -0.550 OA
ATOM      8  O   UNL     1     -21.242  41.852  89.278  1.00  0.00    -0.550 OA
ENDBRANCH   5   6
ENDBRANCH   4   5
ENDBRANCH   3   4
ENDBRANCH   2   3
ENDBRANCH   1   2
BRANCH   1   9
ATOM      9  C   UNL     1     -21.728  46.769  84.670  1.00  0.00     0.000 C 
BRANCH   9  10
ATOM     10  C   UNL     1     -21.142  45.815  83.614  1.00  0.00    -0.000 C 
BRANCH  10  11
ATOM     11  C   UNL     1     -20.037  46.476  82.773  1.00  0.00    -0.000 C 
BRANCH  11  12
ATOM     12  C   UNL     1     -18.685  46.521  83.507  1.00  0.00    -0.000 C 
BRANCH  12  13
ATOM     13  C   UNL     1     -18.198  45.127  83.930  1.00  0.00    -0.003 C 
ATOM     14  C   UNL     1     -17.190  45.178  85.079  1.00  0.00     0.004 C 
ENDBRANCH  12  13
ENDBRANCH  11  12
ENDBRANCH  10  11
ENDBRANCH   9  10
ENDBRANCH   1   9
TORSDOF 10
ENDMDL
MODEL 4
REMARK VINA RESULT:    -4.507      5.205      7.441
REMARK INTER + INTRA:          -7.999
REMARK INTER:                  -7.224
REMARK INTRA:                  -0.775
REMARK UNBOUND:                -0.858
REMARK SMILES CCCCCCCCCCCC(=O)[O-]
REMARK SMILES IDX 7 1 8 2 9 3 10 4 11 5 12 6 13 7 14 8 6 9 5 10 4 11 3 12 2 13
REMARK SMILES IDX 1 14
REMARK H PARENT
REMARK Flexibility Score: inf
ROOT
ATOM      1  C   UNL     1     -20.668  44.270  86.467  1.00  0.00     0.000 C 
ENDROOT
BRANCH   1   2
ATOM      2  C   UNL     1     -20.641  43.257  87.620  1.00  0.00     0.000 C 
BRANCH   2   3
ATOM      3  C   UNL     1     -21.860  42.329  87.564  1.00  0.00     0.000 C 
BRANCH   3   4
ATOM      4  C   UNL     1     -21.504  40.990  86.900  1.00  0.00     0.006 C 
BRANCH   4   5
ATOM      5  C   UNL     1     -20.258  40.347  87.520  1.00  0.00     0.053 C 
BRANCH   5   6
ATOM      6  C   UNL     1     -20.611  39.195  88.408  1.00  0.00     0.041 C 
ATOM      7  O   UNL     1     -20.854  39.385  89.629  1.00  0.00    -0.550 OA
ATOM      8  O   UNL     1     -20.641  37.904  87.894  1.00  0.00    -0.550 OA
ENDBRANCH   5   6
ENDBRANCH   4   5
ENDBRANCH   3   4
ENDBRANCH   2   3
ENDBRANCH   1   2
BRANCH   1   9
ATOM      9  C   UNL     1     -19.764  43.856  85.295  1.00  0.00     0.000 C 
BRANCH   9  10
ATOM     10  C   UNL     1     -18.365  44.492  85.374  1.00  0.00    -0.000 C 
BRANCH  10  11
ATOM     11  C   UNL     1     -18.010  45.294  84.112  1.00  0.00    -0.000 C 
BRANCH  11  12
ATOM     12  C   UNL     1     -18.922  46.518  83.914  1.00  0.00    -0.000 C 
BRANCH  12  13
ATOM     13  C   UNL     1     -19.586  46.540  82.530  1.00  0.00    -0.003 C 
ATOM     14  C   UNL     1     -21.059  46.134  82.577  1.00  0.00     0.004 C 
ENDBRANCH  12  13
ENDBRANCH  11  12
ENDBRANCH  10  11
ENDBRANCH   9  10
ENDBRANCH   1   9
TORSDOF 10
ENDMDL
MODEL 5
REMARK VINA RESULT:    -4.462      5.482      7.993
REMARK INTER + INTRA:          -7.929
REMARK INTER:                  -6.985
REMARK INTRA:                  -0.943
REMARK UNBOUND:                -0.858
REMARK SMILES CCCCCCCCCCCC(=O)[O-]
REMARK SMILES IDX 7 1 8 2 9 3 10 4 11 5 12 6 13 7 14 8 6 9 5 10 4 11 3 12 2 13
REMARK SMILES IDX 1 14
REMARK H PARENT
REMARK Flexibility Score: inf
ROOT
ATOM      1  C   UNL     1     -19.430  43.417  85.381  1.00  0.00     0.000 C 
ENDROOT
BRANCH   1   2
ATOM      2  C   UNL     1     -20.763  43.803  86.036  1.00  0.00     0.000 C 
BRANCH   2   3
ATOM      3  C   UNL     1     -20.639  43.825  87.564  1.00  0.00     0.000 C 
BRANCH   3   4
ATOM      4  C   UNL     1     -21.477  42.707  88.203  1.00  0.00     0.006 C 
BRANCH   4   5
ATOM      5  C   UNL     1     -20.630  41.771  89.074  1.00  0.00     0.053 C 
BRANCH   5   6
ATOM      6  C   UNL     1     -20.390  40.454  88.404  1.00  0.00     0.041 C 
ATOM      7  O   UNL     1     -19.943  40.413  87.227  1.00  0.00    -0.550 OA
ATOM      8  O   UNL     1     -20.692  39.271  89.067  1.00  0.00    -0.550 OA
ENDBRANCH   5   6
ENDBRANCH   4   5
ENDBRANCH   3   4
ENDBRANCH   2   3
ENDBRANCH   1   2
BRANCH   1   9
ATOM      9  C   UNL     1     -18.429  44.583  85.346  1.00  0.00     0.000 C 
BRANCH   9  10
ATOM     10  C   UNL     1     -18.164  45.092  83.918  1.00  0.00    -0.000 C 
BRANCH  10  11
ATOM     11  C   UNL     1     -18.556  46.568  83.736  1.00  0.00    -0.000 C 
BRANCH  11  12
ATOM     12  C   UNL     1     -19.514  46.782  82.552  1.00  0.00    -0.000 C 
BRANCH  12  13
ATOM     13  C   UNL     1     -20.857  46.062  82.744  1.00  0.00    -0.003 C 
ATOM     14  C   UNL     1     -21.648  46.597  83.937  1.00  0.00     0.004 C 
ENDBRANCH  12  13
ENDBRANCH  11  12
ENDBRANCH  10  11
ENDBRANCH   9  10
ENDBRANCH   1   9
TORSDOF 10
ENDMDL
MODEL 6
REMARK VINA RESULT:    -4.451      5.291      7.462
REMARK INTER + INTRA:          -7.911
REMARK INTER:                  -6.948
REMARK INTRA:                  -0.963
REMARK UNBOUND:                -0.858
REMARK SMILES CCCCCCCCCCCC(=O)[O-]
REMARK SMILES IDX 7 1 8 2 9 3 10 4 11 5 12 6 13 7 14 8 6 9 5 10 4 11 3 12 2 13
REMARK SMILES IDX 1 14
REMARK H PARENT
REMARK Flexibility Score: inf
ROOT
ATOM      1  C   UNL     1     -18.307  44.387  85.698  1.00  0.00     0.000 C 
ENDROOT
BRANCH   1   2
ATOM      2  C   UNL     1     -19.479  43.510  85.234  1.00  0.00     0.000 C 
BRANCH   2   3
ATOM      3  C   UNL     1     -20.271  42.974  86.433  1.00  0.00     0.000 C 
BRANCH   3   4
ATOM      4  C   UNL     1     -19.921  41.505  86.713  1.00  0.00     0.006 C 
BRANCH   4   5
ATOM      5  C   UNL     1     -21.170  40.636  86.907  1.00  0.00     0.053 C 
BRANCH   5   6
ATOM      6  C   UNL     1     -20.820  39.193  87.091  1.00  0.00     0.041 C 
ATOM      7  O   UNL     1     -20.593  38.461  86.092  1.00  0.00    -0.550 OA
ATOM      8  O   UNL     1     -20.776  38.646  88.368  1.00  0.00    -0.550 OA
ENDBRANCH   5   6
ENDBRANCH   4   5
ENDBRANCH   3   4
ENDBRANCH   2   3
ENDBRANCH   1   2
BRANCH   1   9
ATOM      9  C   UNL     1     -17.819  45.348  84.602  1.00  0.00     0.000 C 
BRANCH   9  10
ATOM     10  C   UNL     1     -18.675  45.272  83.325  1.00  0.00    -0.000 C 
BRANCH  10  11
ATOM     11  C   UNL     1     -19.407  46.592  83.028  1.00  0.00    -0.000 C 
BRANCH  11  12
ATOM     12  C   UNL     1     -20.892  46.545  83.429  1.00  0.00    -0.000 C 
BRANCH  12  13
ATOM     13  C   UNL     1     -21.128  47.035  84.866  1.00  0.00    -0.003 C 
ATOM     14  C   UNL     1     -22.110  46.152  85.636  1.00  0.00     0.004 C 
ENDBRANCH  12  13
ENDBRANCH  11  12
ENDBRANCH  10  11
ENDBRANCH   9  10
ENDBRANCH   1   9
TORSDOF 10
ENDMDL
MODEL 7
REMARK VINA RESULT:    -4.445      4.262      5.334
REMARK INTER + INTRA:          -7.901
REMARK INTER:                  -7.120
REMARK INTRA:                  -0.781
REMARK UNBOUND:                -0.858
REMARK SMILES CCCCCCCCCCCC(=O)[O-]
REMARK SMILES IDX 7 1 8 2 9 3 10 4 11 5 12 6 13 7 14 8 6 9 5 10 4 11 3 12 2 13
REMARK SMILES IDX 1 14
REMARK H PARENT
REMARK Flexibility Score: inf
ROOT
ATOM      1  C   UNL     1     -20.118  40.143  87.104  1.00  0.00     0.000 C 
ENDROOT
BRANCH   1   2
ATOM      2  C   UNL     1     -20.121  41.498  87.827  1.00  0.00     0.000 C 
BRANCH   2   3
ATOM      3  C   UNL     1     -20.661  42.606  86.916  1.00  0.00     0.000 C 
BRANCH   3   4
ATOM      4  C   UNL     1     -19.684  42.900  85.767  1.00  0.00     0.006 C 
BRANCH   4   5
ATOM      5  C   UNL     1     -19.652  44.389  85.399  1.00  0.00     0.053 C 
BRANCH   5   6
ATOM      6  C   UNL     1     -18.378  44.762  84.707  1.00  0.00     0.041 C 
ATOM      7  O   UNL     1     -18.367  44.961  83.463  1.00  0.00    -0.550 OA
ATOM      8  O   UNL     1     -17.195  44.857  85.429  1.00  0.00    -0.550 OA
ENDBRANCH   5   6
ENDBRANCH   4   5
ENDBRANCH   3   4
ENDBRANCH   2   3
ENDBRANCH   1   2
BRANCH   1   9
ATOM      9  C   UNL     1     -21.049  39.116  87.769  1.00  0.00     0.000 C 
BRANCH   9  10
ATOM     10  C   UNL     1     -20.353  37.768  88.028  1.00  0.00    -0.000 C 
BRANCH  10  11
ATOM     11  C   UNL     1     -19.573  37.752  89.353  1.00  0.00    -0.000 C 
BRANCH  11  12
ATOM     12  C   UNL     1     -20.319  38.482  90.484  1.00  0.00    -0.000 C 
BRANCH  12  13
ATOM     13  C   UNL     1     -19.373  39.281  91.393  1.00  0.00    -0.003 C 
ATOM     14  C   UNL     1     -18.022  39.563  90.735  1.00  0.00     0.004 C 
ENDBRANCH  12  13
ENDBRANCH  11  12
ENDBRANCH  10  11
ENDBRANCH   9  10
ENDBRANCH   1   9
TORSDOF 10
ENDMDL
MODEL 8
REMARK VINA RESULT:    -4.420      8.874     10.903
REMARK INTER + INTRA:          -7.861
REMARK INTER:                  -6.684
REMARK INTRA:                  -1.177
REMARK UNBOUND:                -0.858
REMARK SMILES CCCCCCCCCCCC(=O)[O-]
REMARK SMILES IDX 7 1 8 2 9 3 10 4 11 5 12 6 13 7 14 8 6 9 5 10 4 11 3 12 2 13
REMARK SMILES IDX 1 14
REMARK H PARENT
REMARK Flexibility Score: inf
ROOT
ATOM      1  C   UNL     1     -26.051  46.055  87.223  1.00  0.00     0.000 C 
ENDROOT
BRANCH   1   2
ATOM      2  C   UNL     1     -26.235  46.776  88.566  1.00  0.00     0.000 C 
BRANCH   2   3
ATOM      3  C   UNL     1     -25.844  45.866  89.736  1.00  0.00     0.000 C 
BRANCH   3   4
ATOM      4  C   UNL     1     -27.089  45.290  90.428  1.00  0.00     0.006 C 
BRANCH   4   5
ATOM      5  C   UNL     1     -26.932  43.802  90.762  1.00  0.00     0.053 C 
BRANCH   5   6
ATOM      6  C   UNL     1     -28.119  43.005  90.318  1.00  0.00     0.041 C 
ATOM      7  O   UNL     1     -28.245  42.673  89.110  1.00  0.00    -0.550 OA
ATOM      8  O   UNL     1     -29.105  42.656  91.233  1.00  0.00    -0.550 OA
ENDBRANCH   5   6
ENDBRANCH   4   5
ENDBRANCH   3   4
ENDBRANCH   2   3
ENDBRANCH   1   2
BRANCH   1   9
ATOM      9  C   UNL     1     -25.158  46.838  86.249  1.00  0.00     0.000 C 
BRANCH   9  10
ATOM     10  C   UNL     1     -23.752  47.103  86.818  1.00  0.00    -0.000 C 
BRANCH  10  11
ATOM     11  C   UNL     1     -22.922  45.817  86.959  1.00  0.00    -0.000 C 
BRANCH  11  12
ATOM     12  C   UNL     1     -22.269  45.686  88.347  1.00  0.00    -0.000 C 
BRANCH  12  13
ATOM     13  C   UNL     1     -22.498  44.303  88.976  1.00  0.00    -0.003 C 
ATOM     14  C   UNL     1     -23.346  43.387  88.094  1.00  0.00     0.004 C 
ENDBRANCH  12  13
ENDBRANCH  11  12
ENDBRANCH  10  11
ENDBRANCH   9  10
ENDBRANCH   1   9
TORSDOF 10
ENDMDL
MODEL 9
REMARK VINA RESULT:    -4.364      8.433     10.684
REMARK INTER + INTRA:          -7.773
REMARK INTER:                  -7.369
REMARK INTRA:                  -0.403
REMARK UNBOUND:                -0.858
REMARK SMILES CCCCCCCCCCCC(=O)[O-]
REMARK SMILES IDX 7 1 8 2 9 3 10 4 11 5 12 6 13 7 14 8 6 9 5 10 4 11 3 12 2 13
REMARK SMILES IDX 1 14
REMARK H PARENT
REMARK Flexibility Score: inf
ROOT
ATOM      1  C   UNL     1     -25.088  45.995  87.115  1.00  0.00     0.000 C 
ENDROOT
BRANCH   1   2
ATOM      2  C   UNL     1     -26.145  45.667  88.178  1.00  0.00     0.000 C 
BRANCH   2   3
ATOM      3  C   UNL     1     -25.502  45.499  89.559  1.00  0.00     0.000 C 
BRANCH   3   4
ATOM      4  C   UNL     1     -25.947  44.185  90.220  1.00  0.00     0.006 C 
BRANCH   4   5
ATOM      5  C   UNL     1     -27.349  44.290  90.835  1.00  0.00     0.053 C 
BRANCH   5   6
ATOM      6  C   UNL     1     -28.224  43.150  90.417  1.00  0.00     0.041 C 
ATOM      7  O   UNL     1     -28.144  42.683  89.250  1.00  0.00    -0.550 OA
ATOM      8  O   UNL     1     -29.154  42.625  91.306  1.00  0.00    -0.550 OA
ENDBRANCH   5   6
ENDBRANCH   4   5
ENDBRANCH   3   4
ENDBRANCH   2   3
ENDBRANCH   1   2
BRANCH   1   9
ATOM      9  C   UNL     1     -23.785  45.202  87.312  1.00  0.00     0.000 C 
BRANCH   9  10
ATOM     10  C   UNL     1     -22.609  45.791  86.513  1.00  0.00    -0.000 C 
BRANCH  10  11
ATOM     11  C   UNL     1     -21.437  44.804  86.377  1.00  0.00    -0.000 C 
BRANCH  11  12
ATOM     12  C   UNL     1     -20.677  44.970  85.049  1.00  0.00    -0.000 C 
BRANCH  12  13
ATOM     13  C   UNL     1     -19.265  44.367  85.099  1.00  0.00    -0.003 C 
ATOM     14  C   UNL     1     -18.312  45.012  84.093  1.00  0.00     0.004 C 
ENDBRANCH  12  13
ENDBRANCH  11  12
ENDBRANCH  10  11
ENDBRANCH   9  10
ENDBRANCH   1   9
TORSDOF 10
ENDMDL
