MODEL 1
REMARK VINA RESULT:    -5.236      0.000      0.000
REMARK INTER + INTRA:         -11.945
REMARK INTER:                 -10.134
REMARK INTRA:                  -1.810
REMARK UNBOUND:                -1.810
REMARK SMILES CCCCCCCCCCCCCCCCCC(=O)[O-]
REMARK SMILES IDX 10 1 11 2 12 3 13 4 14 5 15 6 16 7 17 8 18 9 19 10 20 11
REMARK SMILES IDX 9 12 8 13 7 14 6 15 5 16 4 17 3 18 2 19 1 20
REMARK H PARENT
REMARK Flexibility Score: inf
ROOT
ATOM      1  C   UNL     1      45.396   4.300 131.252  1.00  0.00     0.000 C 
ENDROOT
BRANCH   1   2
ATOM      2  C   UNL     1      44.811   3.833 132.593  1.00  0.00     0.000 C 
BRANCH   2   3
ATOM      3  C   UNL     1      45.805   4.068 133.739  1.00  0.00     0.000 C 
BRANCH   3   4
ATOM      4  C   UNL     1      46.251   2.763 134.424  1.00  0.00     0.000 C 
BRANCH   4   5
ATOM      5  C   UNL     1      45.644   2.523 135.818  1.00  0.00     0.000 C 
BRANCH   5   6
ATOM      6  C   UNL     1      44.772   1.257 135.879  1.00  0.00     0.000 C 
BRANCH   6   7
ATOM      7  C   UNL     1      43.534   1.344 134.967  1.00  0.00     0.006 C 
BRANCH   7   8
ATOM      8  C   UNL     1      43.295   0.092 134.108  1.00  0.00     0.053 C 
BRANCH   8   9
ATOM      9  C   UNL     1      43.692   0.306 132.679  1.00  0.00     0.041 C 
ATOM     10  O   UNL     1      42.817   0.550 131.809  1.00  0.00    -0.550 OA
ATOM     11  O   UNL     1      45.027   0.204 132.304  1.00  0.00    -0.550 OA
ENDBRANCH   8   9
ENDBRANCH   7   8
ENDBRANCH   6   7
ENDBRANCH   5   6
ENDBRANCH   4   5
ENDBRANCH   3   4
ENDBRANCH   2   3
ENDBRANCH   1   2
BRANCH   1  12
ATOM     12  C   UNL     1      46.919   4.515 131.307  1.00  0.00     0.000 C 
BRANCH  12  13
ATOM     13  C   UNL     1      47.516   5.271 130.102  1.00  0.00    -0.000 C 
BRANCH  13  14
ATOM     14  C   UNL     1      46.535   6.201 129.366  1.00  0.00    -0.000 C 
BRANCH  14  15
ATOM     15  C   UNL     1      46.674   6.126 127.839  1.00  0.00    -0.000 C 
BRANCH  15  16
ATOM     16  C   UNL     1      45.964   4.886 127.283  1.00  0.00    -0.000 C 
BRANCH  16  17
ATOM     17  C   UNL     1      44.533   4.782 127.823  1.00  0.00    -0.000 C 
BRANCH  17  18
ATOM     18  C   UNL     1      43.511   5.206 126.762  1.00  0.00    -0.000 C 
BRANCH  18  19
ATOM     19  C   UNL     1      42.408   6.075 127.375  1.00  0.00    -0.003 C 
ATOM     20  C   UNL     1      42.839   6.640 128.726  1.00  0.00     0.004 C 
ENDBRANCH  18  19
ENDBRANCH  17  18
ENDBRANCH  16  17
ENDBRANCH  15  16
ENDBRANCH  14  15
ENDBRANCH  13  14
ENDBRANCH  12  13
ENDBRANCH   1  12
TORSDOF 16
ENDMDL
MODEL 2
REMARK VINA RESULT:    -5.069      2.356      6.914
REMARK INTER + INTRA:         -11.620
REMARK INTER:                 -10.007
REMARK INTRA:                  -1.613
REMARK UNBOUND:                -1.810
REMARK SMILES CCCCCCCCCCCCCCCCCC(=O)[O-]
REMARK SMILES IDX 10 1 11 2 12 3 13 4 14 5 15 6 16 7 17 8 18 9 19 10 20 11
REMARK SMILES IDX 9 12 8 13 7 14 6 15 5 16 4 17 3 18 2 19 1 20
REMARK H PARENT
REMARK Flexibility Score: inf
ROOT
ATOM      1  C   UNL     1      47.998   4.647 129.857  1.00  0.00     0.000 C 
ENDROOT
BRANCH   1   2
ATOM      2  C   UNL     1      47.087   5.819 129.463  1.00  0.00     0.000 C 
BRANCH   2   3
ATOM      3  C   UNL     1      46.618   5.687 128.008  1.00  0.00     0.000 C 
BRANCH   3   4
ATOM      4  C   UNL     1      45.706   4.468 127.779  1.00  0.00     0.000 C 
BRANCH   4   5
ATOM      5  C   UNL     1      44.771   4.579 126.561  1.00  0.00     0.000 C 
BRANCH   5   6
ATOM      6  C   UNL     1      43.957   5.884 126.550  1.00  0.00     0.000 C 
BRANCH   6   7
ATOM      7  C   UNL     1      42.578   5.730 127.218  1.00  0.00     0.006 C 
BRANCH   7   8
ATOM      8  C   UNL     1      42.288   6.771 128.311  1.00  0.00     0.053 C 
BRANCH   8   9
ATOM      9  C   UNL     1      43.375   6.822 129.341  1.00  0.00     0.041 C 
ATOM     10  O   UNL     1      44.127   7.828 129.418  1.00  0.00    -0.550 OA
ATOM     11  O   UNL     1      43.575   5.745 130.195  1.00  0.00    -0.550 OA
ENDBRANCH   8   9
ENDBRANCH   7   8
ENDBRANCH   6   7
ENDBRANCH   5   6
ENDBRANCH   4   5
ENDBRANCH   3   4
ENDBRANCH   2   3
ENDBRANCH   1   2
BRANCH   1  12
ATOM     12  C   UNL     1      47.720   4.125 131.278  1.00  0.00     0.000 C 
BRANCH  12  13
ATOM     13  C   UNL     1      46.234   4.117 131.691  1.00  0.00    -0.000 C 
BRANCH  13  14
ATOM     14  C   UNL     1      45.978   4.016 133.205  1.00  0.00    -0.000 C 
BRANCH  14  15
ATOM     15  C   UNL     1      45.265   2.718 133.606  1.00  0.00    -0.000 C 
BRANCH  15  16
ATOM     16  C   UNL     1      45.587   1.588 132.621  1.00  0.00    -0.000 C 
BRANCH  16  17
ATOM     17  C   UNL     1      44.527   0.483 132.683  1.00  0.00    -0.000 C 
BRANCH  17  18
ATOM     18  C   UNL     1      43.282   0.867 131.873  1.00  0.00    -0.000 C 
BRANCH  18  19
ATOM     19  C   UNL     1      42.054   0.081 132.346  1.00  0.00    -0.003 C 
ATOM     20  C   UNL     1      42.147  -0.245 133.834  1.00  0.00     0.004 C 
ENDBRANCH  18  19
ENDBRANCH  17  18
ENDBRANCH  16  17
ENDBRANCH  15  16
ENDBRANCH  14  15
ENDBRANCH  13  14
ENDBRANCH  12  13
ENDBRANCH   1  12
TORSDOF 16
ENDMDL
MODEL 3
REMARK VINA RESULT:    -5.012      2.477      7.341
REMARK INTER + INTRA:         -11.510
REMARK INTER:                  -9.946
REMARK INTRA:                  -1.564
REMARK UNBOUND:                -1.810
REMARK SMILES CCCCCCCCCCCCCCCCCC(=O)[O-]
REMARK SMILES IDX 10 1 11 2 12 3 13 4 14 5 15 6 16 7 17 8 18 9 19 10 20 11
REMARK SMILES IDX 9 12 8 13 7 14 6 15 5 16 4 17 3 18 2 19 1 20
REMARK H PARENT
REMARK Flexibility Score: inf
ROOT
ATOM      1  C   UNL     1      45.439   4.432 131.041  1.00  0.00     0.000 C 
ENDROOT
BRANCH   1   2
ATOM      2  C   UNL     1      46.973   4.517 131.060  1.00  0.00     0.000 C 
BRANCH   2   3
ATOM      3  C   UNL     1      47.530   4.707 129.642  1.00  0.00     0.000 C 
BRANCH   3   4
ATOM      4  C   UNL     1      48.125   6.108 129.412  1.00  0.00     0.000 C 
BRANCH   4   5
ATOM      5  C   UNL     1      47.188   7.101 128.701  1.00  0.00     0.000 C 
BRANCH   5   6
ATOM      6  C   UNL     1      46.999   6.778 127.208  1.00  0.00     0.000 C 
BRANCH   6   7
ATOM      7  C   UNL     1      45.551   6.994 126.733  1.00  0.00     0.006 C 
BRANCH   7   8
ATOM      8  C   UNL     1      44.579   5.876 127.145  1.00  0.00     0.053 C 
BRANCH   8   9
ATOM      9  C   UNL     1      43.411   6.404 127.920  1.00  0.00     0.041 C 
ATOM     10  O   UNL     1      42.248   5.996 127.668  1.00  0.00    -0.550 OA
ATOM     11  O   UNL     1      43.604   7.371 128.899  1.00  0.00    -0.550 OA
ENDBRANCH   8   9
ENDBRANCH   7   8
ENDBRANCH   6   7
ENDBRANCH   5   6
ENDBRANCH   4   5
ENDBRANCH   3   4
ENDBRANCH   2   3
ENDBRANCH   1   2
BRANCH   1  12
ATOM     12  C   UNL     1      44.844   4.066 132.413  1.00  0.00     0.000 C 
BRANCH  12  13
ATOM     13  C   UNL     1      45.830   4.153 133.596  1.00  0.00    -0.000 C 
BRANCH  13  14
ATOM     14  C   UNL     1      46.230   2.801 134.212  1.00  0.00    -0.000 C 
BRANCH  14  15
ATOM     15  C   UNL     1      45.766   2.646 135.667  1.00  0.00    -0.000 C 
BRANCH  15  16
ATOM     16  C   UNL     1      44.873   1.410 135.829  1.00  0.00    -0.000 C 
BRANCH  16  17
ATOM     17  C   UNL     1      43.766   1.387 134.770  1.00  0.00    -0.000 C 
BRANCH  17  18
ATOM     18  C   UNL     1      43.801   0.084 133.963  1.00  0.00    -0.000 C 
BRANCH  18  19
ATOM     19  C   UNL     1      44.106   0.359 132.486  1.00  0.00    -0.003 C 
ATOM     20  C   UNL     1      42.832   0.340 131.646  1.00  0.00     0.004 C 
ENDBRANCH  18  19
ENDBRANCH  17  18
ENDBRANCH  16  17
ENDBRANCH  15  16
ENDBRANCH  14  15
ENDBRANCH  13  14
ENDBRANCH  12  13
ENDBRANCH   1  12
TORSDOF 16
ENDMDL
MODEL 4
REMARK VINA RESULT:    -5.000      2.311      6.978
REMARK INTER + INTRA:         -11.488
REMARK INTER:                  -9.548
REMARK INTRA:                  -1.940
REMARK UNBOUND:                -1.810
REMARK SMILES CCCCCCCCCCCCCCCCCC(=O)[O-]
REMARK SMILES IDX 10 1 11 2 12 3 13 4 14 5 15 6 16 7 17 8 18 9 19 10 20 11
REMARK SMILES IDX 9 12 8 13 7 14 6 15 5 16 4 17 3 18 2 19 1 20
REMARK H PARENT
REMARK Flexibility Score: inf
ROOT
ATOM      1  C   UNL     1      45.907   3.685 132.411  1.00  0.00     0.000 C 
ENDROOT
BRANCH   1   2
ATOM      2  C   UNL     1      47.295   3.051 132.240  1.00  0.00     0.000 C 
BRANCH   2   3
ATOM      3  C   UNL     1      48.125   3.816 131.200  1.00  0.00     0.000 C 
BRANCH   3   4
ATOM      4  C   UNL     1      47.371   5.013 130.593  1.00  0.00     0.000 C 
BRANCH   4   5
ATOM      5  C   UNL     1      48.040   5.640 129.356  1.00  0.00     0.000 C 
BRANCH   5   6
ATOM      6  C   UNL     1      47.034   5.992 128.247  1.00  0.00     0.000 C 
BRANCH   6   7
ATOM      7  C   UNL     1      46.012   4.868 127.994  1.00  0.00     0.006 C 
BRANCH   7   8
ATOM      8  C   UNL     1      44.590   5.366 127.690  1.00  0.00     0.053 C 
BRANCH   8   9
ATOM      9  C   UNL     1      44.012   6.146 128.831  1.00  0.00     0.041 C 
ATOM     10  O   UNL     1      43.976   5.646 129.986  1.00  0.00    -0.550 OA
ATOM     11  O   UNL     1      43.483   7.412 128.613  1.00  0.00    -0.550 OA
ENDBRANCH   8   9
ENDBRANCH   7   8
ENDBRANCH   6   7
ENDBRANCH   5   6
ENDBRANCH   4   5
ENDBRANCH   3   4
ENDBRANCH   2   3
ENDBRANCH   1   2
BRANCH   1  12
ATOM     12  C   UNL     1      45.483   3.809 133.886  1.00  0.00     0.000 C 
BRANCH  12  13
ATOM     13  C   UNL     1      46.378   3.050 134.887  1.00  0.00    -0.000 C 
BRANCH  13  14
ATOM     14  C   UNL     1      45.621   2.199 135.923  1.00  0.00    -0.000 C 
BRANCH  14  15
ATOM     15  C   UNL     1      44.283   1.664 135.394  1.00  0.00    -0.000 C 
BRANCH  15  16
ATOM     16  C   UNL     1      44.260   0.131 135.412  1.00  0.00    -0.000 C 
BRANCH  16  17
ATOM     17  C   UNL     1      43.715  -0.428 134.093  1.00  0.00    -0.000 C 
BRANCH  17  18
ATOM     18  C   UNL     1      44.474   0.153 132.893  1.00  0.00    -0.000 C 
BRANCH  18  19
ATOM     19  C   UNL     1      43.528   0.920 131.963  1.00  0.00    -0.003 C 
ATOM     20  C   UNL     1      42.121   0.330 131.998  1.00  0.00     0.004 C 
ENDBRANCH  18  19
ENDBRANCH  17  18
ENDBRANCH  16  17
ENDBRANCH  15  16
ENDBRANCH  14  15
ENDBRANCH  13  14
ENDBRANCH  12  13
ENDBRANCH   1  12
TORSDOF 16
ENDMDL
MODEL 5
REMARK VINA RESULT:    -4.930      3.274      4.408
REMARK INTER + INTRA:         -11.352
REMARK INTER:                 -10.303
REMARK INTRA:                  -1.049
REMARK UNBOUND:                -1.810
REMARK SMILES CCCCCCCCCCCCCCCCCC(=O)[O-]
REMARK SMILES IDX 10 1 11 2 12 3 13 4 14 5 15 6 16 7 17 8 18 9 19 10 20 11
REMARK SMILES IDX 9 12 8 13 7 14 6 15 5 16 4 17 3 18 2 19 1 20
REMARK H PARENT
REMARK Flexibility Score: inf
ROOT
ATOM      1  C   UNL     1      44.004   6.152 128.525  1.00  0.00     0.000 C 
ENDROOT
BRANCH   1   2
ATOM      2  C   UNL     1      44.898   4.949 128.859  1.00  0.00     0.000 C 
BRANCH   2   3
ATOM      3  C   UNL     1      45.159   4.860 130.369  1.00  0.00     0.000 C 
BRANCH   3   4
ATOM      4  C   UNL     1      46.657   4.782 130.716  1.00  0.00     0.000 C 
BRANCH   4   5
ATOM      5  C   UNL     1      47.003   3.843 131.886  1.00  0.00     0.000 C 
BRANCH   5   6
ATOM      6  C   UNL     1      45.961   3.889 133.017  1.00  0.00     0.000 C 
BRANCH   6   7
ATOM      7  C   UNL     1      45.353   2.508 133.322  1.00  0.00     0.006 C 
BRANCH   7   8
ATOM      8  C   UNL     1      44.015   2.238 132.614  1.00  0.00     0.053 C 
BRANCH   8   9
ATOM      9  C   UNL     1      43.877   0.805 132.200  1.00  0.00     0.041 C 
ATOM     10  O   UNL     1      42.797   0.390 131.706  1.00  0.00    -0.550 OA
ATOM     11  O   UNL     1      44.933  -0.079 132.388  1.00  0.00    -0.550 OA
ENDBRANCH   8   9
ENDBRANCH   7   8
ENDBRANCH   6   7
ENDBRANCH   5   6
ENDBRANCH   4   5
ENDBRANCH   3   4
ENDBRANCH   2   3
ENDBRANCH   1   2
BRANCH   1  12
ATOM     12  C   UNL     1      44.809   7.432 128.235  1.00  0.00     0.000 C 
BRANCH  12  13
ATOM     13  C   UNL     1      46.142   7.210 127.490  1.00  0.00    -0.000 C 
BRANCH  13  14
ATOM     14  C   UNL     1      46.119   7.568 125.993  1.00  0.00    -0.000 C 
BRANCH  14  15
ATOM     15  C   UNL     1      47.484   8.038 125.471  1.00  0.00    -0.000 C 
BRANCH  15  16
ATOM     16  C   UNL     1      47.413   8.376 123.977  1.00  0.00    -0.000 C 
BRANCH  16  17
ATOM     17  C   UNL     1      46.242   9.320 123.681  1.00  0.00    -0.000 C 
BRANCH  17  18
ATOM     18  C   UNL     1      46.578  10.760 124.088  1.00  0.00    -0.000 C 
BRANCH  18  19
ATOM     19  C   UNL     1      45.331  11.649 124.042  1.00  0.00    -0.003 C 
ATOM     20  C   UNL     1      44.384  11.216 122.926  1.00  0.00     0.004 C 
ENDBRANCH  18  19
ENDBRANCH  17  18
ENDBRANCH  16  17
ENDBRANCH  15  16
ENDBRANCH  14  15
ENDBRANCH  13  14
ENDBRANCH  12  13
ENDBRANCH   1  12
TORSDOF 16
ENDMDL
MODEL 6
REMARK VINA RESULT:    -4.918      5.200      9.390
REMARK INTER + INTRA:         -11.328
REMARK INTER:                 -10.152
REMARK INTRA:                  -1.176
REMARK UNBOUND:                -1.810
REMARK SMILES CCCCCCCCCCCCCCCCCC(=O)[O-]
REMARK SMILES IDX 10 1 11 2 12 3 13 4 14 5 15 6 16 7 17 8 18 9 19 10 20 11
REMARK SMILES IDX 9 12 8 13 7 14 6 15 5 16 4 17 3 18 2 19 1 20
REMARK H PARENT
REMARK Flexibility Score: inf
ROOT
ATOM      1  C   UNL     1      44.443   5.161 127.700  1.00  0.00     0.000 C 
ENDROOT
BRANCH   1   2
ATOM      2  C   UNL     1      44.961   6.074 126.578  1.00  0.00     0.000 C 
BRANCH   2   3
ATOM      3  C   UNL     1      45.818   7.212 127.148  1.00  0.00     0.000 C 
BRANCH   3   4
ATOM      4  C   UNL     1      47.328   6.918 127.082  1.00  0.00     0.000 C 
BRANCH   4   5
ATOM      5  C   UNL     1      48.125   7.832 126.133  1.00  0.00     0.000 C 
BRANCH   5   6
ATOM      6  C   UNL     1      47.525   7.891 124.718  1.00  0.00     0.000 C 
BRANCH   6   7
ATOM      7  C   UNL     1      47.588   9.301 124.104  1.00  0.00     0.006 C 
BRANCH   7   8
ATOM      8  C   UNL     1      46.233   9.837 123.615  1.00  0.00     0.053 C 
BRANCH   8   9
ATOM      9  C   UNL     1      46.051  11.288 123.941  1.00  0.00     0.041 C 
ATOM     10  O   UNL     1      46.979  11.933 124.495  1.00  0.00    -0.550 OA
ATOM     11  O   UNL     1      44.846  11.919 123.660  1.00  0.00    -0.550 OA
ENDBRANCH   8   9
ENDBRANCH   7   8
ENDBRANCH   6   7
ENDBRANCH   5   6
ENDBRANCH   4   5
ENDBRANCH   3   4
ENDBRANCH   2   3
ENDBRANCH   1   2
BRANCH   1  12
ATOM     12  C   UNL     1      44.570   5.797 129.096  1.00  0.00     0.000 C 
BRANCH  12  13
ATOM     13  C   UNL     1      45.172   4.879 130.179  1.00  0.00    -0.000 C 
BRANCH  13  14
ATOM     14  C   UNL     1      46.707   4.915 130.287  1.00  0.00    -0.000 C 
BRANCH  14  15
ATOM     15  C   UNL     1      47.237   4.170 131.520  1.00  0.00    -0.000 C 
BRANCH  15  16
ATOM     16  C   UNL     1      46.182   4.128 132.632  1.00  0.00    -0.000 C 
BRANCH  16  17
ATOM     17  C   UNL     1      45.892   2.686 133.062  1.00  0.00    -0.000 C 
BRANCH  17  18
ATOM     18  C   UNL     1      44.458   2.280 132.702  1.00  0.00    -0.000 C 
BRANCH  18  19
ATOM     19  C   UNL     1      44.353   0.767 132.482  1.00  0.00    -0.003 C 
ATOM     20  C   UNL     1      43.054   0.401 131.770  1.00  0.00     0.004 C 
ENDBRANCH  18  19
ENDBRANCH  17  18
ENDBRANCH  16  17
ENDBRANCH  15  16
ENDBRANCH  14  15
ENDBRANCH  13  14
ENDBRANCH  12  13
ENDBRANCH   1  12
TORSDOF 16
ENDMDL
MODEL 7
REMARK VINA RESULT:    -4.863      6.903     10.876
REMARK INTER + INTRA:         -11.223
REMARK INTER:                  -9.402
REMARK INTRA:                  -1.821
REMARK UNBOUND:                -1.810
REMARK SMILES CCCCCCCCCCCCCCCCCC(=O)[O-]
REMARK SMILES IDX 10 1 11 2 12 3 13 4 14 5 15 6 16 7 17 8 18 9 19 10 20 11
REMARK SMILES IDX 9 12 8 13 7 14 6 15 5 16 4 17 3 18 2 19 1 20
REMARK H PARENT
REMARK Flexibility Score: inf
ROOT
ATOM      1  C   UNL     1      46.489   7.931 125.844  1.00  0.00     0.000 C 
ENDROOT
BRANCH   1   2
ATOM      2  C   UNL     1      47.290   8.079 124.542  1.00  0.00     0.000 C 
BRANCH   2   3
ATOM      3  C   UNL     1      48.007   9.435 124.488  1.00  0.00     0.000 C 
BRANCH   3   4
ATOM      4  C   UNL     1      47.316  10.443 123.553  1.00  0.00     0.000 C 
BRANCH   4   5
ATOM      5  C   UNL     1      46.664  11.644 124.262  1.00  0.00     0.000 C 
BRANCH   5   6
ATOM      6  C   UNL     1      45.142  11.710 124.047  1.00  0.00     0.000 C 
BRANCH   6   7
ATOM      7  C   UNL     1      44.706  11.096 122.704  1.00  0.00     0.006 C 
BRANCH   7   8
ATOM      8  C   UNL     1      44.576  12.114 121.559  1.00  0.00     0.053 C 
BRANCH   8   9
ATOM      9  C   UNL     1      45.536  11.833 120.445  1.00  0.00     0.041 C 
ATOM     10  O   UNL     1      46.402  12.688 120.124  1.00  0.00    -0.550 OA
ATOM     11  O   UNL     1      45.454  10.638 119.740  1.00  0.00    -0.550 OA
ENDBRANCH   8   9
ENDBRANCH   7   8
ENDBRANCH   6   7
ENDBRANCH   5   6
ENDBRANCH   4   5
ENDBRANCH   3   4
ENDBRANCH   2   3
ENDBRANCH   1   2
BRANCH   1  12
ATOM     12  C   UNL     1      46.991   6.775 126.727  1.00  0.00     0.000 C 
BRANCH  12  13
ATOM     13  C   UNL     1      47.458   7.186 128.138  1.00  0.00    -0.000 C 
BRANCH  13  14
ATOM     14  C   UNL     1      46.391   7.061 129.240  1.00  0.00    -0.000 C 
BRANCH  14  15
ATOM     15  C   UNL     1      45.844   5.633 129.382  1.00  0.00    -0.000 C 
BRANCH  15  16
ATOM     16  C   UNL     1      44.338   5.649 129.671  1.00  0.00    -0.000 C 
BRANCH  16  17
ATOM     17  C   UNL     1      43.625   6.707 128.822  1.00  0.00    -0.000 C 
BRANCH  17  18
ATOM     18  C   UNL     1      42.671   6.055 127.814  1.00  0.00    -0.000 C 
BRANCH  18  19
ATOM     19  C   UNL     1      43.319   5.953 126.430  1.00  0.00    -0.003 C 
ATOM     20  C   UNL     1      44.011   4.605 126.242  1.00  0.00     0.004 C 
ENDBRANCH  18  19
ENDBRANCH  17  18
ENDBRANCH  16  17
ENDBRANCH  15  16
ENDBRANCH  14  15
ENDBRANCH  13  14
ENDBRANCH  12  13
ENDBRANCH   1  12
TORSDOF 16
ENDMDL
MODEL 8
REMARK VINA RESULT:    -4.808      2.597      7.329
REMARK INTER + INTRA:         -11.116
REMARK INTER:                  -9.644
REMARK INTRA:                  -1.472
REMARK UNBOUND:                -1.810
REMARK SMILES CCCCCCCCCCCCCCCCCC(=O)[O-]
REMARK SMILES IDX 10 1 11 2 12 3 13 4 14 5 15 6 16 7 17 8 18 9 19 10 20 11
REMARK SMILES IDX 9 12 8 13 7 14 6 15 5 16 4 17 3 18 2 19 1 20
REMARK H PARENT
REMARK Flexibility Score: inf
ROOT
ATOM      1  C   UNL     1      46.117   4.108 132.645  1.00  0.00     0.000 C 
ENDROOT
BRANCH   1   2
ATOM      2  C   UNL     1      47.402   3.554 132.011  1.00  0.00     0.000 C 
BRANCH   2   3
ATOM      3  C   UNL     1      47.763   4.328 130.736  1.00  0.00     0.000 C 
BRANCH   3   4
ATOM      4  C   UNL     1      46.609   5.205 130.218  1.00  0.00     0.000 C 
BRANCH   4   5
ATOM      5  C   UNL     1      46.986   6.162 129.072  1.00  0.00     0.000 C 
BRANCH   5   6
ATOM      6  C   UNL     1      46.087   7.409 129.016  1.00  0.00     0.000 C 
BRANCH   6   7
ATOM      7  C   UNL     1      45.264   7.491 127.717  1.00  0.00     0.006 C 
BRANCH   7   8
ATOM      8  C   UNL     1      44.747   6.134 127.212  1.00  0.00     0.053 C 
BRANCH   8   9
ATOM      9  C   UNL     1      43.284   5.956 127.476  1.00  0.00     0.041 C 
ATOM     10  O   UNL     1      42.550   5.396 126.621  1.00  0.00    -0.550 OA
ATOM     11  O   UNL     1      42.724   6.438 128.653  1.00  0.00    -0.550 OA
ENDBRANCH   8   9
ENDBRANCH   7   8
ENDBRANCH   6   7
ENDBRANCH   5   6
ENDBRANCH   4   5
ENDBRANCH   3   4
ENDBRANCH   2   3
ENDBRANCH   1   2
BRANCH   1  12
ATOM     12  C   UNL     1      45.854   3.543 134.052  1.00  0.00     0.000 C 
BRANCH  12  13
ATOM     13  C   UNL     1      45.050   2.226 134.086  1.00  0.00    -0.000 C 
BRANCH  13  14
ATOM     14  C   UNL     1      44.000   2.074 132.972  1.00  0.00    -0.000 C 
BRANCH  14  15
ATOM     15  C   UNL     1      44.053   0.703 132.284  1.00  0.00    -0.000 C 
BRANCH  15  16
ATOM     16  C   UNL     1      42.648   0.232 131.891  1.00  0.00    -0.000 C 
BRANCH  16  17
ATOM     17  C   UNL     1      41.811  -0.102 133.131  1.00  0.00    -0.000 C 
BRANCH  17  18
ATOM     18  C   UNL     1      42.543  -1.099 134.038  1.00  0.00    -0.000 C 
BRANCH  18  19
ATOM     19  C   UNL     1      42.655  -0.561 135.469  1.00  0.00    -0.003 C 
ATOM     20  C   UNL     1      41.820   0.704 135.650  1.00  0.00     0.004 C 
ENDBRANCH  18  19
ENDBRANCH  17  18
ENDBRANCH  16  17
ENDBRANCH  15  16
ENDBRANCH  14  15
ENDBRANCH  13  14
ENDBRANCH  12  13
ENDBRANCH   1  12
TORSDOF 16
ENDMDL
MODEL 9
REMARK VINA RESULT:    -4.802      7.673     11.854
REMARK INTER + INTRA:         -11.103
REMARK INTER:                  -9.780
REMARK INTRA:                  -1.323
REMARK UNBOUND:                -1.810
REMARK SMILES CCCCCCCCCCCCCCCCCC(=O)[O-]
REMARK SMILES IDX 10 1 11 2 12 3 13 4 14 5 15 6 16 7 17 8 18 9 19 10 20 11
REMARK SMILES IDX 9 12 8 13 7 14 6 15 5 16 4 17 3 18 2 19 1 20
REMARK H PARENT
REMARK Flexibility Score: inf
ROOT
ATOM      1  C   UNL     1      46.517   8.125 124.075  1.00  0.00     0.000 C 
ENDROOT
BRANCH   1   2
ATOM      2  C   UNL     1      46.001   9.391 123.375  1.00  0.00     0.000 C 
BRANCH   2   3
ATOM      3  C   UNL     1      46.197  10.628 124.262  1.00  0.00     0.000 C 
BRANCH   3   4
ATOM      4  C   UNL     1      45.174  11.742 123.976  1.00  0.00     0.000 C 
BRANCH   4   5
ATOM      5  C   UNL     1      44.201  11.447 122.819  1.00  0.00     0.000 C 
BRANCH   5   6
ATOM      6  C   UNL     1      44.480  12.303 121.572  1.00  0.00     0.000 C 
BRANCH   6   7
ATOM      7  C   UNL     1      45.266  11.538 120.491  1.00  0.00     0.006 C 
BRANCH   7   8
ATOM      8  C   UNL     1      44.633  11.599 119.091  1.00  0.00     0.053 C 
BRANCH   8   9
ATOM      9  C   UNL     1      45.245  10.604 118.154  1.00  0.00     0.041 C 
ATOM     10  O   UNL     1      46.127  10.967 117.333  1.00  0.00    -0.550 OA
ATOM     11  O   UNL     1      44.819   9.281 118.167  1.00  0.00    -0.550 OA
ENDBRANCH   8   9
ENDBRANCH   7   8
ENDBRANCH   6   7
ENDBRANCH   5   6
ENDBRANCH   4   5
ENDBRANCH   3   4
ENDBRANCH   2   3
ENDBRANCH   1   2
BRANCH   1  12
ATOM     12  C   UNL     1      47.889   8.329 124.742  1.00  0.00     0.000 C 
BRANCH  12  13
ATOM     13  C   UNL     1      47.992   7.814 126.193  1.00  0.00    -0.000 C 
BRANCH  13  14
ATOM     14  C   UNL     1      46.728   7.118 126.729  1.00  0.00    -0.000 C 
BRANCH  14  15
ATOM     15  C   UNL     1      46.886   6.621 128.173  1.00  0.00    -0.000 C 
BRANCH  15  16
ATOM     16  C   UNL     1      45.765   7.165 129.066  1.00  0.00    -0.000 C 
BRANCH  16  17
ATOM     17  C   UNL     1      44.500   7.451 128.250  1.00  0.00    -0.000 C 
BRANCH  17  18
ATOM     18  C   UNL     1      43.338   6.558 128.703  1.00  0.00    -0.000 C 
BRANCH  18  19
ATOM     19  C   UNL     1      42.529   6.056 127.502  1.00  0.00    -0.003 C 
ATOM     20  C   UNL     1      43.439   5.439 126.443  1.00  0.00     0.004 C 
ENDBRANCH  18  19
ENDBRANCH  17  18
ENDBRANCH  16  17
ENDBRANCH  15  16
ENDBRANCH  14  15
ENDBRANCH  13  14
ENDBRANCH  12  13
ENDBRANCH   1  12
TORSDOF 16
ENDMDL
