MODEL 1
REMARK VINA RESULT:    -2.642      0.000      0.000
REMARK INTER + INTRA:          -2.642
REMARK INTER:                  -2.642
REMARK INTRA:                   0.000
REMARK UNBOUND:                 0.000
REMARK SMILES CC(=O)[O-]
REMARK SMILES IDX 1 1 2 2 3 3 4 4
REMARK H PARENT
REMARK Flexibility Score: inf
ROOT
ATOM      1  C   UNL     1      25.217  37.739  26.960  1.00  0.00     0.063 C 
ATOM      2  C   UNL     1      26.612  37.867  26.447  1.00  0.00     0.038 C 
ATOM      3  O   UNL     1      27.160  36.897  25.859  1.00  0.00    -0.550 OA
ATOM      4  O   UNL     1      27.290  39.072  26.567  1.00  0.00    -0.550 OA
ENDROOT
TORSDOF 0
ENDMDL
MODEL 2
REMARK VINA RESULT:    -2.629      0.102      1.621
REMARK INTER + INTRA:          -2.629
REMARK INTER:                  -2.629
REMARK INTRA:                   0.000
REMARK UNBOUND:                 0.000
REMARK SMILES CC(=O)[O-]
REMARK SMILES IDX 1 1 2 2 3 3 4 4
REMARK H PARENT
REMARK Flexibility Score: inf
ROOT
ATOM      1  C   UNL     1      25.280  37.727  26.971  1.00  0.00     0.063 C 
ATOM      2  C   UNL     1      26.652  37.896  26.411  1.00  0.00     0.038 C 
ATOM      3  O   UNL     1      27.262  38.988  26.552  1.00  0.00    -0.550 OA
ATOM      4  O   UNL     1      27.282  36.832  25.779  1.00  0.00    -0.550 OA
ENDROOT
TORSDOF 0
ENDMDL
MODEL 3
REMARK VINA RESULT:    -2.535      1.468      2.131
REMARK INTER + INTRA:          -2.535
REMARK INTER:                  -2.535
REMARK INTRA:                   0.000
REMARK UNBOUND:                 0.000
REMARK SMILES CC(=O)[O-]
REMARK SMILES IDX 1 1 2 2 3 3 4 4
REMARK H PARENT
REMARK Flexibility Score: inf
ROOT
ATOM      1  C   UNL     1      27.082  36.773  26.022  1.00  0.00     0.063 C 
ATOM      2  C   UNL     1      26.315  37.900  26.627  1.00  0.00     0.038 C 
ATOM      3  O   UNL     1      26.881  39.003  26.848  1.00  0.00    -0.550 OA
ATOM      4  O   UNL     1      24.961  37.755  26.898  1.00  0.00    -0.550 OA
ENDROOT
TORSDOF 0
ENDMDL
MODEL 4
REMARK VINA RESULT:    -2.457      4.297      4.746
REMARK INTER + INTRA:          -2.457
REMARK INTER:                  -2.457
REMARK INTRA:                   0.000
REMARK UNBOUND:                 0.000
REMARK SMILES CC(=O)[O-]
REMARK SMILES IDX 1 1 2 2 3 3 4 4
REMARK H PARENT
REMARK Flexibility Score: inf
ROOT
ATOM      1  C   UNL     1      28.260  38.755  29.371  1.00  0.00     0.063 C 
ATOM      2  C   UNL     1      29.672  39.159  29.635  1.00  0.00     0.038 C 
ATOM      3  O   UNL     1      30.132  39.118  30.806  1.00  0.00    -0.550 OA
ATOM      4  O   UNL     1      30.498  39.530  28.582  1.00  0.00    -0.550 OA
ENDROOT
TORSDOF 0
ENDMDL
MODEL 5
REMARK VINA RESULT:    -2.453      4.339      4.891
REMARK INTER + INTRA:          -2.453
REMARK INTER:                  -2.453
REMARK INTRA:                   0.000
REMARK UNBOUND:                 0.000
REMARK SMILES CC(=O)[O-]
REMARK SMILES IDX 1 1 2 2 3 3 4 4
REMARK H PARENT
REMARK Flexibility Score: inf
ROOT
ATOM      1  C   UNL     1      30.370  39.118  28.361  1.00  0.00     0.063 C 
ATOM      2  C   UNL     1      29.523  39.119  29.588  1.00  0.00     0.038 C 
ATOM      3  O   UNL     1      28.270  39.054  29.491  1.00  0.00    -0.550 OA
ATOM      4  O   UNL     1      30.117  39.138  30.844  1.00  0.00    -0.550 OA
ENDROOT
TORSDOF 0
ENDMDL
MODEL 6
REMARK VINA RESULT:    -2.396      3.160      3.689
REMARK INTER + INTRA:          -2.396
REMARK INTER:                  -2.396
REMARK INTRA:                   0.000
REMARK UNBOUND:                 0.000
REMARK SMILES CC(=O)[O-]
REMARK SMILES IDX 1 1 2 2 3 3 4 4
REMARK H PARENT
REMARK Flexibility Score: inf
ROOT
ATOM      1  C   UNL     1      30.067  35.281  27.186  1.00  0.00     0.063 C 
ATOM      2  C   UNL     1      28.588  35.450  27.095  1.00  0.00     0.038 C 
ATOM      3  O   UNL     1      27.898  34.630  26.435  1.00  0.00    -0.550 OA
ATOM      4  O   UNL     1      27.962  36.481  27.783  1.00  0.00    -0.550 OA
ENDROOT
TORSDOF 0
ENDMDL
MODEL 7
REMARK VINA RESULT:    -2.360      3.633      4.141
REMARK INTER + INTRA:          -2.360
REMARK INTER:                  -2.360
REMARK INTRA:                   0.000
REMARK UNBOUND:                 0.000
REMARK SMILES CC(=O)[O-]
REMARK SMILES IDX 1 1 2 2 3 3 4 4
REMARK H PARENT
REMARK Flexibility Score: inf
ROOT
ATOM      1  C   UNL     1      29.798  39.082  29.980  1.00  0.00     0.063 C 
ATOM      2  C   UNL     1      29.480  38.956  28.528  1.00  0.00     0.038 C 
ATOM      3  O   UNL     1      28.303  39.138  28.121  1.00  0.00    -0.550 OA
ATOM      4  O   UNL     1      30.492  38.691  27.614  1.00  0.00    -0.550 OA
ENDROOT
TORSDOF 0
ENDMDL
MODEL 8
REMARK VINA RESULT:    -2.348      4.130      4.497
REMARK INTER + INTRA:          -2.348
REMARK INTER:                  -2.348
REMARK INTRA:                   0.000
REMARK UNBOUND:                 0.000
REMARK SMILES CC(=O)[O-]
REMARK SMILES IDX 1 1 2 2 3 3 4 4
REMARK H PARENT
REMARK Flexibility Score: inf
ROOT
ATOM      1  C   UNL     1      29.746  34.993  27.001  1.00  0.00     0.063 C 
ATOM      2  C   UNL     1      30.493  36.280  26.903  1.00  0.00     0.038 C 
ATOM      3  O   UNL     1      30.127  37.162  26.083  1.00  0.00    -0.550 OA
ATOM      4  O   UNL     1      31.562  36.531  27.753  1.00  0.00    -0.550 OA
ENDROOT
TORSDOF 0
ENDMDL
MODEL 9
REMARK VINA RESULT:    -2.324      3.861      4.312
REMARK INTER + INTRA:          -2.324
REMARK INTER:                  -2.324
REMARK INTRA:                   0.000
REMARK UNBOUND:                 0.000
REMARK SMILES CC(=O)[O-]
REMARK SMILES IDX 1 1 2 2 3 3 4 4
REMARK H PARENT
REMARK Flexibility Score: inf
ROOT
ATOM      1  C   UNL     1      29.709  38.919  24.363  1.00  0.00     0.063 C 
ATOM      2  C   UNL     1      30.342  38.296  25.561  1.00  0.00     0.038 C 
ATOM      3  O   UNL     1      29.780  38.376  26.685  1.00  0.00    -0.550 OA
ATOM      4  O   UNL     1      31.524  37.580  25.431  1.00  0.00    -0.550 OA
ENDROOT
TORSDOF 0
ENDMDL
