MODEL 1
REMARK VINA RESULT:    -7.141      0.000      0.000
REMARK INTER + INTRA:         -12.319
REMARK INTER:                 -10.898
REMARK INTRA:                  -1.421
REMARK UNBOUND:                -1.421
REMARK SMILES CC(=O)CCC=C(C)CCC=C(C)CCC=C(C)C
REMARK SMILES IDX 10 1 11 2 12 3 13 4 14 5 15 6 16 7 18 8 17 9 19 10 9 11 7 12
REMARK SMILES IDX 6 13 8 14 5 15 4 16 2 17 3 18 1 19
REMARK H PARENT
REMARK Flexibility Score: inf
ROOT
ATOM      1  C   UNL     1     -14.254 -14.395  31.403  1.00  0.00     0.032 C 
ENDROOT
BRANCH   1   2
ATOM      2  C   UNL     1     -13.980 -14.787  29.970  1.00  0.00    -0.028 C 
ATOM      3  C   UNL     1     -14.186 -13.987  28.899  1.00  0.00    -0.077 C 
ATOM      4  C   UNL     1     -14.789 -12.609  29.036  1.00  0.00     0.039 C 
BRANCH   3   5
ATOM      5  C   UNL     1     -13.824 -14.499  27.520  1.00  0.00     0.034 C 
BRANCH   5   6
ATOM      6  C   UNL     1     -13.986 -16.023  27.414  1.00  0.00     0.032 C 
BRANCH   6   7
ATOM      7  C   UNL     1     -12.920 -16.637  26.537  1.00  0.00    -0.028 C 
ATOM      8  C   UNL     1     -11.101 -16.311  28.229  1.00  0.00     0.039 C 
ATOM      9  C   UNL     1     -11.616 -16.743  26.876  1.00  0.00    -0.080 C 
ATOM     10  C   UNL     1     -10.660 -17.330  25.871  1.00  0.00     0.039 C 
ENDBRANCH   6   7
ENDBRANCH   5   6
ENDBRANCH   3   5
ENDBRANCH   1   2
BRANCH   1  11
ATOM     11  C   UNL     1     -14.393 -15.622  32.316  1.00  0.00     0.034 C 
BRANCH  11  12
ATOM     12  C   UNL     1     -13.205 -16.556  32.193  1.00  0.00    -0.077 C 
ATOM     13  C   UNL     1     -13.403 -17.819  31.752  1.00  0.00    -0.028 C 
ATOM     14  C   UNL     1     -11.829 -16.040  32.546  1.00  0.00     0.039 C 
BRANCH  13  15
ATOM     15  C   UNL     1     -12.315 -18.853  31.611  1.00  0.00     0.035 C 
BRANCH  15  16
ATOM     16  C   UNL     1     -12.814 -20.063  30.817  1.00  0.00     0.079 C 
BRANCH  16  17
ATOM     17  C   UNL     1     -12.675 -19.822  29.337  1.00  0.00     0.130 C 
ATOM     18  O   UNL     1     -11.604 -19.441  28.888  1.00  0.00    -0.300 OA
ATOM     19  C   UNL     1     -13.825 -20.034  28.398  1.00  0.00     0.087 C 
ENDBRANCH  16  17
ENDBRANCH  15  16
ENDBRANCH  13  15
ENDBRANCH  11  12
ENDBRANCH   1  11
TORSDOF 9
ENDMDL
MODEL 2
REMARK VINA RESULT:    -6.885      1.377      3.907
REMARK INTER + INTRA:         -11.928
REMARK INTER:                  -9.943
REMARK INTRA:                  -1.985
REMARK UNBOUND:                -1.421
REMARK SMILES CC(=O)CCC=C(C)CCC=C(C)CCC=C(C)C
REMARK SMILES IDX 10 1 11 2 12 3 13 4 14 5 15 6 16 7 18 8 17 9 19 10 9 11 7 12
REMARK SMILES IDX 6 13 8 14 5 15 4 16 2 17 3 18 1 19
REMARK H PARENT
REMARK Flexibility Score: inf
ROOT
ATOM      1  C   UNL     1     -10.908 -16.375  32.754  1.00  0.00     0.032 C 
ENDROOT
BRANCH   1   2
ATOM      2  C   UNL     1     -12.184 -15.575  32.647  1.00  0.00    -0.028 C 
ATOM      3  C   UNL     1     -13.418 -16.109  32.495  1.00  0.00    -0.077 C 
ATOM      4  C   UNL     1     -13.632 -17.596  32.347  1.00  0.00     0.039 C 
BRANCH   3   5
ATOM      5  C   UNL     1     -14.617 -15.184  32.446  1.00  0.00     0.034 C 
BRANCH   5   6
ATOM      6  C   UNL     1     -14.466 -14.108  31.361  1.00  0.00     0.032 C 
BRANCH   6   7
ATOM      7  C   UNL     1     -13.995 -14.697  30.052  1.00  0.00    -0.028 C 
ATOM      8  C   UNL     1     -14.648 -12.682  28.715  1.00  0.00     0.039 C 
ATOM      9  C   UNL     1     -14.100 -14.083  28.853  1.00  0.00    -0.080 C 
ATOM     10  C   UNL     1     -13.633 -14.822  27.626  1.00  0.00     0.039 C 
ENDBRANCH   6   7
ENDBRANCH   5   6
ENDBRANCH   3   5
ENDBRANCH   1   2
BRANCH   1  11
ATOM     11  C   UNL     1      -9.908 -16.007  31.648  1.00  0.00     0.034 C 
BRANCH  11  12
ATOM     12  C   UNL     1     -10.462 -16.291  30.265  1.00  0.00    -0.077 C 
ATOM     13  C   UNL     1     -10.991 -17.508  30.006  1.00  0.00    -0.028 C 
ATOM     14  C   UNL     1     -10.427 -15.197  29.224  1.00  0.00     0.039 C 
BRANCH  13  15
ATOM     15  C   UNL     1     -11.548 -17.927  28.668  1.00  0.00     0.035 C 
BRANCH  15  16
ATOM     16  C   UNL     1     -13.032 -18.285  28.786  1.00  0.00     0.079 C 
BRANCH  16  17
ATOM     17  C   UNL     1     -13.205 -19.754  29.067  1.00  0.00     0.130 C 
ATOM     18  O   UNL     1     -13.692 -20.477  28.211  1.00  0.00    -0.300 OA
ATOM     19  C   UNL     1     -12.795 -20.353  30.380  1.00  0.00     0.087 C 
ENDBRANCH  16  17
ENDBRANCH  15  16
ENDBRANCH  13  15
ENDBRANCH  11  12
ENDBRANCH   1  11
TORSDOF 9
ENDMDL
MODEL 3
REMARK VINA RESULT:    -6.880      1.288      3.552
REMARK INTER + INTRA:         -11.921
REMARK INTER:                  -9.958
REMARK INTRA:                  -1.963
REMARK UNBOUND:                -1.421
REMARK SMILES CC(=O)CCC=C(C)CCC=C(C)CCC=C(C)C
REMARK SMILES IDX 10 1 11 2 12 3 13 4 14 5 15 6 16 7 18 8 17 9 19 10 9 11 7 12
REMARK SMILES IDX 6 13 8 14 5 15 4 16 2 17 3 18 1 19
REMARK H PARENT
REMARK Flexibility Score: inf
ROOT
ATOM      1  C   UNL     1     -10.131 -16.191  31.213  1.00  0.00     0.032 C 
ENDROOT
BRANCH   1   2
ATOM      2  C   UNL     1     -10.886 -15.641  30.025  1.00  0.00    -0.028 C 
ATOM      3  C   UNL     1     -10.917 -16.213  28.800  1.00  0.00    -0.077 C 
ATOM      4  C   UNL     1     -10.122 -17.456  28.478  1.00  0.00     0.039 C 
BRANCH   3   5
ATOM      5  C   UNL     1     -11.753 -15.572  27.712  1.00  0.00     0.034 C 
BRANCH   5   6
ATOM      6  C   UNL     1     -13.252 -15.607  28.046  1.00  0.00     0.032 C 
BRANCH   6   7
ATOM      7  C   UNL     1     -13.866 -14.228  27.997  1.00  0.00    -0.028 C 
ATOM      8  C   UNL     1     -14.359 -14.176  30.453  1.00  0.00     0.039 C 
ATOM      9  C   UNL     1     -14.397 -13.587  29.062  1.00  0.00    -0.080 C 
ATOM     10  C   UNL     1     -15.025 -12.235  28.845  1.00  0.00     0.039 C 
ENDBRANCH   6   7
ENDBRANCH   5   6
ENDBRANCH   3   5
ENDBRANCH   1   2
BRANCH   1  11
ATOM     11  C   UNL     1     -11.068 -16.522  32.383  1.00  0.00     0.034 C 
BRANCH  11  12
ATOM     12  C   UNL     1     -12.117 -17.547  31.996  1.00  0.00    -0.077 C 
ATOM     13  C   UNL     1     -11.719 -18.770  31.578  1.00  0.00    -0.028 C 
ATOM     14  C   UNL     1     -13.578 -17.179  32.111  1.00  0.00     0.039 C 
BRANCH  13  15
ATOM     15  C   UNL     1     -12.656 -19.867  31.139  1.00  0.00     0.035 C 
BRANCH  15  16
ATOM     16  C   UNL     1     -12.235 -20.430  29.779  1.00  0.00     0.079 C 
BRANCH  16  17
ATOM     17  C   UNL     1     -13.278 -20.131  28.734  1.00  0.00     0.130 C 
ATOM     18  O   UNL     1     -13.838 -21.053  28.162  1.00  0.00    -0.300 OA
ATOM     19  C   UNL     1     -13.642 -18.721  28.374  1.00  0.00     0.087 C 
ENDBRANCH  16  17
ENDBRANCH  15  16
ENDBRANCH  13  15
ENDBRANCH  11  12
ENDBRANCH   1  11
TORSDOF 9
ENDMDL
MODEL 4
REMARK VINA RESULT:    -6.848      1.658      4.868
REMARK INTER + INTRA:         -11.872
REMARK INTER:                 -10.454
REMARK INTRA:                  -1.418
REMARK UNBOUND:                -1.421
REMARK SMILES CC(=O)CCC=C(C)CCC=C(C)CCC=C(C)C
REMARK SMILES IDX 10 1 11 2 12 3 13 4 14 5 15 6 16 7 18 8 17 9 19 10 9 11 7 12
REMARK SMILES IDX 6 13 8 14 5 15 4 16 2 17 3 18 1 19
REMARK H PARENT
REMARK Flexibility Score: inf
ROOT
ATOM      1  C   UNL     1     -13.452 -15.007  27.833  1.00  0.00     0.032 C 
ENDROOT
BRANCH   1   2
ATOM      2  C   UNL     1     -12.286 -15.472  28.674  1.00  0.00    -0.028 C 
ATOM      3  C   UNL     1     -11.278 -16.254  28.226  1.00  0.00    -0.077 C 
ATOM      4  C   UNL     1     -11.257 -16.805  26.820  1.00  0.00     0.039 C 
BRANCH   3   5
ATOM      5  C   UNL     1     -10.148 -16.608  29.171  1.00  0.00     0.034 C 
BRANCH   5   6
ATOM      6  C   UNL     1      -9.882 -18.120  29.206  1.00  0.00     0.032 C 
BRANCH   6   7
ATOM      7  C   UNL     1     -10.592 -18.785  30.362  1.00  0.00    -0.028 C 
ATOM      8  C   UNL     1     -12.445 -19.677  28.931  1.00  0.00     0.039 C 
ATOM      9  C   UNL     1     -11.759 -19.458  30.259  1.00  0.00    -0.080 C 
ATOM     10  C   UNL     1     -12.375 -20.021  31.514  1.00  0.00     0.039 C 
ENDBRANCH   6   7
ENDBRANCH   5   6
ENDBRANCH   3   5
ENDBRANCH   1   2
BRANCH   1  11
ATOM     11  C   UNL     1     -13.974 -13.636  28.289  1.00  0.00     0.034 C 
BRANCH  11  12
ATOM     12  C   UNL     1     -14.849 -13.745  29.522  1.00  0.00    -0.077 C 
ATOM     13  C   UNL     1     -14.323 -14.251  30.660  1.00  0.00    -0.028 C 
ATOM     14  C   UNL     1     -16.280 -13.263  29.449  1.00  0.00     0.039 C 
BRANCH  13  15
ATOM     15  C   UNL     1     -15.091 -14.438  31.945  1.00  0.00     0.035 C 
BRANCH  15  16
ATOM     16  C   UNL     1     -14.154 -14.850  33.083  1.00  0.00     0.079 C 
BRANCH  16  17
ATOM     17  C   UNL     1     -13.494 -16.169  32.778  1.00  0.00     0.130 C 
ATOM     18  O   UNL     1     -14.165 -17.190  32.772  1.00  0.00    -0.300 OA
ATOM     19  C   UNL     1     -12.026 -16.260  32.484  1.00  0.00     0.087 C 
ENDBRANCH  16  17
ENDBRANCH  15  16
ENDBRANCH  13  15
ENDBRANCH  11  12
ENDBRANCH   1  11
TORSDOF 9
ENDMDL
MODEL 5
REMARK VINA RESULT:    -6.837      1.349      4.127
REMARK INTER + INTRA:         -11.855
REMARK INTER:                 -10.101
REMARK INTRA:                  -1.754
REMARK UNBOUND:                -1.421
REMARK SMILES CC(=O)CCC=C(C)CCC=C(C)CCC=C(C)C
REMARK SMILES IDX 10 1 11 2 12 3 13 4 14 5 15 6 16 7 18 8 17 9 19 10 9 11 7 12
REMARK SMILES IDX 6 13 8 14 5 15 4 16 2 17 3 18 1 19
REMARK H PARENT
REMARK Flexibility Score: inf
ROOT
ATOM      1  C   UNL     1     -13.263 -14.628  27.801  1.00  0.00     0.032 C 
ENDROOT
BRANCH   1   2
ATOM      2  C   UNL     1     -13.347 -14.933  29.278  1.00  0.00    -0.028 C 
ATOM      3  C   UNL     1     -14.256 -14.399  30.125  1.00  0.00    -0.077 C 
ATOM      4  C   UNL     1     -15.261 -13.366  29.670  1.00  0.00     0.039 C 
BRANCH   3   5
ATOM      5  C   UNL     1     -14.250 -14.830  31.577  1.00  0.00     0.034 C 
BRANCH   5   6
ATOM      6  C   UNL     1     -13.627 -16.222  31.758  1.00  0.00     0.032 C 
BRANCH   6   7
ATOM      7  C   UNL     1     -12.450 -16.186  32.704  1.00  0.00    -0.028 C 
ATOM      8  C   UNL     1     -10.761 -15.987  30.865  1.00  0.00     0.039 C 
ATOM      9  C   UNL     1     -11.157 -16.115  32.317  1.00  0.00    -0.080 C 
ATOM     10  C   UNL     1     -10.088 -16.144  33.379  1.00  0.00     0.039 C 
ENDBRANCH   6   7
ENDBRANCH   5   6
ENDBRANCH   3   5
ENDBRANCH   1   2
BRANCH   1  11
ATOM     11  C   UNL     1     -13.596 -15.857  26.944  1.00  0.00     0.034 C 
BRANCH  11  12
ATOM     12  C   UNL     1     -12.839 -17.089  27.402  1.00  0.00    -0.077 C 
ATOM     13  C   UNL     1     -13.520 -18.099  27.989  1.00  0.00    -0.028 C 
ATOM     14  C   UNL     1     -11.348 -17.161  27.167  1.00  0.00     0.039 C 
BRANCH  13  15
ATOM     15  C   UNL     1     -12.885 -19.363  28.513  1.00  0.00     0.035 C 
BRANCH  15  16
ATOM     16  C   UNL     1     -13.276 -19.602  29.974  1.00  0.00     0.079 C 
BRANCH  16  17
ATOM     17  C   UNL     1     -12.051 -19.813  30.824  1.00  0.00     0.130 C 
ATOM     18  O   UNL     1     -12.146 -20.433  31.872  1.00  0.00    -0.300 OA
ATOM     19  C   UNL     1     -10.712 -19.274  30.415  1.00  0.00     0.087 C 
ENDBRANCH  16  17
ENDBRANCH  15  16
ENDBRANCH  13  15
ENDBRANCH  11  12
ENDBRANCH   1  11
TORSDOF 9
ENDMDL
MODEL 6
REMARK VINA RESULT:    -6.662      2.150      6.103
REMARK INTER + INTRA:         -11.589
REMARK INTER:                  -9.885
REMARK INTRA:                  -1.703
REMARK UNBOUND:                -1.421
REMARK SMILES CC(=O)CCC=C(C)CCC=C(C)CCC=C(C)C
REMARK SMILES IDX 10 1 11 2 12 3 13 4 14 5 15 6 16 7 18 8 17 9 19 10 9 11 7 12
REMARK SMILES IDX 6 13 8 14 5 15 4 16 2 17 3 18 1 19
REMARK H PARENT
REMARK Flexibility Score: inf
ROOT
ATOM      1  C   UNL     1     -11.565 -18.266  27.542  1.00  0.00     0.032 C 
ENDROOT
BRANCH   1   2
ATOM      2  C   UNL     1     -11.735 -18.818  28.938  1.00  0.00    -0.028 C 
ATOM      3  C   UNL     1     -12.680 -19.715  29.302  1.00  0.00    -0.077 C 
ATOM      4  C   UNL     1     -13.724 -20.214  28.331  1.00  0.00     0.039 C 
BRANCH   3   5
ATOM      5  C   UNL     1     -12.706 -20.215  30.732  1.00  0.00     0.034 C 
BRANCH   5   6
ATOM      6  C   UNL     1     -12.259 -19.133  31.725  1.00  0.00     0.032 C 
BRANCH   6   7
ATOM      7  C   UNL     1     -13.275 -18.020  31.832  1.00  0.00    -0.028 C 
ATOM      8  C   UNL     1     -11.570 -16.291  32.446  1.00  0.00     0.039 C 
ATOM      9  C   UNL     1     -12.986 -16.749  32.186  1.00  0.00    -0.080 C 
ATOM     10  C   UNL     1     -14.118 -15.761  32.302  1.00  0.00     0.039 C 
ENDBRANCH   6   7
ENDBRANCH   5   6
ENDBRANCH   3   5
ENDBRANCH   1   2
BRANCH   1  11
ATOM     11  C   UNL     1     -10.644 -17.037  27.522  1.00  0.00     0.034 C 
BRANCH  11  12
ATOM     12  C   UNL     1     -11.215 -15.889  28.331  1.00  0.00    -0.077 C 
ATOM     13  C   UNL     1     -12.524 -15.577  28.199  1.00  0.00    -0.028 C 
ATOM     14  C   UNL     1     -10.307 -15.141  29.280  1.00  0.00     0.039 C 
BRANCH  13  15
ATOM     15  C   UNL     1     -13.207 -14.444  28.923  1.00  0.00     0.035 C 
BRANCH  15  16
ATOM     16  C   UNL     1     -14.333 -13.854  28.069  1.00  0.00     0.079 C 
BRANCH  16  17
ATOM     17  C   UNL     1     -15.154 -12.880  28.872  1.00  0.00     0.130 C 
ATOM     18  O   UNL     1     -14.759 -11.733  29.013  1.00  0.00    -0.300 OA
ATOM     19  C   UNL     1     -16.450 -13.288  29.510  1.00  0.00     0.087 C 
ENDBRANCH  16  17
ENDBRANCH  15  16
ENDBRANCH  13  15
ENDBRANCH  11  12
ENDBRANCH   1  11
TORSDOF 9
ENDMDL
MODEL 7
REMARK VINA RESULT:    -6.563      1.892      4.763
REMARK INTER + INTRA:         -11.437
REMARK INTER:                  -9.829
REMARK INTRA:                  -1.608
REMARK UNBOUND:                -1.421
REMARK SMILES CC(=O)CCC=C(C)CCC=C(C)CCC=C(C)C
REMARK SMILES IDX 10 1 11 2 12 3 13 4 14 5 15 6 16 7 18 8 17 9 19 10 9 11 7 12
REMARK SMILES IDX 6 13 8 14 5 15 4 16 2 17 3 18 1 19
REMARK H PARENT
REMARK Flexibility Score: inf
ROOT
ATOM      1  C   UNL     1     -13.331 -19.154  28.214  1.00  0.00     0.032 C 
ENDROOT
BRANCH   1   2
ATOM      2  C   UNL     1     -12.878 -17.732  28.443  1.00  0.00    -0.028 C 
ATOM      3  C   UNL     1     -11.987 -17.073  27.668  1.00  0.00    -0.077 C 
ATOM      4  C   UNL     1     -11.293 -17.740  26.505  1.00  0.00     0.039 C 
BRANCH   3   5
ATOM      5  C   UNL     1     -11.658 -15.630  27.992  1.00  0.00     0.034 C 
BRANCH   5   6
ATOM      6  C   UNL     1     -12.506 -15.096  29.155  1.00  0.00     0.032 C 
BRANCH   6   7
ATOM      7  C   UNL     1     -13.462 -14.018  28.700  1.00  0.00    -0.028 C 
ATOM      8  C   UNL     1     -14.771 -14.039  30.836  1.00  0.00     0.039 C 
ATOM      9  C   UNL     1     -14.502 -13.558  29.429  1.00  0.00    -0.080 C 
ATOM     10  C   UNL     1     -15.402 -12.517  28.816  1.00  0.00     0.039 C 
ENDBRANCH   6   7
ENDBRANCH   5   6
ENDBRANCH   3   5
ENDBRANCH   1   2
BRANCH   1  11
ATOM     11  C   UNL     1     -12.533 -20.153  29.066  1.00  0.00     0.034 C 
BRANCH  11  12
ATOM     12  C   UNL     1     -12.006 -19.518  30.338  1.00  0.00    -0.077 C 
ATOM     13  C   UNL     1     -10.758 -18.998  30.346  1.00  0.00    -0.028 C 
ATOM     14  C   UNL     1     -12.901 -19.464  31.554  1.00  0.00     0.039 C 
BRANCH  13  15
ATOM     15  C   UNL     1     -10.106 -18.365  31.549  1.00  0.00     0.035 C 
BRANCH  15  16
ATOM     16  C   UNL     1     -10.131 -16.837  31.441  1.00  0.00     0.079 C 
BRANCH  16  17
ATOM     17  C   UNL     1     -10.836 -16.233  32.627  1.00  0.00     0.130 C 
ATOM     18  O   UNL     1     -10.183 -15.858  33.589  1.00  0.00    -0.300 OA
ATOM     19  C   UNL     1     -12.329 -16.084  32.657  1.00  0.00     0.087 C 
ENDBRANCH  16  17
ENDBRANCH  15  16
ENDBRANCH  13  15
ENDBRANCH  11  12
ENDBRANCH   1  11
TORSDOF 9
ENDMDL
MODEL 8
REMARK VINA RESULT:    -6.559      2.200      4.971
REMARK INTER + INTRA:         -11.431
REMARK INTER:                  -9.855
REMARK INTRA:                  -1.576
REMARK UNBOUND:                -1.421
REMARK SMILES CC(=O)CCC=C(C)CCC=C(C)CCC=C(C)C
REMARK SMILES IDX 10 1 11 2 12 3 13 4 14 5 15 6 16 7 18 8 17 9 19 10 9 11 7 12
REMARK SMILES IDX 6 13 8 14 5 15 4 16 2 17 3 18 1 19
REMARK H PARENT
REMARK Flexibility Score: inf
ROOT
ATOM      1  C   UNL     1     -10.128 -18.252  31.659  1.00  0.00     0.032 C 
ENDROOT
BRANCH   1   2
ATOM      2  C   UNL     1     -10.849 -18.720  30.417  1.00  0.00    -0.028 C 
ATOM      3  C   UNL     1     -11.915 -19.551  30.413  1.00  0.00    -0.077 C 
ATOM      4  C   UNL     1     -12.460 -20.158  31.684  1.00  0.00     0.039 C 
BRANCH   3   5
ATOM      5  C   UNL     1     -12.567 -19.903  29.092  1.00  0.00     0.034 C 
BRANCH   5   6
ATOM      6  C   UNL     1     -13.062 -18.655  28.347  1.00  0.00     0.032 C 
BRANCH   6   7
ATOM      7  C   UNL     1     -12.007 -18.106  27.415  1.00  0.00    -0.028 C 
ATOM      8  C   UNL     1     -13.500 -16.309  26.510  1.00  0.00     0.039 C 
ATOM      9  C   UNL     1     -12.199 -17.076  26.562  1.00  0.00    -0.080 C 
ATOM     10  C   UNL     1     -11.065 -16.677  25.654  1.00  0.00     0.039 C 
ENDBRANCH   6   7
ENDBRANCH   5   6
ENDBRANCH   3   5
ENDBRANCH   1   2
BRANCH   1  11
ATOM     11  C   UNL     1     -10.109 -16.720  31.766  1.00  0.00     0.034 C 
BRANCH  11  12
ATOM     12  C   UNL     1     -10.962 -16.067  30.696  1.00  0.00    -0.077 C 
ATOM     13  C   UNL     1     -12.284 -15.893  30.923  1.00  0.00    -0.028 C 
ATOM     14  C   UNL     1     -10.305 -15.608  29.415  1.00  0.00     0.039 C 
BRANCH  13  15
ATOM     15  C   UNL     1     -13.246 -15.285  29.933  1.00  0.00     0.035 C 
BRANCH  15  16
ATOM     16  C   UNL     1     -14.328 -14.476  30.654  1.00  0.00     0.079 C 
BRANCH  16  17
ATOM     17  C   UNL     1     -15.104 -13.635  29.674  1.00  0.00     0.130 C 
ATOM     18  O   UNL     1     -16.318 -13.558  29.777  1.00  0.00    -0.300 OA
ATOM     19  C   UNL     1     -14.418 -12.892  28.566  1.00  0.00     0.087 C 
ENDBRANCH  16  17
ENDBRANCH  15  16
ENDBRANCH  13  15
ENDBRANCH  11  12
ENDBRANCH   1  11
TORSDOF 9
ENDMDL
MODEL 9
REMARK VINA RESULT:    -6.345      1.558      4.552
REMARK INTER + INTRA:         -11.105
REMARK INTER:                 -10.175
REMARK INTRA:                  -0.930
REMARK UNBOUND:                -1.421
REMARK SMILES CC(=O)CCC=C(C)CCC=C(C)CCC=C(C)C
REMARK SMILES IDX 10 1 11 2 12 3 13 4 14 5 15 6 16 7 18 8 17 9 19 10 9 11 7 12
REMARK SMILES IDX 6 13 8 14 5 15 4 16 2 17 3 18 1 19
REMARK H PARENT
REMARK Flexibility Score: inf
ROOT
ATOM      1  C   UNL     1     -13.163 -15.410  32.986  1.00  0.00     0.032 C 
ENDROOT
BRANCH   1   2
ATOM      2  C   UNL     1     -12.113 -16.181  32.220  1.00  0.00    -0.028 C 
ATOM      3  C   UNL     1     -10.809 -16.262  32.570  1.00  0.00    -0.077 C 
ATOM      4  C   UNL     1     -10.252 -15.513  33.758  1.00  0.00     0.039 C 
BRANCH   3   5
ATOM      5  C   UNL     1      -9.875 -17.109  31.730  1.00  0.00     0.034 C 
BRANCH   5   6
ATOM      6  C   UNL     1     -10.303 -18.584  31.709  1.00  0.00     0.032 C 
BRANCH   6   7
ATOM      7  C   UNL     1     -10.908 -18.970  30.380  1.00  0.00    -0.028 C 
ATOM      8  C   UNL     1     -13.212 -19.254  31.321  1.00  0.00     0.039 C 
ATOM      9  C   UNL     1     -12.204 -19.306  30.197  1.00  0.00    -0.080 C 
ATOM     10  C   UNL     1     -12.648 -19.723  28.819  1.00  0.00     0.039 C 
ENDBRANCH   6   7
ENDBRANCH   5   6
ENDBRANCH   3   5
ENDBRANCH   1   2
BRANCH   1  11
ATOM     11  C   UNL     1     -14.422 -15.164  32.141  1.00  0.00     0.034 C 
BRANCH  11  12
ATOM     12  C   UNL     1     -14.080 -14.745  30.724  1.00  0.00    -0.077 C 
ATOM     13  C   UNL     1     -13.181 -15.471  30.022  1.00  0.00    -0.028 C 
ATOM     14  C   UNL     1     -14.773 -13.541  30.130  1.00  0.00     0.039 C 
BRANCH  13  15
ATOM     15  C   UNL     1     -12.734 -15.147  28.619  1.00  0.00     0.035 C 
BRANCH  15  16
ATOM     16  C   UNL     1     -11.613 -16.090  28.173  1.00  0.00     0.079 C 
BRANCH  16  17
ATOM     17  C   UNL     1     -11.961 -16.749  26.865  1.00  0.00     0.130 C 
ATOM     18  O   UNL     1     -13.118 -16.732  26.472  1.00  0.00    -0.300 OA
ATOM     19  C   UNL     1     -10.918 -17.434  26.032  1.00  0.00     0.087 C 
ENDBRANCH  16  17
ENDBRANCH  15  16
ENDBRANCH  13  15
ENDBRANCH  11  12
ENDBRANCH   1  11
TORSDOF 9
ENDMDL
