MODEL 1
REMARK VINA RESULT:    -4.319      0.000      0.000
REMARK INTER + INTRA:          -4.445
REMARK INTER:                  -4.445
REMARK INTRA:                   0.000
REMARK UNBOUND:                 0.000
REMARK SMILES CC1(C)[C@H]2CC[C@](C)(C2)[C@H]1O
REMARK SMILES IDX 1 1 2 2 4 3 5 4 6 5 7 6 9 7 10 8 8 9 3 10 11 11
REMARK H PARENT 11 12
REMARK Flexibility Score: inf
ROOT
ATOM      1  C   UNL     1     108.024 106.744 104.327  1.00  0.00     0.014 C 
ATOM      2  C   UNL     1     107.428 105.990 103.111  1.00  0.00    -0.006 C 
ATOM      3  C   UNL     1     107.392 104.434 103.303  1.00  0.00    -0.002 C 
ATOM      4  C   UNL     1     106.772 104.056 104.665  1.00  0.00     0.005 C 
ATOM      5  C   UNL     1     105.301 104.469 104.496  1.00  0.00     0.010 C 
ATOM      6  C   UNL     1     105.243 104.925 103.018  1.00  0.00    -0.006 C 
ATOM      7  C   UNL     1     106.263 104.011 102.378  1.00  0.00     0.013 C 
ATOM      8  C   UNL     1     105.917 106.310 102.851  1.00  0.00     0.126 C 
ATOM      9  C   UNL     1     103.845 104.834 102.396  1.00  0.00     0.014 C 
ATOM     10  C   UNL     1     108.289 106.352 101.876  1.00  0.00     0.014 C 
ENDROOT
BRANCH   8  11
ATOM     11  O   UNL     1     105.378 107.253 103.745  1.00  0.00    -0.392 OA
ATOM     12  H   UNL     1     104.741 107.804 103.221  1.00  0.00     0.211 HD
ENDBRANCH   8  11
TORSDOF 1
ENDMDL
MODEL 2
REMARK VINA RESULT:    -4.319      1.435      2.624
REMARK INTER + INTRA:          -4.445
REMARK INTER:                  -4.445
REMARK INTRA:                   0.000
REMARK UNBOUND:                 0.000
REMARK SMILES CC1(C)[C@H]2CC[C@](C)(C2)[C@H]1O
REMARK SMILES IDX 1 1 2 2 4 3 5 4 6 5 7 6 9 7 10 8 8 9 3 10 11 11
REMARK H PARENT 11 12
REMARK Flexibility Score: inf
ROOT
ATOM      1  C   UNL     1     105.226 108.076 104.318  1.00  0.00     0.014 C 
ATOM      2  C   UNL     1     105.908 107.555 103.027  1.00  0.00    -0.006 C 
ATOM      3  C   UNL     1     107.471 107.474 103.140  1.00  0.00    -0.002 C 
ATOM      4  C   UNL     1     107.898 106.750 104.435  1.00  0.00     0.005 C 
ATOM      5  C   UNL     1     107.445 105.304 104.182  1.00  0.00     0.010 C 
ATOM      6  C   UNL     1     106.917 105.362 102.728  1.00  0.00    -0.006 C 
ATOM      7  C   UNL     1     107.824 106.407 102.117  1.00  0.00     0.013 C 
ATOM      8  C   UNL     1     105.542 106.073 102.676  1.00  0.00     0.126 C 
ATOM      9  C   UNL     1     106.948 104.010 102.004  1.00  0.00     0.014 C 
ATOM     10  C   UNL     1     105.508 108.509 101.875  1.00  0.00     0.014 C 
ENDROOT
BRANCH   8  11
ATOM     11  O   UNL     1     104.631 105.488 103.574  1.00  0.00    -0.392 OA
ATOM     12  H   UNL     1     103.733 105.830 103.325  1.00  0.00     0.211 HD
ENDBRANCH   8  11
TORSDOF 1
ENDMDL
MODEL 3
REMARK VINA RESULT:    -4.299      1.011      3.278
REMARK INTER + INTRA:          -4.425
REMARK INTER:                  -4.425
REMARK INTRA:                   0.000
REMARK UNBOUND:                 0.000
REMARK SMILES CC1(C)[C@H]2CC[C@](C)(C2)[C@H]1O
REMARK SMILES IDX 1 1 2 2 4 3 5 4 6 5 7 6 9 7 10 8 8 9 3 10 11 11
REMARK H PARENT 11 12
REMARK Flexibility Score: inf
ROOT
ATOM      1  C   UNL     1     104.007 104.888 102.019  1.00  0.00     0.014 C 
ATOM      2  C   UNL     1     104.916 105.174 103.243  1.00  0.00    -0.006 C 
ATOM      3  C   UNL     1     106.069 104.125 103.417  1.00  0.00    -0.002 C 
ATOM      4  C   UNL     1     106.824 103.902 102.090  1.00  0.00     0.005 C 
ATOM      5  C   UNL     1     107.539 105.245 101.875  1.00  0.00     0.010 C 
ATOM      6  C   UNL     1     107.193 106.026 103.166  1.00  0.00    -0.006 C 
ATOM      7  C   UNL     1     107.119 104.910 104.185  1.00  0.00     0.013 C 
ATOM      8  C   UNL     1     105.722 106.512 103.128  1.00  0.00     0.126 C 
ATOM      9  C   UNL     1     108.203 107.125 103.516  1.00  0.00     0.014 C 
ATOM     10  C   UNL     1     104.010 105.181 104.499  1.00  0.00     0.014 C 
ENDROOT
BRANCH   8  11
ATOM     11  O   UNL     1     105.453 107.235 101.953  1.00  0.00    -0.392 OA
ATOM     12  H   UNL     1     106.303 107.677 101.694  1.00  0.00     0.211 HD
ENDBRANCH   8  11
TORSDOF 1
ENDMDL
MODEL 4
REMARK VINA RESULT:    -4.295      1.378      3.107
REMARK INTER + INTRA:          -4.420
REMARK INTER:                  -4.420
REMARK INTRA:                   0.000
REMARK UNBOUND:                 0.000
REMARK SMILES CC1(C)[C@H]2CC[C@](C)(C2)[C@H]1O
REMARK SMILES IDX 1 1 2 2 4 3 5 4 6 5 7 6 9 7 10 8 8 9 3 10 11 11
REMARK H PARENT 11 12
REMARK Flexibility Score: inf
ROOT
ATOM      1  C   UNL     1     107.499 104.012 102.454  1.00  0.00     0.014 C 
ATOM      2  C   UNL     1     106.942 104.961 103.547  1.00  0.00    -0.006 C 
ATOM      3  C   UNL     1     107.873 106.191 103.833  1.00  0.00    -0.002 C 
ATOM      4  C   UNL     1     108.291 106.889 102.522  1.00  0.00     0.005 C 
ATOM      5  C   UNL     1     106.971 107.499 102.025  1.00  0.00     0.010 C 
ATOM      6  C   UNL     1     105.989 107.168 103.174  1.00  0.00    -0.006 C 
ATOM      7  C   UNL     1     106.901 107.224 104.379  1.00  0.00     0.013 C 
ATOM      8  C   UNL     1     105.604 105.667 103.143  1.00  0.00     0.126 C 
ATOM      9  C   UNL     1     104.788 108.117 103.256  1.00  0.00     0.014 C 
ATOM     10  C   UNL     1     106.758 104.123 104.836  1.00  0.00     0.014 C 
ENDROOT
BRANCH   8  11
ATOM     11  O   UNL     1     105.124 105.288 101.877  1.00  0.00    -0.392 OA
ATOM     12  H   UNL     1     104.921 106.129 101.390  1.00  0.00     0.211 HD
ENDBRANCH   8  11
TORSDOF 1
ENDMDL
MODEL 5
REMARK VINA RESULT:    -4.294      1.511      3.099
REMARK INTER + INTRA:          -4.419
REMARK INTER:                  -4.419
REMARK INTRA:                   0.000
REMARK UNBOUND:                 0.000
REMARK SMILES CC1(C)[C@H]2CC[C@](C)(C2)[C@H]1O
REMARK SMILES IDX 1 1 2 2 4 3 5 4 6 5 7 6 9 7 10 8 8 9 3 10 11 11
REMARK H PARENT 11 12
REMARK Flexibility Score: inf
ROOT
ATOM      1  C   UNL     1     104.880 108.010 102.079  1.00  0.00     0.014 C 
ATOM      2  C   UNL     1     105.160 107.098 103.302  1.00  0.00    -0.006 C 
ATOM      3  C   UNL     1     104.141 105.915 103.440  1.00  0.00    -0.002 C 
ATOM      4  C   UNL     1     103.972 105.166 102.101  1.00  0.00     0.005 C 
ATOM      5  C   UNL     1     105.339 104.490 101.915  1.00  0.00     0.010 C 
ATOM      6  C   UNL     1     106.077 104.847 103.228  1.00  0.00    -0.006 C 
ATOM      7  C   UNL     1     104.935 104.880 104.219  1.00  0.00     0.013 C 
ATOM      8  C   UNL     1     106.523 106.330 103.215  1.00  0.00     0.126 C 
ATOM      9  C   UNL     1     107.195 103.864 103.597  1.00  0.00     0.014 C 
ATOM     10  C   UNL     1     105.111 107.993 104.565  1.00  0.00     0.014 C 
ENDROOT
BRANCH   8  11
ATOM     11  O   UNL     1     107.268 106.630 102.060  1.00  0.00    -0.392 OA
ATOM     12  H   UNL     1     107.739 107.484 102.244  1.00  0.00     0.211 HD
ENDBRANCH   8  11
TORSDOF 1
ENDMDL
MODEL 6
REMARK VINA RESULT:    -4.291      1.631      2.918
REMARK INTER + INTRA:          -4.417
REMARK INTER:                  -4.417
REMARK INTRA:                   0.000
REMARK UNBOUND:                 0.000
REMARK SMILES CC1(C)[C@H]2CC[C@](C)(C2)[C@H]1O
REMARK SMILES IDX 1 1 2 2 4 3 5 4 6 5 7 6 9 7 10 8 8 9 3 10 11 11
REMARK H PARENT 11 12
REMARK Flexibility Score: inf
ROOT
ATOM      1  C   UNL     1     108.031 107.100 102.047  1.00  0.00     0.014 C 
ATOM      2  C   UNL     1     107.118 106.810 103.267  1.00  0.00    -0.006 C 
ATOM      3  C   UNL     1     105.959 107.853 103.435  1.00  0.00    -0.002 C 
ATOM      4  C   UNL     1     105.209 108.072 102.105  1.00  0.00     0.005 C 
ATOM      5  C   UNL     1     104.502 106.725 101.887  1.00  0.00     0.010 C 
ATOM      6  C   UNL     1     104.846 105.947 103.180  1.00  0.00    -0.006 C 
ATOM      7  C   UNL     1     104.909 107.063 104.199  1.00  0.00     0.013 C 
ATOM      8  C   UNL     1     106.319 105.469 103.149  1.00  0.00     0.126 C 
ATOM      9  C   UNL     1     103.840 104.843 103.525  1.00  0.00     0.014 C 
ATOM     10  C   UNL     1     108.019 106.808 104.527  1.00  0.00     0.014 C 
ENDROOT
BRANCH   8  11
ATOM     11  O   UNL     1     106.598 104.746 101.975  1.00  0.00    -0.392 OA
ATOM     12  H   UNL     1     106.066 103.910 102.027  1.00  0.00     0.211 HD
ENDBRANCH   8  11
TORSDOF 1
ENDMDL
MODEL 7
REMARK VINA RESULT:    -4.290      1.420      2.667
REMARK INTER + INTRA:          -4.416
REMARK INTER:                  -4.416
REMARK INTRA:                   0.000
REMARK UNBOUND:                 0.000
REMARK SMILES CC1(C)[C@H]2CC[C@](C)(C2)[C@H]1O
REMARK SMILES IDX 1 1 2 2 4 3 5 4 6 5 7 6 9 7 10 8 8 9 3 10 11 11
REMARK H PARENT 11 12
REMARK Flexibility Score: inf
ROOT
ATOM      1  C   UNL     1     106.672 103.879 104.353  1.00  0.00     0.014 C 
ATOM      2  C   UNL     1     105.957 104.572 103.164  1.00  0.00    -0.006 C 
ATOM      3  C   UNL     1     104.405 104.688 103.356  1.00  0.00    -0.002 C 
ATOM      4  C   UNL     1     104.057 105.266 104.744  1.00  0.00     0.005 C 
ATOM      5  C   UNL     1     104.552 106.716 104.643  1.00  0.00     0.010 C 
ATOM      6  C   UNL     1     105.017 106.815 103.169  1.00  0.00    -0.006 C 
ATOM      7  C   UNL     1     104.049 105.879 102.482  1.00  0.00     0.013 C 
ATOM      8  C   UNL     1     106.363 106.072 102.974  1.00  0.00     0.126 C 
ATOM      9  C   UNL     1     105.007 108.243 102.611  1.00  0.00     0.014 C 
ATOM     10  C   UNL     1     106.275 103.748 101.891  1.00  0.00     0.014 C 
ENDROOT
BRANCH   8  11
ATOM     11  O   UNL     1     107.331 106.517 103.892  1.00  0.00    -0.392 OA
ATOM     12  H   UNL     1     108.092 106.857 103.354  1.00  0.00     0.211 HD
ENDBRANCH   8  11
TORSDOF 1
ENDMDL
MODEL 8
REMARK VINA RESULT:    -4.277      1.642      3.667
REMARK INTER + INTRA:          -4.402
REMARK INTER:                  -4.402
REMARK INTRA:                   0.000
REMARK UNBOUND:                 0.000
REMARK SMILES CC1(C)[C@H]2CC[C@](C)(C2)[C@H]1O
REMARK SMILES IDX 1 1 2 2 4 3 5 4 6 5 7 6 9 7 10 8 8 9 3 10 11 11
REMARK H PARENT 11 12
REMARK Flexibility Score: inf
ROOT
ATOM      1  C   UNL     1     103.948 105.249 104.335  1.00  0.00     0.014 C 
ATOM      2  C   UNL     1     104.462 105.813 102.985  1.00  0.00    -0.006 C 
ATOM      3  C   UNL     1     104.510 107.380 102.946  1.00  0.00    -0.002 C 
ATOM      4  C   UNL     1     105.218 107.947 104.195  1.00  0.00     0.005 C 
ATOM      5  C   UNL     1     106.674 107.501 103.992  1.00  0.00     0.010 C 
ATOM      6  C   UNL     1     106.635 106.834 102.596  1.00  0.00    -0.006 C 
ATOM      7  C   UNL     1     105.574 107.655 101.897  1.00  0.00     0.013 C 
ATOM      8  C   UNL     1     105.952 105.446 102.677  1.00  0.00     0.126 C 
ATOM      9  C   UNL     1     107.989 106.822 101.877  1.00  0.00     0.014 C 
ATOM     10  C   UNL     1     103.521 105.283 101.875  1.00  0.00     0.014 C 
ENDROOT
BRANCH   8  11
ATOM     11  O   UNL     1     106.551 104.638 103.661  1.00  0.00    -0.392 OA
ATOM     12  H   UNL     1     106.511 103.707 103.322  1.00  0.00     0.211 HD
ENDBRANCH   8  11
TORSDOF 1
ENDMDL
MODEL 9
REMARK VINA RESULT:    -4.235      1.580      3.352
REMARK INTER + INTRA:          -4.359
REMARK INTER:                  -4.359
REMARK INTRA:                   0.000
REMARK UNBOUND:                 0.000
REMARK SMILES CC1(C)[C@H]2CC[C@](C)(C2)[C@H]1O
REMARK SMILES IDX 1 1 2 2 4 3 5 4 6 5 7 6 9 7 10 8 8 9 3 10 11 11
REMARK H PARENT 11 12
REMARK Flexibility Score: inf
ROOT
ATOM      1  C   UNL     1     104.505 106.213 103.979  1.00  0.00     0.014 C 
ATOM      2  C   UNL     1     105.817 106.961 104.332  1.00  0.00    -0.006 C 
ATOM      3  C   UNL     1     106.931 106.020 104.910  1.00  0.00    -0.002 C 
ATOM      4  C   UNL     1     107.117 104.769 104.026  1.00  0.00     0.005 C 
ATOM      5  C   UNL     1     107.720 105.349 102.738  1.00  0.00     0.010 C 
ATOM      6  C   UNL     1     107.907 106.844 103.092  1.00  0.00    -0.006 C 
ATOM      7  C   UNL     1     108.208 106.770 104.573  1.00  0.00     0.013 C 
ATOM      8  C   UNL     1     106.542 107.578 103.088  1.00  0.00     0.126 C 
ATOM      9  C   UNL     1     108.993 107.546 102.269  1.00  0.00     0.014 C 
ATOM     10  C   UNL     1     105.460 108.058 105.364  1.00  0.00     0.014 C 
ENDROOT
BRANCH   8  11
ATOM     11  O   UNL     1     105.857 107.377 101.877  1.00  0.00    -0.392 OA
ATOM     12  H   UNL     1     106.168 106.504 101.520  1.00  0.00     0.211 HD
ENDBRANCH   8  11
TORSDOF 1
ENDMDL
