MODEL 1
REMARK VINA RESULT:    -4.741      0.000      0.000
REMARK INTER + INTRA:          -4.741
REMARK INTER:                  -4.741
REMARK INTRA:                   0.000
REMARK UNBOUND:                 0.000
REMARK SMILES C=C1CCC[C@@]2(C)CC(=O)C(=C(C)C)C[C@@H]12
REMARK SMILES IDX 13 1 12 2 11 3 15 4 16 5 2 6 1 7 3 8 4 9 5 10 6 11 8 12 9 13
REMARK SMILES IDX 10 14 7 15 14 16
REMARK H PARENT
REMARK Flexibility Score: inf
ROOT
ATOM      1  C   UNL     1     183.143 191.575 222.875  1.00  0.00     0.039 C 
ATOM      2  C   UNL     1     183.186 190.819 224.183  1.00  0.00    -0.070 C 
ATOM      3  C   UNL     1     182.192 189.946 224.525  1.00  0.00    -0.006 C 
ATOM      4  C   UNL     1     181.034 189.637 223.589  1.00  0.00     0.047 C 
ATOM      5  C   UNL     1     179.729 189.356 224.377  1.00  0.00     0.025 C 
ATOM      6  C   UNL     1     178.608 189.081 223.381  1.00  0.00    -0.073 C 
ATOM      7  C   UNL     1     177.890 190.097 222.875  1.00  0.00     0.008 C 
ATOM      8  C   UNL     1     178.341 187.681 222.876  1.00  0.00     0.031 C 
ATOM      9  C   UNL     1     179.161 186.631 223.626  1.00  0.00     0.005 C 
ATOM     10  C   UNL     1     179.121 186.914 225.128  1.00  0.00     0.008 C 
ATOM     11  C   UNL     1     179.869 188.234 225.499  1.00  0.00    -0.018 C 
ATOM     12  C   UNL     1     181.362 187.886 225.783  1.00  0.00     0.088 C 
ATOM     13  C   UNL     1     182.221 189.112 225.754  1.00  0.00     0.159 C 
ATOM     14  O   UNL     1     182.899 189.423 226.769  1.00  0.00    -0.295 OA
ATOM     15  C   UNL     1     179.249 188.766 226.815  1.00  0.00     0.012 C 
ATOM     16  C   UNL     1     184.389 191.043 225.069  1.00  0.00     0.039 C 
ENDROOT
TORSDOF 0
ENDMDL
MODEL 2
REMARK VINA RESULT:    -4.719     11.038     13.375
REMARK INTER + INTRA:          -4.719
REMARK INTER:                  -4.719
REMARK INTRA:                   0.000
REMARK UNBOUND:                 0.000
REMARK SMILES C=C1CCC[C@@]2(C)CC(=O)C(=C(C)C)C[C@@H]12
REMARK SMILES IDX 13 1 12 2 11 3 15 4 16 5 2 6 1 7 3 8 4 9 5 10 6 11 8 12 9 13
REMARK SMILES IDX 10 14 7 15 14 16
REMARK H PARENT
REMARK Flexibility Score: inf
ROOT
ATOM      1  C   UNL     1     189.546 181.357 222.925  1.00  0.00     0.039 C 
ATOM      2  C   UNL     1     189.558 181.923 224.327  1.00  0.00    -0.070 C 
ATOM      3  C   UNL     1     190.556 182.759 224.740  1.00  0.00    -0.006 C 
ATOM      4  C   UNL     1     191.663 183.218 223.804  1.00  0.00     0.047 C 
ATOM      5  C   UNL     1     193.001 183.412 224.561  1.00  0.00     0.025 C 
ATOM      6  C   UNL     1     194.069 183.844 223.563  1.00  0.00    -0.073 C 
ATOM      7  C   UNL     1     194.773 182.923 222.887  1.00  0.00     0.008 C 
ATOM      8  C   UNL     1     194.293 185.306 223.246  1.00  0.00     0.031 C 
ATOM      9  C   UNL     1     193.497 186.225 224.173  1.00  0.00     0.005 C 
ATOM     10  C   UNL     1     193.614 185.737 225.617  1.00  0.00     0.008 C 
ATOM     11  C   UNL     1     192.902 184.364 225.834  1.00  0.00    -0.018 C 
ATOM     12  C   UNL     1     191.420 184.640 226.234  1.00  0.00     0.088 C 
ATOM     13  C   UNL     1     190.577 183.414 226.074  1.00  0.00     0.159 C 
ATOM     14  O   UNL     1     189.954 182.952 227.067  1.00  0.00    -0.295 OA
ATOM     15  C   UNL     1     193.593 183.666 227.033  1.00  0.00     0.012 C 
ATOM     16  C   UNL     1     188.402 181.555 225.228  1.00  0.00     0.039 C 
ENDROOT
TORSDOF 0
ENDMDL
MODEL 3
REMARK VINA RESULT:    -4.711      2.349      5.908
REMARK INTER + INTRA:          -4.711
REMARK INTER:                  -4.711
REMARK INTRA:                   0.000
REMARK UNBOUND:                 0.000
REMARK SMILES C=C1CCC[C@@]2(C)CC(=O)C(=C(C)C)C[C@@H]12
REMARK SMILES IDX 13 1 12 2 11 3 15 4 16 5 2 6 1 7 3 8 4 9 5 10 6 11 8 12 9 13
REMARK SMILES IDX 10 14 7 15 14 16
REMARK H PARENT
REMARK Flexibility Score: inf
ROOT
ATOM      1  C   UNL     1     182.340 185.464 223.944  1.00  0.00     0.039 C 
ATOM      2  C   UNL     1     181.682 186.820 223.823  1.00  0.00    -0.070 C 
ATOM      3  C   UNL     1     182.419 187.968 223.876  1.00  0.00    -0.006 C 
ATOM      4  C   UNL     1     183.935 187.948 223.991  1.00  0.00     0.047 C 
ATOM      5  C   UNL     1     184.458 189.151 224.817  1.00  0.00     0.025 C 
ATOM      6  C   UNL     1     185.976 189.054 224.913  1.00  0.00    -0.073 C 
ATOM      7  C   UNL     1     186.545 188.341 225.898  1.00  0.00     0.008 C 
ATOM      8  C   UNL     1     186.865 189.677 223.861  1.00  0.00     0.031 C 
ATOM      9  C   UNL     1     186.075 190.541 222.877  1.00  0.00     0.005 C 
ATOM     10  C   UNL     1     185.076 191.414 223.637  1.00  0.00     0.008 C 
ATOM     11  C   UNL     1     183.945 190.569 224.305  1.00  0.00    -0.018 C 
ATOM     12  C   UNL     1     182.775 190.426 223.284  1.00  0.00     0.088 C 
ATOM     13  C   UNL     1     181.843 189.323 223.679  1.00  0.00     0.159 C 
ATOM     14  O   UNL     1     180.623 189.576 223.872  1.00  0.00    -0.295 OA
ATOM     15  C   UNL     1     183.418 191.375 225.519  1.00  0.00     0.012 C 
ATOM     16  C   UNL     1     180.187 186.842 223.602  1.00  0.00     0.039 C 
ENDROOT
TORSDOF 0
ENDMDL
MODEL 4
REMARK VINA RESULT:    -4.706     13.014     15.556
REMARK INTER + INTRA:          -4.706
REMARK INTER:                  -4.706
REMARK INTRA:                   0.000
REMARK UNBOUND:                 0.000
REMARK SMILES C=C1CCC[C@@]2(C)CC(=O)C(=C(C)C)C[C@@H]12
REMARK SMILES IDX 13 1 12 2 11 3 15 4 16 5 2 6 1 7 3 8 4 9 5 10 6 11 8 12 9 13
REMARK SMILES IDX 10 14 7 15 14 16
REMARK H PARENT
REMARK Flexibility Score: inf
ROOT
ATOM      1  C   UNL     1     175.926 180.266 236.600  1.00  0.00     0.039 C 
ATOM      2  C   UNL     1     177.284 179.686 236.923  1.00  0.00    -0.070 C 
ATOM      3  C   UNL     1     178.341 180.496 237.230  1.00  0.00    -0.006 C 
ATOM      4  C   UNL     1     178.197 182.006 237.329  1.00  0.00     0.047 C 
ATOM      5  C   UNL     1     179.488 182.731 236.871  1.00  0.00     0.025 C 
ATOM      6  C   UNL     1     179.266 184.235 236.971  1.00  0.00    -0.073 C 
ATOM      7  C   UNL     1     178.721 184.906 235.944  1.00  0.00     0.008 C 
ATOM      8  C   UNL     1     179.565 184.984 238.250  1.00  0.00     0.031 C 
ATOM      9  C   UNL     1     180.279 184.106 239.279  1.00  0.00     0.005 C 
ATOM     10  C   UNL     1     181.384 183.299 238.598  1.00  0.00     0.008 C 
ATOM     11  C   UNL     1     180.812 182.236 237.606  1.00  0.00    -0.018 C 
ATOM     12  C   UNL     1     180.574 180.912 238.394  1.00  0.00     0.088 C 
ATOM     13  C   UNL     1     179.674 179.984 237.638  1.00  0.00     0.159 C 
ATOM     14  O   UNL     1     180.081 178.830 237.336  1.00  0.00    -0.295 OA
ATOM     15  C   UNL     1     181.901 181.962 236.539  1.00  0.00     0.012 C 
ATOM     16  C   UNL     1     177.406 178.180 236.930  1.00  0.00     0.039 C 
ENDROOT
TORSDOF 0
ENDMDL
MODEL 5
REMARK VINA RESULT:    -4.695      8.943     10.224
REMARK INTER + INTRA:          -4.695
REMARK INTER:                  -4.695
REMARK INTRA:                   0.000
REMARK UNBOUND:                 0.000
REMARK SMILES C=C1CCC[C@@]2(C)CC(=O)C(=C(C)C)C[C@@H]12
REMARK SMILES IDX 13 1 12 2 11 3 15 4 16 5 2 6 1 7 3 8 4 9 5 10 6 11 8 12 9 13
REMARK SMILES IDX 10 14 7 15 14 16
REMARK H PARENT
REMARK Flexibility Score: inf
ROOT
ATOM      1  C   UNL     1     190.460 187.177 223.986  1.00  0.00     0.039 C 
ATOM      2  C   UNL     1     191.122 185.823 223.881  1.00  0.00    -0.070 C 
ATOM      3  C   UNL     1     190.386 184.673 223.927  1.00  0.00    -0.006 C 
ATOM      4  C   UNL     1     188.868 184.691 224.016  1.00  0.00     0.047 C 
ATOM      5  C   UNL     1     188.334 183.490 224.838  1.00  0.00     0.025 C 
ATOM      6  C   UNL     1     186.814 183.584 224.909  1.00  0.00    -0.073 C 
ATOM      7  C   UNL     1     186.227 184.300 225.881  1.00  0.00     0.008 C 
ATOM      8  C   UNL     1     185.944 182.956 223.844  1.00  0.00     0.031 C 
ATOM      9  C   UNL     1     186.752 182.089 222.877  1.00  0.00     0.005 C 
ATOM     10  C   UNL     1     187.740 181.221 223.656  1.00  0.00     0.008 C 
ATOM     11  C   UNL     1     188.858 182.071 224.340  1.00  0.00    -0.018 C 
ATOM     12  C   UNL     1     190.045 182.212 223.339  1.00  0.00     0.088 C 
ATOM     13  C   UNL     1     190.968 183.319 223.744  1.00  0.00     0.159 C 
ATOM     14  O   UNL     1     192.185 183.068 223.959  1.00  0.00    -0.295 OA
ATOM     15  C   UNL     1     189.366 181.270 225.566  1.00  0.00     0.012 C 
ATOM     16  C   UNL     1     192.620 185.803 223.686  1.00  0.00     0.039 C 
ENDROOT
TORSDOF 0
ENDMDL
MODEL 6
REMARK VINA RESULT:    -4.689      2.938      5.250
REMARK INTER + INTRA:          -4.689
REMARK INTER:                  -4.689
REMARK INTRA:                   0.000
REMARK UNBOUND:                 0.000
REMARK SMILES C=C1CCC[C@@]2(C)CC(=O)C(=C(C)C)C[C@@H]12
REMARK SMILES IDX 13 1 12 2 11 3 15 4 16 5 2 6 1 7 3 8 4 9 5 10 6 11 8 12 9 13
REMARK SMILES IDX 10 14 7 15 14 16
REMARK H PARENT
REMARK Flexibility Score: inf
ROOT
ATOM      1  C   UNL     1     184.457 192.155 228.479  1.00  0.00     0.039 C 
ATOM      2  C   UNL     1     183.355 191.268 227.947  1.00  0.00    -0.070 C 
ATOM      3  C   UNL     1     183.443 190.703 226.706  1.00  0.00    -0.006 C 
ATOM      4  C   UNL     1     184.672 190.876 225.827  1.00  0.00     0.047 C 
ATOM      5  C   UNL     1     184.293 190.911 224.324  1.00  0.00     0.025 C 
ATOM      6  C   UNL     1     185.563 191.112 223.505  1.00  0.00    -0.073 C 
ATOM      7  C   UNL     1     186.013 192.351 223.252  1.00  0.00     0.008 C 
ATOM      8  C   UNL     1     186.387 189.932 223.042  1.00  0.00     0.031 C 
ATOM      9  C   UNL     1     185.686 188.599 223.311  1.00  0.00     0.005 C 
ATOM     10  C   UNL     1     184.213 188.696 222.915  1.00  0.00     0.008 C 
ATOM     11  C   UNL     1     183.417 189.671 223.841  1.00  0.00    -0.018 C 
ATOM     12  C   UNL     1     182.858 188.855 225.045  1.00  0.00     0.088 C 
ATOM     13  C   UNL     1     182.435 189.756 226.163  1.00  0.00     0.159 C 
ATOM     14  O   UNL     1     181.246 189.720 226.577  1.00  0.00    -0.295 OA
ATOM     15  C   UNL     1     182.210 190.202 223.028  1.00  0.00     0.012 C 
ATOM     16  C   UNL     1     182.180 191.007 228.860  1.00  0.00     0.039 C 
ENDROOT
TORSDOF 0
ENDMDL
MODEL 7
REMARK VINA RESULT:    -4.645      9.591     11.156
REMARK INTER + INTRA:          -4.645
REMARK INTER:                  -4.645
REMARK INTRA:                   0.000
REMARK UNBOUND:                 0.000
REMARK SMILES C=C1CCC[C@@]2(C)CC(=O)C(=C(C)C)C[C@@H]12
REMARK SMILES IDX 13 1 12 2 11 3 15 4 16 5 2 6 1 7 3 8 4 9 5 10 6 11 8 12 9 13
REMARK SMILES IDX 10 14 7 15 14 16
REMARK H PARENT
REMARK Flexibility Score: inf
ROOT
ATOM      1  C   UNL     1     188.212 180.679 228.509  1.00  0.00     0.039 C 
ATOM      2  C   UNL     1     189.336 181.540 227.980  1.00  0.00    -0.070 C 
ATOM      3  C   UNL     1     189.280 182.079 226.726  1.00  0.00    -0.006 C 
ATOM      4  C   UNL     1     188.067 181.902 225.826  1.00  0.00     0.047 C 
ATOM      5  C   UNL     1     188.475 181.829 224.332  1.00  0.00     0.025 C 
ATOM      6  C   UNL     1     187.219 181.627 223.493  1.00  0.00    -0.073 C 
ATOM      7  C   UNL     1     186.757 180.388 223.258  1.00  0.00     0.008 C 
ATOM      8  C   UNL     1     186.420 182.807 222.987  1.00  0.00     0.031 C 
ATOM      9  C   UNL     1     187.132 184.136 223.241  1.00  0.00     0.005 C 
ATOM     10  C   UNL     1     188.612 184.012 222.878  1.00  0.00     0.008 C 
ATOM     11  C   UNL     1     189.376 183.047 223.840  1.00  0.00    -0.018 C 
ATOM     12  C   UNL     1     189.922 183.883 225.037  1.00  0.00     0.088 C 
ATOM     13  C   UNL     1     190.311 183.001 226.183  1.00  0.00     0.159 C 
ATOM     14  O   UNL     1     191.492 183.030 226.619  1.00  0.00    -0.295 OA
ATOM     15  C   UNL     1     190.592 182.483 223.063  1.00  0.00     0.012 C 
ATOM     16  C   UNL     1     190.496 181.806 228.911  1.00  0.00     0.039 C 
ENDROOT
TORSDOF 0
ENDMDL
MODEL 8
REMARK VINA RESULT:    -4.582      7.901     10.004
REMARK INTER + INTRA:          -4.582
REMARK INTER:                  -4.582
REMARK INTRA:                   0.000
REMARK UNBOUND:                 0.000
REMARK SMILES C=C1CCC[C@@]2(C)CC(=O)C(=C(C)C)C[C@@H]12
REMARK SMILES IDX 13 1 12 2 11 3 15 4 16 5 2 6 1 7 3 8 4 9 5 10 6 11 8 12 9 13
REMARK SMILES IDX 10 14 7 15 14 16
REMARK H PARENT
REMARK Flexibility Score: inf
ROOT
ATOM      1  C   UNL     1     184.722 181.943 228.212  1.00  0.00     0.039 C 
ATOM      2  C   UNL     1     184.386 182.625 226.905  1.00  0.00    -0.070 C 
ATOM      3  C   UNL     1     185.333 182.796 225.936  1.00  0.00    -0.006 C 
ATOM      4  C   UNL     1     186.746 182.255 226.085  1.00  0.00     0.047 C 
ATOM      5  C   UNL     1     187.782 183.176 225.391  1.00  0.00     0.025 C 
ATOM      6  C   UNL     1     189.173 182.591 225.601  1.00  0.00    -0.073 C 
ATOM      7  C   UNL     1     189.877 182.903 226.701  1.00  0.00     0.008 C 
ATOM      8  C   UNL     1     189.750 181.584 224.632  1.00  0.00     0.031 C 
ATOM      9  C   UNL     1     188.881 181.421 223.385  1.00  0.00     0.005 C 
ATOM     10  C   UNL     1     188.436 182.792 222.876  1.00  0.00     0.008 C 
ATOM     11  C   UNL     1     187.454 183.497 223.866  1.00  0.00    -0.018 C 
ATOM     12  C   UNL     1     185.999 183.081 223.488  1.00  0.00     0.088 C 
ATOM     13  C   UNL     1     185.043 183.380 224.601  1.00  0.00     0.159 C 
ATOM     14  O   UNL     1     184.060 184.140 224.391  1.00  0.00    -0.295 OA
ATOM     15  C   UNL     1     187.583 185.024 223.640  1.00  0.00     0.012 C 
ATOM     16  C   UNL     1     182.955 183.069 226.710  1.00  0.00     0.039 C 
ENDROOT
TORSDOF 0
ENDMDL
MODEL 9
REMARK VINA RESULT:    -4.577      3.981      6.086
REMARK INTER + INTRA:          -4.577
REMARK INTER:                  -4.577
REMARK INTRA:                   0.000
REMARK UNBOUND:                 0.000
REMARK SMILES C=C1CCC[C@@]2(C)CC(=O)C(=C(C)C)C[C@@H]12
REMARK SMILES IDX 13 1 12 2 11 3 15 4 16 5 2 6 1 7 3 8 4 9 5 10 6 11 8 12 9 13
REMARK SMILES IDX 10 14 7 15 14 16
REMARK H PARENT
REMARK Flexibility Score: inf
ROOT
ATOM      1  C   UNL     1     188.047 190.799 228.194  1.00  0.00     0.039 C 
ATOM      2  C   UNL     1     188.380 190.118 226.886  1.00  0.00    -0.070 C 
ATOM      3  C   UNL     1     187.429 189.945 225.921  1.00  0.00    -0.006 C 
ATOM      4  C   UNL     1     186.015 190.481 226.076  1.00  0.00     0.047 C 
ATOM      5  C   UNL     1     184.979 189.557 225.387  1.00  0.00     0.025 C 
ATOM      6  C   UNL     1     183.587 190.138 225.603  1.00  0.00    -0.073 C 
ATOM      7  C   UNL     1     182.888 189.823 226.706  1.00  0.00     0.008 C 
ATOM      8  C   UNL     1     183.002 191.143 224.636  1.00  0.00     0.031 C 
ATOM      9  C   UNL     1     183.866 191.309 223.385  1.00  0.00     0.005 C 
ATOM     10  C   UNL     1     184.312 189.939 222.875  1.00  0.00     0.008 C 
ATOM     11  C   UNL     1     185.301 189.237 223.860  1.00  0.00    -0.018 C 
ATOM     12  C   UNL     1     186.753 189.657 223.476  1.00  0.00     0.088 C 
ATOM     13  C   UNL     1     187.715 189.361 224.584  1.00  0.00     0.159 C 
ATOM     14  O   UNL     1     188.699 188.604 224.371  1.00  0.00    -0.295 OA
ATOM     15  C   UNL     1     185.176 187.709 223.635  1.00  0.00     0.012 C 
ATOM     16  C   UNL     1     189.811 189.678 226.684  1.00  0.00     0.039 C 
ENDROOT
TORSDOF 0
ENDMDL
