MODEL 1
REMARK VINA RESULT:    -5.499      0.000      0.000
REMARK INTER + INTRA:          -6.262
REMARK INTER:                  -6.142
REMARK INTRA:                  -0.120
REMARK UNBOUND:                -0.120
REMARK SMILES COc1cc2ccc(=O)oc2cc1OC
REMARK SMILES IDX 3 1 13 2 12 3 11 4 5 5 4 6 6 7 7 8 8 9 9 10 10 11 2 12 1 13
REMARK SMILES IDX 14 14 15 15
REMARK H PARENT
REMARK Flexibility Score: inf
ROOT
ATOM      1  C   UNL     1     -14.584  44.487  33.700  1.00  0.00     0.161 A 
ATOM      2  C   UNL     1     -13.788  43.559  33.006  1.00  0.00     0.164 A 
ATOM      3  C   UNL     1     -14.372  42.387  32.486  1.00  0.00     0.098 A 
ATOM      4  C   UNL     1     -15.737  42.142  32.654  1.00  0.00     0.142 A 
ATOM      5  C   UNL     1     -16.536  43.073  33.349  1.00  0.00     0.022 A 
ATOM      6  C   UNL     1     -15.961  44.239  33.869  1.00  0.00     0.062 A 
ATOM      7  C   UNL     1     -17.899  42.798  33.502  1.00  0.00     0.019 A 
ATOM      8  C   UNL     1     -18.425  41.623  32.965  1.00  0.00     0.094 A 
ATOM      9  C   UNL     1     -17.571  40.747  32.288  1.00  0.00     0.336 A 
ATOM     10  O   UNL     1     -18.026  39.680  31.798  1.00  0.00    -0.246 OA
ATOM     11  O   UNL     1     -16.278  41.032  32.158  1.00  0.00    -0.423 OA
ENDROOT
BRANCH   1  12
ATOM     12  O   UNL     1     -13.969  45.644  34.204  1.00  0.00    -0.493 OA
ATOM     13  C   UNL     1     -14.442  46.388  35.323  1.00  0.00     0.278 C 
ENDBRANCH   1  12
BRANCH   2  14
ATOM     14  O   UNL     1     -12.420  43.838  32.856  1.00  0.00    -0.493 OA
ATOM     15  C   UNL     1     -11.823  44.327  31.659  1.00  0.00     0.278 C 
ENDBRANCH   2  14
TORSDOF 2
ENDMDL
MODEL 2
REMARK VINA RESULT:    -5.298      1.503      4.836
REMARK INTER + INTRA:          -6.037
REMARK INTER:                  -5.933
REMARK INTRA:                  -0.104
REMARK UNBOUND:                -0.120
REMARK SMILES COc1cc2ccc(=O)oc2cc1OC
REMARK SMILES IDX 3 1 13 2 12 3 11 4 5 5 4 6 6 7 7 8 8 9 9 10 10 11 2 12 1 13
REMARK SMILES IDX 14 14 15 15
REMARK H PARENT
REMARK Flexibility Score: inf
ROOT
ATOM      1  C   UNL     1     -17.444  43.118  33.147  1.00  0.00     0.161 A 
ATOM      2  C   UNL     1     -16.967  41.992  32.453  1.00  0.00     0.164 A 
ATOM      3  C   UNL     1     -15.594  41.882  32.156  1.00  0.00     0.098 A 
ATOM      4  C   UNL     1     -14.704  42.886  32.546  1.00  0.00     0.142 A 
ATOM      5  C   UNL     1     -15.181  44.016  33.242  1.00  0.00     0.022 A 
ATOM      6  C   UNL     1     -16.545  44.130  33.540  1.00  0.00     0.062 A 
ATOM      7  C   UNL     1     -14.264  45.003  33.617  1.00  0.00     0.019 A 
ATOM      8  C   UNL     1     -12.916  44.843  33.298  1.00  0.00     0.094 A 
ATOM      9  C   UNL     1     -12.516  43.696  32.606  1.00  0.00     0.336 A 
ATOM     10  O   UNL     1     -11.304  43.533  32.307  1.00  0.00    -0.246 OA
ATOM     11  O   UNL     1     -13.409  42.772  32.260  1.00  0.00    -0.423 OA
ENDROOT
BRANCH   1  12
ATOM     12  O   UNL     1     -18.817  43.194  33.427  1.00  0.00    -0.493 OA
ATOM     13  C   UNL     1     -19.509  44.395  33.753  1.00  0.00     0.278 C 
ENDBRANCH   1  12
BRANCH   2  14
ATOM     14  O   UNL     1     -17.890  41.003  32.078  1.00  0.00    -0.493 OA
ATOM     15  C   UNL     1     -17.579  39.622  31.931  1.00  0.00     0.278 C 
ENDBRANCH   2  14
TORSDOF 2
ENDMDL
MODEL 3
REMARK VINA RESULT:    -5.195      2.826      3.644
REMARK INTER + INTRA:          -5.922
REMARK INTER:                  -5.815
REMARK INTRA:                  -0.107
REMARK UNBOUND:                -0.120
REMARK SMILES COc1cc2ccc(=O)oc2cc1OC
REMARK SMILES IDX 3 1 13 2 12 3 11 4 5 5 4 6 6 7 7 8 8 9 9 10 10 11 2 12 1 13
REMARK SMILES IDX 14 14 15 15
REMARK H PARENT
REMARK Flexibility Score: inf
ROOT
ATOM      1  C   UNL     1     -17.394  42.929  32.329  1.00  0.00     0.161 A 
ATOM      2  C   UNL     1     -16.402  43.238  31.382  1.00  0.00     0.164 A 
ATOM      3  C   UNL     1     -15.870  42.219  30.568  1.00  0.00     0.098 A 
ATOM      4  C   UNL     1     -16.322  40.903  30.695  1.00  0.00     0.142 A 
ATOM      5  C   UNL     1     -17.317  40.593  31.645  1.00  0.00     0.022 A 
ATOM      6  C   UNL     1     -17.850  41.602  32.457  1.00  0.00     0.062 A 
ATOM      7  C   UNL     1     -17.748  39.266  31.748  1.00  0.00     0.019 A 
ATOM      8  C   UNL     1     -17.188  38.297  30.916  1.00  0.00     0.094 A 
ATOM      9  C   UNL     1     -16.205  38.679  29.998  1.00  0.00     0.336 A 
ATOM     10  O   UNL     1     -15.686  37.819  29.239  1.00  0.00    -0.246 OA
ATOM     11  O   UNL     1     -15.813  39.948  29.920  1.00  0.00    -0.423 OA
ENDROOT
BRANCH   1  12
ATOM     12  O   UNL     1     -17.902  43.969  33.123  1.00  0.00    -0.493 OA
ATOM     13  C   UNL     1     -19.274  44.123  33.472  1.00  0.00     0.278 C 
ENDBRANCH   1  12
BRANCH   2  14
ATOM     14  O   UNL     1     -15.972  44.571  31.281  1.00  0.00    -0.493 OA
ATOM     15  C   UNL     1     -14.848  45.001  30.521  1.00  0.00     0.278 C 
ENDBRANCH   2  14
TORSDOF 2
ENDMDL
MODEL 4
REMARK VINA RESULT:    -5.123      3.494      4.845
REMARK INTER + INTRA:          -5.842
REMARK INTER:                  -5.726
REMARK INTRA:                  -0.116
REMARK UNBOUND:                -0.120
REMARK SMILES COc1cc2ccc(=O)oc2cc1OC
REMARK SMILES IDX 3 1 13 2 12 3 11 4 5 5 4 6 6 7 7 8 8 9 9 10 10 11 2 12 1 13
REMARK SMILES IDX 14 14 15 15
REMARK H PARENT
REMARK Flexibility Score: inf
ROOT
ATOM      1  C   UNL     1     -16.237  40.891  30.508  1.00  0.00     0.161 A 
ATOM      2  C   UNL     1     -16.069  42.207  30.043  1.00  0.00     0.164 A 
ATOM      3  C   UNL     1     -16.766  43.263  30.662  1.00  0.00     0.098 A 
ATOM      4  C   UNL     1     -17.624  43.010  31.736  1.00  0.00     0.142 A 
ATOM      5  C   UNL     1     -17.793  41.691  32.203  1.00  0.00     0.022 A 
ATOM      6  C   UNL     1     -17.102  40.637  31.591  1.00  0.00     0.062 A 
ATOM      7  C   UNL     1     -18.658  41.471  33.280  1.00  0.00     0.019 A 
ATOM      8  C   UNL     1     -19.323  42.553  33.856  1.00  0.00     0.094 A 
ATOM      9  C   UNL     1     -19.106  43.834  33.339  1.00  0.00     0.336 A 
ATOM     10  O   UNL     1     -19.697  44.824  33.845  1.00  0.00    -0.246 OA
ATOM     11  O   UNL     1     -18.278  44.016  32.315  1.00  0.00    -0.423 OA
ENDROOT
BRANCH   1  12
ATOM     12  O   UNL     1     -15.526  39.864  29.868  1.00  0.00    -0.493 OA
ATOM     13  C   UNL     1     -15.873  38.484  29.925  1.00  0.00     0.278 C 
ENDBRANCH   1  12
BRANCH   2  14
ATOM     14  O   UNL     1     -15.199  42.424  28.962  1.00  0.00    -0.493 OA
ATOM     15  C   UNL     1     -15.617  42.594  27.612  1.00  0.00     0.278 C 
ENDBRANCH   2  14
TORSDOF 2
ENDMDL
MODEL 5
REMARK VINA RESULT:    -5.072      2.447      3.342
REMARK INTER + INTRA:          -5.785
REMARK INTER:                  -5.649
REMARK INTRA:                  -0.135
REMARK UNBOUND:                -0.120
REMARK SMILES COc1cc2ccc(=O)oc2cc1OC
REMARK SMILES IDX 3 1 13 2 12 3 11 4 5 5 4 6 6 7 7 8 8 9 9 10 10 11 2 12 1 13
REMARK SMILES IDX 14 14 15 15
REMARK H PARENT
REMARK Flexibility Score: inf
ROOT
ATOM      1  C   UNL     1     -12.798  44.428  31.576  1.00  0.00     0.161 A 
ATOM      2  C   UNL     1     -13.338  44.006  30.348  1.00  0.00     0.164 A 
ATOM      3  C   UNL     1     -14.728  43.807  30.227  1.00  0.00     0.098 A 
ATOM      4  C   UNL     1     -15.572  44.027  31.318  1.00  0.00     0.142 A 
ATOM      5  C   UNL     1     -15.031  44.451  32.549  1.00  0.00     0.022 A 
ATOM      6  C   UNL     1     -13.650  44.650  32.675  1.00  0.00     0.062 A 
ATOM      7  C   UNL     1     -15.902  44.662  33.622  1.00  0.00     0.019 A 
ATOM      8  C   UNL     1     -17.270  44.450  33.446  1.00  0.00     0.094 A 
ATOM      9  C   UNL     1     -17.734  44.030  32.196  1.00  0.00     0.336 A 
ATOM     10  O   UNL     1     -18.965  43.833  32.017  1.00  0.00    -0.246 OA
ATOM     11  O   UNL     1     -16.883  43.837  31.192  1.00  0.00    -0.423 OA
ENDROOT
BRANCH   1  12
ATOM     12  O   UNL     1     -11.410  44.616  31.661  1.00  0.00    -0.493 OA
ATOM     13  C   UNL     1     -10.501  43.680  32.230  1.00  0.00     0.278 C 
ENDBRANCH   1  12
BRANCH   2  14
ATOM     14  O   UNL     1     -12.460  43.795  29.273  1.00  0.00    -0.493 OA
ATOM     15  C   UNL     1     -12.431  42.617  28.474  1.00  0.00     0.278 C 
ENDBRANCH   2  14
TORSDOF 2
ENDMDL
MODEL 6
REMARK VINA RESULT:    -5.052      2.219      3.037
REMARK INTER + INTRA:          -5.763
REMARK INTER:                  -5.606
REMARK INTRA:                  -0.156
REMARK UNBOUND:                -0.120
REMARK SMILES COc1cc2ccc(=O)oc2cc1OC
REMARK SMILES IDX 3 1 13 2 12 3 11 4 5 5 4 6 6 7 7 8 8 9 9 10 10 11 2 12 1 13
REMARK SMILES IDX 14 14 15 15
REMARK H PARENT
REMARK Flexibility Score: inf
ROOT
ATOM      1  C   UNL     1     -13.816  44.047  31.237  1.00  0.00     0.161 A 
ATOM      2  C   UNL     1     -13.675  43.182  32.337  1.00  0.00     0.164 A 
ATOM      3  C   UNL     1     -14.818  42.752  33.040  1.00  0.00     0.098 A 
ATOM      4  C   UNL     1     -16.090  43.180  32.651  1.00  0.00     0.142 A 
ATOM      5  C   UNL     1     -16.232  44.047  31.548  1.00  0.00     0.022 A 
ATOM      6  C   UNL     1     -15.099  44.478  30.846  1.00  0.00     0.062 A 
ATOM      7  C   UNL     1     -17.519  44.457  31.185  1.00  0.00     0.019 A 
ATOM      8  C   UNL     1     -18.616  44.000  31.915  1.00  0.00     0.094 A 
ATOM      9  C   UNL     1     -18.398  43.142  32.997  1.00  0.00     0.336 A 
ATOM     10  O   UNL     1     -19.374  42.719  33.670  1.00  0.00    -0.246 OA
ATOM     11  O   UNL     1     -17.163  42.767  33.322  1.00  0.00    -0.423 OA
ENDROOT
BRANCH   1  12
ATOM     12  O   UNL     1     -12.656  44.455  30.560  1.00  0.00    -0.493 OA
ATOM     13  C   UNL     1     -12.144  43.830  29.387  1.00  0.00     0.278 C 
ENDBRANCH   1  12
BRANCH   2  14
ATOM     14  O   UNL     1     -12.382  42.773  32.699  1.00  0.00    -0.493 OA
ATOM     15  C   UNL     1     -11.820  41.503  32.385  1.00  0.00     0.278 C 
ENDBRANCH   2  14
TORSDOF 2
ENDMDL
MODEL 7
REMARK VINA RESULT:    -5.046      2.157      3.756
REMARK INTER + INTRA:          -5.755
REMARK INTER:                  -5.632
REMARK INTRA:                  -0.124
REMARK UNBOUND:                -0.120
REMARK SMILES COc1cc2ccc(=O)oc2cc1OC
REMARK SMILES IDX 3 1 13 2 12 3 11 4 5 5 4 6 6 7 7 8 8 9 9 10 10 11 2 12 1 13
REMARK SMILES IDX 14 14 15 15
REMARK H PARENT
REMARK Flexibility Score: inf
ROOT
ATOM      1  C   UNL     1     -11.301  43.656  32.146  1.00  0.00     0.161 A 
ATOM      2  C   UNL     1     -11.557  42.274  32.112  1.00  0.00     0.164 A 
ATOM      3  C   UNL     1     -12.826  41.788  32.486  1.00  0.00     0.098 A 
ATOM      4  C   UNL     1     -13.831  42.672  32.888  1.00  0.00     0.142 A 
ATOM      5  C   UNL     1     -13.574  44.058  32.922  1.00  0.00     0.022 A 
ATOM      6  C   UNL     1     -12.315  44.546  32.552  1.00  0.00     0.062 A 
ATOM      7  C   UNL     1     -14.601  44.915  33.330  1.00  0.00     0.019 A 
ATOM      8  C   UNL     1     -15.838  44.381  33.688  1.00  0.00     0.094 A 
ATOM      9  C   UNL     1     -16.019  42.996  33.630  1.00  0.00     0.336 A 
ATOM     10  O   UNL     1     -17.129  42.493  33.951  1.00  0.00    -0.246 OA
ATOM     11  O   UNL     1     -15.026  42.202  33.239  1.00  0.00    -0.423 OA
ENDROOT
BRANCH   1  12
ATOM     12  O   UNL     1     -10.026  44.104  31.767  1.00  0.00    -0.493 OA
ATOM     13  C   UNL     1      -9.715  44.678  30.501  1.00  0.00     0.278 C 
ENDBRANCH   1  12
BRANCH   2  14
ATOM     14  O   UNL     1     -10.524  41.416  31.702  1.00  0.00    -0.493 OA
ATOM     15  C   UNL     1      -9.619  40.763  32.585  1.00  0.00     0.278 C 
ENDBRANCH   2  14
TORSDOF 2
ENDMDL
MODEL 8
REMARK VINA RESULT:    -5.034      2.740      3.936
REMARK INTER + INTRA:          -5.742
REMARK INTER:                  -5.582
REMARK INTRA:                  -0.160
REMARK UNBOUND:                -0.120
REMARK SMILES COc1cc2ccc(=O)oc2cc1OC
REMARK SMILES IDX 3 1 13 2 12 3 11 4 5 5 4 6 6 7 7 8 8 9 9 10 10 11 2 12 1 13
REMARK SMILES IDX 14 14 15 15
REMARK H PARENT
REMARK Flexibility Score: inf
ROOT
ATOM      1  C   UNL     1     -15.429  42.125  30.686  1.00  0.00     0.161 A 
ATOM      2  C   UNL     1     -15.200  43.512  30.723  1.00  0.00     0.164 A 
ATOM      3  C   UNL     1     -16.067  44.345  31.457  1.00  0.00     0.098 A 
ATOM      4  C   UNL     1     -17.153  43.803  32.148  1.00  0.00     0.142 A 
ATOM      5  C   UNL     1     -17.383  42.412  32.112  1.00  0.00     0.022 A 
ATOM      6  C   UNL     1     -16.524  41.579  31.385  1.00  0.00     0.062 A 
ATOM      7  C   UNL     1     -18.478  41.900  32.815  1.00  0.00     0.019 A 
ATOM      8  C   UNL     1     -19.304  42.771  33.526  1.00  0.00     0.094 A 
ATOM      9  C   UNL     1     -19.014  44.138  33.516  1.00  0.00     0.336 A 
ATOM     10  O   UNL     1     -19.747  44.941  34.150  1.00  0.00    -0.246 OA
ATOM     11  O   UNL     1     -17.965  44.599  32.839  1.00  0.00    -0.423 OA
ENDROOT
BRANCH   1  12
ATOM     12  O   UNL     1     -14.545  41.324  29.946  1.00  0.00    -0.493 OA
ATOM     13  C   UNL     1     -13.580  40.446  30.516  1.00  0.00     0.278 C 
ENDBRANCH   1  12
BRANCH   2  14
ATOM     14  O   UNL     1     -14.099  44.022  30.016  1.00  0.00    -0.493 OA
ATOM     15  C   UNL     1     -12.895  44.482  30.620  1.00  0.00     0.278 C 
ENDBRANCH   2  14
TORSDOF 2
ENDMDL
MODEL 9
REMARK VINA RESULT:    -5.006      2.401      5.351
REMARK INTER + INTRA:          -5.711
REMARK INTER:                  -5.602
REMARK INTRA:                  -0.108
REMARK UNBOUND:                -0.120
REMARK SMILES COc1cc2ccc(=O)oc2cc1OC
REMARK SMILES IDX 3 1 13 2 12 3 11 4 5 5 4 6 6 7 7 8 8 9 9 10 10 11 2 12 1 13
REMARK SMILES IDX 14 14 15 15
REMARK H PARENT
REMARK Flexibility Score: inf
ROOT
ATOM      1  C   UNL     1     -15.289  44.504  32.358  1.00  0.00     0.161 A 
ATOM      2  C   UNL     1     -14.387  44.874  33.372  1.00  0.00     0.164 A 
ATOM      3  C   UNL     1     -13.001  44.839  33.122  1.00  0.00     0.098 A 
ATOM      4  C   UNL     1     -12.517  44.440  31.873  1.00  0.00     0.142 A 
ATOM      5  C   UNL     1     -13.421  44.070  30.857  1.00  0.00     0.022 A 
ATOM      6  C   UNL     1     -14.799  44.102  31.099  1.00  0.00     0.062 A 
ATOM      7  C   UNL     1     -12.904  43.674  29.619  1.00  0.00     0.019 A 
ATOM      8  C   UNL     1     -11.523  43.659  29.425  1.00  0.00     0.094 A 
ATOM      9  C   UNL     1     -10.688  44.040  30.480  1.00  0.00     0.336 A 
ATOM     10  O   UNL     1      -9.438  44.033  30.327  1.00  0.00    -0.246 OA
ATOM     11  O   UNL     1     -11.205  44.412  31.648  1.00  0.00    -0.423 OA
ENDROOT
BRANCH   1  12
ATOM     12  O   UNL     1     -16.663  44.551  32.641  1.00  0.00    -0.493 OA
ATOM     13  C   UNL     1     -17.674  43.947  31.840  1.00  0.00     0.278 C 
ENDBRANCH   1  12
BRANCH   2  14
ATOM     14  O   UNL     1     -14.909  45.270  34.613  1.00  0.00    -0.493 OA
ATOM     15  C   UNL     1     -14.463  46.401  35.353  1.00  0.00     0.278 C 
ENDBRANCH   2  14
TORSDOF 2
ENDMDL
