MODEL 1
REMARK VINA RESULT:    -5.264      0.000      0.000
REMARK INTER + INTRA:         -11.353
REMARK INTER:                  -9.573
REMARK INTRA:                  -1.780
REMARK UNBOUND:                -1.780
REMARK SMILES CCCCCCCCCCCCCCCC(=O)[O-]
REMARK SMILES IDX 9 1 10 2 11 3 12 4 13 5 14 6 15 7 16 8 17 9 18 10 8 11 7 12
REMARK SMILES IDX 6 13 5 14 4 15 3 16 2 17 1 18
REMARK H PARENT
REMARK Flexibility Score: inf
ROOT
ATOM      1  C   UNL     1      32.959  44.330  44.643  1.00  0.00     0.000 C 
ENDROOT
BRANCH   1   2
ATOM      2  C   UNL     1      32.417  44.106  46.063  1.00  0.00     0.000 C 
BRANCH   2   3
ATOM      3  C   UNL     1      32.040  42.641  46.327  1.00  0.00     0.000 C 
BRANCH   3   4
ATOM      4  C   UNL     1      32.399  42.232  47.761  1.00  0.00     0.000 C 
BRANCH   4   5
ATOM      5  C   UNL     1      32.705  43.466  48.625  1.00  0.00     0.000 C 
BRANCH   5   6
ATOM      6  C   UNL     1      33.516  43.119  49.884  1.00  0.00     0.006 C 
BRANCH   6   7
ATOM      7  C   UNL     1      33.541  44.264  50.905  1.00  0.00     0.053 C 
BRANCH   7   8
ATOM      8  C   UNL     1      34.831  45.016  50.814  1.00  0.00     0.041 C 
ATOM      9  O   UNL     1      35.692  44.909  51.727  1.00  0.00    -0.550 OA
ATOM     10  O   UNL     1      35.106  45.794  49.697  1.00  0.00    -0.550 OA
ENDBRANCH   7   8
ENDBRANCH   6   7
ENDBRANCH   5   6
ENDBRANCH   4   5
ENDBRANCH   3   4
ENDBRANCH   2   3
ENDBRANCH   1   2
BRANCH   1  11
ATOM     11  C   UNL     1      34.441  44.739  44.633  1.00  0.00     0.000 C 
BRANCH  11  12
ATOM     12  C   UNL     1      35.116  44.574  46.005  1.00  0.00    -0.000 C 
BRANCH  12  13
ATOM     13  C   UNL     1      36.230  43.505  46.019  1.00  0.00    -0.000 C 
BRANCH  13  14
ATOM     14  C   UNL     1      36.053  42.495  47.163  1.00  0.00    -0.000 C 
BRANCH  14  15
ATOM     15  C   UNL     1      37.346  42.356  47.980  1.00  0.00    -0.000 C 
BRANCH  15  16
ATOM     16  C   UNL     1      37.129  42.572  49.489  1.00  0.00    -0.000 C 
BRANCH  16  17
ATOM     17  C   UNL     1      38.391  42.411  50.354  1.00  0.00    -0.003 C 
ATOM     18  C   UNL     1      39.126  41.096  50.101  1.00  0.00     0.004 C 
ENDBRANCH  16  17
ENDBRANCH  15  16
ENDBRANCH  14  15
ENDBRANCH  13  14
ENDBRANCH  12  13
ENDBRANCH  11  12
ENDBRANCH   1  11
TORSDOF 14
ENDMDL
MODEL 2
REMARK VINA RESULT:    -5.236      3.070      4.627
REMARK INTER + INTRA:         -11.303
REMARK INTER:                  -9.315
REMARK INTRA:                  -1.988
REMARK UNBOUND:                -1.780
REMARK SMILES CCCCCCCCCCCCCCCC(=O)[O-]
REMARK SMILES IDX 9 1 10 2 11 3 12 4 13 5 14 6 15 7 16 8 17 9 18 10 8 11 7 12
REMARK SMILES IDX 6 13 5 14 4 15 3 16 2 17 1 18
REMARK H PARENT
REMARK Flexibility Score: inf
ROOT
ATOM      1  C   UNL     1      34.877  42.797  47.220  1.00  0.00     0.000 C 
ENDROOT
BRANCH   1   2
ATOM      2  C   UNL     1      33.710  42.309  48.093  1.00  0.00     0.000 C 
BRANCH   2   3
ATOM      3  C   UNL     1      32.462  41.960  47.270  1.00  0.00     0.000 C 
BRANCH   3   4
ATOM      4  C   UNL     1      31.325  42.951  47.550  1.00  0.00     0.000 C 
BRANCH   4   5
ATOM      5  C   UNL     1      31.354  44.118  46.551  1.00  0.00     0.000 C 
BRANCH   5   6
ATOM      6  C   UNL     1      31.795  43.681  45.145  1.00  0.00     0.006 C 
BRANCH   6   7
ATOM      7  C   UNL     1      32.980  44.500  44.615  1.00  0.00     0.053 C 
BRANCH   7   8
ATOM      8  C   UNL     1      32.739  44.909  43.196  1.00  0.00     0.041 C 
ATOM      9  O   UNL     1      31.915  44.274  42.486  1.00  0.00    -0.550 OA
ATOM     10  O   UNL     1      33.384  46.021  42.673  1.00  0.00    -0.550 OA
ENDBRANCH   7   8
ENDBRANCH   6   7
ENDBRANCH   5   6
ENDBRANCH   4   5
ENDBRANCH   3   4
ENDBRANCH   2   3
ENDBRANCH   1   2
BRANCH   1  11
ATOM     11  C   UNL     1      35.281  44.248  47.528  1.00  0.00     0.000 C 
BRANCH  11  12
ATOM     12  C   UNL     1      34.355  44.920  48.557  1.00  0.00    -0.000 C 
BRANCH  12  13
ATOM     13  C   UNL     1      35.100  45.458  49.798  1.00  0.00    -0.000 C 
BRANCH  13  14
ATOM     14  C   UNL     1      34.953  44.529  51.013  1.00  0.00    -0.000 C 
BRANCH  14  15
ATOM     15  C   UNL     1      36.306  43.917  51.405  1.00  0.00    -0.000 C 
BRANCH  15  16
ATOM     16  C   UNL     1      36.637  42.638  50.614  1.00  0.00    -0.000 C 
BRANCH  16  17
ATOM     17  C   UNL     1      38.074  42.570  50.068  1.00  0.00    -0.003 C 
ATOM     18  C   UNL     1      38.846  41.349  50.566  1.00  0.00     0.004 C 
ENDBRANCH  16  17
ENDBRANCH  15  16
ENDBRANCH  14  15
ENDBRANCH  13  14
ENDBRANCH  12  13
ENDBRANCH  11  12
ENDBRANCH   1  11
TORSDOF 14
ENDMDL
MODEL 3
REMARK VINA RESULT:    -5.205      2.082      5.400
REMARK INTER + INTRA:         -11.246
REMARK INTER:                  -9.583
REMARK INTRA:                  -1.664
REMARK UNBOUND:                -1.780
REMARK SMILES CCCCCCCCCCCCCCCC(=O)[O-]
REMARK SMILES IDX 9 1 10 2 11 3 12 4 13 5 14 6 15 7 16 8 17 9 18 10 8 11 7 12
REMARK SMILES IDX 6 13 5 14 4 15 3 16 2 17 1 18
REMARK H PARENT
REMARK Flexibility Score: inf
ROOT
ATOM      1  C   UNL     1      33.670  43.335  48.603  1.00  0.00     0.000 C 
ENDROOT
BRANCH   1   2
ATOM      2  C   UNL     1      34.586  44.546  48.372  1.00  0.00     0.000 C 
BRANCH   2   3
ATOM      3  C   UNL     1      34.727  45.428  49.621  1.00  0.00     0.000 C 
BRANCH   3   4
ATOM      4  C   UNL     1      34.696  44.580  50.898  1.00  0.00     0.000 C 
BRANCH   4   5
ATOM      5  C   UNL     1      36.119  44.218  51.352  1.00  0.00     0.000 C 
BRANCH   5   6
ATOM      6  C   UNL     1      36.542  42.810  50.903  1.00  0.00     0.006 C 
BRANCH   6   7
ATOM      7  C   UNL     1      38.020  42.739  50.496  1.00  0.00     0.053 C 
BRANCH   7   8
ATOM      8  C   UNL     1      38.175  41.950  49.234  1.00  0.00     0.041 C 
ATOM      9  O   UNL     1      37.564  42.300  48.189  1.00  0.00    -0.550 OA
ATOM     10  O   UNL     1      39.033  40.859  49.196  1.00  0.00    -0.550 OA
ENDBRANCH   7   8
ENDBRANCH   6   7
ENDBRANCH   5   6
ENDBRANCH   4   5
ENDBRANCH   3   4
ENDBRANCH   2   3
ENDBRANCH   1   2
BRANCH   1  11
ATOM     11  C   UNL     1      33.988  42.163  47.661  1.00  0.00     0.000 C 
BRANCH  11  12
ATOM     12  C   UNL     1      32.732  41.567  47.003  1.00  0.00    -0.000 C 
BRANCH  12  13
ATOM     13  C   UNL     1      31.489  42.476  47.110  1.00  0.00    -0.000 C 
BRANCH  13  14
ATOM     14  C   UNL     1      31.064  43.043  45.747  1.00  0.00    -0.000 C 
BRANCH  14  15
ATOM     15  C   UNL     1      31.830  44.334  45.425  1.00  0.00    -0.000 C 
BRANCH  15  16
ATOM     16  C   UNL     1      32.312  44.396  43.963  1.00  0.00    -0.000 C 
BRANCH  16  17
ATOM     17  C   UNL     1      33.721  44.983  43.772  1.00  0.00    -0.003 C 
ATOM     18  C   UNL     1      34.674  44.638  44.915  1.00  0.00     0.004 C 
ENDBRANCH  16  17
ENDBRANCH  15  16
ENDBRANCH  14  15
ENDBRANCH  13  14
ENDBRANCH  12  13
ENDBRANCH  11  12
ENDBRANCH   1  11
TORSDOF 14
ENDMDL
MODEL 4
REMARK VINA RESULT:    -5.188      3.068      5.238
REMARK INTER + INTRA:         -11.214
REMARK INTER:                  -9.574
REMARK INTRA:                  -1.639
REMARK UNBOUND:                -1.780
REMARK SMILES CCCCCCCCCCCCCCCC(=O)[O-]
REMARK SMILES IDX 9 1 10 2 11 3 12 4 13 5 14 6 15 7 16 8 17 9 18 10 8 11 7 12
REMARK SMILES IDX 6 13 5 14 4 15 3 16 2 17 1 18
REMARK H PARENT
REMARK Flexibility Score: inf
ROOT
ATOM      1  C   UNL     1      33.422  43.475  48.331  1.00  0.00     0.000 C 
ENDROOT
BRANCH   1   2
ATOM      2  C   UNL     1      34.193  42.285  47.737  1.00  0.00     0.000 C 
BRANCH   2   3
ATOM      3  C   UNL     1      35.398  42.725  46.893  1.00  0.00     0.000 C 
BRANCH   3   4
ATOM      4  C   UNL     1      35.502  44.254  46.838  1.00  0.00     0.000 C 
BRANCH   4   5
ATOM      5  C   UNL     1      35.356  44.763  45.395  1.00  0.00     0.000 C 
BRANCH   5   6
ATOM      6  C   UNL     1      33.960  44.492  44.812  1.00  0.00     0.006 C 
BRANCH   6   7
ATOM      7  C   UNL     1      33.694  45.281  43.523  1.00  0.00     0.053 C 
BRANCH   7   8
ATOM      8  C   UNL     1      32.401  44.852  42.906  1.00  0.00     0.041 C 
ATOM      9  O   UNL     1      31.859  43.771  43.259  1.00  0.00    -0.550 OA
ATOM     10  O   UNL     1      31.768  45.668  41.978  1.00  0.00    -0.550 OA
ENDBRANCH   7   8
ENDBRANCH   6   7
ENDBRANCH   5   6
ENDBRANCH   4   5
ENDBRANCH   3   4
ENDBRANCH   2   3
ENDBRANCH   1   2
BRANCH   1  11
ATOM     11  C   UNL     1      32.885  43.186  49.743  1.00  0.00     0.000 C 
BRANCH  11  12
ATOM     12  C   UNL     1      34.004  42.986  50.778  1.00  0.00    -0.000 C 
BRANCH  12  13
ATOM     13  C   UNL     1      34.831  44.261  51.048  1.00  0.00    -0.000 C 
BRANCH  13  14
ATOM     14  C   UNL     1      36.337  43.971  51.133  1.00  0.00    -0.000 C 
BRANCH  14  15
ATOM     15  C   UNL     1      36.649  42.539  50.675  1.00  0.00    -0.000 C 
BRANCH  15  16
ATOM     16  C   UNL     1      37.753  42.479  49.602  1.00  0.00    -0.000 C 
BRANCH  16  17
ATOM     17  C   UNL     1      38.780  41.350  49.794  1.00  0.00    -0.003 C 
ATOM     18  C   UNL     1      39.429  41.360  51.177  1.00  0.00     0.004 C 
ENDBRANCH  16  17
ENDBRANCH  15  16
ENDBRANCH  14  15
ENDBRANCH  13  14
ENDBRANCH  12  13
ENDBRANCH  11  12
ENDBRANCH   1  11
TORSDOF 14
ENDMDL
MODEL 5
REMARK VINA RESULT:    -5.146      2.158      4.503
REMARK INTER + INTRA:         -11.138
REMARK INTER:                  -9.474
REMARK INTRA:                  -1.665
REMARK UNBOUND:                -1.780
REMARK SMILES CCCCCCCCCCCCCCCC(=O)[O-]
REMARK SMILES IDX 9 1 10 2 11 3 12 4 13 5 14 6 15 7 16 8 17 9 18 10 8 11 7 12
REMARK SMILES IDX 6 13 5 14 4 15 3 16 2 17 1 18
REMARK H PARENT
REMARK Flexibility Score: inf
ROOT
ATOM      1  C   UNL     1      31.952  42.341  47.853  1.00  0.00     0.000 C 
ENDROOT
BRANCH   1   2
ATOM      2  C   UNL     1      33.351  41.962  48.364  1.00  0.00     0.000 C 
BRANCH   2   3
ATOM      3  C   UNL     1      33.952  43.032  49.287  1.00  0.00     0.000 C 
BRANCH   3   4
ATOM      4  C   UNL     1      34.263  42.450  50.672  1.00  0.00     0.000 C 
BRANCH   4   5
ATOM      5  C   UNL     1      35.591  43.001  51.214  1.00  0.00     0.000 C 
BRANCH   5   6
ATOM      6  C   UNL     1      36.722  42.948  50.174  1.00  0.00     0.006 C 
BRANCH   6   7
ATOM      7  C   UNL     1      38.116  43.004  50.813  1.00  0.00     0.053 C 
BRANCH   7   8
ATOM      8  C   UNL     1      38.873  41.746  50.524  1.00  0.00     0.041 C 
ATOM      9  O   UNL     1      39.608  41.233  51.408  1.00  0.00    -0.550 OA
ATOM     10  O   UNL     1      38.727  41.112  49.297  1.00  0.00    -0.550 OA
ENDBRANCH   7   8
ENDBRANCH   6   7
ENDBRANCH   5   6
ENDBRANCH   4   5
ENDBRANCH   3   4
ENDBRANCH   2   3
ENDBRANCH   1   2
BRANCH   1  11
ATOM     11  C   UNL     1      31.773  42.054  46.353  1.00  0.00     0.000 C 
BRANCH  11  12
ATOM     12  C   UNL     1      31.096  43.212  45.600  1.00  0.00    -0.000 C 
BRANCH  12  13
ATOM     13  C   UNL     1      31.990  44.463  45.459  1.00  0.00    -0.000 C 
BRANCH  13  14
ATOM     14  C   UNL     1      32.811  44.448  44.161  1.00  0.00    -0.000 C 
BRANCH  14  15
ATOM     15  C   UNL     1      34.312  44.583  44.457  1.00  0.00    -0.000 C 
BRANCH  15  16
ATOM     16  C   UNL     1      34.637  44.496  45.961  1.00  0.00    -0.000 C 
BRANCH  16  17
ATOM     17  C   UNL     1      36.104  44.170  46.287  1.00  0.00    -0.003 C 
ATOM     18  C   UNL     1      36.352  42.678  46.506  1.00  0.00     0.004 C 
ENDBRANCH  16  17
ENDBRANCH  15  16
ENDBRANCH  14  15
ENDBRANCH  13  14
ENDBRANCH  12  13
ENDBRANCH  11  12
ENDBRANCH   1  11
TORSDOF 14
ENDMDL
MODEL 6
REMARK VINA RESULT:    -5.047      1.590      4.167
REMARK INTER + INTRA:         -10.957
REMARK INTER:                  -8.927
REMARK INTRA:                  -2.030
REMARK UNBOUND:                -1.780
REMARK SMILES CCCCCCCCCCCCCCCC(=O)[O-]
REMARK SMILES IDX 9 1 10 2 11 3 12 4 13 5 14 6 15 7 16 8 17 9 18 10 8 11 7 12
REMARK SMILES IDX 6 13 5 14 4 15 3 16 2 17 1 18
REMARK H PARENT
REMARK Flexibility Score: inf
ROOT
ATOM      1  C   UNL     1      33.491  44.384  44.076  1.00  0.00     0.000 C 
ENDROOT
BRANCH   1   2
ATOM      2  C   UNL     1      34.556  45.049  44.962  1.00  0.00     0.000 C 
BRANCH   2   3
ATOM      3  C   UNL     1      35.730  44.111  45.279  1.00  0.00     0.000 C 
BRANCH   3   4
ATOM      4  C   UNL     1      35.843  43.864  46.788  1.00  0.00     0.000 C 
BRANCH   4   5
ATOM      5  C   UNL     1      36.226  42.404  47.080  1.00  0.00     0.000 C 
BRANCH   5   6
ATOM      6  C   UNL     1      37.462  42.287  47.987  1.00  0.00     0.006 C 
BRANCH   6   7
ATOM      7  C   UNL     1      37.155  42.631  49.451  1.00  0.00     0.053 C 
BRANCH   7   8
ATOM      8  C   UNL     1      38.364  42.405  50.303  1.00  0.00     0.041 C 
ATOM      9  O   UNL     1      38.845  43.351  50.981  1.00  0.00    -0.550 OA
ATOM     10  O   UNL     1      38.929  41.140  50.389  1.00  0.00    -0.550 OA
ENDBRANCH   7   8
ENDBRANCH   6   7
ENDBRANCH   5   6
ENDBRANCH   4   5
ENDBRANCH   3   4
ENDBRANCH   2   3
ENDBRANCH   1   2
BRANCH   1  11
ATOM     11  C   UNL     1      32.059  44.688  44.544  1.00  0.00     0.000 C 
BRANCH  11  12
ATOM     12  C   UNL     1      31.765  44.153  45.956  1.00  0.00    -0.000 C 
BRANCH  12  13
ATOM     13  C   UNL     1      31.905  42.620  46.077  1.00  0.00    -0.000 C 
BRANCH  13  14
ATOM     14  C   UNL     1      32.461  42.192  47.444  1.00  0.00    -0.000 C 
BRANCH  14  15
ATOM     15  C   UNL     1      32.536  43.386  48.406  1.00  0.00    -0.000 C 
BRANCH  15  16
ATOM     16  C   UNL     1      33.501  43.149  49.582  1.00  0.00    -0.000 C 
BRANCH  16  17
ATOM     17  C   UNL     1      33.784  44.389  50.448  1.00  0.00    -0.003 C 
ATOM     18  C   UNL     1      34.755  45.368  49.791  1.00  0.00     0.004 C 
ENDBRANCH  16  17
ENDBRANCH  15  16
ENDBRANCH  14  15
ENDBRANCH  13  14
ENDBRANCH  12  13
ENDBRANCH  11  12
ENDBRANCH   1  11
TORSDOF 14
ENDMDL
MODEL 7
REMARK VINA RESULT:    -5.028      1.608      4.693
REMARK INTER + INTRA:         -10.924
REMARK INTER:                  -8.809
REMARK INTRA:                  -2.114
REMARK UNBOUND:                -1.780
REMARK SMILES CCCCCCCCCCCCCCCC(=O)[O-]
REMARK SMILES IDX 9 1 10 2 11 3 12 4 13 5 14 6 15 7 16 8 17 9 18 10 8 11 7 12
REMARK SMILES IDX 6 13 5 14 4 15 3 16 2 17 1 18
REMARK H PARENT
REMARK Flexibility Score: inf
ROOT
ATOM      1  C   UNL     1      36.614  42.957  46.506  1.00  0.00     0.000 C 
ENDROOT
BRANCH   1   2
ATOM      2  C   UNL     1      36.675  42.311  47.899  1.00  0.00     0.000 C 
BRANCH   2   3
ATOM      3  C   UNL     1      38.089  42.325  48.496  1.00  0.00     0.000 C 
BRANCH   3   4
ATOM      4  C   UNL     1      38.039  42.398  50.027  1.00  0.00     0.000 C 
BRANCH   4   5
ATOM      5  C   UNL     1      36.587  42.441  50.528  1.00  0.00     0.000 C 
BRANCH   5   6
ATOM      6  C   UNL     1      36.250  43.756  51.249  1.00  0.00     0.006 C 
BRANCH   6   7
ATOM      7  C   UNL     1      34.917  43.691  52.005  1.00  0.00     0.053 C 
BRANCH   7   8
ATOM      8  C   UNL     1      34.571  45.032  52.570  1.00  0.00     0.041 C 
ATOM      9  O   UNL     1      35.476  45.777  53.032  1.00  0.00    -0.550 OA
ATOM     10  O   UNL     1      33.258  45.483  52.540  1.00  0.00    -0.550 OA
ENDBRANCH   7   8
ENDBRANCH   6   7
ENDBRANCH   5   6
ENDBRANCH   4   5
ENDBRANCH   3   4
ENDBRANCH   2   3
ENDBRANCH   1   2
BRANCH   1  11
ATOM     11  C   UNL     1      35.689  44.185  46.463  1.00  0.00     0.000 C 
BRANCH  11  12
ATOM     12  C   UNL     1      35.108  44.544  47.841  1.00  0.00    -0.000 C 
BRANCH  12  13
ATOM     13  C   UNL     1      33.569  44.674  47.847  1.00  0.00    -0.000 C 
BRANCH  13  14
ATOM     14  C   UNL     1      32.912  43.765  48.897  1.00  0.00    -0.000 C 
BRANCH  14  15
ATOM     15  C   UNL     1      33.262  42.291  48.645  1.00  0.00    -0.000 C 
BRANCH  15  16
ATOM     16  C   UNL     1      32.839  41.805  47.246  1.00  0.00    -0.000 C 
BRANCH  16  17
ATOM     17  C   UNL     1      31.346  41.985  46.923  1.00  0.00    -0.003 C 
ATOM     18  C   UNL     1      31.100  42.881  45.710  1.00  0.00     0.004 C 
ENDBRANCH  16  17
ENDBRANCH  15  16
ENDBRANCH  14  15
ENDBRANCH  13  14
ENDBRANCH  12  13
ENDBRANCH  11  12
ENDBRANCH   1  11
TORSDOF 14
ENDMDL
MODEL 8
REMARK VINA RESULT:    -5.025      2.310      4.402
REMARK INTER + INTRA:         -10.919
REMARK INTER:                  -9.136
REMARK INTRA:                  -1.783
REMARK UNBOUND:                -1.780
REMARK SMILES CCCCCCCCCCCCCCCC(=O)[O-]
REMARK SMILES IDX 9 1 10 2 11 3 12 4 13 5 14 6 15 7 16 8 17 9 18 10 8 11 7 12
REMARK SMILES IDX 6 13 5 14 4 15 3 16 2 17 1 18
REMARK H PARENT
REMARK Flexibility Score: inf
ROOT
ATOM      1  C   UNL     1      34.740  44.513  47.893  1.00  0.00     0.000 C 
ENDROOT
BRANCH   1   2
ATOM      2  C   UNL     1      35.520  44.770  46.594  1.00  0.00     0.000 C 
BRANCH   2   3
ATOM      3  C   UNL     1      34.982  43.952  45.410  1.00  0.00     0.000 C 
BRANCH   3   4
ATOM      4  C   UNL     1      34.397  44.869  44.330  1.00  0.00     0.000 C 
BRANCH   4   5
ATOM      5  C   UNL     1      32.950  44.474  43.996  1.00  0.00     0.000 C 
BRANCH   5   6
ATOM      6  C   UNL     1      32.037  44.479  45.232  1.00  0.00     0.006 C 
BRANCH   6   7
ATOM      7  C   UNL     1      31.395  43.111  45.498  1.00  0.00     0.053 C 
BRANCH   7   8
ATOM      8  C   UNL     1      30.829  43.061  46.883  1.00  0.00     0.041 C 
ATOM      9  O   UNL     1      30.542  41.954  47.409  1.00  0.00    -0.550 OA
ATOM     10  O   UNL     1      30.666  44.232  47.611  1.00  0.00    -0.550 OA
ENDBRANCH   7   8
ENDBRANCH   6   7
ENDBRANCH   5   6
ENDBRANCH   4   5
ENDBRANCH   3   4
ENDBRANCH   2   3
ENDBRANCH   1   2
BRANCH   1  11
ATOM     11  C   UNL     1      34.390  43.029  48.090  1.00  0.00     0.000 C 
BRANCH  11  12
ATOM     12  C   UNL     1      33.599  42.769  49.383  1.00  0.00    -0.000 C 
BRANCH  12  13
ATOM     13  C   UNL     1      34.475  42.271  50.553  1.00  0.00    -0.000 C 
BRANCH  13  14
ATOM     14  C   UNL     1      35.047  43.428  51.385  1.00  0.00    -0.000 C 
BRANCH  14  15
ATOM     15  C   UNL     1      36.505  43.716  50.998  1.00  0.00    -0.000 C 
BRANCH  15  16
ATOM     16  C   UNL     1      37.337  42.435  50.799  1.00  0.00    -0.000 C 
BRANCH  16  17
ATOM     17  C   UNL     1      38.062  42.338  49.446  1.00  0.00    -0.003 C 
ATOM     18  C   UNL     1      38.932  41.088  49.321  1.00  0.00     0.004 C 
ENDBRANCH  16  17
ENDBRANCH  15  16
ENDBRANCH  14  15
ENDBRANCH  13  14
ENDBRANCH  12  13
ENDBRANCH  11  12
ENDBRANCH   1  11
TORSDOF 14
ENDMDL
MODEL 9
REMARK VINA RESULT:    -5.000      2.571      4.679
REMARK INTER + INTRA:         -10.873
REMARK INTER:                  -9.407
REMARK INTRA:                  -1.467
REMARK UNBOUND:                -1.780
REMARK SMILES CCCCCCCCCCCCCCCC(=O)[O-]
REMARK SMILES IDX 9 1 10 2 11 3 12 4 13 5 14 6 15 7 16 8 17 9 18 10 8 11 7 12
REMARK SMILES IDX 6 13 5 14 4 15 3 16 2 17 1 18
REMARK H PARENT
REMARK Flexibility Score: inf
ROOT
ATOM      1  C   UNL     1      35.735  43.447  46.771  1.00  0.00     0.000 C 
ENDROOT
BRANCH   1   2
ATOM      2  C   UNL     1      34.622  43.832  47.757  1.00  0.00     0.000 C 
BRANCH   2   3
ATOM      3  C   UNL     1      33.979  42.611  48.429  1.00  0.00     0.000 C 
BRANCH   3   4
ATOM      4  C   UNL     1      33.044  41.879  47.459  1.00  0.00     0.000 C 
BRANCH   4   5
ATOM      5  C   UNL     1      31.818  42.742  47.119  1.00  0.00     0.000 C 
BRANCH   5   6
ATOM      6  C   UNL     1      31.647  42.955  45.606  1.00  0.00     0.006 C 
BRANCH   6   7
ATOM      7  C   UNL     1      31.875  44.412  45.185  1.00  0.00     0.053 C 
BRANCH   7   8
ATOM      8  C   UNL     1      32.706  44.471  43.942  1.00  0.00     0.041 C 
ATOM      9  O   UNL     1      32.185  44.230  42.821  1.00  0.00    -0.550 OA
ATOM     10  O   UNL     1      34.042  44.843  44.015  1.00  0.00    -0.550 OA
ENDBRANCH   7   8
ENDBRANCH   6   7
ENDBRANCH   5   6
ENDBRANCH   4   5
ENDBRANCH   3   4
ENDBRANCH   2   3
ENDBRANCH   1   2
BRANCH   1  11
ATOM     11  C   UNL     1      36.532  42.214  47.230  1.00  0.00     0.000 C 
BRANCH  11  12
ATOM     12  C   UNL     1      37.754  42.580  48.091  1.00  0.00    -0.000 C 
BRANCH  12  13
ATOM     13  C   UNL     1      38.315  41.391  48.901  1.00  0.00    -0.000 C 
BRANCH  13  14
ATOM     14  C   UNL     1      38.509  41.739  50.385  1.00  0.00    -0.000 C 
BRANCH  14  15
ATOM     15  C   UNL     1      37.928  43.124  50.707  1.00  0.00    -0.000 C 
BRANCH  15  16
ATOM     16  C   UNL     1      36.450  43.068  51.137  1.00  0.00    -0.000 C 
BRANCH  16  17
ATOM     17  C   UNL     1      35.965  44.286  51.941  1.00  0.00    -0.003 C 
ATOM     18  C   UNL     1      35.087  45.232  51.123  1.00  0.00     0.004 C 
ENDBRANCH  16  17
ENDBRANCH  15  16
ENDBRANCH  14  15
ENDBRANCH  13  14
ENDBRANCH  12  13
ENDBRANCH  11  12
ENDBRANCH   1  11
TORSDOF 14
ENDMDL
