MODEL 1
REMARK VINA RESULT:    -4.543      0.000      0.000
REMARK INTER + INTRA:          -6.768
REMARK INTER:                  -6.934
REMARK INTRA:                   0.166
REMARK UNBOUND:                 0.166
REMARK SMILES CC1=CCC[C@@H](C)C(=O)C[C@H](C(C)C)C(=O)C1
REMARK SMILES IDX 8 1 9 2 6 3 7 4 5 5 4 6 3 7 2 8 1 9 10 11 11 12 15 13 16 14
REMARK SMILES IDX 17 15 12 17 13 18 14 19
REMARK H PARENT
REMARK Flexibility Score: 70.00
ROOT
ATOM      1  C   UNL     1      16.645 -29.924  22.365  1.00  0.00     0.136 C 
ATOM      2  O   UNL     1      16.351 -28.935  21.709  1.00  0.00    -0.299 OA
ENDROOT
BRANCH   1   3
ATOM      3  C   UNL     1      17.783 -30.803  21.871  1.00  0.00     0.053 C 
ATOM      4  C   UNL     1      19.040 -29.957  21.644  1.00  0.00     0.016 C 
BRANCH   3   5
ATOM      5  C   UNL     1      17.410 -31.590  20.599  1.00  0.00     0.015 C 
BRANCH   5   6
ATOM      6  C   UNL     1      17.856 -33.061  20.677  1.00  0.00     0.028 C 
BRANCH   6   7
ATOM      7  C   UNL     1      17.940 -33.521  22.110  1.00  0.00    -0.028 C 
ATOM      8  C   UNL     1      16.868 -33.799  22.890  1.00  0.00    -0.070 CG0
ATOM      9  C   UNL     1      17.121 -34.337  24.273  1.00  0.00     0.039 C 
ATOM     10  G   UNL     1      15.430 -33.622  22.429  1.00  0.00     0.000 G0
ENDBRANCH   6   7
ENDBRANCH   5   6
ENDBRANCH   3   5
ENDBRANCH   1   3
BRANCH   1  11
ATOM     11  C   UNL     1      15.705 -30.383  23.458  1.00  0.00     0.087 C 
BRANCH  11  12
ATOM     12  C   UNL     1      14.457 -31.206  23.031  1.00  0.00     0.066 C 
BRANCH  12  13
ATOM     13  C   UNL     1      14.610 -32.701  23.304  1.00  0.00     0.140 C 
ATOM     14  O   UNL     1      14.041 -33.167  24.279  1.00  0.00    -0.299 OA
BRANCH  13  15
ATOM     15  C   UNL     1      15.410 -33.634  22.425  1.00  0.00     0.106 CG0
ATOM     16  G   UNL     1      16.848 -33.798  22.894  1.00  0.00     0.000 G0
ENDBRANCH  13  15
ENDBRANCH  12  13
BRANCH  12  17
ATOM     17  C   UNL     1      13.031 -30.585  23.271  1.00  0.00    -0.006 C 
ATOM     18  C   UNL     1      12.967 -29.188  23.912  1.00  0.00     0.008 C 
ATOM     19  C   UNL     1      12.171 -30.612  21.997  1.00  0.00     0.008 C 
ENDBRANCH  12  17
ENDBRANCH  11  12
ENDBRANCH   1  11
TORSDOF 1
ENDMDL
MODEL 2
REMARK VINA RESULT:    -4.523      2.017      4.291
REMARK INTER + INTRA:          -6.736
REMARK INTER:                  -6.653
REMARK INTRA:                  -0.083
REMARK UNBOUND:                 0.166
REMARK SMILES CC1=CCC[C@@H](C)C(=O)C[C@H](C(C)C)C(=O)C1
REMARK SMILES IDX 8 1 9 2 6 3 7 4 5 5 4 6 3 7 2 8 1 9 10 11 11 12 15 13 16 14
REMARK SMILES IDX 17 15 12 17 13 18 14 19
REMARK H PARENT
REMARK Flexibility Score: 70.00
ROOT
ATOM      1  C   UNL     1      14.282 -32.109  21.854  1.00  0.00     0.136 C 
ATOM      2  O   UNL     1      13.814 -31.404  20.971  1.00  0.00    -0.299 OA
ENDROOT
BRANCH   1   3
ATOM      3  C   UNL     1      14.663 -31.456  23.173  1.00  0.00     0.053 C 
ATOM      4  C   UNL     1      13.403 -31.160  23.994  1.00  0.00     0.016 C 
BRANCH   3   5
ATOM      5  C   UNL     1      15.506 -30.180  22.976  1.00  0.00     0.015 C 
BRANCH   5   6
ATOM      6  C   UNL     1      17.003 -30.495  22.809  1.00  0.00     0.028 C 
BRANCH   6   7
ATOM      7  C   UNL     1      17.519 -31.283  23.985  1.00  0.00    -0.028 C 
ATOM      8  C   UNL     1      18.130 -32.488  23.892  1.00  0.00    -0.070 CG0
ATOM      9  C   UNL     1      18.673 -33.106  25.153  1.00  0.00     0.039 C 
ATOM     10  G   UNL     1      18.318 -33.231  22.578  1.00  0.00     0.000 G0
ENDBRANCH   6   7
ENDBRANCH   5   6
ENDBRANCH   3   5
ENDBRANCH   1   3
BRANCH   1  11
ATOM     11  C   UNL     1      14.723 -33.516  21.510  1.00  0.00     0.087 C 
BRANCH  11  12
ATOM     12  C   UNL     1      16.194 -33.713  21.046  1.00  0.00     0.066 C 
BRANCH  12  13
ATOM     13  C   UNL     1      17.134 -34.073  22.194  1.00  0.00     0.140 C 
ATOM     14  O   UNL     1      16.908 -35.096  22.822  1.00  0.00    -0.299 OA
BRANCH  13  15
ATOM     15  C   UNL     1      18.336 -33.243  22.582  1.00  0.00     0.106 CG0
ATOM     16  G   UNL     1      18.142 -32.501  23.895  1.00  0.00     0.000 G0
ENDBRANCH  13  15
ENDBRANCH  12  13
BRANCH  12  17
ATOM     17  C   UNL     1      16.456 -34.423  19.666  1.00  0.00    -0.006 C 
ATOM     18  C   UNL     1      17.784 -34.114  18.954  1.00  0.00     0.008 C 
ATOM     19  C   UNL     1      16.256 -35.945  19.756  1.00  0.00     0.008 C 
ENDBRANCH  12  17
ENDBRANCH  11  12
ENDBRANCH   1  11
TORSDOF 1
ENDMDL
MODEL 3
REMARK VINA RESULT:    -4.479      1.956      2.965
REMARK INTER + INTRA:          -6.670
REMARK INTER:                  -6.568
REMARK INTRA:                  -0.102
REMARK UNBOUND:                 0.166
REMARK SMILES CC1=CCC[C@@H](C)C(=O)C[C@H](C(C)C)C(=O)C1
REMARK SMILES IDX 8 1 9 2 6 3 7 4 5 5 4 6 3 7 2 8 1 9 10 11 11 12 15 13 16 14
REMARK SMILES IDX 17 15 12 17 13 18 14 19
REMARK H PARENT
REMARK Flexibility Score: 70.00
ROOT
ATOM      1  C   UNL     1      17.352 -31.889  23.775  1.00  0.00     0.136 C 
ATOM      2  O   UNL     1      17.847 -30.942  24.369  1.00  0.00    -0.299 OA
ENDROOT
BRANCH   1   3
ATOM      3  C   UNL     1      17.571 -33.285  24.337  1.00  0.00     0.053 C 
ATOM      4  C   UNL     1      18.163 -33.197  25.747  1.00  0.00     0.016 C 
BRANCH   3   5
ATOM      5  C   UNL     1      18.453 -34.157  23.421  1.00  0.00     0.015 C 
BRANCH   5   6
ATOM      6  C   UNL     1      17.664 -35.319  22.792  1.00  0.00     0.028 C 
BRANCH   6   7
ATOM      7  C   UNL     1      17.481 -35.104  21.312  1.00  0.00    -0.028 C 
ATOM      8  C   UNL     1      16.364 -34.588  20.744  1.00  0.00    -0.070 CG0
ATOM      9  C   UNL     1      16.372 -34.350  19.258  1.00  0.00     0.039 C 
ATOM     10  G   UNL     1      15.122 -34.212  21.536  1.00  0.00     0.000 G0
ENDBRANCH   6   7
ENDBRANCH   5   6
ENDBRANCH   3   5
ENDBRANCH   1   3
BRANCH   1  11
ATOM     11  C   UNL     1      16.798 -31.672  22.384  1.00  0.00     0.087 C 
BRANCH  11  12
ATOM     12  C   UNL     1      15.252 -31.629  22.226  1.00  0.00     0.066 C 
BRANCH  12  13
ATOM     13  C   UNL     1      14.712 -32.766  21.362  1.00  0.00     0.140 C 
ATOM     14  O   UNL     1      13.910 -32.487  20.483  1.00  0.00    -0.299 OA
BRANCH  13  15
ATOM     15  C   UNL     1      15.126 -34.209  21.525  1.00  0.00     0.106 CG0
ATOM     16  G   UNL     1      16.386 -34.553  20.747  1.00  0.00     0.000 G0
ENDBRANCH  13  15
ENDBRANCH  12  13
BRANCH  12  17
ATOM     17  C   UNL     1      14.383 -31.209  23.470  1.00  0.00    -0.006 C 
ATOM     18  C   UNL     1      13.220 -30.233  23.222  1.00  0.00     0.008 C 
ATOM     19  C   UNL     1      13.878 -32.431  24.256  1.00  0.00     0.008 C 
ENDBRANCH  12  17
ENDBRANCH  11  12
ENDBRANCH   1  11
TORSDOF 1
ENDMDL
MODEL 4
REMARK VINA RESULT:    -4.399      1.405      1.614
REMARK INTER + INTRA:          -6.547
REMARK INTER:                  -6.460
REMARK INTRA:                  -0.087
REMARK UNBOUND:                 0.166
REMARK SMILES CC1=CCC[C@@H](C)C(=O)C[C@H](C(C)C)C(=O)C1
REMARK SMILES IDX 8 1 9 2 6 3 7 4 5 5 4 6 3 7 2 8 1 9 10 11 11 12 15 13 16 14
REMARK SMILES IDX 17 15 12 17 13 18 14 19
REMARK H PARENT
REMARK Flexibility Score: 70.00
ROOT
ATOM      1  C   UNL     1      16.915 -29.855  22.336  1.00  0.00     0.136 C 
ATOM      2  O   UNL     1      16.285 -28.970  21.776  1.00  0.00    -0.299 OA
ENDROOT
BRANCH   1   3
ATOM      3  C   UNL     1      18.402 -29.979  22.041  1.00  0.00     0.053 C 
ATOM      4  C   UNL     1      18.762 -29.151  20.803  1.00  0.00     0.016 C 
BRANCH   3   5
ATOM      5  C   UNL     1      18.849 -31.445  21.874  1.00  0.00     0.015 C 
BRANCH   5   6
ATOM      6  C   UNL     1      18.315 -32.068  20.573  1.00  0.00     0.028 C 
BRANCH   6   7
ATOM      7  C   UNL     1      18.204 -33.566  20.702  1.00  0.00    -0.028 C 
ATOM      8  C   UNL     1      17.035 -34.250  20.715  1.00  0.00    -0.070 CG0
ATOM      9  C   UNL     1      17.095 -35.753  20.757  1.00  0.00     0.039 C 
ATOM     10  G   UNL     1      15.672 -33.577  20.661  1.00  0.00     0.000 G0
ENDBRANCH   6   7
ENDBRANCH   5   6
ENDBRANCH   3   5
ENDBRANCH   1   3
BRANCH   1  11
ATOM     11  C   UNL     1      16.157 -30.947  23.059  1.00  0.00     0.087 C 
BRANCH  11  12
ATOM     12  C   UNL     1      14.958 -31.601  22.316  1.00  0.00     0.066 C 
BRANCH  12  13
ATOM     13  C   UNL     1      15.184 -33.081  22.013  1.00  0.00     0.140 C 
ATOM     14  O   UNL     1      14.971 -33.888  22.904  1.00  0.00    -0.299 OA
BRANCH  13  15
ATOM     15  C   UNL     1      15.639 -33.599  20.668  1.00  0.00     0.106 CG0
ATOM     16  G   UNL     1      17.016 -34.242  20.718  1.00  0.00     0.000 G0
ENDBRANCH  13  15
ENDBRANCH  12  13
BRANCH  12  17
ATOM     17  C   UNL     1      13.499 -31.178  22.727  1.00  0.00    -0.006 C 
ATOM     18  C   UNL     1      13.352 -29.962  23.658  1.00  0.00     0.008 C 
ATOM     19  C   UNL     1      12.584 -31.009  21.503  1.00  0.00     0.008 C 
ENDBRANCH  12  17
ENDBRANCH  11  12
ENDBRANCH   1  11
TORSDOF 1
ENDMDL
MODEL 5
REMARK VINA RESULT:    -4.342      1.690      4.377
REMARK INTER + INTRA:          -6.460
REMARK INTER:                  -6.649
REMARK INTRA:                   0.189
REMARK UNBOUND:                 0.166
REMARK SMILES CC1=CCC[C@@H](C)C(=O)C[C@H](C(C)C)C(=O)C1
REMARK SMILES IDX 8 1 9 2 6 3 7 4 5 5 4 6 3 7 2 8 1 9 10 11 11 12 15 13 16 14
REMARK SMILES IDX 17 15 12 17 13 18 14 19
REMARK H PARENT
REMARK Flexibility Score: 70.00
ROOT
ATOM      1  C   UNL     1      15.774 -30.565  22.737  1.00  0.00     0.136 C 
ATOM      2  O   UNL     1      16.447 -30.437  23.750  1.00  0.00    -0.299 OA
ENDROOT
BRANCH   1   3
ATOM      3  C   UNL     1      14.297 -30.895  22.890  1.00  0.00     0.053 C 
ATOM      4  C   UNL     1      13.569 -29.736  23.580  1.00  0.00     0.016 C 
BRANCH   3   5
ATOM      5  C   UNL     1      14.065 -32.220  23.644  1.00  0.00     0.015 C 
BRANCH   5   6
ATOM      6  C   UNL     1      15.222 -33.213  23.437  1.00  0.00     0.028 C 
BRANCH   6   7
ATOM      7  C   UNL     1      15.049 -33.979  22.152  1.00  0.00    -0.028 C 
ATOM      8  C   UNL     1      16.063 -34.330  21.325  1.00  0.00    -0.070 CG0
ATOM      9  C   UNL     1      15.737 -35.175  20.124  1.00  0.00     0.039 C 
ATOM     10  G   UNL     1      17.512 -33.936  21.567  1.00  0.00     0.000 G0
ENDBRANCH   6   7
ENDBRANCH   5   6
ENDBRANCH   3   5
ENDBRANCH   1   3
BRANCH   1  11
ATOM     11  C   UNL     1      16.476 -30.671  21.401  1.00  0.00     0.087 C 
BRANCH  11  12
ATOM     12  C   UNL     1      17.902 -31.289  21.387  1.00  0.00     0.066 C 
BRANCH  12  13
ATOM     13  C   UNL     1      17.933 -32.696  20.795  1.00  0.00     0.140 C 
ATOM     14  O   UNL     1      18.320 -32.826  19.643  1.00  0.00    -0.299 OA
BRANCH  13  15
ATOM     15  C   UNL     1      17.529 -33.935  21.559  1.00  0.00     0.106 CG0
ATOM     16  G   UNL     1      16.075 -34.319  21.335  1.00  0.00     0.000 G0
ENDBRANCH  13  15
ENDBRANCH  12  13
BRANCH  12  17
ATOM     17  C   UNL     1      19.122 -30.353  21.052  1.00  0.00    -0.006 C 
ATOM     18  C   UNL     1      18.834 -28.853  20.875  1.00  0.00     0.008 C 
ATOM     19  C   UNL     1      20.282 -30.546  22.043  1.00  0.00     0.008 C 
ENDBRANCH  12  17
ENDBRANCH  11  12
ENDBRANCH   1  11
TORSDOF 1
ENDMDL
MODEL 6
REMARK VINA RESULT:    -4.291      2.108      3.565
REMARK INTER + INTRA:          -6.383
REMARK INTER:                  -6.188
REMARK INTRA:                  -0.194
REMARK UNBOUND:                 0.166
REMARK SMILES CC1=CCC[C@@H](C)C(=O)C[C@H](C(C)C)C(=O)C1
REMARK SMILES IDX 8 1 9 2 6 3 7 4 5 5 4 6 3 7 2 8 1 9 10 11 11 12 15 13 16 14
REMARK SMILES IDX 17 15 12 17 13 18 14 19
REMARK H PARENT
REMARK Flexibility Score: 70.00
ROOT
ATOM      1  C   UNL     1      16.150 -33.992  20.842  1.00  0.00     0.136 C 
ATOM      2  O   UNL     1      15.100 -34.526  21.171  1.00  0.00    -0.299 OA
ENDROOT
BRANCH   1   3
ATOM      3  C   UNL     1      17.316 -34.882  20.442  1.00  0.00     0.053 C 
ATOM      4  C   UNL     1      16.868 -35.885  19.374  1.00  0.00     0.016 C 
BRANCH   3   5
ATOM      5  C   UNL     1      17.947 -35.604  21.650  1.00  0.00     0.015 C 
BRANCH   5   6
ATOM      6  C   UNL     1      19.038 -34.756  22.326  1.00  0.00     0.028 C 
BRANCH   6   7
ATOM      7  C   UNL     1      18.685 -34.474  23.764  1.00  0.00    -0.028 C 
ATOM      8  C   UNL     1      18.370 -33.250  24.250  1.00  0.00    -0.070 CG0
ATOM      9  C   UNL     1      17.950 -33.149  25.692  1.00  0.00     0.039 C 
ATOM     10  G   UNL     1      18.393 -31.985  23.407  1.00  0.00     0.000 G0
ENDBRANCH   6   7
ENDBRANCH   5   6
ENDBRANCH   3   5
ENDBRANCH   1   3
BRANCH   1  11
ATOM     11  C   UNL     1      16.336 -32.515  21.114  1.00  0.00     0.087 C 
BRANCH  11  12
ATOM     12  C   UNL     1      15.877 -31.977  22.499  1.00  0.00     0.066 C 
BRANCH  12  13
ATOM     13  C   UNL     1      17.015 -31.346  23.297  1.00  0.00     0.140 C 
ATOM     14  O   UNL     1      16.798 -30.288  23.869  1.00  0.00    -0.299 OA
BRANCH  13  15
ATOM     15  C   UNL     1      18.387 -31.966  23.433  1.00  0.00     0.106 CG0
ATOM     16  G   UNL     1      18.377 -33.247  24.252  1.00  0.00     0.000 G0
ENDBRANCH  13  15
ENDBRANCH  12  13
BRANCH  12  17
ATOM     17  C   UNL     1      14.469 -31.284  22.605  1.00  0.00    -0.006 C 
ATOM     18  C   UNL     1      13.551 -31.356  21.373  1.00  0.00     0.008 C 
ATOM     19  C   UNL     1      13.697 -31.737  23.855  1.00  0.00     0.008 C 
ENDBRANCH  12  17
ENDBRANCH  11  12
ENDBRANCH   1  11
TORSDOF 1
ENDMDL
MODEL 7
REMARK VINA RESULT:    -4.280      2.129      4.382
REMARK INTER + INTRA:          -6.366
REMARK INTER:                  -5.892
REMARK INTRA:                  -0.474
REMARK UNBOUND:                 0.166
REMARK SMILES CC1=CCC[C@@H](C)C(=O)C[C@H](C(C)C)C(=O)C1
REMARK SMILES IDX 8 1 9 2 6 3 7 4 5 5 4 6 3 7 2 8 1 9 10 11 11 12 15 13 16 14
REMARK SMILES IDX 17 15 12 17 13 18 14 19
REMARK H PARENT
REMARK Flexibility Score: 70.00
ROOT
ATOM      1  C   UNL     1      16.056 -31.574  22.942  1.00  0.00     0.136 C 
ATOM      2  O   UNL     1      16.714 -30.952  23.762  1.00  0.00    -0.299 OA
ENDROOT
BRANCH   1   3
ATOM      3  C   UNL     1      15.147 -32.686  23.442  1.00  0.00     0.053 C 
ATOM      4  C   UNL     1      13.816 -32.099  23.924  1.00  0.00     0.016 C 
BRANCH   3   5
ATOM      5  C   UNL     1      15.807 -33.536  24.545  1.00  0.00     0.015 C 
BRANCH   5   6
ATOM      6  C   UNL     1      16.896 -34.468  23.983  1.00  0.00     0.028 C 
BRANCH   6   7
ATOM      7  C   UNL     1      18.257 -34.075  24.499  1.00  0.00    -0.028 C 
ATOM      8  C   UNL     1      19.304 -33.730  23.712  1.00  0.00    -0.070 CG0
ATOM      9  C   UNL     1      20.571 -33.273  24.382  1.00  0.00     0.039 C 
ATOM     10  G   UNL     1      19.252 -33.754  22.193  1.00  0.00     0.000 G0
ENDBRANCH   6   7
ENDBRANCH   5   6
ENDBRANCH   3   5
ENDBRANCH   1   3
BRANCH   1  11
ATOM     11  C   UNL     1      16.376 -31.413  21.472  1.00  0.00     0.087 C 
BRANCH  11  12
ATOM     12  C   UNL     1      17.370 -32.428  20.840  1.00  0.00     0.066 C 
BRANCH  12  13
ATOM     13  C   UNL     1      18.706 -32.488  21.576  1.00  0.00     0.140 C 
ATOM     14  O   UNL     1      19.347 -31.453  21.686  1.00  0.00    -0.299 OA
BRANCH  13  15
ATOM     15  C   UNL     1      19.269 -33.749  22.188  1.00  0.00     0.106 CG0
ATOM     16  G   UNL     1      19.279 -33.713  23.708  1.00  0.00     0.000 G0
ENDBRANCH  13  15
ENDBRANCH  12  13
BRANCH  12  17
ATOM     17  C   UNL     1      16.803 -33.790  20.290  1.00  0.00    -0.006 C 
ATOM     18  C   UNL     1      15.292 -33.866  20.013  1.00  0.00     0.008 C 
ATOM     19  C   UNL     1      17.583 -34.282  19.059  1.00  0.00     0.008 C 
ENDBRANCH  12  17
ENDBRANCH  11  12
ENDBRANCH   1  11
TORSDOF 1
ENDMDL
MODEL 8
REMARK VINA RESULT:    -4.188      2.424      4.426
REMARK INTER + INTRA:          -6.225
REMARK INTER:                  -6.136
REMARK INTRA:                  -0.089
REMARK UNBOUND:                 0.166
REMARK SMILES CC1=CCC[C@@H](C)C(=O)C[C@H](C(C)C)C(=O)C1
REMARK SMILES IDX 8 1 9 2 6 3 7 4 5 5 4 6 3 7 2 8 1 9 10 11 11 12 15 13 16 14
REMARK SMILES IDX 17 15 12 17 13 18 14 19
REMARK H PARENT
REMARK Flexibility Score: 70.00
ROOT
ATOM      1  C   UNL     1      17.627 -33.645  19.878  1.00  0.00     0.136 C 
ATOM      2  O   UNL     1      17.629 -33.452  18.671  1.00  0.00    -0.299 OA
ENDROOT
BRANCH   1   3
ATOM      3  C   UNL     1      16.461 -34.410  20.484  1.00  0.00     0.053 C 
ATOM      4  C   UNL     1      16.451 -35.851  19.962  1.00  0.00     0.016 C 
BRANCH   3   5
ATOM      5  C   UNL     1      15.106 -33.719  20.225  1.00  0.00     0.015 C 
BRANCH   5   6
ATOM      6  C   UNL     1      14.610 -32.940  21.456  1.00  0.00     0.028 C 
BRANCH   6   7
ATOM      7  C   UNL     1      15.043 -33.618  22.731  1.00  0.00    -0.028 C 
ATOM      8  C   UNL     1      15.847 -33.055  23.664  1.00  0.00    -0.070 CG0
ATOM      9  C   UNL     1      16.114 -33.827  24.927  1.00  0.00     0.039 C 
ATOM     10  G   UNL     1      16.467 -31.675  23.509  1.00  0.00     0.000 G0
ENDBRANCH   6   7
ENDBRANCH   5   6
ENDBRANCH   3   5
ENDBRANCH   1   3
BRANCH   1  11
ATOM     11  C   UNL     1      18.613 -32.888  20.742  1.00  0.00     0.087 C 
BRANCH  11  12
ATOM     12  C   UNL     1      18.122 -31.568  21.400  1.00  0.00     0.066 C 
BRANCH  12  13
ATOM     13  C   UNL     1      17.859 -31.713  22.897  1.00  0.00     0.140 C 
ATOM     14  O   UNL     1      18.820 -31.854  23.638  1.00  0.00    -0.299 OA
BRANCH  13  15
ATOM     15  C   UNL     1      16.479 -31.675  23.512  1.00  0.00     0.106 CG0
ATOM     16  G   UNL     1      15.860 -33.057  23.658  1.00  0.00     0.000 G0
ENDBRANCH  13  15
ENDBRANCH  12  13
BRANCH  12  17
ATOM     17  C   UNL     1      18.758 -30.210  20.922  1.00  0.00    -0.006 C 
ATOM     18  C   UNL     1      17.948 -28.925  21.167  1.00  0.00     0.008 C 
ATOM     19  C   UNL     1      20.191 -30.029  21.449  1.00  0.00     0.008 C 
ENDBRANCH  12  17
ENDBRANCH  11  12
ENDBRANCH   1  11
TORSDOF 1
ENDMDL
MODEL 9
REMARK VINA RESULT:    -4.130      1.917      4.897
REMARK INTER + INTRA:          -6.137
REMARK INTER:                  -6.002
REMARK INTRA:                  -0.135
REMARK UNBOUND:                 0.166
REMARK SMILES CC1=CCC[C@@H](C)C(=O)C[C@H](C(C)C)C(=O)C1
REMARK SMILES IDX 8 1 9 2 6 3 7 4 5 5 4 6 3 7 2 8 1 9 10 11 11 12 15 13 16 14
REMARK SMILES IDX 17 15 12 17 13 18 14 19
REMARK H PARENT
REMARK Flexibility Score: 70.00
ROOT
ATOM      1  C   UNL     1      14.590 -32.338  23.785  1.00  0.00     0.136 C 
ATOM      2  O   UNL     1      13.879 -33.231  24.221  1.00  0.00    -0.299 OA
ENDROOT
BRANCH   1   3
ATOM      3  C   UNL     1      13.949 -31.262  22.923  1.00  0.00     0.053 C 
ATOM      4  C   UNL     1      13.716 -31.794  21.505  1.00  0.00     0.016 C 
BRANCH   3   5
ATOM      5  C   UNL     1      14.775 -29.960  22.895  1.00  0.00     0.015 C 
BRANCH   5   6
ATOM      6  C   UNL     1      15.366 -29.680  21.502  1.00  0.00     0.028 C 
BRANCH   6   7
ATOM      7  C   UNL     1      16.786 -29.186  21.611  1.00  0.00    -0.028 C 
ATOM      8  C   UNL     1      17.882 -29.936  21.345  1.00  0.00    -0.070 CG0
ATOM      9  C   UNL     1      19.229 -29.270  21.412  1.00  0.00     0.039 C 
ATOM     10  G   UNL     1      17.814 -31.405  20.957  1.00  0.00     0.000 G0
ENDBRANCH   6   7
ENDBRANCH   5   6
ENDBRANCH   3   5
ENDBRANCH   1   3
BRANCH   1  11
ATOM     11  C   UNL     1      16.093 -32.489  23.876  1.00  0.00     0.087 C 
BRANCH  11  12
ATOM     12  C   UNL     1      16.817 -33.185  22.689  1.00  0.00     0.066 C 
BRANCH  12  13
ATOM     13  C   UNL     1      17.964 -32.351  22.122  1.00  0.00     0.140 C 
ATOM     14  O   UNL     1      19.067 -32.468  22.635  1.00  0.00    -0.299 OA
BRANCH  13  15
ATOM     15  C   UNL     1      17.812 -31.406  20.954  1.00  0.00     0.106 CG0
ATOM     16  G   UNL     1      17.886 -29.943  21.364  1.00  0.00     0.000 G0
ENDBRANCH  13  15
ENDBRANCH  12  13
BRANCH  12  17
ATOM     17  C   UNL     1      17.039 -34.742  22.755  1.00  0.00    -0.006 C 
ATOM     18  C   UNL     1      18.002 -35.363  21.729  1.00  0.00     0.008 C 
ATOM     19  C   UNL     1      17.416 -35.209  24.171  1.00  0.00     0.008 C 
ENDBRANCH  12  17
ENDBRANCH  11  12
ENDBRANCH   1  11
TORSDOF 1
ENDMDL
