MODEL 1
REMARK VINA RESULT:    -5.694      0.000      0.000
REMARK INTER + INTRA:         -18.605
REMARK INTER:                 -14.350
REMARK INTRA:                  -4.255
REMARK UNBOUND:                -4.255
REMARK SMILES CCCCCCCCCCCCCCCCCCCCCCCCCCCC(=O)[O-]
REMARK SMILES IDX 15 1 16 2 17 3 18 4 19 5 20 6 21 7 22 8 23 9 24 10 25 11
REMARK SMILES IDX 26 12 27 13 28 14 29 15 30 16 14 17 13 18 12 19 11 20 10 21
REMARK SMILES IDX 9 22 8 23 7 24 6 25 5 26 4 27 3 28 2 29 1 30
REMARK H PARENT
REMARK Flexibility Score: inf
ROOT
ATOM      1  C   UNL     1       9.436  17.218  36.811  1.00  0.00     0.000 C 
ENDROOT
BRANCH   1   2
ATOM      2  C   UNL     1      10.292  18.457  37.110  1.00  0.00     0.000 C 
BRANCH   2   3
ATOM      3  C   UNL     1      11.801  18.135  37.121  1.00  0.00     0.000 C 
BRANCH   3   4
ATOM      4  C   UNL     1      12.379  17.829  35.728  1.00  0.00     0.000 C 
BRANCH   4   5
ATOM      5  C   UNL     1      13.164  16.510  35.685  1.00  0.00     0.000 C 
BRANCH   5   6
ATOM      6  C   UNL     1      13.373  15.882  37.075  1.00  0.00     0.000 C 
BRANCH   6   7
ATOM      7  C   UNL     1      14.627  15.005  37.227  1.00  0.00     0.000 C 
BRANCH   7   8
ATOM      8  C   UNL     1      15.726  15.658  38.083  1.00  0.00     0.000 C 
BRANCH   8   9
ATOM      9  C   UNL     1      15.512  17.177  38.232  1.00  0.00     0.000 C 
BRANCH   9  10
ATOM     10  C   UNL     1      16.559  18.015  37.470  1.00  0.00     0.000 C 
BRANCH  10  11
ATOM     11  C   UNL     1      16.066  18.477  36.086  1.00  0.00     0.000 C 
BRANCH  11  12
ATOM     12  C   UNL     1      16.620  17.595  34.955  1.00  0.00     0.006 C 
BRANCH  12  13
ATOM     13  C   UNL     1      18.024  18.030  34.513  1.00  0.00     0.053 C 
BRANCH  13  14
ATOM     14  C   UNL     1      19.042  16.968  34.796  1.00  0.00     0.041 C 
ATOM     15  O   UNL     1      18.683  15.772  34.947  1.00  0.00    -0.550 OA
ATOM     16  O   UNL     1      20.386  17.304  34.899  1.00  0.00    -0.550 OA
ENDBRANCH  13  14
ENDBRANCH  12  13
ENDBRANCH  11  12
ENDBRANCH  10  11
ENDBRANCH   9  10
ENDBRANCH   8   9
ENDBRANCH   7   8
ENDBRANCH   6   7
ENDBRANCH   5   6
ENDBRANCH   4   5
ENDBRANCH   3   4
ENDBRANCH   2   3
ENDBRANCH   1   2
BRANCH   1  17
ATOM     17  C   UNL     1       8.555  17.393  35.561  1.00  0.00     0.000 C 
BRANCH  17  18
ATOM     18  C   UNL     1       9.356  17.439  34.241  1.00  0.00     0.000 C 
BRANCH  18  19
ATOM     19  C   UNL     1       8.589  18.152  33.113  1.00  0.00     0.000 C 
BRANCH  19  20
ATOM     20  C   UNL     1       8.895  19.660  33.063  1.00  0.00     0.000 C 
BRANCH  20  21
ATOM     21  C   UNL     1      10.372  19.971  33.362  1.00  0.00     0.000 C 
BRANCH  21  22
ATOM     22  C   UNL     1      10.540  20.946  34.540  1.00  0.00    -0.000 C 
BRANCH  22  23
ATOM     23  C   UNL     1       9.189  21.374  35.138  1.00  0.00    -0.000 C 
BRANCH  23  24
ATOM     24  C   UNL     1       9.307  22.700  35.904  1.00  0.00    -0.000 C 
BRANCH  24  25
ATOM     25  C   UNL     1      10.287  23.651  35.205  1.00  0.00    -0.000 C 
BRANCH  25  26
ATOM     26  C   UNL     1       9.597  24.884  34.596  1.00  0.00    -0.000 C 
BRANCH  26  27
ATOM     27  C   UNL     1       9.988  25.152  33.128  1.00  0.00    -0.000 C 
BRANCH  27  28
ATOM     28  C   UNL     1       9.990  23.865  32.287  1.00  0.00    -0.000 C 
BRANCH  28  29
ATOM     29  C   UNL     1       8.579  23.283  32.096  1.00  0.00    -0.003 C 
ATOM     30  C   UNL     1       8.487  22.337  30.899  1.00  0.00     0.004 C 
ENDBRANCH  28  29
ENDBRANCH  27  28
ENDBRANCH  26  27
ENDBRANCH  25  26
ENDBRANCH  24  25
ENDBRANCH  23  24
ENDBRANCH  22  23
ENDBRANCH  21  22
ENDBRANCH  20  21
ENDBRANCH  19  20
ENDBRANCH  18  19
ENDBRANCH  17  18
ENDBRANCH   1  17
TORSDOF 26
ENDMDL
MODEL 2
REMARK VINA RESULT:    -5.667      1.293      2.804
REMARK INTER + INTRA:         -18.535
REMARK INTER:                 -15.095
REMARK INTRA:                  -3.440
REMARK UNBOUND:                -4.255
REMARK SMILES CCCCCCCCCCCCCCCCCCCCCCCCCCCC(=O)[O-]
REMARK SMILES IDX 15 1 16 2 17 3 18 4 19 5 20 6 21 7 22 8 23 9 24 10 25 11
REMARK SMILES IDX 26 12 27 13 28 14 29 15 30 16 14 17 13 18 12 19 11 20 10 21
REMARK SMILES IDX 9 22 8 23 7 24 6 25 5 26 4 27 3 28 2 29 1 30
REMARK H PARENT
REMARK Flexibility Score: inf
ROOT
ATOM      1  C   UNL     1       9.827  16.870  36.889  1.00  0.00     0.000 C 
ENDROOT
BRANCH   1   2
ATOM      2  C   UNL     1      10.972  17.890  36.810  1.00  0.00     0.000 C 
BRANCH   2   3
ATOM      3  C   UNL     1      12.124  17.406  35.903  1.00  0.00     0.000 C 
BRANCH   3   4
ATOM      4  C   UNL     1      12.968  16.280  36.526  1.00  0.00     0.000 C 
BRANCH   4   5
ATOM      5  C   UNL     1      13.500  16.636  37.922  1.00  0.00     0.000 C 
BRANCH   5   6
ATOM      6  C   UNL     1      14.765  15.848  38.309  1.00  0.00     0.000 C 
BRANCH   6   7
ATOM      7  C   UNL     1      16.095  16.437  37.808  1.00  0.00     0.000 C 
BRANCH   7   8
ATOM      8  C   UNL     1      16.095  17.975  37.751  1.00  0.00     0.000 C 
BRANCH   8   9
ATOM      9  C   UNL     1      16.373  18.498  36.328  1.00  0.00     0.000 C 
BRANCH   9  10
ATOM     10  C   UNL     1      16.214  17.414  35.243  1.00  0.00     0.000 C 
BRANCH  10  11
ATOM     11  C   UNL     1      17.540  17.070  34.538  1.00  0.00     0.000 C 
BRANCH  11  12
ATOM     12  C   UNL     1      18.666  18.043  34.927  1.00  0.00     0.006 C 
BRANCH  12  13
ATOM     13  C   UNL     1      19.635  18.304  33.765  1.00  0.00     0.053 C 
BRANCH  13  14
ATOM     14  C   UNL     1      21.037  18.500  34.254  1.00  0.00     0.041 C 
ATOM     15  O   UNL     1      21.613  17.590  34.903  1.00  0.00    -0.550 OA
ATOM     16  O   UNL     1      21.702  19.691  33.996  1.00  0.00    -0.550 OA
ENDBRANCH  13  14
ENDBRANCH  12  13
ENDBRANCH  11  12
ENDBRANCH  10  11
ENDBRANCH   9  10
ENDBRANCH   8   9
ENDBRANCH   7   8
ENDBRANCH   6   7
ENDBRANCH   5   6
ENDBRANCH   4   5
ENDBRANCH   3   4
ENDBRANCH   2   3
ENDBRANCH   1   2
BRANCH   1  17
ATOM     17  C   UNL     1       9.092  16.698  35.548  1.00  0.00     0.000 C 
BRANCH  17  18
ATOM     18  C   UNL     1       8.015  17.774  35.290  1.00  0.00     0.000 C 
BRANCH  18  19
ATOM     19  C   UNL     1       8.178  18.452  33.918  1.00  0.00     0.000 C 
BRANCH  19  20
ATOM     20  C   UNL     1       9.518  18.098  33.249  1.00  0.00     0.000 C 
BRANCH  20  21
ATOM     21  C   UNL     1       9.885  19.072  32.115  1.00  0.00     0.000 C 
BRANCH  21  22
ATOM     22  C   UNL     1       9.063  18.823  30.839  1.00  0.00    -0.000 C 
BRANCH  22  23
ATOM     23  C   UNL     1       8.299  20.078  30.384  1.00  0.00    -0.000 C 
BRANCH  23  24
ATOM     24  C   UNL     1       8.211  21.122  31.508  1.00  0.00    -0.000 C 
BRANCH  24  25
ATOM     25  C   UNL     1       8.662  22.502  31.010  1.00  0.00    -0.000 C 
BRANCH  25  26
ATOM     26  C   UNL     1       9.431  23.303  32.074  1.00  0.00    -0.000 C 
BRANCH  26  27
ATOM     27  C   UNL     1       8.650  23.497  33.390  1.00  0.00    -0.000 C 
BRANCH  27  28
ATOM     28  C   UNL     1       9.500  23.147  34.624  1.00  0.00    -0.000 C 
BRANCH  28  29
ATOM     29  C   UNL     1       9.504  21.640  34.930  1.00  0.00    -0.003 C 
ATOM     30  C   UNL     1      10.895  21.111  35.277  1.00  0.00     0.004 C 
ENDBRANCH  28  29
ENDBRANCH  27  28
ENDBRANCH  26  27
ENDBRANCH  25  26
ENDBRANCH  24  25
ENDBRANCH  23  24
ENDBRANCH  22  23
ENDBRANCH  21  22
ENDBRANCH  20  21
ENDBRANCH  19  20
ENDBRANCH  18  19
ENDBRANCH  17  18
ENDBRANCH   1  17
TORSDOF 26
ENDMDL
MODEL 3
REMARK VINA RESULT:    -5.616      1.484      3.600
REMARK INTER + INTRA:         -18.406
REMARK INTER:                 -14.460
REMARK INTRA:                  -3.946
REMARK UNBOUND:                -4.255
REMARK SMILES CCCCCCCCCCCCCCCCCCCCCCCCCCCC(=O)[O-]
REMARK SMILES IDX 15 1 16 2 17 3 18 4 19 5 20 6 21 7 22 8 23 9 24 10 25 11
REMARK SMILES IDX 26 12 27 13 28 14 29 15 30 16 14 17 13 18 12 19 11 20 10 21
REMARK SMILES IDX 9 22 8 23 7 24 6 25 5 26 4 27 3 28 2 29 1 30
REMARK H PARENT
REMARK Flexibility Score: inf
ROOT
ATOM      1  C   UNL     1      12.474  17.716  35.500  1.00  0.00     0.000 C 
ENDROOT
BRANCH   1   2
ATOM      2  C   UNL     1      13.355  16.464  35.387  1.00  0.00     0.000 C 
BRANCH   2   3
ATOM      3  C   UNL     1      13.470  15.708  36.728  1.00  0.00     0.000 C 
BRANCH   3   4
ATOM      4  C   UNL     1      14.911  15.310  37.092  1.00  0.00     0.000 C 
BRANCH   4   5
ATOM      5  C   UNL     1      15.411  15.993  38.373  1.00  0.00     0.000 C 
BRANCH   5   6
ATOM      6  C   UNL     1      15.318  17.529  38.318  1.00  0.00     0.000 C 
BRANCH   6   7
ATOM      7  C   UNL     1      16.460  18.239  37.570  1.00  0.00     0.000 C 
BRANCH   7   8
ATOM      8  C   UNL     1      16.084  18.651  36.136  1.00  0.00     0.000 C 
BRANCH   8   9
ATOM      9  C   UNL     1      16.822  17.804  35.081  1.00  0.00     0.000 C 
BRANCH   9  10
ATOM     10  C   UNL     1      18.216  17.338  35.546  1.00  0.00     0.000 C 
BRANCH  10  11
ATOM     11  C   UNL     1      18.721  16.099  34.781  1.00  0.00     0.000 C 
BRANCH  11  12
ATOM     12  C   UNL     1      20.035  16.382  34.034  1.00  0.00     0.006 C 
BRANCH  12  13
ATOM     13  C   UNL     1      19.849  17.393  32.895  1.00  0.00     0.053 C 
BRANCH  13  14
ATOM     14  C   UNL     1      20.795  18.547  33.026  1.00  0.00     0.041 C 
ATOM     15  O   UNL     1      21.681  18.740  32.155  1.00  0.00    -0.550 OA
ATOM     16  O   UNL     1      20.698  19.404  34.115  1.00  0.00    -0.550 OA
ENDBRANCH  13  14
ENDBRANCH  12  13
ENDBRANCH  11  12
ENDBRANCH  10  11
ENDBRANCH   9  10
ENDBRANCH   8   9
ENDBRANCH   7   8
ENDBRANCH   6   7
ENDBRANCH   5   6
ENDBRANCH   4   5
ENDBRANCH   3   4
ENDBRANCH   2   3
ENDBRANCH   1   2
BRANCH   1  17
ATOM     17  C   UNL     1      11.846  17.876  36.897  1.00  0.00     0.000 C 
BRANCH  17  18
ATOM     18  C   UNL     1      10.402  17.337  36.991  1.00  0.00     0.000 C 
BRANCH  18  19
ATOM     19  C   UNL     1       9.427  18.371  37.581  1.00  0.00     0.000 C 
BRANCH  19  20
ATOM     20  C   UNL     1       8.049  18.330  36.896  1.00  0.00     0.000 C 
BRANCH  20  21
ATOM     21  C   UNL     1       8.029  17.400  35.670  1.00  0.00     0.000 C 
BRANCH  21  22
ATOM     22  C   UNL     1       7.958  18.177  34.345  1.00  0.00    -0.000 C 
BRANCH  22  23
ATOM     23  C   UNL     1       9.303  18.178  33.598  1.00  0.00    -0.000 C 
BRANCH  23  24
ATOM     24  C   UNL     1       9.878  19.597  33.475  1.00  0.00    -0.000 C 
BRANCH  24  25
ATOM     25  C   UNL     1       8.982  20.615  34.194  1.00  0.00    -0.000 C 
BRANCH  25  26
ATOM     26  C   UNL     1       9.693  21.324  35.360  1.00  0.00    -0.000 C 
BRANCH  26  27
ATOM     27  C   UNL     1      11.110  21.822  35.011  1.00  0.00    -0.000 C 
BRANCH  27  28
ATOM     28  C   UNL     1      11.099  23.263  34.473  1.00  0.00    -0.000 C 
BRANCH  28  29
ATOM     29  C   UNL     1       9.886  24.069  34.966  1.00  0.00    -0.003 C 
ATOM     30  C   UNL     1       9.548  25.247  34.054  1.00  0.00     0.004 C 
ENDBRANCH  28  29
ENDBRANCH  27  28
ENDBRANCH  26  27
ENDBRANCH  25  26
ENDBRANCH  24  25
ENDBRANCH  23  24
ENDBRANCH  22  23
ENDBRANCH  21  22
ENDBRANCH  20  21
ENDBRANCH  19  20
ENDBRANCH  18  19
ENDBRANCH  17  18
ENDBRANCH   1  17
TORSDOF 26
ENDMDL
MODEL 4
REMARK VINA RESULT:    -5.610      1.513      2.596
REMARK INTER + INTRA:         -18.393
REMARK INTER:                 -14.933
REMARK INTRA:                  -3.460
REMARK UNBOUND:                -4.255
REMARK SMILES CCCCCCCCCCCCCCCCCCCCCCCCCCCC(=O)[O-]
REMARK SMILES IDX 15 1 16 2 17 3 18 4 19 5 20 6 21 7 22 8 23 9 24 10 25 11
REMARK SMILES IDX 26 12 27 13 28 14 29 15 30 16 14 17 13 18 12 19 11 20 10 21
REMARK SMILES IDX 9 22 8 23 7 24 6 25 5 26 4 27 3 28 2 29 1 30
REMARK H PARENT
REMARK Flexibility Score: inf
ROOT
ATOM      1  C   UNL     1      10.247  19.253  36.283  1.00  0.00     0.000 C 
ENDROOT
BRANCH   1   2
ATOM      2  C   UNL     1      10.386  18.076  37.259  1.00  0.00     0.000 C 
BRANCH   2   3
ATOM      3  C   UNL     1      11.746  17.361  37.122  1.00  0.00     0.000 C 
BRANCH   3   4
ATOM      4  C   UNL     1      12.465  17.651  35.793  1.00  0.00     0.000 C 
BRANCH   4   5
ATOM      5  C   UNL     1      13.567  16.629  35.475  1.00  0.00     0.000 C 
BRANCH   5   6
ATOM      6  C   UNL     1      13.756  15.577  36.584  1.00  0.00     0.000 C 
BRANCH   6   7
ATOM      7  C   UNL     1      15.095  15.641  37.340  1.00  0.00     0.000 C 
BRANCH   7   8
ATOM      8  C   UNL     1      15.221  16.877  38.248  1.00  0.00     0.000 C 
BRANCH   8   9
ATOM      9  C   UNL     1      16.175  17.931  37.654  1.00  0.00     0.000 C 
BRANCH   9  10
ATOM     10  C   UNL     1      17.121  17.357  36.580  1.00  0.00     0.000 C 
BRANCH  10  11
ATOM     11  C   UNL     1      17.322  18.309  35.386  1.00  0.00     0.000 C 
BRANCH  11  12
ATOM     12  C   UNL     1      18.787  18.343  34.919  1.00  0.00     0.006 C 
BRANCH  12  13
ATOM     13  C   UNL     1      18.934  17.966  33.439  1.00  0.00     0.053 C 
BRANCH  13  14
ATOM     14  C   UNL     1      20.085  17.032  33.222  1.00  0.00     0.041 C 
ATOM     15  O   UNL     1      20.454  16.259  34.143  1.00  0.00    -0.550 OA
ATOM     16  O   UNL     1      20.751  17.022  32.004  1.00  0.00    -0.550 OA
ENDBRANCH  13  14
ENDBRANCH  12  13
ENDBRANCH  11  12
ENDBRANCH  10  11
ENDBRANCH   9  10
ENDBRANCH   8   9
ENDBRANCH   7   8
ENDBRANCH   6   7
ENDBRANCH   5   6
ENDBRANCH   4   5
ENDBRANCH   3   4
ENDBRANCH   2   3
ENDBRANCH   1   2
BRANCH   1  17
ATOM     17  C   UNL     1       8.779  19.598  35.975  1.00  0.00     0.000 C 
BRANCH  17  18
ATOM     18  C   UNL     1       8.341  19.220  34.543  1.00  0.00     0.000 C 
BRANCH  18  19
ATOM     19  C   UNL     1       9.327  18.254  33.863  1.00  0.00     0.000 C 
BRANCH  19  20
ATOM     20  C   UNL     1       9.945  18.854  32.587  1.00  0.00     0.000 C 
BRANCH  20  21
ATOM     21  C   UNL     1       9.321  18.279  31.304  1.00  0.00     0.000 C 
BRANCH  21  22
ATOM     22  C   UNL     1       8.745  19.373  30.389  1.00  0.00    -0.000 C 
BRANCH  22  23
ATOM     23  C   UNL     1       8.098  20.518  31.187  1.00  0.00    -0.000 C 
BRANCH  23  24
ATOM     24  C   UNL     1       8.287  21.870  30.485  1.00  0.00    -0.000 C 
BRANCH  24  25
ATOM     25  C   UNL     1       8.830  22.923  31.460  1.00  0.00    -0.000 C 
BRANCH  25  26
ATOM     26  C   UNL     1       8.782  22.465  32.928  1.00  0.00    -0.000 C 
BRANCH  26  27
ATOM     27  C   UNL     1      10.115  22.657  33.681  1.00  0.00    -0.000 C 
BRANCH  27  28
ATOM     28  C   UNL     1      11.318  22.163  32.861  1.00  0.00    -0.000 C 
BRANCH  28  29
ATOM     29  C   UNL     1      12.428  23.220  32.745  1.00  0.00    -0.003 C 
ATOM     30  C   UNL     1      11.881  24.642  32.633  1.00  0.00     0.004 C 
ENDBRANCH  28  29
ENDBRANCH  27  28
ENDBRANCH  26  27
ENDBRANCH  25  26
ENDBRANCH  24  25
ENDBRANCH  23  24
ENDBRANCH  22  23
ENDBRANCH  21  22
ENDBRANCH  20  21
ENDBRANCH  19  20
ENDBRANCH  18  19
ENDBRANCH  17  18
ENDBRANCH   1  17
TORSDOF 26
ENDMDL
MODEL 5
REMARK VINA RESULT:    -5.604      2.327      4.323
REMARK INTER + INTRA:         -18.377
REMARK INTER:                 -14.107
REMARK INTRA:                  -4.270
REMARK UNBOUND:                -4.255
REMARK SMILES CCCCCCCCCCCCCCCCCCCCCCCCCCCC(=O)[O-]
REMARK SMILES IDX 15 1 16 2 17 3 18 4 19 5 20 6 21 7 22 8 23 9 24 10 25 11
REMARK SMILES IDX 26 12 27 13 28 14 29 15 30 16 14 17 13 18 12 19 11 20 10 21
REMARK SMILES IDX 9 22 8 23 7 24 6 25 5 26 4 27 3 28 2 29 1 30
REMARK H PARENT
REMARK Flexibility Score: inf
ROOT
ATOM      1  C   UNL     1      11.236  19.238  33.968  1.00  0.00     0.000 C 
ENDROOT
BRANCH   1   2
ATOM      2  C   UNL     1      10.754  20.250  35.017  1.00  0.00     0.000 C 
BRANCH   2   3
ATOM      3  C   UNL     1       9.246  20.550  34.889  1.00  0.00     0.000 C 
BRANCH   3   4
ATOM      4  C   UNL     1       8.351  19.557  35.651  1.00  0.00     0.000 C 
BRANCH   4   5
ATOM      5  C   UNL     1       7.989  18.320  34.816  1.00  0.00     0.000 C 
BRANCH   5   6
ATOM      6  C   UNL     1       8.620  17.021  35.353  1.00  0.00     0.000 C 
BRANCH   6   7
ATOM      7  C   UNL     1       9.285  17.126  36.736  1.00  0.00     0.000 C 
BRANCH   7   8
ATOM      8  C   UNL     1      10.813  16.950  36.690  1.00  0.00     0.000 C 
BRANCH   8   9
ATOM      9  C   UNL     1      11.516  17.731  37.817  1.00  0.00     0.000 C 
BRANCH   9  10
ATOM     10  C   UNL     1      13.054  17.667  37.730  1.00  0.00     0.000 C 
BRANCH  10  11
ATOM     11  C   UNL     1      13.571  17.570  36.282  1.00  0.00     0.000 C 
BRANCH  11  12
ATOM     12  C   UNL     1      14.477  16.345  36.077  1.00  0.00     0.006 C 
BRANCH  12  13
ATOM     13  C   UNL     1      14.005  15.131  36.889  1.00  0.00     0.053 C 
BRANCH  13  14
ATOM     14  C   UNL     1      15.009  14.744  37.932  1.00  0.00     0.041 C 
ATOM     15  O   UNL     1      14.887  13.659  38.556  1.00  0.00    -0.550 OA
ATOM     16  O   UNL     1      16.075  15.588  38.216  1.00  0.00    -0.550 OA
ENDBRANCH  13  14
ENDBRANCH  12  13
ENDBRANCH  11  12
ENDBRANCH  10  11
ENDBRANCH   9  10
ENDBRANCH   8   9
ENDBRANCH   7   8
ENDBRANCH   6   7
ENDBRANCH   5   6
ENDBRANCH   4   5
ENDBRANCH   3   4
ENDBRANCH   2   3
ENDBRANCH   1   2
BRANCH   1  17
ATOM     17  C   UNL     1      10.834  19.632  32.535  1.00  0.00     0.000 C 
BRANCH  17  18
ATOM     18  C   UNL     1      10.068  18.524  31.780  1.00  0.00     0.000 C 
BRANCH  18  19
ATOM     19  C   UNL     1       8.948  19.088  30.887  1.00  0.00     0.000 C 
BRANCH  19  20
ATOM     20  C   UNL     1       8.250  20.302  31.526  1.00  0.00     0.000 C 
BRANCH  20  21
ATOM     21  C   UNL     1       8.089  21.474  30.541  1.00  0.00     0.000 C 
BRANCH  21  22
ATOM     22  C   UNL     1       8.232  22.842  31.229  1.00  0.00    -0.000 C 
BRANCH  22  23
ATOM     23  C   UNL     1       9.562  22.974  31.992  1.00  0.00    -0.000 C 
BRANCH  23  24
ATOM     24  C   UNL     1       9.450  23.981  33.146  1.00  0.00    -0.000 C 
BRANCH  24  25
ATOM     25  C   UNL     1      10.662  23.878  34.082  1.00  0.00    -0.000 C 
BRANCH  25  26
ATOM     26  C   UNL     1      11.918  23.330  33.382  1.00  0.00    -0.000 C 
BRANCH  26  27
ATOM     27  C   UNL     1      13.106  24.314  33.379  1.00  0.00    -0.000 C 
BRANCH  27  28
ATOM     28  C   UNL     1      13.062  25.269  32.173  1.00  0.00    -0.000 C 
BRANCH  28  29
ATOM     29  C   UNL     1      14.108  24.916  31.103  1.00  0.00    -0.003 C 
ATOM     30  C   UNL     1      15.415  24.398  31.702  1.00  0.00     0.004 C 
ENDBRANCH  28  29
ENDBRANCH  27  28
ENDBRANCH  26  27
ENDBRANCH  25  26
ENDBRANCH  24  25
ENDBRANCH  23  24
ENDBRANCH  22  23
ENDBRANCH  21  22
ENDBRANCH  20  21
ENDBRANCH  19  20
ENDBRANCH  18  19
ENDBRANCH  17  18
ENDBRANCH   1  17
TORSDOF 26
ENDMDL
MODEL 6
REMARK VINA RESULT:    -5.602      1.174      3.114
REMARK INTER + INTRA:         -18.373
REMARK INTER:                 -14.395
REMARK INTRA:                  -3.978
REMARK UNBOUND:                -4.255
REMARK SMILES CCCCCCCCCCCCCCCCCCCCCCCCCCCC(=O)[O-]
REMARK SMILES IDX 15 1 16 2 17 3 18 4 19 5 20 6 21 7 22 8 23 9 24 10 25 11
REMARK SMILES IDX 26 12 27 13 28 14 29 15 30 16 14 17 13 18 12 19 11 20 10 21
REMARK SMILES IDX 9 22 8 23 7 24 6 25 5 26 4 27 3 28 2 29 1 30
REMARK H PARENT
REMARK Flexibility Score: inf
ROOT
ATOM      1  C   UNL     1      11.604  18.123  36.885  1.00  0.00     0.000 C 
ENDROOT
BRANCH   1   2
ATOM      2  C   UNL     1      12.168  17.762  35.503  1.00  0.00     0.000 C 
BRANCH   2   3
ATOM      3  C   UNL     1      13.078  16.517  35.550  1.00  0.00     0.000 C 
BRANCH   3   4
ATOM      4  C   UNL     1      13.192  15.888  36.950  1.00  0.00     0.000 C 
BRANCH   4   5
ATOM      5  C   UNL     1      14.418  14.975  37.095  1.00  0.00     0.000 C 
BRANCH   5   6
ATOM      6  C   UNL     1      15.585  15.640  37.847  1.00  0.00     0.000 C 
BRANCH   6   7
ATOM      7  C   UNL     1      15.258  16.976  38.536  1.00  0.00     0.000 C 
BRANCH   7   8
ATOM      8  C   UNL     1      16.086  18.156  37.998  1.00  0.00     0.000 C 
BRANCH   8   9
ATOM      9  C   UNL     1      15.740  18.481  36.532  1.00  0.00     0.000 C 
BRANCH   9  10
ATOM     10  C   UNL     1      16.978  18.527  35.613  1.00  0.00     0.000 C 
BRANCH  10  11
ATOM     11  C   UNL     1      17.193  17.219  34.829  1.00  0.00     0.000 C 
BRANCH  11  12
ATOM     12  C   UNL     1      18.344  16.382  35.412  1.00  0.00     0.006 C 
BRANCH  12  13
ATOM     13  C   UNL     1      19.305  15.881  34.325  1.00  0.00     0.053 C 
BRANCH  13  14
ATOM     14  C   UNL     1      20.640  16.553  34.421  1.00  0.00     0.041 C 
ATOM     15  O   UNL     1      20.760  17.634  35.054  1.00  0.00    -0.550 OA
ATOM     16  O   UNL     1      21.749  15.986  33.806  1.00  0.00    -0.550 OA
ENDBRANCH  13  14
ENDBRANCH  12  13
ENDBRANCH  11  12
ENDBRANCH  10  11
ENDBRANCH   9  10
ENDBRANCH   8   9
ENDBRANCH   7   8
ENDBRANCH   6   7
ENDBRANCH   5   6
ENDBRANCH   4   5
ENDBRANCH   3   4
ENDBRANCH   2   3
ENDBRANCH   1   2
BRANCH   1  17
ATOM     17  C   UNL     1      10.090  17.872  36.992  1.00  0.00     0.000 C 
BRANCH  17  18
ATOM     18  C   UNL     1       9.431  18.565  38.204  1.00  0.00     0.000 C 
BRANCH  18  19
ATOM     19  C   UNL     1       8.410  19.637  37.785  1.00  0.00     0.000 C 
BRANCH  19  20
ATOM     20  C   UNL     1       9.087  20.958  37.377  1.00  0.00     0.000 C 
BRANCH  20  21
ATOM     21  C   UNL     1       9.163  21.134  35.850  1.00  0.00     0.000 C 
BRANCH  21  22
ATOM     22  C   UNL     1      10.558  21.578  35.380  1.00  0.00    -0.000 C 
BRANCH  22  23
ATOM     23  C   UNL     1      10.548  22.997  34.785  1.00  0.00    -0.000 C 
BRANCH  23  24
ATOM     24  C   UNL     1       9.467  23.147  33.705  1.00  0.00    -0.000 C 
BRANCH  24  25
ATOM     25  C   UNL     1       9.990  22.685  32.338  1.00  0.00    -0.000 C 
BRANCH  25  26
ATOM     26  C   UNL     1       8.896  22.060  31.455  1.00  0.00    -0.000 C 
BRANCH  26  27
ATOM     27  C   UNL     1       8.339  20.731  32.006  1.00  0.00    -0.000 C 
BRANCH  27  28
ATOM     28  C   UNL     1       9.320  19.564  31.800  1.00  0.00    -0.000 C 
BRANCH  28  29
ATOM     29  C   UNL     1       9.572  18.770  33.092  1.00  0.00    -0.003 C 
ATOM     30  C   UNL     1       8.280  18.299  33.759  1.00  0.00     0.004 C 
ENDBRANCH  28  29
ENDBRANCH  27  28
ENDBRANCH  26  27
ENDBRANCH  25  26
ENDBRANCH  24  25
ENDBRANCH  23  24
ENDBRANCH  22  23
ENDBRANCH  21  22
ENDBRANCH  20  21
ENDBRANCH  19  20
ENDBRANCH  18  19
ENDBRANCH  17  18
ENDBRANCH   1  17
TORSDOF 26
ENDMDL
MODEL 7
REMARK VINA RESULT:    -5.590      1.736      3.603
REMARK INTER + INTRA:         -18.341
REMARK INTER:                 -14.567
REMARK INTRA:                  -3.774
REMARK UNBOUND:                -4.255
REMARK SMILES CCCCCCCCCCCCCCCCCCCCCCCCCCCC(=O)[O-]
REMARK SMILES IDX 15 1 16 2 17 3 18 4 19 5 20 6 21 7 22 8 23 9 24 10 25 11
REMARK SMILES IDX 26 12 27 13 28 14 29 15 30 16 14 17 13 18 12 19 11 20 10 21
REMARK SMILES IDX 9 22 8 23 7 24 6 25 5 26 4 27 3 28 2 29 1 30
REMARK H PARENT
REMARK Flexibility Score: inf
ROOT
ATOM      1  C   UNL     1      11.418  17.746  35.153  1.00  0.00     0.000 C 
ENDROOT
BRANCH   1   2
ATOM      2  C   UNL     1      12.014  16.954  36.326  1.00  0.00     0.000 C 
BRANCH   2   3
ATOM      3  C   UNL     1      11.911  17.720  37.661  1.00  0.00     0.000 C 
BRANCH   3   4
ATOM      4  C   UNL     1      13.155  17.577  38.554  1.00  0.00     0.000 C 
BRANCH   4   5
ATOM      5  C   UNL     1      13.890  16.245  38.344  1.00  0.00     0.000 C 
BRANCH   5   6
ATOM      6  C   UNL     1      15.376  16.422  37.981  1.00  0.00     0.000 C 
BRANCH   6   7
ATOM      7  C   UNL     1      15.831  17.870  37.729  1.00  0.00     0.000 C 
BRANCH   7   8
ATOM      8  C   UNL     1      15.743  18.285  36.250  1.00  0.00     0.000 C 
BRANCH   8   9
ATOM      9  C   UNL     1      16.335  17.213  35.315  1.00  0.00     0.000 C 
BRANCH   9  10
ATOM     10  C   UNL     1      17.850  17.385  35.079  1.00  0.00     0.000 C 
BRANCH  10  11
ATOM     11  C   UNL     1      18.595  16.041  34.963  1.00  0.00     0.000 C 
BRANCH  11  12
ATOM     12  C   UNL     1      19.936  16.190  34.225  1.00  0.00     0.006 C 
BRANCH  12  13
ATOM     13  C   UNL     1      19.832  17.128  33.015  1.00  0.00     0.053 C 
BRANCH  13  14
ATOM     14  C   UNL     1      21.185  17.538  32.520  1.00  0.00     0.041 C 
ATOM     15  O   UNL     1      22.214  16.934  32.919  1.00  0.00    -0.550 OA
ATOM     16  O   UNL     1      21.307  18.590  31.622  1.00  0.00    -0.550 OA
ENDBRANCH  13  14
ENDBRANCH  12  13
ENDBRANCH  11  12
ENDBRANCH  10  11
ENDBRANCH   9  10
ENDBRANCH   8   9
ENDBRANCH   7   8
ENDBRANCH   6   7
ENDBRANCH   5   6
ENDBRANCH   4   5
ENDBRANCH   3   4
ENDBRANCH   2   3
ENDBRANCH   1   2
BRANCH   1  17
ATOM     17  C   UNL     1      10.186  17.057  34.538  1.00  0.00     0.000 C 
BRANCH  17  18
ATOM     18  C   UNL     1       8.849  17.735  34.906  1.00  0.00     0.000 C 
BRANCH  18  19
ATOM     19  C   UNL     1       8.256  18.538  33.735  1.00  0.00     0.000 C 
BRANCH  19  20
ATOM     20  C   UNL     1       8.895  18.161  32.386  1.00  0.00     0.000 C 
BRANCH  20  21
ATOM     21  C   UNL     1       9.361  19.393  31.591  1.00  0.00     0.000 C 
BRANCH  21  22
ATOM     22  C   UNL     1       8.698  20.692  32.079  1.00  0.00    -0.000 C 
BRANCH  22  23
ATOM     23  C   UNL     1       9.731  21.753  32.495  1.00  0.00    -0.000 C 
BRANCH  23  24
ATOM     24  C   UNL     1      11.040  21.107  32.971  1.00  0.00    -0.000 C 
BRANCH  24  25
ATOM     25  C   UNL     1      11.121  21.098  34.504  1.00  0.00    -0.000 C 
BRANCH  25  26
ATOM     26  C   UNL     1      10.141  22.082  35.164  1.00  0.00    -0.000 C 
BRANCH  26  27
ATOM     27  C   UNL     1       9.020  21.393  35.970  1.00  0.00    -0.000 C 
BRANCH  27  28
ATOM     28  C   UNL     1       9.573  20.602  37.167  1.00  0.00    -0.000 C 
BRANCH  28  29
ATOM     29  C   UNL     1       8.470  19.875  37.955  1.00  0.00    -0.003 C 
ATOM     30  C   UNL     1       8.987  19.237  39.244  1.00  0.00     0.004 C 
ENDBRANCH  28  29
ENDBRANCH  27  28
ENDBRANCH  26  27
ENDBRANCH  25  26
ENDBRANCH  24  25
ENDBRANCH  23  24
ENDBRANCH  22  23
ENDBRANCH  21  22
ENDBRANCH  20  21
ENDBRANCH  19  20
ENDBRANCH  18  19
ENDBRANCH  17  18
ENDBRANCH   1  17
TORSDOF 26
ENDMDL
MODEL 8
REMARK VINA RESULT:    -5.586      1.312      2.350
REMARK INTER + INTRA:         -18.331
REMARK INTER:                 -14.614
REMARK INTRA:                  -3.718
REMARK UNBOUND:                -4.255
REMARK SMILES CCCCCCCCCCCCCCCCCCCCCCCCCCCC(=O)[O-]
REMARK SMILES IDX 15 1 16 2 17 3 18 4 19 5 20 6 21 7 22 8 23 9 24 10 25 11
REMARK SMILES IDX 26 12 27 13 28 14 29 15 30 16 14 17 13 18 12 19 11 20 10 21
REMARK SMILES IDX 9 22 8 23 7 24 6 25 5 26 4 27 3 28 2 29 1 30
REMARK H PARENT
REMARK Flexibility Score: inf
ROOT
ATOM      1  C   UNL     1      11.018  17.782  37.370  1.00  0.00     0.000 C 
ENDROOT
BRANCH   1   2
ATOM      2  C   UNL     1      11.704  18.514  36.208  1.00  0.00     0.000 C 
BRANCH   2   3
ATOM      3  C   UNL     1      12.940  17.751  35.687  1.00  0.00     0.000 C 
BRANCH   3   4
ATOM      4  C   UNL     1      12.899  16.239  35.971  1.00  0.00     0.000 C 
BRANCH   4   5
ATOM      5  C   UNL     1      14.145  15.739  36.716  1.00  0.00     0.000 C 
BRANCH   5   6
ATOM      6  C   UNL     1      14.146  16.106  38.212  1.00  0.00     0.000 C 
BRANCH   6   7
ATOM      7  C   UNL     1      15.370  16.900  38.701  1.00  0.00     0.000 C 
BRANCH   7   8
ATOM      8  C   UNL     1      15.693  18.120  37.822  1.00  0.00     0.000 C 
BRANCH   8   9
ATOM      9  C   UNL     1      16.889  17.853  36.886  1.00  0.00     0.000 C 
BRANCH   9  10
ATOM     10  C   UNL     1      16.582  18.164  35.407  1.00  0.00     0.000 C 
BRANCH  10  11
ATOM     11  C   UNL     1      17.585  17.512  34.436  1.00  0.00     0.000 C 
BRANCH  11  12
ATOM     12  C   UNL     1      18.453  16.452  35.134  1.00  0.00     0.006 C 
BRANCH  12  13
ATOM     13  C   UNL     1      19.612  15.975  34.247  1.00  0.00     0.053 C 
BRANCH  13  14
ATOM     14  C   UNL     1      20.711  16.991  34.187  1.00  0.00     0.041 C 
ATOM     15  O   UNL     1      21.656  16.948  35.016  1.00  0.00    -0.550 OA
ATOM     16  O   UNL     1      20.685  17.987  33.219  1.00  0.00    -0.550 OA
ENDBRANCH  13  14
ENDBRANCH  12  13
ENDBRANCH  11  12
ENDBRANCH  10  11
ENDBRANCH   9  10
ENDBRANCH   8   9
ENDBRANCH   7   8
ENDBRANCH   6   7
ENDBRANCH   5   6
ENDBRANCH   4   5
ENDBRANCH   3   4
ENDBRANCH   2   3
ENDBRANCH   1   2
BRANCH   1  17
ATOM     17  C   UNL     1       9.518  17.543  37.117  1.00  0.00     0.000 C 
BRANCH  17  18
ATOM     18  C   UNL     1       9.200  17.069  35.683  1.00  0.00     0.000 C 
BRANCH  18  19
ATOM     19  C   UNL     1       7.938  17.736  35.109  1.00  0.00     0.000 C 
BRANCH  19  20
ATOM     20  C   UNL     1       8.260  18.680  33.936  1.00  0.00     0.000 C 
BRANCH  20  21
ATOM     21  C   UNL     1       9.351  18.116  33.009  1.00  0.00     0.000 C 
BRANCH  21  22
ATOM     22  C   UNL     1      10.268  19.215  32.446  1.00  0.00    -0.000 C 
BRANCH  22  23
ATOM     23  C   UNL     1       9.960  20.596  33.048  1.00  0.00    -0.000 C 
BRANCH  23  24
ATOM     24  C   UNL     1      11.208  21.225  33.684  1.00  0.00    -0.000 C 
BRANCH  24  25
ATOM     25  C   UNL     1      10.879  21.825  35.058  1.00  0.00    -0.000 C 
BRANCH  25  26
ATOM     26  C   UNL     1       9.368  21.962  35.309  1.00  0.00    -0.000 C 
BRANCH  26  27
ATOM     27  C   UNL     1       8.869  23.422  35.313  1.00  0.00    -0.000 C 
BRANCH  27  28
ATOM     28  C   UNL     1       9.998  24.418  34.998  1.00  0.00    -0.000 C 
BRANCH  28  29
ATOM     29  C   UNL     1       9.712  25.257  33.742  1.00  0.00    -0.003 C 
ATOM     30  C   UNL     1      10.765  25.066  32.651  1.00  0.00     0.004 C 
ENDBRANCH  28  29
ENDBRANCH  27  28
ENDBRANCH  26  27
ENDBRANCH  25  26
ENDBRANCH  24  25
ENDBRANCH  23  24
ENDBRANCH  22  23
ENDBRANCH  21  22
ENDBRANCH  20  21
ENDBRANCH  19  20
ENDBRANCH  18  19
ENDBRANCH  17  18
ENDBRANCH   1  17
TORSDOF 26
ENDMDL
MODEL 9
REMARK VINA RESULT:    -5.516      1.517      2.985
REMARK INTER + INTRA:         -18.155
REMARK INTER:                 -14.736
REMARK INTRA:                  -3.419
REMARK UNBOUND:                -4.255
REMARK SMILES CCCCCCCCCCCCCCCCCCCCCCCCCCCC(=O)[O-]
REMARK SMILES IDX 15 1 16 2 17 3 18 4 19 5 20 6 21 7 22 8 23 9 24 10 25 11
REMARK SMILES IDX 26 12 27 13 28 14 29 15 30 16 14 17 13 18 12 19 11 20 10 21
REMARK SMILES IDX 9 22 8 23 7 24 6 25 5 26 4 27 3 28 2 29 1 30
REMARK H PARENT
REMARK Flexibility Score: inf
ROOT
ATOM      1  C   UNL     1      10.641  19.246  37.651  1.00  0.00     0.000 C 
ENDROOT
BRANCH   1   2
ATOM      2  C   UNL     1      11.451  17.991  38.007  1.00  0.00     0.000 C 
BRANCH   2   3
ATOM      3  C   UNL     1      11.652  17.062  36.791  1.00  0.00     0.000 C 
BRANCH   3   4
ATOM      4  C   UNL     1      12.633  17.617  35.744  1.00  0.00     0.000 C 
BRANCH   4   5
ATOM      5  C   UNL     1      13.775  16.642  35.421  1.00  0.00     0.000 C 
BRANCH   5   6
ATOM      6  C   UNL     1      13.983  15.570  36.506  1.00  0.00     0.000 C 
BRANCH   6   7
ATOM      7  C   UNL     1      15.294  15.678  37.305  1.00  0.00     0.000 C 
BRANCH   7   8
ATOM      8  C   UNL     1      15.664  17.125  37.673  1.00  0.00     0.000 C 
BRANCH   8   9
ATOM      9  C   UNL     1      16.861  17.640  36.850  1.00  0.00     0.000 C 
BRANCH   9  10
ATOM     10  C   UNL     1      17.574  16.526  36.056  1.00  0.00     0.000 C 
BRANCH  10  11
ATOM     11  C   UNL     1      17.859  16.919  34.594  1.00  0.00     0.000 C 
BRANCH  11  12
ATOM     12  C   UNL     1      18.751  18.168  34.498  1.00  0.00     0.006 C 
BRANCH  12  13
ATOM     13  C   UNL     1      19.388  18.322  33.110  1.00  0.00     0.053 C 
BRANCH  13  14
ATOM     14  C   UNL     1      20.763  17.728  33.069  1.00  0.00     0.041 C 
ATOM     15  O   UNL     1      21.122  17.033  32.084  1.00  0.00    -0.550 OA
ATOM     16  O   UNL     1      21.643  17.941  34.122  1.00  0.00    -0.550 OA
ENDBRANCH  13  14
ENDBRANCH  12  13
ENDBRANCH  11  12
ENDBRANCH  10  11
ENDBRANCH   9  10
ENDBRANCH   8   9
ENDBRANCH   7   8
ENDBRANCH   6   7
ENDBRANCH   5   6
ENDBRANCH   4   5
ENDBRANCH   3   4
ENDBRANCH   2   3
ENDBRANCH   1   2
BRANCH   1  17
ATOM     17  C   UNL     1       9.248  19.259  38.307  1.00  0.00     0.000 C 
BRANCH  17  18
ATOM     18  C   UNL     1       8.085  19.252  37.291  1.00  0.00     0.000 C 
BRANCH  18  19
ATOM     19  C   UNL     1       8.542  19.633  35.872  1.00  0.00     0.000 C 
BRANCH  19  20
ATOM     20  C   UNL     1       7.895  18.745  34.794  1.00  0.00     0.000 C 
BRANCH  20  21
ATOM     21  C   UNL     1       8.935  18.093  33.866  1.00  0.00     0.000 C 
BRANCH  21  22
ATOM     22  C   UNL     1      10.121  19.025  33.568  1.00  0.00    -0.000 C 
BRANCH  22  23
ATOM     23  C   UNL     1      10.258  19.333  32.068  1.00  0.00    -0.000 C 
BRANCH  23  24
ATOM     24  C   UNL     1       9.046  18.823  31.275  1.00  0.00    -0.000 C 
BRANCH  24  25
ATOM     25  C   UNL     1       8.354  19.973  30.532  1.00  0.00    -0.000 C 
BRANCH  25  26
ATOM     26  C   UNL     1       7.949  21.132  31.459  1.00  0.00    -0.000 C 
BRANCH  26  27
ATOM     27  C   UNL     1       8.617  22.475  31.101  1.00  0.00    -0.000 C 
BRANCH  27  28
ATOM     28  C   UNL     1       9.495  23.007  32.247  1.00  0.00    -0.000 C 
BRANCH  28  29
ATOM     29  C   UNL     1       8.873  22.759  33.631  1.00  0.00    -0.003 C 
ATOM     30  C   UNL     1       9.320  23.785  34.672  1.00  0.00     0.004 C 
ENDBRANCH  28  29
ENDBRANCH  27  28
ENDBRANCH  26  27
ENDBRANCH  25  26
ENDBRANCH  24  25
ENDBRANCH  23  24
ENDBRANCH  22  23
ENDBRANCH  21  22
ENDBRANCH  20  21
ENDBRANCH  19  20
ENDBRANCH  18  19
ENDBRANCH  17  18
ENDBRANCH   1  17
TORSDOF 26
ENDMDL
