MODEL 1
REMARK VINA RESULT:    -2.674      0.000      0.000
REMARK INTER + INTRA:          -3.176
REMARK INTER:                  -3.143
REMARK INTRA:                  -0.033
REMARK UNBOUND:                -0.033
REMARK SMILES O=C([O-])CCC(=O)[O-]
REMARK SMILES IDX 4 1 2 2 1 3 3 4 5 5 6 6 7 7 8 8
REMARK H PARENT
REMARK Flexibility Score: inf
ROOT
ATOM      1  C   UNL     1      58.357  18.719  50.515  1.00  0.00     0.059 C 
ENDROOT
BRANCH   1   2
ATOM      2  C   UNL     1      59.344  17.827  49.828  1.00  0.00     0.042 C 
ATOM      3  O   UNL     1      58.976  17.093  48.873  1.00  0.00    -0.550 OA
ATOM      4  O   UNL     1      60.679  17.845  50.208  1.00  0.00    -0.550 OA
ENDBRANCH   1   2
BRANCH   1   5
ATOM      5  C   UNL     1      57.015  18.005  50.679  1.00  0.00     0.059 C 
BRANCH   5   6
ATOM      6  C   UNL     1      56.005  18.923  51.292  1.00  0.00     0.042 C 
ATOM      7  O   UNL     1      56.235  19.466  52.404  1.00  0.00    -0.550 OA
ATOM      8  O   UNL     1      54.789  19.141  50.658  1.00  0.00    -0.550 OA
ENDBRANCH   5   6
ENDBRANCH   1   5
TORSDOF 3
ENDMDL
MODEL 2
REMARK VINA RESULT:    -2.664      0.281      1.174
REMARK INTER + INTRA:          -3.165
REMARK INTER:                  -3.132
REMARK INTRA:                  -0.033
REMARK UNBOUND:                -0.033
REMARK SMILES O=C([O-])CCC(=O)[O-]
REMARK SMILES IDX 4 1 2 2 1 3 3 4 5 5 6 6 7 7 8 8
REMARK H PARENT
REMARK Flexibility Score: inf
ROOT
ATOM      1  C   UNL     1      58.290  18.717  50.750  1.00  0.00     0.059 C 
ENDROOT
BRANCH   1   2
ATOM      2  C   UNL     1      59.308  18.012  49.908  1.00  0.00     0.042 C 
ATOM      3  O   UNL     1      60.536  18.178  50.129  1.00  0.00    -0.550 OA
ATOM      4  O   UNL     1      58.899  17.133  48.913  1.00  0.00    -0.550 OA
ENDBRANCH   1   2
BRANCH   1   5
ATOM      5  C   UNL     1      56.936  18.016  50.651  1.00  0.00     0.059 C 
BRANCH   5   6
ATOM      6  C   UNL     1      55.877  18.822  51.336  1.00  0.00     0.042 C 
ATOM      7  O   UNL     1      55.938  19.021  52.578  1.00  0.00    -0.550 OA
ATOM      8  O   UNL     1      54.797  19.310  50.613  1.00  0.00    -0.550 OA
ENDBRANCH   5   6
ENDBRANCH   1   5
TORSDOF 3
ENDMDL
MODEL 3
REMARK VINA RESULT:    -2.649      0.917      4.227
REMARK INTER + INTRA:          -3.147
REMARK INTER:                  -3.105
REMARK INTRA:                  -0.042
REMARK UNBOUND:                -0.033
REMARK SMILES O=C([O-])CCC(=O)[O-]
REMARK SMILES IDX 4 1 2 2 1 3 3 4 5 5 6 6 7 7 8 8
REMARK H PARENT
REMARK Flexibility Score: inf
ROOT
ATOM      1  C   UNL     1      57.319  18.770  51.400  1.00  0.00     0.059 C 
ENDROOT
BRANCH   1   2
ATOM      2  C   UNL     1      55.851  18.923  51.646  1.00  0.00     0.042 C 
ATOM      3  O   UNL     1      55.072  19.176  50.689  1.00  0.00    -0.550 OA
ATOM      4  O   UNL     1      55.336  18.736  52.922  1.00  0.00    -0.550 OA
ENDBRANCH   1   2
BRANCH   1   5
ATOM      5  C   UNL     1      57.581  17.629  50.417  1.00  0.00     0.059 C 
BRANCH   5   6
ATOM      6  C   UNL     1      58.898  17.820  49.732  1.00  0.00     0.042 C 
ATOM      7  O   UNL     1      59.335  16.941  48.943  1.00  0.00    -0.550 OA
ATOM      8  O   UNL     1      59.666  18.945  50.002  1.00  0.00    -0.550 OA
ENDBRANCH   5   6
ENDBRANCH   1   5
TORSDOF 3
ENDMDL
MODEL 4
REMARK VINA RESULT:    -2.591      9.484     10.218
REMARK INTER + INTRA:          -3.079
REMARK INTER:                  -3.043
REMARK INTRA:                  -0.036
REMARK UNBOUND:                -0.033
REMARK SMILES O=C([O-])CCC(=O)[O-]
REMARK SMILES IDX 4 1 2 2 1 3 3 4 5 5 6 6 7 7 8 8
REMARK H PARENT
REMARK Flexibility Score: inf
ROOT
ATOM      1  C   UNL     1      57.425  27.963  50.675  1.00  0.00     0.059 C 
ENDROOT
BRANCH   1   2
ATOM      2  C   UNL     1      58.393  29.097  50.542  1.00  0.00     0.042 C 
ATOM      3  O   UNL     1      58.827  29.428  49.407  1.00  0.00    -0.550 OA
ATOM      4  O   UNL     1      58.776  29.820  51.664  1.00  0.00    -0.550 OA
ENDBRANCH   1   2
BRANCH   1   5
ATOM      5  C   UNL     1      56.004  28.493  50.869  1.00  0.00     0.059 C 
BRANCH   5   6
ATOM      6  C   UNL     1      55.004  27.518  50.333  1.00  0.00     0.042 C 
ATOM      7  O   UNL     1      55.347  26.333  50.079  1.00  0.00    -0.550 OA
ATOM      8  O   UNL     1      53.705  27.930  50.065  1.00  0.00    -0.550 OA
ENDBRANCH   5   6
ENDBRANCH   1   5
TORSDOF 3
ENDMDL
MODEL 5
REMARK VINA RESULT:    -2.588     17.039     18.164
REMARK INTER + INTRA:          -3.075
REMARK INTER:                  -2.961
REMARK INTRA:                  -0.114
REMARK UNBOUND:                -0.033
REMARK SMILES O=C([O-])CCC(=O)[O-]
REMARK SMILES IDX 4 1 2 2 1 3 3 4 5 5 6 6 7 7 8 8
REMARK H PARENT
REMARK Flexibility Score: inf
ROOT
ATOM      1  C   UNL     1      61.980  31.523  60.062  1.00  0.00     0.059 C 
ENDROOT
BRANCH   1   2
ATOM      2  C   UNL     1      61.588  30.694  61.244  1.00  0.00     0.042 C 
ATOM      3  O   UNL     1      62.365  29.804  61.680  1.00  0.00    -0.550 OA
ATOM      4  O   UNL     1      60.386  30.937  61.896  1.00  0.00    -0.550 OA
ENDBRANCH   1   2
BRANCH   1   5
ATOM      5  C   UNL     1      62.274  32.960  60.490  1.00  0.00     0.059 C 
BRANCH   5   6
ATOM      6  C   UNL     1      63.748  33.171  60.643  1.00  0.00     0.042 C 
ATOM      7  O   UNL     1      64.559  32.322  60.189  1.00  0.00    -0.550 OA
ATOM      8  O   UNL     1      64.225  34.279  61.331  1.00  0.00    -0.550 OA
ENDBRANCH   5   6
ENDBRANCH   1   5
TORSDOF 3
ENDMDL
MODEL 6
REMARK VINA RESULT:    -2.532      8.782      9.369
REMARK INTER + INTRA:          -3.009
REMARK INTER:                  -2.898
REMARK INTRA:                  -0.111
REMARK UNBOUND:                -0.033
REMARK SMILES O=C([O-])CCC(=O)[O-]
REMARK SMILES IDX 4 1 2 2 1 3 3 4 5 5 6 6 7 7 8 8
REMARK H PARENT
REMARK Flexibility Score: inf
ROOT
ATOM      1  C   UNL     1      58.321  28.121  51.139  1.00  0.00     0.059 C 
ENDROOT
BRANCH   1   2
ATOM      2  C   UNL     1      59.148  28.477  49.943  1.00  0.00     0.042 C 
ATOM      3  O   UNL     1      58.937  29.554  49.326  1.00  0.00    -0.550 OA
ATOM      4  O   UNL     1      60.184  27.644  49.540  1.00  0.00    -0.550 OA
ENDBRANCH   1   2
BRANCH   1   5
ATOM      5  C   UNL     1      56.880  27.824  50.724  1.00  0.00     0.059 C 
BRANCH   5   6
ATOM      6  C   UNL     1      56.663  26.349  50.603  1.00  0.00     0.042 C 
ATOM      7  O   UNL     1      55.572  25.903  50.161  1.00  0.00    -0.550 OA
ATOM      8  O   UNL     1      57.647  25.464  51.026  1.00  0.00    -0.550 OA
ENDBRANCH   5   6
ENDBRANCH   1   5
TORSDOF 3
ENDMDL
MODEL 7
REMARK VINA RESULT:    -2.531     20.732     21.680
REMARK INTER + INTRA:          -3.008
REMARK INTER:                  -2.903
REMARK INTRA:                  -0.105
REMARK UNBOUND:                -0.033
REMARK SMILES O=C([O-])CCC(=O)[O-]
REMARK SMILES IDX 4 1 2 2 1 3 3 4 5 5 6 6 7 7 8 8
REMARK H PARENT
REMARK Flexibility Score: inf
ROOT
ATOM      1  C   UNL     1      71.137  31.492  59.208  1.00  0.00     0.059 C 
ENDROOT
BRANCH   1   2
ATOM      2  C   UNL     1      71.187  32.972  59.426  1.00  0.00     0.042 C 
ATOM      3  O   UNL     1      71.451  33.436  60.566  1.00  0.00    -0.550 OA
ATOM      4  O   UNL     1      70.992  33.839  58.358  1.00  0.00    -0.550 OA
ENDBRANCH   1   2
BRANCH   1   5
ATOM      5  C   UNL     1      72.338  30.814  59.866  1.00  0.00     0.059 C 
BRANCH   5   6
ATOM      6  C   UNL     1      71.902  30.010  61.051  1.00  0.00     0.042 C 
ATOM      7  O   UNL     1      70.689  29.989  61.389  1.00  0.00    -0.550 OA
ATOM      8  O   UNL     1      72.840  29.325  61.811  1.00  0.00    -0.550 OA
ENDBRANCH   5   6
ENDBRANCH   1   5
TORSDOF 3
ENDMDL
MODEL 8
REMARK VINA RESULT:    -2.518     20.825     21.476
REMARK INTER + INTRA:          -2.993
REMARK INTER:                  -2.873
REMARK INTRA:                  -0.120
REMARK UNBOUND:                -0.033
REMARK SMILES O=C([O-])CCC(=O)[O-]
REMARK SMILES IDX 4 1 2 2 1 3 3 4 5 5 6 6 7 7 8 8
REMARK H PARENT
REMARK Flexibility Score: inf
ROOT
ATOM      1  C   UNL     1      72.387  31.057  60.181  1.00  0.00     0.059 C 
ENDROOT
BRANCH   1   2
ATOM      2  C   UNL     1      71.908  30.092  61.219  1.00  0.00     0.042 C 
ATOM      3  O   UNL     1      72.737  29.466  61.932  1.00  0.00    -0.550 OA
ATOM      4  O   UNL     1      70.547  29.920  61.435  1.00  0.00    -0.550 OA
ENDBRANCH   1   2
BRANCH   1   5
ATOM      5  C   UNL     1      71.696  32.410  60.349  1.00  0.00     0.059 C 
BRANCH   5   6
ATOM      6  C   UNL     1      70.921  32.758  59.118  1.00  0.00     0.042 C 
ATOM      7  O   UNL     1      70.327  31.858  58.467  1.00  0.00    -0.550 OA
ATOM      8  O   UNL     1      70.894  34.069  58.660  1.00  0.00    -0.550 OA
ENDBRANCH   5   6
ENDBRANCH   1   5
TORSDOF 3
ENDMDL
MODEL 9
REMARK VINA RESULT:    -2.510     17.085     18.195
REMARK INTER + INTRA:          -2.983
REMARK INTER:                  -2.906
REMARK INTRA:                  -0.078
REMARK UNBOUND:                -0.033
REMARK SMILES O=C([O-])CCC(=O)[O-]
REMARK SMILES IDX 4 1 2 2 1 3 3 4 5 5 6 6 7 7 8 8
REMARK H PARENT
REMARK Flexibility Score: inf
ROOT
ATOM      1  C   UNL     1      61.350  32.799  60.105  1.00  0.00     0.059 C 
ENDROOT
BRANCH   1   2
ATOM      2  C   UNL     1      61.947  34.100  60.543  1.00  0.00     0.042 C 
ATOM      3  O   UNL     1      63.168  34.167  60.842  1.00  0.00    -0.550 OA
ATOM      4  O   UNL     1      61.167  35.248  60.573  1.00  0.00    -0.550 OA
ENDBRANCH   1   2
BRANCH   1   5
ATOM      5  C   UNL     1      62.265  31.635  60.487  1.00  0.00     0.059 C 
BRANCH   5   6
ATOM      6  C   UNL     1      61.538  30.664  61.364  1.00  0.00     0.042 C 
ATOM      7  O   UNL     1      60.411  30.962  61.841  1.00  0.00    -0.550 OA
ATOM      8  O   UNL     1      62.126  29.451  61.695  1.00  0.00    -0.550 OA
ENDBRANCH   5   6
ENDBRANCH   1   5
TORSDOF 3
ENDMDL
