MODEL 1
REMARK VINA RESULT:    -3.476      0.000      0.000
REMARK INTER + INTRA:          -5.395
REMARK INTER:                  -5.305
REMARK INTRA:                  -0.090
REMARK UNBOUND:                -0.090
REMARK SMILES CC1=CCC[C@H](C)C(=O)C[C@H](C(C)C)C(=O)C1
REMARK SMILES IDX 8 1 9 2 6 3 7 4 5 5 4 6 3 7 2 8 1 9 10 11 11 12 15 13 16 14
REMARK SMILES IDX 17 15 12 17 13 18 14 19
REMARK H PARENT
REMARK Flexibility Score: 70.00
ROOT
ATOM      1  C   UNL     1      81.111  -5.438  27.199  1.00  0.00     0.136 C 
ATOM      2  O   UNL     1      80.318  -5.005  26.376  1.00  0.00    -0.299 OA
ENDROOT
BRANCH   1   3
ATOM      3  C   UNL     1      81.046  -4.913  28.619  1.00  0.00     0.053 C 
ATOM      4  C   UNL     1      81.245  -3.393  28.642  1.00  0.00     0.016 C 
BRANCH   3   5
ATOM      5  C   UNL     1      79.695  -5.316  29.266  1.00  0.00     0.015 C 
BRANCH   5   6
ATOM      6  C   UNL     1      79.638  -6.800  29.686  1.00  0.00     0.028 C 
BRANCH   6   7
ATOM      7  C   UNL     1      78.427  -7.494  29.107  1.00  0.00    -0.028 C 
ATOM      8  C   UNL     1      78.466  -8.544  28.254  1.00  0.00    -0.070 CG0
ATOM      9  C   UNL     1      77.160  -9.075  27.720  1.00  0.00     0.039 C 
ATOM     10  G   UNL     1      79.756  -9.218  27.822  1.00  0.00     0.000 G0
ENDBRANCH   6   7
ENDBRANCH   5   6
ENDBRANCH   3   5
ENDBRANCH   1   3
BRANCH   1  11
ATOM     11  C   UNL     1      82.142  -6.449  26.738  1.00  0.00     0.087 C 
BRANCH  11  12
ATOM     12  C   UNL     1      81.942  -7.921  27.205  1.00  0.00     0.066 C 
BRANCH  12  13
ATOM     13  C   UNL     1      80.565  -8.446  26.822  1.00  0.00     0.140 C 
ATOM     14  O   UNL     1      80.163  -8.306  25.675  1.00  0.00    -0.299 OA
BRANCH  13  15
ATOM     15  C   UNL     1      79.750  -9.241  27.821  1.00  0.00     0.106 CG0
ATOM     16  G   UNL     1      78.475  -8.536  28.248  1.00  0.00     0.000 G0
ENDBRANCH  13  15
ENDBRANCH  12  13
BRANCH  12  17
ATOM     17  C   UNL     1      83.058  -8.853  26.631  1.00  0.00    -0.006 C 
ATOM     18  C   UNL     1      84.154  -8.057  25.899  1.00  0.00     0.008 C 
ATOM     19  C   UNL     1      83.715  -9.703  27.735  1.00  0.00     0.008 C 
ENDBRANCH  12  17
ENDBRANCH  11  12
ENDBRANCH   1  11
TORSDOF 1
ENDMDL
MODEL 2
REMARK VINA RESULT:    -3.455     10.403     12.406
REMARK INTER + INTRA:          -5.363
REMARK INTER:                  -5.620
REMARK INTRA:                   0.257
REMARK UNBOUND:                -0.090
REMARK SMILES CC1=CCC[C@H](C)C(=O)C[C@H](C(C)C)C(=O)C1
REMARK SMILES IDX 8 1 9 2 6 3 7 4 5 5 4 6 3 7 2 8 1 9 10 11 11 12 15 13 16 14
REMARK SMILES IDX 17 15 12 17 13 18 14 19
REMARK H PARENT
REMARK Flexibility Score: 70.00
ROOT
ATOM      1  C   UNL     1      82.300   5.898  28.855  1.00  0.00     0.136 C 
ATOM      2  O   UNL     1      81.987   6.958  29.378  1.00  0.00    -0.299 OA
ENDROOT
BRANCH   1   3
ATOM      3  C   UNL     1      81.978   5.686  27.389  1.00  0.00     0.053 C 
ATOM      4  C   UNL     1      80.809   6.580  26.959  1.00  0.00     0.016 C 
BRANCH   3   5
ATOM      5  C   UNL     1      83.241   5.957  26.531  1.00  0.00     0.015 C 
BRANCH   5   6
ATOM      6  C   UNL     1      83.834   4.680  25.898  1.00  0.00     0.028 C 
BRANCH   6   7
ATOM      7  C   UNL     1      84.875   4.049  26.793  1.00  0.00    -0.028 C 
ATOM      8  C   UNL     1      84.636   3.067  27.694  1.00  0.00    -0.070 CG0
ATOM      9  C   UNL     1      85.781   2.597  28.553  1.00  0.00     0.039 C 
ATOM     10  G   UNL     1      83.278   2.411  27.869  1.00  0.00     0.000 G0
ENDBRANCH   6   7
ENDBRANCH   5   6
ENDBRANCH   3   5
ENDBRANCH   1   3
BRANCH   1  11
ATOM     11  C   UNL     1      82.957   4.840  29.718  1.00  0.00     0.087 C 
BRANCH  11  12
ATOM     12  C   UNL     1      82.151   3.529  29.961  1.00  0.00     0.066 C 
BRANCH  12  13
ATOM     13  C   UNL     1      82.820   2.332  29.300  1.00  0.00     0.140 C 
ATOM     14  O   UNL     1      82.900   1.274  29.909  1.00  0.00    -0.299 OA
BRANCH  13  15
ATOM     15  C   UNL     1      83.273   2.415  27.857  1.00  0.00     0.106 CG0
ATOM     16  G   UNL     1      84.637   3.061  27.696  1.00  0.00     0.000 G0
ENDBRANCH  13  15
ENDBRANCH  12  13
BRANCH  12  17
ATOM     17  C   UNL     1      81.947   3.265  31.488  1.00  0.00    -0.006 C 
ATOM     18  C   UNL     1      82.097   4.552  32.321  1.00  0.00     0.008 C 
ATOM     19  C   UNL     1      80.569   2.642  31.780  1.00  0.00     0.008 C 
ENDBRANCH  12  17
ENDBRANCH  11  12
ENDBRANCH   1  11
TORSDOF 1
ENDMDL
MODEL 3
REMARK VINA RESULT:    -3.424      2.382      4.047
REMARK INTER + INTRA:          -5.316
REMARK INTER:                  -5.133
REMARK INTRA:                  -0.183
REMARK UNBOUND:                -0.090
REMARK SMILES CC1=CCC[C@H](C)C(=O)C[C@H](C(C)C)C(=O)C1
REMARK SMILES IDX 8 1 9 2 6 3 7 4 5 5 4 6 3 7 2 8 1 9 10 11 11 12 15 13 16 14
REMARK SMILES IDX 17 15 12 17 13 18 14 19
REMARK H PARENT
REMARK Flexibility Score: 70.00
ROOT
ATOM      1  C   UNL     1      78.350  -6.645  25.770  1.00  0.00     0.136 C 
ATOM      2  O   UNL     1      77.610  -5.686  25.930  1.00  0.00    -0.299 OA
ENDROOT
BRANCH   1   3
ATOM      3  C   UNL     1      77.908  -7.759  24.843  1.00  0.00     0.053 C 
ATOM      4  C   UNL     1      79.033  -8.785  24.659  1.00  0.00     0.016 C 
BRANCH   3   5
ATOM      5  C   UNL     1      76.623  -8.425  25.398  1.00  0.00     0.015 C 
BRANCH   5   6
ATOM      6  C   UNL     1      76.898  -9.437  26.530  1.00  0.00     0.028 C 
BRANCH   6   7
ATOM      7  C   UNL     1      76.562  -8.860  27.885  1.00  0.00    -0.028 C 
ATOM      8  C   UNL     1      77.462  -8.570  28.853  1.00  0.00    -0.070 CG0
ATOM      9  C   UNL     1      76.946  -8.060  30.174  1.00  0.00     0.039 C 
ATOM     10  G   UNL     1      78.961  -8.720  28.668  1.00  0.00     0.000 G0
ENDBRANCH   6   7
ENDBRANCH   5   6
ENDBRANCH   3   5
ENDBRANCH   1   3
BRANCH   1  11
ATOM     11  C   UNL     1      79.653  -6.681  26.544  1.00  0.00     0.087 C 
BRANCH  11  12
ATOM     12  C   UNL     1      79.596  -6.252  28.040  1.00  0.00     0.066 C 
BRANCH  12  13
ATOM     13  C   UNL     1      79.730  -7.449  28.970  1.00  0.00     0.140 C 
ATOM     14  O   UNL     1      80.388  -7.345  29.997  1.00  0.00    -0.299 OA
BRANCH  13  15
ATOM     15  C   UNL     1      78.957  -8.721  28.690  1.00  0.00     0.106 CG0
ATOM     16  G   UNL     1      77.457  -8.557  28.859  1.00  0.00     0.000 G0
ENDBRANCH  13  15
ENDBRANCH  12  13
BRANCH  12  17
ATOM     17  C   UNL     1      80.691  -5.184  28.364  1.00  0.00    -0.006 C 
ATOM     18  C   UNL     1      81.389  -4.670  27.092  1.00  0.00     0.008 C 
ATOM     19  C   UNL     1      80.108  -3.983  29.131  1.00  0.00     0.008 C 
ENDBRANCH  12  17
ENDBRANCH  11  12
ENDBRANCH   1  11
TORSDOF 1
ENDMDL
MODEL 4
REMARK VINA RESULT:    -3.331     10.889     12.899
REMARK INTER + INTRA:          -5.174
REMARK INTER:                  -6.229
REMARK INTRA:                   1.055
REMARK UNBOUND:                -0.090
REMARK SMILES CC1=CCC[C@H](C)C(=O)C[C@H](C(C)C)C(=O)C1
REMARK SMILES IDX 8 1 9 2 6 3 7 4 5 5 4 6 3 7 2 8 1 9 10 11 11 12 15 13 16 14
REMARK SMILES IDX 17 15 12 17 13 18 14 19
REMARK H PARENT
REMARK Flexibility Score: 70.00
ROOT
ATOM      1  C   UNL     1      82.920   5.687  29.915  1.00  0.00     0.136 C 
ATOM      2  O   UNL     1      82.130   6.571  30.212  1.00  0.00    -0.299 OA
ENDROOT
BRANCH   1   3
ATOM      3  C   UNL     1      82.817   4.351  30.622  1.00  0.00     0.053 C 
ATOM      4  C   UNL     1      82.138   4.514  31.987  1.00  0.00     0.016 C 
BRANCH   3   5
ATOM      5  C   UNL     1      82.052   3.342  29.728  1.00  0.00     0.015 C 
BRANCH   5   6
ATOM      6  C   UNL     1      82.908   2.129  29.304  1.00  0.00     0.028 C 
BRANCH   6   7
ATOM      7  C   UNL     1      84.369   2.494  29.191  1.00  0.00    -0.028 C 
ATOM      8  C   UNL     1      84.945   3.081  28.115  1.00  0.00    -0.070 CG0
ATOM      9  C   UNL     1      86.433   3.317  28.145  1.00  0.00     0.039 C 
ATOM     10  G   UNL     1      84.163   3.524  26.891  1.00  0.00     0.000 G0
ENDBRANCH   6   7
ENDBRANCH   5   6
ENDBRANCH   3   5
ENDBRANCH   1   3
BRANCH   1  11
ATOM     11  C   UNL     1      83.986   5.995  28.882  1.00  0.00     0.087 C 
BRANCH  11  12
ATOM     12  C   UNL     1      83.534   6.022  27.391  1.00  0.00     0.066 C 
BRANCH  12  13
ATOM     13  C   UNL     1      84.279   4.984  26.563  1.00  0.00     0.140 C 
ATOM     14  O   UNL     1      85.066   5.351  25.702  1.00  0.00    -0.299 OA
BRANCH  13  15
ATOM     15  C   UNL     1      84.137   3.510  26.885  1.00  0.00     0.106 CG0
ATOM     16  G   UNL     1      84.934   3.086  28.105  1.00  0.00     0.000 G0
ENDBRANCH  13  15
ENDBRANCH  12  13
BRANCH  12  17
ATOM     17  C   UNL     1      81.990   5.814  27.265  1.00  0.00    -0.006 C 
ATOM     18  C   UNL     1      81.241   7.148  27.088  1.00  0.00     0.008 C 
ATOM     19  C   UNL     1      81.634   4.884  26.090  1.00  0.00     0.008 C 
ENDBRANCH  12  17
ENDBRANCH  11  12
ENDBRANCH   1  11
TORSDOF 1
ENDMDL
MODEL 5
REMARK VINA RESULT:    -3.321     11.125     12.626
REMARK INTER + INTRA:          -5.159
REMARK INTER:                  -6.495
REMARK INTRA:                   1.336
REMARK UNBOUND:                -0.090
REMARK SMILES CC1=CCC[C@H](C)C(=O)C[C@H](C(C)C)C(=O)C1
REMARK SMILES IDX 8 1 9 2 6 3 7 4 5 5 4 6 3 7 2 8 1 9 10 11 11 12 15 13 16 14
REMARK SMILES IDX 17 15 12 17 13 18 14 19
REMARK H PARENT
REMARK Flexibility Score: 70.00
ROOT
ATOM      1  C   UNL     1      82.834   2.687  29.337  1.00  0.00     0.136 C 
ATOM      2  O   UNL     1      83.288   1.712  29.918  1.00  0.00    -0.299 OA
ENDROOT
BRANCH   1   3
ATOM      3  C   UNL     1      82.046   3.708  30.132  1.00  0.00     0.053 C 
ATOM      4  C   UNL     1      81.381   3.049  31.346  1.00  0.00     0.016 C 
BRANCH   3   5
ATOM      5  C   UNL     1      82.977   4.872  30.560  1.00  0.00     0.015 C 
BRANCH   5   6
ATOM      6  C   UNL     1      82.632   6.212  29.877  1.00  0.00     0.028 C 
BRANCH   6   7
ATOM      7  C   UNL     1      81.840   6.001  28.608  1.00  0.00    -0.028 C 
ATOM      8  C   UNL     1      82.371   5.874  27.370  1.00  0.00    -0.070 CG0
ATOM      9  C   UNL     1      81.429   5.734  26.202  1.00  0.00     0.039 C 
ATOM     10  G   UNL     1      83.866   5.852  27.104  1.00  0.00     0.000 G0
ENDBRANCH   6   7
ENDBRANCH   5   6
ENDBRANCH   3   5
ENDBRANCH   1   3
BRANCH   1  11
ATOM     11  C   UNL     1      83.054   2.795  27.841  1.00  0.00     0.087 C 
BRANCH  11  12
ATOM     12  C   UNL     1      84.454   3.287  27.369  1.00  0.00     0.066 C 
BRANCH  12  13
ATOM     13  C   UNL     1      84.345   4.533  26.502  1.00  0.00     0.140 C 
ATOM     14  O   UNL     1      84.548   4.450  25.298  1.00  0.00    -0.299 OA
BRANCH  13  15
ATOM     15  C   UNL     1      83.872   5.840  27.103  1.00  0.00     0.106 CG0
ATOM     16  G   UNL     1      82.375   5.874  27.355  1.00  0.00     0.000 G0
ENDBRANCH  13  15
ENDBRANCH  12  13
BRANCH  12  17
ATOM     17  C   UNL     1      85.400   3.551  28.585  1.00  0.00    -0.006 C 
ATOM     18  C   UNL     1      86.627   2.620  28.573  1.00  0.00     0.008 C 
ATOM     19  C   UNL     1      85.885   5.012  28.625  1.00  0.00     0.008 C 
ENDBRANCH  12  17
ENDBRANCH  11  12
ENDBRANCH   1  11
TORSDOF 1
ENDMDL
MODEL 6
REMARK VINA RESULT:    -3.128      2.285      3.860
REMARK INTER + INTRA:          -4.864
REMARK INTER:                  -4.549
REMARK INTRA:                  -0.315
REMARK UNBOUND:                -0.090
REMARK SMILES CC1=CCC[C@H](C)C(=O)C[C@H](C(C)C)C(=O)C1
REMARK SMILES IDX 8 1 9 2 6 3 7 4 5 5 4 6 3 7 2 8 1 9 10 11 11 12 15 13 16 14
REMARK SMILES IDX 17 15 12 17 13 18 14 19
REMARK H PARENT
REMARK Flexibility Score: 70.00
ROOT
ATOM      1  C   UNL     1      79.262  -9.183  25.692  1.00  0.00     0.136 C 
ATOM      2  O   UNL     1      78.449  -9.639  26.484  1.00  0.00    -0.299 OA
ENDROOT
BRANCH   1   3
ATOM      3  C   UNL     1      78.755  -8.399  24.499  1.00  0.00     0.053 C 
ATOM      4  C   UNL     1      77.907  -9.293  23.587  1.00  0.00     0.016 C 
BRANCH   3   5
ATOM      5  C   UNL     1      77.952  -7.165  24.985  1.00  0.00     0.015 C 
BRANCH   5   6
ATOM      6  C   UNL     1      78.824  -6.113  25.703  1.00  0.00     0.028 C 
BRANCH   6   7
ATOM      7  C   UNL     1      78.470  -6.004  27.167  1.00  0.00    -0.028 C 
ATOM      8  C   UNL     1      79.344  -6.142  28.192  1.00  0.00    -0.070 CG0
ATOM      9  C   UNL     1      78.808  -6.068  29.598  1.00  0.00     0.039 C 
ATOM     10  G   UNL     1      80.834  -6.352  27.992  1.00  0.00     0.000 G0
ENDBRANCH   6   7
ENDBRANCH   5   6
ENDBRANCH   3   5
ENDBRANCH   1   3
BRANCH   1  11
ATOM     11  C   UNL     1      80.731  -9.468  25.931  1.00  0.00     0.087 C 
BRANCH  11  12
ATOM     12  C   UNL     1      81.615  -8.268  26.385  1.00  0.00     0.066 C 
BRANCH  12  13
ATOM     13  C   UNL     1      81.240  -7.795  27.782  1.00  0.00     0.140 C 
ATOM     14  O   UNL     1      81.354  -8.560  28.729  1.00  0.00    -0.299 OA
BRANCH  13  15
ATOM     15  C   UNL     1      80.845  -6.351  28.016  1.00  0.00     0.106 CG0
ATOM     16  G   UNL     1      79.351  -6.164  28.205  1.00  0.00     0.000 G0
ENDBRANCH  13  15
ENDBRANCH  12  13
BRANCH  12  17
ATOM     17  C   UNL     1      83.135  -8.630  26.322  1.00  0.00    -0.006 C 
ATOM     18  C   UNL     1      83.424  -9.723  25.277  1.00  0.00     0.008 C 
ATOM     19  C   UNL     1      84.002  -7.397  26.005  1.00  0.00     0.008 C 
ENDBRANCH  12  17
ENDBRANCH  11  12
ENDBRANCH   1  11
TORSDOF 1
ENDMDL
MODEL 7
REMARK VINA RESULT:    -3.100      1.692      4.300
REMARK INTER + INTRA:          -4.820
REMARK INTER:                  -4.561
REMARK INTRA:                  -0.259
REMARK UNBOUND:                -0.090
REMARK SMILES CC1=CCC[C@H](C)C(=O)C[C@H](C(C)C)C(=O)C1
REMARK SMILES IDX 8 1 9 2 6 3 7 4 5 5 4 6 3 7 2 8 1 9 10 11 11 12 15 13 16 14
REMARK SMILES IDX 17 15 12 17 13 18 14 19
REMARK H PARENT
REMARK Flexibility Score: 70.00
ROOT
ATOM      1  C   UNL     1      79.498  -6.570  29.060  1.00  0.00     0.136 C 
ATOM      2  O   UNL     1      80.290  -7.022  29.875  1.00  0.00    -0.299 OA
ENDROOT
BRANCH   1   3
ATOM      3  C   UNL     1      79.728  -5.173  28.520  1.00  0.00     0.053 C 
ATOM      4  C   UNL     1      79.491  -4.126  29.614  1.00  0.00     0.016 C 
BRANCH   3   5
ATOM      5  C   UNL     1      81.161  -5.065  27.937  1.00  0.00     0.015 C 
BRANCH   5   6
ATOM      6  C   UNL     1      81.348  -5.857  26.625  1.00  0.00     0.028 C 
BRANCH   6   7
ATOM      7  C   UNL     1      82.222  -7.071  26.829  1.00  0.00    -0.028 C 
ATOM      8  C   UNL     1      81.852  -8.349  26.578  1.00  0.00    -0.070 CG0
ATOM      9  C   UNL     1      82.830  -9.449  26.901  1.00  0.00     0.039 C 
ATOM     10  G   UNL     1      80.509  -8.723  25.976  1.00  0.00     0.000 G0
ENDBRANCH   6   7
ENDBRANCH   5   6
ENDBRANCH   3   5
ENDBRANCH   1   3
BRANCH   1  11
ATOM     11  C   UNL     1      78.307  -7.422  28.669  1.00  0.00     0.087 C 
BRANCH  11  12
ATOM     12  C   UNL     1      78.300  -7.999  27.223  1.00  0.00     0.066 C 
BRANCH  12  13
ATOM     13  C   UNL     1      79.438  -8.987  27.009  1.00  0.00     0.140 C 
ATOM     14  O   UNL     1      79.430 -10.055  27.605  1.00  0.00    -0.299 OA
BRANCH  13  15
ATOM     15  C   UNL     1      80.510  -8.701  25.977  1.00  0.00     0.106 CG0
ATOM     16  G   UNL     1      81.860  -8.379  26.592  1.00  0.00     0.000 G0
ENDBRANCH  13  15
ENDBRANCH  12  13
BRANCH  12  17
ATOM     17  C   UNL     1      76.927  -8.669  26.888  1.00  0.00    -0.006 C 
ATOM     18  C   UNL     1      75.958  -8.625  28.084  1.00  0.00     0.008 C 
ATOM     19  C   UNL     1      76.250  -8.008  25.674  1.00  0.00     0.008 C 
ENDBRANCH  12  17
ENDBRANCH  11  12
ENDBRANCH   1  11
TORSDOF 1
ENDMDL
MODEL 8
REMARK VINA RESULT:    -3.037      2.073      2.406
REMARK INTER + INTRA:          -4.726
REMARK INTER:                  -4.940
REMARK INTRA:                   0.214
REMARK UNBOUND:                -0.090
REMARK SMILES CC1=CCC[C@H](C)C(=O)C[C@H](C(C)C)C(=O)C1
REMARK SMILES IDX 8 1 9 2 6 3 7 4 5 5 4 6 3 7 2 8 1 9 10 11 11 12 15 13 16 14
REMARK SMILES IDX 17 15 12 17 13 18 14 19
REMARK H PARENT
REMARK Flexibility Score: 70.00
ROOT
ATOM      1  C   UNL     1      81.151  -6.103  27.378  1.00  0.00     0.136 C 
ATOM      2  O   UNL     1      81.785  -5.232  26.800  1.00  0.00    -0.299 OA
ENDROOT
BRANCH   1   3
ATOM      3  C   UNL     1      80.087  -5.690  28.374  1.00  0.00     0.053 C 
ATOM      4  C   UNL     1      80.447  -4.348  29.023  1.00  0.00     0.016 C 
BRANCH   3   5
ATOM      5  C   UNL     1      78.706  -5.625  27.671  1.00  0.00     0.015 C 
BRANCH   5   6
ATOM      6  C   UNL     1      78.794  -5.775  26.138  1.00  0.00     0.028 C 
BRANCH   6   7
ATOM      7  C   UNL     1      77.784  -6.771  25.619  1.00  0.00    -0.028 C 
ATOM      8  C   UNL     1      78.046  -8.067  25.328  1.00  0.00    -0.070 CG0
ATOM      9  C   UNL     1      76.933  -8.906  24.756  1.00  0.00     0.039 C 
ATOM     10  G   UNL     1      79.399  -8.715  25.561  1.00  0.00     0.000 G0
ENDBRANCH   6   7
ENDBRANCH   5   6
ENDBRANCH   3   5
ENDBRANCH   1   3
BRANCH   1  11
ATOM     11  C   UNL     1      81.497  -7.550  27.091  1.00  0.00     0.087 C 
BRANCH  11  12
ATOM     12  C   UNL     1      80.687  -8.634  27.862  1.00  0.00     0.066 C 
BRANCH  12  13
ATOM     13  C   UNL     1      79.557  -9.197  27.011  1.00  0.00     0.140 C 
ATOM     14  O   UNL     1      78.731  -9.942  27.520  1.00  0.00    -0.299 OA
BRANCH  13  15
ATOM     15  C   UNL     1      79.388  -8.744  25.575  1.00  0.00     0.106 CG0
ATOM     16  G   UNL     1      78.054  -8.067  25.317  1.00  0.00     0.000 G0
ENDBRANCH  13  15
ENDBRANCH  12  13
BRANCH  12  17
ATOM     17  C   UNL     1      81.617  -9.786  28.364  1.00  0.00    -0.006 C 
ATOM     18  C   UNL     1      82.927  -9.862  27.557  1.00  0.00     0.008 C 
ATOM     19  C   UNL     1      81.961  -9.633  29.857  1.00  0.00     0.008 C 
ENDBRANCH  12  17
ENDBRANCH  11  12
ENDBRANCH   1  11
TORSDOF 1
ENDMDL
MODEL 9
REMARK VINA RESULT:    -2.846      1.986      5.006
REMARK INTER + INTRA:          -4.434
REMARK INTER:                  -4.077
REMARK INTRA:                  -0.357
REMARK UNBOUND:                -0.090
REMARK SMILES CC1=CCC[C@H](C)C(=O)C[C@H](C(C)C)C(=O)C1
REMARK SMILES IDX 8 1 9 2 6 3 7 4 5 5 4 6 3 7 2 8 1 9 10 11 11 12 15 13 16 14
REMARK SMILES IDX 17 15 12 17 13 18 14 19
REMARK H PARENT
REMARK Flexibility Score: 70.00
ROOT
ATOM      1  C   UNL     1      78.850  -7.898  25.761  1.00  0.00     0.136 C 
ATOM      2  O   UNL     1      78.605  -7.659  24.587  1.00  0.00    -0.299 OA
ENDROOT
BRANCH   1   3
ATOM      3  C   UNL     1      79.943  -8.893  26.089  1.00  0.00     0.053 C 
ATOM      4  C   UNL     1      79.931 -10.056  25.090  1.00  0.00     0.016 C 
BRANCH   3   5
ATOM      5  C   UNL     1      81.318  -8.176  26.104  1.00  0.00     0.015 C 
BRANCH   5   6
ATOM      6  C   UNL     1      81.754  -7.721  27.512  1.00  0.00     0.028 C 
BRANCH   6   7
ATOM      7  C   UNL     1      81.605  -6.228  27.684  1.00  0.00    -0.028 C 
ATOM      8  C   UNL     1      80.805  -5.625  28.595  1.00  0.00    -0.070 CG0
ATOM      9  C   UNL     1      80.725  -4.120  28.585  1.00  0.00     0.039 C 
ATOM     10  G   UNL     1      79.998  -6.389  29.629  1.00  0.00     0.000 G0
ENDBRANCH   6   7
ENDBRANCH   5   6
ENDBRANCH   3   5
ENDBRANCH   1   3
BRANCH   1  11
ATOM     11  C   UNL     1      78.013  -7.210  26.821  1.00  0.00     0.087 C 
BRANCH  11  12
ATOM     12  C   UNL     1      78.168  -7.723  28.283  1.00  0.00     0.066 C 
BRANCH  12  13
ATOM     13  C   UNL     1      78.542  -6.596  29.235  1.00  0.00     0.140 C 
ATOM     14  O   UNL     1      77.659  -5.923  29.749  1.00  0.00    -0.299 OA
BRANCH  13  15
ATOM     15  C   UNL     1      79.987  -6.385  29.635  1.00  0.00     0.106 CG0
ATOM     16  G   UNL     1      80.789  -5.621  28.597  1.00  0.00     0.000 G0
ENDBRANCH  13  15
ENDBRANCH  12  13
BRANCH  12  17
ATOM     17  C   UNL     1      76.868  -8.440  28.772  1.00  0.00    -0.006 C 
ATOM     18  C   UNL     1      76.200  -9.253  27.647  1.00  0.00     0.008 C 
ATOM     19  C   UNL     1      77.145  -9.375  29.964  1.00  0.00     0.008 C 
ENDBRANCH  12  17
ENDBRANCH  11  12
ENDBRANCH   1  11
TORSDOF 1
ENDMDL
