MODEL 1
REMARK VINA RESULT:    -4.647      0.000      0.000
REMARK INTER + INTRA:          -9.146
REMARK INTER:                  -7.092
REMARK INTRA:                  -2.054
REMARK UNBOUND:                -2.054
REMARK SMILES CC(=O)CCC=C(C)CCC=C(C)CCC=C(C)C
REMARK SMILES IDX 10 1 11 2 12 3 13 4 14 5 15 6 16 7 18 8 17 9 19 10 9 11 7 12
REMARK SMILES IDX 6 13 8 14 5 15 4 16 2 17 3 18 1 19
REMARK H PARENT
REMARK Flexibility Score: inf
ROOT
ATOM      1  C   UNL     1     -16.556  26.323  17.609  1.00  0.00     0.032 C 
ENDROOT
BRANCH   1   2
ATOM      2  C   UNL     1     -15.609  26.269  16.437  1.00  0.00    -0.028 C 
ATOM      3  C   UNL     1     -14.818  25.213  16.141  1.00  0.00    -0.077 C 
ATOM      4  C   UNL     1     -14.852  23.939  16.952  1.00  0.00     0.039 C 
BRANCH   3   5
ATOM      5  C   UNL     1     -13.879  25.308  14.957  1.00  0.00     0.034 C 
BRANCH   5   6
ATOM      6  C   UNL     1     -13.101  26.629  14.982  1.00  0.00     0.032 C 
BRANCH   6   7
ATOM      7  C   UNL     1     -13.219  27.360  13.666  1.00  0.00    -0.028 C 
ATOM      8  C   UNL     1     -14.014  29.441  14.796  1.00  0.00     0.039 C 
ATOM      9  C   UNL     1     -13.635  28.643  13.574  1.00  0.00    -0.080 C 
ATOM     10  C   UNL     1     -13.729  29.312  12.228  1.00  0.00     0.039 C 
ENDBRANCH   6   7
ENDBRANCH   5   6
ENDBRANCH   3   5
ENDBRANCH   1   2
BRANCH   1  11
ATOM     11  C   UNL     1     -16.188  27.473  18.552  1.00  0.00     0.034 C 
BRANCH  11  12
ATOM     12  C   UNL     1     -14.889  27.175  19.275  1.00  0.00    -0.077 C 
ATOM     13  C   UNL     1     -13.806  27.983  19.207  1.00  0.00    -0.028 C 
ATOM     14  C   UNL     1     -14.822  25.962  20.165  1.00  0.00     0.039 C 
BRANCH  13  15
ATOM     15  C   UNL     1     -13.710  29.227  18.361  1.00  0.00     0.035 C 
BRANCH  15  16
ATOM     16  C   UNL     1     -13.408  30.454  19.229  1.00  0.00     0.079 C 
BRANCH  16  17
ATOM     17  C   UNL     1     -14.546  31.436  19.177  1.00  0.00     0.130 C 
ATOM     18  O   UNL     1     -14.488  32.469  19.827  1.00  0.00    -0.300 OA
ATOM     19  C   UNL     1     -15.763  31.146  18.353  1.00  0.00     0.087 C 
ENDBRANCH  16  17
ENDBRANCH  15  16
ENDBRANCH  13  15
ENDBRANCH  11  12
ENDBRANCH   1  11
TORSDOF 9
ENDMDL
MODEL 2
REMARK VINA RESULT:    -4.444      1.801      4.413
REMARK INTER + INTRA:          -8.836
REMARK INTER:                  -5.893
REMARK INTRA:                  -2.943
REMARK UNBOUND:                -2.054
REMARK SMILES CC(=O)CCC=C(C)CCC=C(C)CCC=C(C)C
REMARK SMILES IDX 10 1 11 2 12 3 13 4 14 5 15 6 16 7 18 8 17 9 19 10 9 11 7 12
REMARK SMILES IDX 6 13 8 14 5 15 4 16 2 17 3 18 1 19
REMARK H PARENT
REMARK Flexibility Score: inf
ROOT
ATOM      1  C   UNL     1     -14.077  25.476  14.341  1.00  0.00     0.032 C 
ENDROOT
BRANCH   1   2
ATOM      2  C   UNL     1     -13.970  25.057  15.786  1.00  0.00    -0.028 C 
ATOM      3  C   UNL     1     -14.816  24.196  16.397  1.00  0.00    -0.077 C 
ATOM      4  C   UNL     1     -15.943  23.521  15.652  1.00  0.00     0.039 C 
BRANCH   3   5
ATOM      5  C   UNL     1     -14.620  23.895  17.868  1.00  0.00     0.034 C 
BRANCH   5   6
ATOM      6  C   UNL     1     -15.881  24.236  18.669  1.00  0.00     0.032 C 
BRANCH   6   7
ATOM      7  C   UNL     1     -15.990  25.723  18.913  1.00  0.00    -0.028 C 
ATOM      8  C   UNL     1     -18.105  25.872  17.594  1.00  0.00     0.039 C 
ATOM      9  C   UNL     1     -17.001  26.474  18.426  1.00  0.00    -0.080 C 
ATOM     10  C   UNL     1     -17.048  27.953  18.709  1.00  0.00     0.039 C 
ENDBRANCH   6   7
ENDBRANCH   5   6
ENDBRANCH   3   5
ENDBRANCH   1   2
BRANCH   1  11
ATOM     11  C   UNL     1     -14.044  27.003  14.216  1.00  0.00     0.034 C 
BRANCH  11  12
ATOM     12  C   UNL     1     -15.266  27.619  14.869  1.00  0.00    -0.077 C 
ATOM     13  C   UNL     1     -15.188  28.570  15.828  1.00  0.00    -0.028 C 
ATOM     14  C   UNL     1     -16.629  27.206  14.379  1.00  0.00     0.039 C 
BRANCH  13  15
ATOM     15  C   UNL     1     -13.905  29.086  16.428  1.00  0.00     0.035 C 
BRANCH  15  16
ATOM     16  C   UNL     1     -13.498  28.247  17.645  1.00  0.00     0.079 C 
BRANCH  16  17
ATOM     17  C   UNL     1     -13.377  29.110  18.871  1.00  0.00     0.130 C 
ATOM     18  O   UNL     1     -12.966  30.256  18.769  1.00  0.00    -0.300 OA
ATOM     19  C   UNL     1     -13.735  28.566  20.221  1.00  0.00     0.087 C 
ENDBRANCH  16  17
ENDBRANCH  15  16
ENDBRANCH  13  15
ENDBRANCH  11  12
ENDBRANCH   1  11
TORSDOF 9
ENDMDL
MODEL 3
REMARK VINA RESULT:    -4.438      1.306      2.125
REMARK INTER + INTRA:          -8.827
REMARK INTER:                  -7.055
REMARK INTRA:                  -1.772
REMARK UNBOUND:                -2.054
REMARK SMILES CC(=O)CCC=C(C)CCC=C(C)CCC=C(C)C
REMARK SMILES IDX 10 1 11 2 12 3 13 4 14 5 15 6 16 7 18 8 17 9 19 10 9 11 7 12
REMARK SMILES IDX 6 13 8 14 5 15 4 16 2 17 3 18 1 19
REMARK H PARENT
REMARK Flexibility Score: inf
ROOT
ATOM      1  C   UNL     1     -15.785  23.368  17.621  1.00  0.00     0.032 C 
ENDROOT
BRANCH   1   2
ATOM      2  C   UNL     1     -14.629  24.006  16.892  1.00  0.00    -0.028 C 
ATOM      3  C   UNL     1     -14.743  24.702  15.738  1.00  0.00    -0.077 C 
ATOM      4  C   UNL     1     -16.083  24.953  15.088  1.00  0.00     0.039 C 
BRANCH   3   5
ATOM      5  C   UNL     1     -13.493  25.253  15.087  1.00  0.00     0.034 C 
BRANCH   5   6
ATOM      6  C   UNL     1     -13.295  26.730  15.447  1.00  0.00     0.032 C 
BRANCH   6   7
ATOM      7  C   UNL     1     -13.343  27.605  14.218  1.00  0.00    -0.028 C 
ATOM      8  C   UNL     1     -14.326  29.506  15.504  1.00  0.00     0.039 C 
ATOM      9  C   UNL     1     -13.811  28.872  14.236  1.00  0.00    -0.080 C 
ATOM     10  C   UNL     1     -13.830  29.690  12.971  1.00  0.00     0.039 C 
ENDBRANCH   6   7
ENDBRANCH   5   6
ENDBRANCH   3   5
ENDBRANCH   1   2
BRANCH   1  11
ATOM     11  C   UNL     1     -16.407  24.351  18.618  1.00  0.00     0.034 C 
BRANCH  11  12
ATOM     12  C   UNL     1     -15.417  24.698  19.713  1.00  0.00    -0.077 C 
ATOM     13  C   UNL     1     -14.878  25.932  19.855  1.00  0.00    -0.028 C 
ATOM     14  C   UNL     1     -15.070  23.644  20.731  1.00  0.00     0.039 C 
BRANCH  13  15
ATOM     15  C   UNL     1     -15.119  27.090  18.921  1.00  0.00     0.035 C 
BRANCH  15  16
ATOM     16  C   UNL     1     -13.937  28.065  18.947  1.00  0.00     0.079 C 
BRANCH  16  17
ATOM     17  C   UNL     1     -14.357  29.397  19.505  1.00  0.00     0.130 C 
ATOM     18  O   UNL     1     -15.392  29.487  20.148  1.00  0.00    -0.300 OA
ATOM     19  C   UNL     1     -13.528  30.620  19.256  1.00  0.00     0.087 C 
ENDBRANCH  16  17
ENDBRANCH  15  16
ENDBRANCH  13  15
ENDBRANCH  11  12
ENDBRANCH   1  11
TORSDOF 9
ENDMDL
MODEL 4
REMARK VINA RESULT:    -4.386      2.241      5.218
REMARK INTER + INTRA:          -8.748
REMARK INTER:                  -6.649
REMARK INTRA:                  -2.099
REMARK UNBOUND:                -2.054
REMARK SMILES CC(=O)CCC=C(C)CCC=C(C)CCC=C(C)C
REMARK SMILES IDX 10 1 11 2 12 3 13 4 14 5 15 6 16 7 18 8 17 9 19 10 9 11 7 12
REMARK SMILES IDX 6 13 8 14 5 15 4 16 2 17 3 18 1 19
REMARK H PARENT
REMARK Flexibility Score: inf
ROOT
ATOM      1  C   UNL     1     -16.132  26.582  18.438  1.00  0.00     0.032 C 
ENDROOT
BRANCH   1   2
ATOM      2  C   UNL     1     -14.829  27.332  18.324  1.00  0.00    -0.028 C 
ATOM      3  C   UNL     1     -14.242  28.003  19.341  1.00  0.00    -0.077 C 
ATOM      4  C   UNL     1     -14.830  28.017  20.732  1.00  0.00     0.039 C 
BRANCH   3   5
ATOM      5  C   UNL     1     -12.953  28.753  19.077  1.00  0.00     0.034 C 
BRANCH   5   6
ATOM      6  C   UNL     1     -13.221  30.040  18.290  1.00  0.00     0.032 C 
BRANCH   6   7
ATOM      7  C   UNL     1     -13.903  31.078  19.150  1.00  0.00    -0.028 C 
ATOM      8  C   UNL     1     -15.983  30.980  17.771  1.00  0.00     0.039 C 
ATOM      9  C   UNL     1     -15.162  31.511  18.919  1.00  0.00    -0.080 C 
ATOM     10  C   UNL     1     -15.780  32.549  19.819  1.00  0.00     0.039 C 
ENDBRANCH   6   7
ENDBRANCH   5   6
ENDBRANCH   3   5
ENDBRANCH   1   2
BRANCH   1  11
ATOM     11  C   UNL     1     -16.301  25.606  17.268  1.00  0.00     0.034 C 
BRANCH  11  12
ATOM     12  C   UNL     1     -15.241  24.524  17.318  1.00  0.00    -0.077 C 
ATOM     13  C   UNL     1     -14.301  24.367  16.357  1.00  0.00    -0.028 C 
ATOM     14  C   UNL     1     -15.185  23.627  18.527  1.00  0.00     0.039 C 
BRANCH  13  15
ATOM     15  C   UNL     1     -14.223  25.177  15.088  1.00  0.00     0.035 C 
BRANCH  15  16
ATOM     16  C   UNL     1     -13.123  26.239  15.188  1.00  0.00     0.079 C 
BRANCH  16  17
ATOM     17  C   UNL     1     -13.471  27.446  14.361  1.00  0.00     0.130 C 
ATOM     18  O   UNL     1     -13.139  27.495  13.186  1.00  0.00    -0.300 OA
ATOM     19  C   UNL     1     -14.202  28.602  14.975  1.00  0.00     0.087 C 
ENDBRANCH  16  17
ENDBRANCH  15  16
ENDBRANCH  13  15
ENDBRANCH  11  12
ENDBRANCH   1  11
TORSDOF 9
ENDMDL
MODEL 5
REMARK VINA RESULT:    -4.375      2.641      6.236
REMARK INTER + INTRA:          -8.730
REMARK INTER:                  -6.505
REMARK INTRA:                  -2.225
REMARK UNBOUND:                -2.054
REMARK SMILES CC(=O)CCC=C(C)CCC=C(C)CCC=C(C)C
REMARK SMILES IDX 10 1 11 2 12 3 13 4 14 5 15 6 16 7 18 8 17 9 19 10 9 11 7 12
REMARK SMILES IDX 6 13 8 14 5 15 4 16 2 17 3 18 1 19
REMARK H PARENT
REMARK Flexibility Score: inf
ROOT
ATOM      1  C   UNL     1     -13.957  31.168  19.506  1.00  0.00     0.032 C 
ENDROOT
BRANCH   1   2
ATOM      2  C   UNL     1     -15.191  31.481  18.698  1.00  0.00    -0.028 C 
ATOM      3  C   UNL     1     -16.431  31.026  18.988  1.00  0.00    -0.077 C 
ATOM      4  C   UNL     1     -16.705  30.181  20.211  1.00  0.00     0.039 C 
BRANCH   3   5
ATOM      5  C   UNL     1     -17.578  31.381  18.066  1.00  0.00     0.034 C 
BRANCH   5   6
ATOM      6  C   UNL     1     -18.432  32.505  18.664  1.00  0.00     0.032 C 
BRANCH   6   7
ATOM      7  C   UNL     1     -18.129  33.832  18.011  1.00  0.00    -0.028 C 
ATOM      8  C   UNL     1     -16.798  34.596  19.981  1.00  0.00     0.039 C 
ATOM      9  C   UNL     1     -17.385  34.790  18.605  1.00  0.00    -0.080 C 
ATOM     10  C   UNL     1     -17.121  36.092  17.894  1.00  0.00     0.039 C 
ENDBRANCH   6   7
ENDBRANCH   5   6
ENDBRANCH   3   5
ENDBRANCH   1   2
BRANCH   1  11
ATOM     11  C   UNL     1     -13.030  30.220  18.736  1.00  0.00     0.034 C 
BRANCH  11  12
ATOM     12  C   UNL     1     -13.534  28.794  18.824  1.00  0.00    -0.077 C 
ATOM     13  C   UNL     1     -13.888  28.069  17.737  1.00  0.00    -0.028 C 
ATOM     14  C   UNL     1     -13.576  28.126  20.173  1.00  0.00     0.039 C 
BRANCH  13  15
ATOM     15  C   UNL     1     -13.907  28.590  16.323  1.00  0.00     0.035 C 
BRANCH  15  16
ATOM     16  C   UNL     1     -15.304  29.100  15.950  1.00  0.00     0.079 C 
BRANCH  16  17
ATOM     17  C   UNL     1     -15.220  30.141  14.868  1.00  0.00     0.130 C 
ATOM     18  O   UNL     1     -15.984  31.095  14.882  1.00  0.00    -0.300 OA
ATOM     19  C   UNL     1     -14.222  30.004  13.758  1.00  0.00     0.087 C 
ENDBRANCH  16  17
ENDBRANCH  15  16
ENDBRANCH  13  15
ENDBRANCH  11  12
ENDBRANCH   1  11
TORSDOF 9
ENDMDL
MODEL 6
REMARK VINA RESULT:    -4.337      2.580      5.988
REMARK INTER + INTRA:          -8.673
REMARK INTER:                  -6.358
REMARK INTRA:                  -2.314
REMARK UNBOUND:                -2.054
REMARK SMILES CC(=O)CCC=C(C)CCC=C(C)CCC=C(C)C
REMARK SMILES IDX 10 1 11 2 12 3 13 4 14 5 15 6 16 7 18 8 17 9 19 10 9 11 7 12
REMARK SMILES IDX 6 13 8 14 5 15 4 16 2 17 3 18 1 19
REMARK H PARENT
REMARK Flexibility Score: inf
ROOT
ATOM      1  C   UNL     1     -13.872  27.520  15.795  1.00  0.00     0.032 C 
ENDROOT
BRANCH   1   2
ATOM      2  C   UNL     1     -14.191  27.411  17.265  1.00  0.00    -0.028 C 
ATOM      3  C   UNL     1     -15.439  27.270  17.769  1.00  0.00    -0.077 C 
ATOM      4  C   UNL     1     -16.651  27.155  16.875  1.00  0.00     0.039 C 
BRANCH   3   5
ATOM      5  C   UNL     1     -15.622  27.217  19.270  1.00  0.00     0.034 C 
BRANCH   5   6
ATOM      6  C   UNL     1     -14.635  28.154  19.975  1.00  0.00     0.032 C 
BRANCH   6   7
ATOM      7  C   UNL     1     -15.099  29.590  19.908  1.00  0.00    -0.028 C 
ATOM      8  C   UNL     1     -12.942  30.330  18.889  1.00  0.00     0.039 C 
ATOM      9  C   UNL     1     -14.332  30.587  19.414  1.00  0.00    -0.080 C 
ATOM     10  C   UNL     1     -14.859  31.998  19.377  1.00  0.00     0.039 C 
ENDBRANCH   6   7
ENDBRANCH   5   6
ENDBRANCH   3   5
ENDBRANCH   1   2
BRANCH   1  11
ATOM     11  C   UNL     1     -13.209  26.235  15.287  1.00  0.00     0.034 C 
BRANCH  11  12
ATOM     12  C   UNL     1     -14.214  25.370  14.553  1.00  0.00    -0.077 C 
ATOM     13  C   UNL     1     -14.870  24.343  15.140  1.00  0.00    -0.028 C 
ATOM     14  C   UNL     1     -14.552  25.713  13.125  1.00  0.00     0.039 C 
BRANCH  13  15
ATOM     15  C   UNL     1     -14.644  23.871  16.553  1.00  0.00     0.035 C 
BRANCH  15  16
ATOM     16  C   UNL     1     -15.961  23.416  17.192  1.00  0.00     0.079 C 
BRANCH  16  17
ATOM     17  C   UNL     1     -15.923  23.606  18.684  1.00  0.00     0.130 C 
ATOM     18  O   UNL     1     -16.949  23.879  19.287  1.00  0.00    -0.300 OA
ATOM     19  C   UNL     1     -14.630  23.488  19.432  1.00  0.00     0.087 C 
ENDBRANCH  16  17
ENDBRANCH  15  16
ENDBRANCH  13  15
ENDBRANCH  11  12
ENDBRANCH   1  11
TORSDOF 9
ENDMDL
MODEL 7
REMARK VINA RESULT:    -4.326      2.533      5.386
REMARK INTER + INTRA:          -8.657
REMARK INTER:                  -6.039
REMARK INTRA:                  -2.618
REMARK UNBOUND:                -2.054
REMARK SMILES CC(=O)CCC=C(C)CCC=C(C)CCC=C(C)C
REMARK SMILES IDX 10 1 11 2 12 3 13 4 14 5 15 6 16 7 18 8 17 9 19 10 9 11 7 12
REMARK SMILES IDX 6 13 8 14 5 15 4 16 2 17 3 18 1 19
REMARK H PARENT
REMARK Flexibility Score: inf
ROOT
ATOM      1  C   UNL     1     -17.979  29.590  19.565  1.00  0.00     0.032 C 
ENDROOT
BRANCH   1   2
ATOM      2  C   UNL     1     -16.507  29.396  19.824  1.00  0.00    -0.028 C 
ATOM      3  C   UNL     1     -15.558  30.328  19.581  1.00  0.00    -0.077 C 
ATOM      4  C   UNL     1     -15.906  31.703  19.061  1.00  0.00     0.039 C 
BRANCH   3   5
ATOM      5  C   UNL     1     -14.107  29.986  19.847  1.00  0.00     0.034 C 
BRANCH   5   6
ATOM      6  C   UNL     1     -13.319  29.890  18.535  1.00  0.00     0.032 C 
BRANCH   6   7
ATOM      7  C   UNL     1     -13.424  28.509  17.932  1.00  0.00    -0.028 C 
ATOM      8  C   UNL     1     -14.090  29.436  15.711  1.00  0.00     0.039 C 
ATOM      9  C   UNL     1     -13.775  28.295  16.645  1.00  0.00    -0.080 C 
ATOM     10  C   UNL     1     -13.859  26.889  16.109  1.00  0.00     0.039 C 
ENDBRANCH   6   7
ENDBRANCH   5   6
ENDBRANCH   3   5
ENDBRANCH   1   2
BRANCH   1  11
ATOM     11  C   UNL     1     -18.565  28.382  18.826  1.00  0.00     0.034 C 
BRANCH  11  12
ATOM     12  C   UNL     1     -17.786  28.106  17.555  1.00  0.00    -0.077 C 
ATOM     13  C   UNL     1     -17.132  26.943  17.330  1.00  0.00    -0.028 C 
ATOM     14  C   UNL     1     -17.799  29.142  16.463  1.00  0.00     0.039 C 
BRANCH  13  15
ATOM     15  C   UNL     1     -17.020  25.811  18.320  1.00  0.00     0.035 C 
BRANCH  15  16
ATOM     16  C   UNL     1     -15.740  25.943  19.154  1.00  0.00     0.079 C 
BRANCH  16  17
ATOM     17  C   UNL     1     -15.186  24.587  19.495  1.00  0.00     0.130 C 
ATOM     18  O   UNL     1     -14.856  24.338  20.645  1.00  0.00    -0.300 OA
ATOM     19  C   UNL     1     -15.011  23.547  18.430  1.00  0.00     0.087 C 
ENDBRANCH  16  17
ENDBRANCH  15  16
ENDBRANCH  13  15
ENDBRANCH  11  12
ENDBRANCH   1  11
TORSDOF 9
ENDMDL
MODEL 8
REMARK VINA RESULT:    -4.326      1.490      4.904
REMARK INTER + INTRA:          -8.657
REMARK INTER:                  -6.300
REMARK INTRA:                  -2.357
REMARK UNBOUND:                -2.054
REMARK SMILES CC(=O)CCC=C(C)CCC=C(C)CCC=C(C)C
REMARK SMILES IDX 10 1 11 2 12 3 13 4 14 5 15 6 16 7 18 8 17 9 19 10 9 11 7 12
REMARK SMILES IDX 6 13 8 14 5 15 4 16 2 17 3 18 1 19
REMARK H PARENT
REMARK Flexibility Score: inf
ROOT
ATOM      1  C   UNL     1     -13.670  28.167  13.675  1.00  0.00     0.032 C 
ENDROOT
BRANCH   1   2
ATOM      2  C   UNL     1     -13.379  26.981  14.559  1.00  0.00    -0.028 C 
ATOM      3  C   UNL     1     -14.317  26.128  15.029  1.00  0.00    -0.077 C 
ATOM      4  C   UNL     1     -15.775  26.264  14.658  1.00  0.00     0.039 C 
BRANCH   3   5
ATOM      5  C   UNL     1     -13.891  25.001  15.946  1.00  0.00     0.034 C 
BRANCH   5   6
ATOM      6  C   UNL     1     -15.111  24.278  16.526  1.00  0.00     0.032 C 
BRANCH   6   7
ATOM      7  C   UNL     1     -14.914  23.955  17.988  1.00  0.00    -0.028 C 
ATOM      8  C   UNL     1     -16.143  26.011  18.696  1.00  0.00     0.039 C 
ATOM      9  C   UNL     1     -15.382  24.741  18.983  1.00  0.00    -0.080 C 
ATOM     10  C   UNL     1     -15.149  24.358  20.421  1.00  0.00     0.039 C 
ENDBRANCH   6   7
ENDBRANCH   5   6
ENDBRANCH   3   5
ENDBRANCH   1   2
BRANCH   1  11
ATOM     11  C   UNL     1     -13.724  29.458  14.499  1.00  0.00     0.034 C 
BRANCH  11  12
ATOM     12  C   UNL     1     -15.113  30.063  14.453  1.00  0.00    -0.077 C 
ATOM     13  C   UNL     1     -15.970  30.020  15.499  1.00  0.00    -0.028 C 
ATOM     14  C   UNL     1     -15.534  30.808  13.214  1.00  0.00     0.039 C 
BRANCH  13  15
ATOM     15  C   UNL     1     -15.703  29.312  16.803  1.00  0.00     0.035 C 
BRANCH  15  16
ATOM     16  C   UNL     1     -15.128  30.283  17.841  1.00  0.00     0.079 C 
BRANCH  16  17
ATOM     17  C   UNL     1     -13.828  29.765  18.392  1.00  0.00     0.130 C 
ATOM     18  O   UNL     1     -13.131  30.488  19.087  1.00  0.00    -0.300 OA
ATOM     19  C   UNL     1     -13.368  28.374  18.073  1.00  0.00     0.087 C 
ENDBRANCH  16  17
ENDBRANCH  15  16
ENDBRANCH  13  15
ENDBRANCH  11  12
ENDBRANCH   1  11
TORSDOF 9
ENDMDL
MODEL 9
REMARK VINA RESULT:    -4.305      2.745      4.516
REMARK INTER + INTRA:          -8.624
REMARK INTER:                  -6.231
REMARK INTRA:                  -2.393
REMARK UNBOUND:                -2.054
REMARK SMILES CC(=O)CCC=C(C)CCC=C(C)CCC=C(C)C
REMARK SMILES IDX 10 1 11 2 12 3 13 4 14 5 15 6 16 7 18 8 17 9 19 10 9 11 7 12
REMARK SMILES IDX 6 13 8 14 5 15 4 16 2 17 3 18 1 19
REMARK H PARENT
REMARK Flexibility Score: inf
ROOT
ATOM      1  C   UNL     1     -16.693  26.758  18.748  1.00  0.00     0.032 C 
ENDROOT
BRANCH   1   2
ATOM      2  C   UNL     1     -15.629  27.457  17.940  1.00  0.00    -0.028 C 
ATOM      3  C   UNL     1     -14.531  28.047  18.467  1.00  0.00    -0.077 C 
ATOM      4  C   UNL     1     -14.242  28.011  19.949  1.00  0.00     0.039 C 
BRANCH   3   5
ATOM      5  C   UNL     1     -13.563  28.753  17.543  1.00  0.00     0.034 C 
BRANCH   5   6
ATOM      6  C   UNL     1     -14.281  29.276  16.294  1.00  0.00     0.032 C 
BRANCH   6   7
ATOM      7  C   UNL     1     -13.677  28.702  15.034  1.00  0.00    -0.028 C 
ATOM      8  C   UNL     1     -14.911  30.331  13.598  1.00  0.00     0.039 C 
ATOM      9  C   UNL     1     -13.960  29.179  13.802  1.00  0.00    -0.080 C 
ATOM     10  C   UNL     1     -13.320  28.559  12.587  1.00  0.00     0.039 C 
ENDBRANCH   6   7
ENDBRANCH   5   6
ENDBRANCH   3   5
ENDBRANCH   1   2
BRANCH   1  11
ATOM     11  C   UNL     1     -16.799  25.284  18.345  1.00  0.00     0.034 C 
BRANCH  11  12
ATOM     12  C   UNL     1     -15.592  24.509  18.836  1.00  0.00    -0.077 C 
ATOM     13  C   UNL     1     -14.723  23.892  18.002  1.00  0.00    -0.028 C 
ATOM     14  C   UNL     1     -15.306  24.482  20.315  1.00  0.00     0.039 C 
BRANCH  13  15
ATOM     15  C   UNL     1     -14.870  23.822  16.503  1.00  0.00     0.035 C 
BRANCH  15  16
ATOM     16  C   UNL     1     -14.081  24.949  15.827  1.00  0.00     0.079 C 
BRANCH  16  17
ATOM     17  C   UNL     1     -14.716  25.331  14.518  1.00  0.00     0.130 C 
ATOM     18  O   UNL     1     -14.111  25.147  13.472  1.00  0.00    -0.300 OA
ATOM     19  C   UNL     1     -16.076  25.960  14.488  1.00  0.00     0.087 C 
ENDBRANCH  16  17
ENDBRANCH  15  16
ENDBRANCH  13  15
ENDBRANCH  11  12
ENDBRANCH   1  11
TORSDOF 9
ENDMDL
