MODEL 1
REMARK VINA RESULT:    -4.172      0.000      0.000
REMARK INTER + INTRA:         -10.807
REMARK INTER:                  -8.075
REMARK INTRA:                  -2.732
REMARK UNBOUND:                -2.732
REMARK SMILES CCCCCCCCCCCCCCCCCC(=O)[O-]
REMARK SMILES IDX 10 1 11 2 12 3 13 4 14 5 15 6 16 7 17 8 18 9 19 10 20 11
REMARK SMILES IDX 9 12 8 13 7 14 6 15 5 16 4 17 3 18 2 19 1 20
REMARK H PARENT
REMARK Flexibility Score: inf
ROOT
ATOM      1  C   UNL     1     131.109 141.276 138.745  1.00  0.00     0.000 C 
ENDROOT
BRANCH   1   2
ATOM      2  C   UNL     1     131.534 140.967 140.190  1.00  0.00     0.000 C 
BRANCH   2   3
ATOM      3  C   UNL     1     130.654 141.680 141.232  1.00  0.00     0.000 C 
BRANCH   3   4
ATOM      4  C   UNL     1     129.539 140.774 141.779  1.00  0.00     0.000 C 
BRANCH   4   5
ATOM      5  C   UNL     1     128.135 141.337 141.504  1.00  0.00     0.000 C 
BRANCH   5   6
ATOM      6  C   UNL     1     128.163 142.788 140.995  1.00  0.00     0.000 C 
BRANCH   6   7
ATOM      7  C   UNL     1     127.329 143.009 139.715  1.00  0.00     0.006 C 
BRANCH   7   8
ATOM      8  C   UNL     1     126.510 144.307 139.772  1.00  0.00     0.053 C 
BRANCH   8   9
ATOM      9  C   UNL     1     126.104 144.729 138.396  1.00  0.00     0.041 C 
ATOM     10  O   UNL     1     126.014 143.879 137.472  1.00  0.00    -0.550 OA
ATOM     11  O   UNL     1     125.777 146.056 138.144  1.00  0.00    -0.550 OA
ENDBRANCH   8   9
ENDBRANCH   7   8
ENDBRANCH   6   7
ENDBRANCH   5   6
ENDBRANCH   4   5
ENDBRANCH   3   4
ENDBRANCH   2   3
ENDBRANCH   1   2
BRANCH   1  12
ATOM     12  C   UNL     1     130.522 140.048 138.028  1.00  0.00     0.000 C 
BRANCH  12  13
ATOM     13  C   UNL     1     128.994 139.951 138.182  1.00  0.00    -0.000 C 
BRANCH  13  14
ATOM     14  C   UNL     1     128.379 138.837 137.316  1.00  0.00    -0.000 C 
BRANCH  14  15
ATOM     15  C   UNL     1     127.905 137.634 138.149  1.00  0.00    -0.000 C 
BRANCH  15  16
ATOM     16  C   UNL     1     128.143 137.831 139.655  1.00  0.00    -0.000 C 
BRANCH  16  17
ATOM     17  C   UNL     1     129.125 136.800 140.237  1.00  0.00    -0.000 C 
BRANCH  17  18
ATOM     18  C   UNL     1     130.501 137.408 140.561  1.00  0.00    -0.000 C 
BRANCH  18  19
ATOM     19  C   UNL     1     131.652 136.654 139.879  1.00  0.00    -0.003 C 
ATOM     20  C   UNL     1     131.362 136.335 138.412  1.00  0.00     0.004 C 
ENDBRANCH  18  19
ENDBRANCH  17  18
ENDBRANCH  16  17
ENDBRANCH  15  16
ENDBRANCH  14  15
ENDBRANCH  13  14
ENDBRANCH  12  13
ENDBRANCH   1  12
TORSDOF 16
ENDMDL
MODEL 2
REMARK VINA RESULT:    -4.171      3.028      5.314
REMARK INTER + INTRA:         -10.804
REMARK INTER:                  -8.642
REMARK INTRA:                  -2.162
REMARK UNBOUND:                -2.732
REMARK SMILES CCCCCCCCCCCCCCCCCC(=O)[O-]
REMARK SMILES IDX 10 1 11 2 12 3 13 4 14 5 15 6 16 7 17 8 18 9 19 10 20 11
REMARK SMILES IDX 9 12 8 13 7 14 6 15 5 16 4 17 3 18 2 19 1 20
REMARK H PARENT
REMARK Flexibility Score: inf
ROOT
ATOM      1  C   UNL     1     128.321 142.705 141.133  1.00  0.00     0.000 C 
ENDROOT
BRANCH   1   2
ATOM      2  C   UNL     1     127.263 143.179 140.124  1.00  0.00     0.000 C 
BRANCH   2   3
ATOM      3  C   UNL     1     127.584 142.753 138.681  1.00  0.00     0.000 C 
BRANCH   3   4
ATOM      4  C   UNL     1     126.417 143.014 137.716  1.00  0.00     0.000 C 
BRANCH   4   5
ATOM      5  C   UNL     1     126.018 141.759 136.922  1.00  0.00     0.000 C 
BRANCH   5   6
ATOM      6  C   UNL     1     125.056 142.067 135.762  1.00  0.00     0.000 C 
BRANCH   6   7
ATOM      7  C   UNL     1     124.241 140.843 135.295  1.00  0.00     0.006 C 
BRANCH   7   8
ATOM      8  C   UNL     1     124.718 139.541 135.954  1.00  0.00     0.053 C 
BRANCH   8   9
ATOM      9  C   UNL     1     125.054 138.521 134.913  1.00  0.00     0.041 C 
ATOM     10  O   UNL     1     126.053 137.769 135.061  1.00  0.00    -0.550 OA
ATOM     11  O   UNL     1     124.236 138.367 133.801  1.00  0.00    -0.550 OA
ENDBRANCH   8   9
ENDBRANCH   7   8
ENDBRANCH   6   7
ENDBRANCH   5   6
ENDBRANCH   4   5
ENDBRANCH   3   4
ENDBRANCH   2   3
ENDBRANCH   1   2
BRANCH   1  12
ATOM     12  C   UNL     1     128.306 141.179 141.330  1.00  0.00     0.000 C 
BRANCH  12  13
ATOM     13  C   UNL     1     129.721 140.577 141.377  1.00  0.00    -0.000 C 
BRANCH  13  14
ATOM     14  C   UNL     1     130.806 141.577 140.938  1.00  0.00    -0.000 C 
BRANCH  14  15
ATOM     15  C   UNL     1     131.569 141.111 139.687  1.00  0.00    -0.000 C 
BRANCH  15  16
ATOM     16  C   UNL     1     130.642 140.886 138.481  1.00  0.00    -0.000 C 
BRANCH  16  17
ATOM     17  C   UNL     1     130.794 139.482 137.873  1.00  0.00    -0.000 C 
BRANCH  17  18
ATOM     18  C   UNL     1     129.476 138.944 137.287  1.00  0.00    -0.000 C 
BRANCH  18  19
ATOM     19  C   UNL     1     128.275 139.199 138.209  1.00  0.00    -0.003 C 
ATOM     20  C   UNL     1     127.900 137.974 139.042  1.00  0.00     0.004 C 
ENDBRANCH  18  19
ENDBRANCH  17  18
ENDBRANCH  16  17
ENDBRANCH  15  16
ENDBRANCH  14  15
ENDBRANCH  13  14
ENDBRANCH  12  13
ENDBRANCH   1  12
TORSDOF 16
ENDMDL
MODEL 3
REMARK VINA RESULT:    -4.147      2.907      6.112
REMARK INTER + INTRA:         -10.758
REMARK INTER:                  -8.865
REMARK INTRA:                  -1.893
REMARK UNBOUND:                -2.732
REMARK SMILES CCCCCCCCCCCCCCCCCC(=O)[O-]
REMARK SMILES IDX 10 1 11 2 12 3 13 4 14 5 15 6 16 7 17 8 18 9 19 10 20 11
REMARK SMILES IDX 9 12 8 13 7 14 6 15 5 16 4 17 3 18 2 19 1 20
REMARK H PARENT
REMARK Flexibility Score: inf
ROOT
ATOM      1  C   UNL     1     126.532 142.751 137.591  1.00  0.00     0.000 C 
ENDROOT
BRANCH   1   2
ATOM      2  C   UNL     1     125.794 142.949 136.257  1.00  0.00     0.000 C 
BRANCH   2   3
ATOM      3  C   UNL     1     125.080 141.672 135.778  1.00  0.00     0.000 C 
BRANCH   3   4
ATOM      4  C   UNL     1     125.343 140.470 136.698  1.00  0.00     0.000 C 
BRANCH   4   5
ATOM      5  C   UNL     1     125.354 139.135 135.935  1.00  0.00     0.000 C 
BRANCH   5   6
ATOM      6  C   UNL     1     126.631 138.316 136.183  1.00  0.00     0.000 C 
BRANCH   6   7
ATOM      7  C   UNL     1     127.654 139.027 137.094  1.00  0.00     0.006 C 
BRANCH   7   8
ATOM      8  C   UNL     1     128.749 138.074 137.594  1.00  0.00     0.053 C 
BRANCH   8   9
ATOM      9  C   UNL     1     128.484 137.671 139.010  1.00  0.00     0.041 C 
ATOM     10  O   UNL     1     128.724 136.496 139.391  1.00  0.00    -0.550 OA
ATOM     11  O   UNL     1     128.017 138.608 139.924  1.00  0.00    -0.550 OA
ENDBRANCH   8   9
ENDBRANCH   7   8
ENDBRANCH   6   7
ENDBRANCH   5   6
ENDBRANCH   4   5
ENDBRANCH   3   4
ENDBRANCH   2   3
ENDBRANCH   1   2
BRANCH   1  12
ATOM     12  C   UNL     1     126.312 143.921 138.566  1.00  0.00     0.000 C 
BRANCH  12  13
ATOM     13  C   UNL     1     126.289 143.466 140.035  1.00  0.00    -0.000 C 
BRANCH  13  14
ATOM     14  C   UNL     1     127.657 142.955 140.520  1.00  0.00    -0.000 C 
BRANCH  14  15
ATOM     15  C   UNL     1     127.534 141.906 141.638  1.00  0.00    -0.000 C 
BRANCH  15  16
ATOM     16  C   UNL     1     128.894 141.308 142.036  1.00  0.00    -0.000 C 
BRANCH  16  17
ATOM     17  C   UNL     1     130.079 142.141 141.519  1.00  0.00    -0.000 C 
BRANCH  17  18
ATOM     18  C   UNL     1     131.279 141.272 141.102  1.00  0.00    -0.000 C 
BRANCH  18  19
ATOM     19  C   UNL     1     131.006 140.467 139.823  1.00  0.00    -0.003 C 
ATOM     20  C   UNL     1     130.474 141.334 138.682  1.00  0.00     0.004 C 
ENDBRANCH  18  19
ENDBRANCH  17  18
ENDBRANCH  16  17
ENDBRANCH  15  16
ENDBRANCH  14  15
ENDBRANCH  13  14
ENDBRANCH  12  13
ENDBRANCH   1  12
TORSDOF 16
ENDMDL
MODEL 4
REMARK VINA RESULT:    -4.117      7.135      9.651
REMARK INTER + INTRA:         -10.700
REMARK INTER:                  -8.070
REMARK INTRA:                  -2.631
REMARK UNBOUND:                -2.732
REMARK SMILES CCCCCCCCCCCCCCCCCC(=O)[O-]
REMARK SMILES IDX 10 1 11 2 12 3 13 4 14 5 15 6 16 7 17 8 18 9 19 10 20 11
REMARK SMILES IDX 9 12 8 13 7 14 6 15 5 16 4 17 3 18 2 19 1 20
REMARK H PARENT
REMARK Flexibility Score: inf
ROOT
ATOM      1  C   UNL     1     138.233 136.826 139.168  1.00  0.00     0.000 C 
ENDROOT
BRANCH   1   2
ATOM      2  C   UNL     1     136.862 136.741 139.856  1.00  0.00     0.000 C 
BRANCH   2   3
ATOM      3  C   UNL     1     136.932 137.060 141.360  1.00  0.00     0.000 C 
BRANCH   3   4
ATOM      4  C   UNL     1     136.036 138.246 141.753  1.00  0.00     0.000 C 
BRANCH   4   5
ATOM      5  C   UNL     1     136.478 139.562 141.093  1.00  0.00     0.000 C 
BRANCH   5   6
ATOM      6  C   UNL     1     135.352 140.609 141.035  1.00  0.00     0.000 C 
BRANCH   6   7
ATOM      7  C   UNL     1     133.938 140.002 141.153  1.00  0.00     0.006 C 
BRANCH   7   8
ATOM      8  C   UNL     1     133.262 139.836 139.785  1.00  0.00     0.053 C 
BRANCH   8   9
ATOM      9  C   UNL     1     133.352 138.415 139.326  1.00  0.00     0.041 C 
ATOM     10  O   UNL     1     134.066 138.113 138.335  1.00  0.00    -0.550 OA
ATOM     11  O   UNL     1     132.686 137.415 140.024  1.00  0.00    -0.550 OA
ENDBRANCH   8   9
ENDBRANCH   7   8
ENDBRANCH   6   7
ENDBRANCH   5   6
ENDBRANCH   4   5
ENDBRANCH   3   4
ENDBRANCH   2   3
ENDBRANCH   1   2
BRANCH   1  12
ATOM     12  C   UNL     1     139.380 137.068 140.164  1.00  0.00     0.000 C 
BRANCH  12  13
ATOM     13  C   UNL     1     140.589 136.152 139.905  1.00  0.00    -0.000 C 
BRANCH  13  14
ATOM     14  C   UNL     1     141.086 135.451 141.181  1.00  0.00    -0.000 C 
BRANCH  14  15
ATOM     15  C   UNL     1     139.937 134.892 142.037  1.00  0.00    -0.000 C 
BRANCH  15  16
ATOM     16  C   UNL     1     139.473 133.504 141.566  1.00  0.00    -0.000 C 
BRANCH  16  17
ATOM     17  C   UNL     1     138.076 133.535 140.924  1.00  0.00    -0.000 C 
BRANCH  17  18
ATOM     18  C   UNL     1     138.082 133.044 139.466  1.00  0.00    -0.000 C 
BRANCH  18  19
ATOM     19  C   UNL     1     139.487 133.052 138.848  1.00  0.00    -0.003 C 
ATOM     20  C   UNL     1     139.519 133.698 137.462  1.00  0.00     0.004 C 
ENDBRANCH  18  19
ENDBRANCH  17  18
ENDBRANCH  16  17
ENDBRANCH  15  16
ENDBRANCH  14  15
ENDBRANCH  13  14
ENDBRANCH  12  13
ENDBRANCH   1  12
TORSDOF 16
ENDMDL
MODEL 5
REMARK VINA RESULT:    -4.104      7.064     10.248
REMARK INTER + INTRA:         -10.675
REMARK INTER:                  -8.749
REMARK INTRA:                  -1.926
REMARK UNBOUND:                -2.732
REMARK SMILES CCCCCCCCCCCCCCCCCC(=O)[O-]
REMARK SMILES IDX 10 1 11 2 12 3 13 4 14 5 15 6 16 7 17 8 18 9 19 10 20 11
REMARK SMILES IDX 9 12 8 13 7 14 6 15 5 16 4 17 3 18 2 19 1 20
REMARK H PARENT
REMARK Flexibility Score: inf
ROOT
ATOM      1  C   UNL     1     135.846 135.932 140.539  1.00  0.00     0.000 C 
ENDROOT
BRANCH   1   2
ATOM      2  C   UNL     1     134.770 137.022 140.669  1.00  0.00     0.000 C 
BRANCH   2   3
ATOM      3  C   UNL     1     134.130 137.390 139.318  1.00  0.00     0.000 C 
BRANCH   3   4
ATOM      4  C   UNL     1     132.600 137.500 139.402  1.00  0.00     0.000 C 
BRANCH   4   5
ATOM      5  C   UNL     1     131.919 136.132 139.570  1.00  0.00     0.000 C 
BRANCH   5   6
ATOM      6  C   UNL     1     132.357 135.112 138.504  1.00  0.00     0.000 C 
BRANCH   6   7
ATOM      7  C   UNL     1     132.932 133.808 139.097  1.00  0.00     0.006 C 
BRANCH   7   8
ATOM      8  C   UNL     1     132.000 132.608 138.873  1.00  0.00     0.053 C 
BRANCH   8   9
ATOM      9  C   UNL     1     131.285 132.259 140.139  1.00  0.00     0.041 C 
ATOM     10  O   UNL     1     130.027 132.274 140.182  1.00  0.00    -0.550 OA
ATOM     11  O   UNL     1     132.006 131.869 141.260  1.00  0.00    -0.550 OA
ENDBRANCH   8   9
ENDBRANCH   7   8
ENDBRANCH   6   7
ENDBRANCH   5   6
ENDBRANCH   4   5
ENDBRANCH   3   4
ENDBRANCH   2   3
ENDBRANCH   1   2
BRANCH   1  12
ATOM     12  C   UNL     1     137.008 136.130 141.528  1.00  0.00     0.000 C 
BRANCH  12  13
ATOM     13  C   UNL     1     138.166 136.940 140.921  1.00  0.00    -0.000 C 
BRANCH  13  14
ATOM     14  C   UNL     1     138.251 136.802 139.391  1.00  0.00    -0.000 C 
BRANCH  14  15
ATOM     15  C   UNL     1     139.668 136.459 138.904  1.00  0.00    -0.000 C 
BRANCH  15  16
ATOM     16  C   UNL     1     140.588 135.999 140.048  1.00  0.00    -0.000 C 
BRANCH  16  17
ATOM     17  C   UNL     1     141.092 134.559 139.857  1.00  0.00    -0.000 C 
BRANCH  17  18
ATOM     18  C   UNL     1     140.229 133.755 138.867  1.00  0.00    -0.000 C 
BRANCH  18  19
ATOM     19  C   UNL     1     139.096 132.987 139.564  1.00  0.00    -0.003 C 
ATOM     20  C   UNL     1     137.765 133.095 138.820  1.00  0.00     0.004 C 
ENDBRANCH  18  19
ENDBRANCH  17  18
ENDBRANCH  16  17
ENDBRANCH  15  16
ENDBRANCH  14  15
ENDBRANCH  13  14
ENDBRANCH  12  13
ENDBRANCH   1  12
TORSDOF 16
ENDMDL
MODEL 6
REMARK VINA RESULT:    -4.097      1.638      2.229
REMARK INTER + INTRA:         -10.661
REMARK INTER:                  -8.765
REMARK INTRA:                  -1.896
REMARK UNBOUND:                -2.732
REMARK SMILES CCCCCCCCCCCCCCCCCC(=O)[O-]
REMARK SMILES IDX 10 1 11 2 12 3 13 4 14 5 15 6 16 7 17 8 18 9 19 10 20 11
REMARK SMILES IDX 9 12 8 13 7 14 6 15 5 16 4 17 3 18 2 19 1 20
REMARK H PARENT
REMARK Flexibility Score: inf
ROOT
ATOM      1  C   UNL     1     130.988 140.344 138.063  1.00  0.00     0.000 C 
ENDROOT
BRANCH   1   2
ATOM      2  C   UNL     1     131.994 139.951 139.157  1.00  0.00     0.000 C 
BRANCH   2   3
ATOM      3  C   UNL     1     131.692 140.620 140.509  1.00  0.00     0.000 C 
BRANCH   3   4
ATOM      4  C   UNL     1     130.472 140.006 141.211  1.00  0.00     0.000 C 
BRANCH   4   5
ATOM      5  C   UNL     1     129.743 141.013 142.116  1.00  0.00     0.000 C 
BRANCH   5   6
ATOM      6  C   UNL     1     129.475 142.357 141.418  1.00  0.00     0.000 C 
BRANCH   6   7
ATOM      7  C   UNL     1     128.022 142.516 140.923  1.00  0.00     0.006 C 
BRANCH   7   8
ATOM      8  C   UNL     1     127.886 142.234 139.420  1.00  0.00     0.053 C 
BRANCH   8   9
ATOM      9  C   UNL     1     126.791 143.064 138.829  1.00  0.00     0.041 C 
ATOM     10  O   UNL     1     126.122 143.842 139.556  1.00  0.00    -0.550 OA
ATOM     11  O   UNL     1     126.541 143.014 137.463  1.00  0.00    -0.550 OA
ENDBRANCH   8   9
ENDBRANCH   7   8
ENDBRANCH   6   7
ENDBRANCH   5   6
ENDBRANCH   4   5
ENDBRANCH   3   4
ENDBRANCH   2   3
ENDBRANCH   1   2
BRANCH   1  12
ATOM     12  C   UNL     1     130.378 139.122 137.354  1.00  0.00     0.000 C 
BRANCH  12  13
ATOM     13  C   UNL     1     128.873 138.971 137.631  1.00  0.00    -0.000 C 
BRANCH  13  14
ATOM     14  C   UNL     1     128.573 137.957 138.749  1.00  0.00    -0.000 C 
BRANCH  14  15
ATOM     15  C   UNL     1     129.725 136.964 138.973  1.00  0.00    -0.000 C 
BRANCH  15  16
ATOM     16  C   UNL     1     129.241 135.619 139.539  1.00  0.00    -0.000 C 
BRANCH  16  17
ATOM     17  C   UNL     1     130.403 134.677 139.898  1.00  0.00    -0.000 C 
BRANCH  17  18
ATOM     18  C   UNL     1     131.654 134.924 139.036  1.00  0.00    -0.000 C 
BRANCH  18  19
ATOM     19  C   UNL     1     132.437 133.633 138.753  1.00  0.00    -0.003 C 
ATOM     20  C   UNL     1     131.676 132.377 139.176  1.00  0.00     0.004 C 
ENDBRANCH  18  19
ENDBRANCH  17  18
ENDBRANCH  16  17
ENDBRANCH  15  16
ENDBRANCH  14  15
ENDBRANCH  13  14
ENDBRANCH  12  13
ENDBRANCH   1  12
TORSDOF 16
ENDMDL
MODEL 7
REMARK VINA RESULT:    -4.064      3.451      6.321
REMARK INTER + INTRA:         -10.597
REMARK INTER:                  -8.537
REMARK INTRA:                  -2.059
REMARK UNBOUND:                -2.732
REMARK SMILES CCCCCCCCCCCCCCCCCC(=O)[O-]
REMARK SMILES IDX 10 1 11 2 12 3 13 4 14 5 15 6 16 7 17 8 18 9 19 10 20 11
REMARK SMILES IDX 9 12 8 13 7 14 6 15 5 16 4 17 3 18 2 19 1 20
REMARK H PARENT
REMARK Flexibility Score: inf
ROOT
ATOM      1  C   UNL     1     127.240 142.658 138.223  1.00  0.00     0.000 C 
ENDROOT
BRANCH   1   2
ATOM      2  C   UNL     1     126.362 141.854 137.250  1.00  0.00     0.000 C 
BRANCH   2   3
ATOM      3  C   UNL     1     125.739 142.731 136.149  1.00  0.00     0.000 C 
BRANCH   3   4
ATOM      4  C   UNL     1     124.628 142.004 135.376  1.00  0.00     0.000 C 
BRANCH   4   5
ATOM      5  C   UNL     1     124.508 140.523 135.771  1.00  0.00     0.000 C 
BRANCH   5   6
ATOM      6  C   UNL     1     124.012 139.636 134.616  1.00  0.00     0.000 C 
BRANCH   6   7
ATOM      7  C   UNL     1     124.632 138.222 134.614  1.00  0.00     0.006 C 
BRANCH   7   8
ATOM      8  C   UNL     1     125.986 138.180 135.336  1.00  0.00     0.053 C 
BRANCH   8   9
ATOM      9  C   UNL     1     125.972 137.143 136.413  1.00  0.00     0.041 C 
ATOM     10  O   UNL     1     126.546 136.037 136.237  1.00  0.00    -0.550 OA
ATOM     11  O   UNL     1     125.365 137.416 137.633  1.00  0.00    -0.550 OA
ENDBRANCH   8   9
ENDBRANCH   7   8
ENDBRANCH   6   7
ENDBRANCH   5   6
ENDBRANCH   4   5
ENDBRANCH   3   4
ENDBRANCH   2   3
ENDBRANCH   1   2
BRANCH   1  12
ATOM     12  C   UNL     1     126.412 143.430 139.265  1.00  0.00     0.000 C 
BRANCH  12  13
ATOM     13  C   UNL     1     126.906 143.194 140.702  1.00  0.00    -0.000 C 
BRANCH  13  14
ATOM     14  C   UNL     1     127.920 142.040 140.800  1.00  0.00    -0.000 C 
BRANCH  14  15
ATOM     15  C   UNL     1     129.265 142.484 141.397  1.00  0.00    -0.000 C 
BRANCH  15  16
ATOM     16  C   UNL     1     130.446 141.647 140.875  1.00  0.00    -0.000 C 
BRANCH  16  17
ATOM     17  C   UNL     1     130.472 141.558 139.340  1.00  0.00    -0.000 C 
BRANCH  17  18
ATOM     18  C   UNL     1     130.689 140.121 138.833  1.00  0.00    -0.000 C 
BRANCH  18  19
ATOM     19  C   UNL     1     129.534 139.630 137.946  1.00  0.00    -0.003 C 
ATOM     20  C   UNL     1     128.389 139.018 138.753  1.00  0.00     0.004 C 
ENDBRANCH  18  19
ENDBRANCH  17  18
ENDBRANCH  16  17
ENDBRANCH  15  16
ENDBRANCH  14  15
ENDBRANCH  13  14
ENDBRANCH  12  13
ENDBRANCH   1  12
TORSDOF 16
ENDMDL
MODEL 8
REMARK VINA RESULT:    -4.040      4.439      7.544
REMARK INTER + INTRA:         -10.552
REMARK INTER:                  -8.613
REMARK INTRA:                  -1.939
REMARK UNBOUND:                -2.732
REMARK SMILES CCCCCCCCCCCCCCCCCC(=O)[O-]
REMARK SMILES IDX 10 1 11 2 12 3 13 4 14 5 15 6 16 7 17 8 18 9 19 10 20 11
REMARK SMILES IDX 9 12 8 13 7 14 6 15 5 16 4 17 3 18 2 19 1 20
REMARK H PARENT
REMARK Flexibility Score: inf
ROOT
ATOM      1  C   UNL     1     131.431 139.417 138.321  1.00  0.00     0.000 C 
ENDROOT
BRANCH   1   2
ATOM      2  C   UNL     1     132.557 139.317 139.363  1.00  0.00     0.000 C 
BRANCH   2   3
ATOM      3  C   UNL     1     132.032 139.003 140.776  1.00  0.00     0.000 C 
BRANCH   3   4
ATOM      4  C   UNL     1     132.491 140.036 141.817  1.00  0.00     0.000 C 
BRANCH   4   5
ATOM      5  C   UNL     1     133.354 141.149 141.202  1.00  0.00     0.000 C 
BRANCH   5   6
ATOM      6  C   UNL     1     134.705 141.322 141.919  1.00  0.00     0.000 C 
BRANCH   6   7
ATOM      7  C   UNL     1     135.911 140.834 141.089  1.00  0.00     0.006 C 
BRANCH   7   8
ATOM      8  C   UNL     1     136.089 139.311 141.162  1.00  0.00     0.053 C 
BRANCH   8   9
ATOM      9  C   UNL     1     136.267 138.738 139.792  1.00  0.00     0.041 C 
ATOM     10  O   UNL     1     135.981 139.424 138.776  1.00  0.00    -0.550 OA
ATOM     11  O   UNL     1     136.794 137.463 139.635  1.00  0.00    -0.550 OA
ENDBRANCH   8   9
ENDBRANCH   7   8
ENDBRANCH   6   7
ENDBRANCH   5   6
ENDBRANCH   4   5
ENDBRANCH   3   4
ENDBRANCH   2   3
ENDBRANCH   1   2
BRANCH   1  12
ATOM     12  C   UNL     1     130.481 140.596 138.591  1.00  0.00     0.000 C 
BRANCH  12  13
ATOM     13  C   UNL     1     129.021 140.147 138.770  1.00  0.00    -0.000 C 
BRANCH  13  14
ATOM     14  C   UNL     1     128.462 140.482 140.164  1.00  0.00    -0.000 C 
BRANCH  14  15
ATOM     15  C   UNL     1     129.280 141.567 140.884  1.00  0.00    -0.000 C 
BRANCH  15  16
ATOM     16  C   UNL     1     128.500 142.882 141.046  1.00  0.00    -0.000 C 
BRANCH  16  17
ATOM     17  C   UNL     1     127.047 142.771 140.553  1.00  0.00    -0.000 C 
BRANCH  17  18
ATOM     18  C   UNL     1     126.771 143.648 139.318  1.00  0.00    -0.000 C 
BRANCH  18  19
ATOM     19  C   UNL     1     126.150 145.004 139.687  1.00  0.00    -0.003 C 
ATOM     20  C   UNL     1     125.868 145.876 138.464  1.00  0.00     0.004 C 
ENDBRANCH  18  19
ENDBRANCH  17  18
ENDBRANCH  16  17
ENDBRANCH  15  16
ENDBRANCH  14  15
ENDBRANCH  13  14
ENDBRANCH  12  13
ENDBRANCH   1  12
TORSDOF 16
ENDMDL
MODEL 9
REMARK VINA RESULT:    -3.995      7.490     10.724
REMARK INTER + INTRA:         -10.464
REMARK INTER:                  -8.793
REMARK INTRA:                  -1.671
REMARK UNBOUND:                -2.732
REMARK SMILES CCCCCCCCCCCCCCCCCC(=O)[O-]
REMARK SMILES IDX 10 1 11 2 12 3 13 4 14 5 15 6 16 7 17 8 18 9 19 10 20 11
REMARK SMILES IDX 9 12 8 13 7 14 6 15 5 16 4 17 3 18 2 19 1 20
REMARK H PARENT
REMARK Flexibility Score: inf
ROOT
ATOM      1  C   UNL     1     135.669 136.186 139.986  1.00  0.00     0.000 C 
ENDROOT
BRANCH   1   2
ATOM      2  C   UNL     1     137.139 136.441 140.360  1.00  0.00     0.000 C 
BRANCH   2   3
ATOM      3  C   UNL     1     138.003 136.820 139.144  1.00  0.00     0.000 C 
BRANCH   3   4
ATOM      4  C   UNL     1     139.508 136.757 139.449  1.00  0.00     0.000 C 
BRANCH   4   5
ATOM      5  C   UNL     1     139.798 136.301 140.888  1.00  0.00     0.000 C 
BRANCH   5   6
ATOM      6  C   UNL     1     140.369 134.874 140.959  1.00  0.00     0.000 C 
BRANCH   6   7
ATOM      7  C   UNL     1     140.763 134.298 139.582  1.00  0.00     0.006 C 
BRANCH   7   8
ATOM      8  C   UNL     1     139.978 133.025 139.238  1.00  0.00     0.053 C 
BRANCH   8   9
ATOM      9  C   UNL     1     138.825 133.348 138.341  1.00  0.00     0.041 C 
ATOM     10  O   UNL     1     137.644 133.245 138.763  1.00  0.00    -0.550 OA
ATOM     11  O   UNL     1     139.056 133.810 137.051  1.00  0.00    -0.550 OA
ENDBRANCH   8   9
ENDBRANCH   7   8
ENDBRANCH   6   7
ENDBRANCH   5   6
ENDBRANCH   4   5
ENDBRANCH   3   4
ENDBRANCH   2   3
ENDBRANCH   1   2
BRANCH   1  12
ATOM     12  C   UNL     1     134.743 137.338 140.413  1.00  0.00     0.000 C 
BRANCH  12  13
ATOM     13  C   UNL     1     134.272 138.187 139.220  1.00  0.00    -0.000 C 
BRANCH  13  14
ATOM     14  C   UNL     1     132.809 138.642 139.356  1.00  0.00    -0.000 C 
BRANCH  14  15
ATOM     15  C   UNL     1     131.879 137.959 138.339  1.00  0.00    -0.000 C 
BRANCH  15  16
ATOM     16  C   UNL     1     132.527 136.728 137.684  1.00  0.00    -0.000 C 
BRANCH  16  17
ATOM     17  C   UNL     1     131.773 135.426 138.001  1.00  0.00    -0.000 C 
BRANCH  17  18
ATOM     18  C   UNL     1     132.545 134.514 138.972  1.00  0.00    -0.000 C 
BRANCH  18  19
ATOM     19  C   UNL     1     132.192 133.031 138.792  1.00  0.00    -0.003 C 
ATOM     20  C   UNL     1     131.724 132.373 140.090  1.00  0.00     0.004 C 
ENDBRANCH  18  19
ENDBRANCH  17  18
ENDBRANCH  16  17
ENDBRANCH  15  16
ENDBRANCH  14  15
ENDBRANCH  13  14
ENDBRANCH  12  13
ENDBRANCH   1  12
TORSDOF 16
ENDMDL
