MODEL 1
REMARK VINA RESULT:    -4.401      0.000      0.000
REMARK INTER + INTRA:         -11.112
REMARK INTER:                  -8.518
REMARK INTRA:                  -2.594
REMARK UNBOUND:                -2.594
REMARK SMILES CCCCCCCCCCCCCCCCCC(=O)[O-]
REMARK SMILES IDX 10 1 11 2 12 3 13 4 14 5 15 6 16 7 17 8 18 9 19 10 20 11
REMARK SMILES IDX 9 12 8 13 7 14 6 15 5 16 4 17 3 18 2 19 1 20
REMARK H PARENT
REMARK Flexibility Score: inf
ROOT
ATOM      1  C   UNL     1      14.083 -17.736  15.027  1.00  0.00     0.000 C 
ENDROOT
BRANCH   1   2
ATOM      2  C   UNL     1      13.745 -16.597  16.001  1.00  0.00     0.000 C 
BRANCH   2   3
ATOM      3  C   UNL     1      12.409 -15.940  15.627  1.00  0.00     0.000 C 
BRANCH   3   4
ATOM      4  C   UNL     1      11.864 -16.419  14.273  1.00  0.00     0.000 C 
BRANCH   4   5
ATOM      5  C   UNL     1      11.051 -15.340  13.543  1.00  0.00     0.000 C 
BRANCH   5   6
ATOM      6  C   UNL     1      10.693 -15.788  12.120  1.00  0.00     0.000 C 
BRANCH   6   7
ATOM      7  C   UNL     1      11.873 -16.508  11.458  1.00  0.00     0.006 C 
BRANCH   7   8
ATOM      8  C   UNL     1      11.513 -16.973  10.044  1.00  0.00     0.053 C 
BRANCH   8   9
ATOM      9  C   UNL     1      12.160 -16.093   9.022  1.00  0.00     0.041 C 
ATOM     10  O   UNL     1      11.960 -16.294   7.796  1.00  0.00    -0.550 OA
ATOM     11  O   UNL     1      12.947 -15.021   9.424  1.00  0.00    -0.550 OA
ENDBRANCH   8   9
ENDBRANCH   7   8
ENDBRANCH   6   7
ENDBRANCH   5   6
ENDBRANCH   4   5
ENDBRANCH   3   4
ENDBRANCH   2   3
ENDBRANCH   1   2
BRANCH   1  12
ATOM     12  C   UNL     1      15.435 -17.539  14.323  1.00  0.00     0.000 C 
BRANCH  12  13
ATOM     13  C   UNL     1      15.340 -17.232  12.816  1.00  0.00    -0.000 C 
BRANCH  13  14
ATOM     14  C   UNL     1      15.791 -15.802  12.443  1.00  0.00    -0.000 C 
BRANCH  14  15
ATOM     15  C   UNL     1      14.718 -14.748  12.769  1.00  0.00    -0.000 C 
BRANCH  15  16
ATOM     16  C   UNL     1      15.245 -13.651  13.719  1.00  0.00    -0.000 C 
BRANCH  16  17
ATOM     17  C   UNL     1      14.193 -13.144  14.720  1.00  0.00    -0.000 C 
BRANCH  17  18
ATOM     18  C   UNL     1      14.118 -11.610  14.778  1.00  0.00    -0.000 C 
BRANCH  18  19
ATOM     19  C   UNL     1      12.684 -11.103  15.005  1.00  0.00    -0.003 C 
ATOM     20  C   UNL     1      11.719 -12.221  15.396  1.00  0.00     0.004 C 
ENDBRANCH  18  19
ENDBRANCH  17  18
ENDBRANCH  16  17
ENDBRANCH  15  16
ENDBRANCH  14  15
ENDBRANCH  13  14
ENDBRANCH  12  13
ENDBRANCH   1  12
TORSDOF 16
ENDMDL
MODEL 2
REMARK VINA RESULT:    -4.381      3.225      5.773
REMARK INTER + INTRA:         -11.074
REMARK INTER:                  -8.960
REMARK INTRA:                  -2.113
REMARK UNBOUND:                -2.594
REMARK SMILES CCCCCCCCCCCCCCCCCC(=O)[O-]
REMARK SMILES IDX 10 1 11 2 12 3 13 4 14 5 15 6 16 7 17 8 18 9 19 10 20 11
REMARK SMILES IDX 9 12 8 13 7 14 6 15 5 16 4 17 3 18 2 19 1 20
REMARK H PARENT
REMARK Flexibility Score: inf
ROOT
ATOM      1  C   UNL     1      14.608 -16.668  14.994  1.00  0.00     0.000 C 
ENDROOT
BRANCH   1   2
ATOM      2  C   UNL     1      15.271 -15.718  13.987  1.00  0.00     0.000 C 
BRANCH   2   3
ATOM      3  C   UNL     1      15.240 -14.271  14.502  1.00  0.00     0.000 C 
BRANCH   3   4
ATOM      4  C   UNL     1      15.092 -13.238  13.374  1.00  0.00     0.000 C 
BRANCH   4   5
ATOM      5  C   UNL     1      15.960 -11.989  13.595  1.00  0.00     0.000 C 
BRANCH   5   6
ATOM      6  C   UNL     1      15.437 -10.804  12.774  1.00  0.00     0.000 C 
BRANCH   6   7
ATOM      7  C   UNL     1      15.054  -9.632  13.685  1.00  0.00     0.006 C 
BRANCH   7   8
ATOM      8  C   UNL     1      14.457 -10.130  15.004  1.00  0.00     0.053 C 
BRANCH   8   9
ATOM      9  C   UNL     1      13.044  -9.661  15.150  1.00  0.00     0.041 C 
ATOM     10  O   UNL     1      12.103 -10.495  15.206  1.00  0.00    -0.550 OA
ATOM     11  O   UNL     1      12.769  -8.305  15.273  1.00  0.00    -0.550 OA
ENDBRANCH   8   9
ENDBRANCH   7   8
ENDBRANCH   6   7
ENDBRANCH   5   6
ENDBRANCH   4   5
ENDBRANCH   3   4
ENDBRANCH   2   3
ENDBRANCH   1   2
BRANCH   1  12
ATOM     12  C   UNL     1      13.300 -17.281  14.468  1.00  0.00     0.000 C 
BRANCH  12  13
ATOM     13  C   UNL     1      12.715 -16.584  13.225  1.00  0.00    -0.000 C 
BRANCH  13  14
ATOM     14  C   UNL     1      11.285 -16.038  13.434  1.00  0.00    -0.000 C 
BRANCH  14  15
ATOM     15  C   UNL     1      11.082 -15.459  14.845  1.00  0.00    -0.000 C 
BRANCH  15  16
ATOM     16  C   UNL     1      11.684 -14.044  14.989  1.00  0.00    -0.000 C 
BRANCH  16  17
ATOM     17  C   UNL     1      12.097 -13.692  16.428  1.00  0.00    -0.000 C 
BRANCH  17  18
ATOM     18  C   UNL     1      12.313 -14.934  17.307  1.00  0.00    -0.000 C 
BRANCH  18  19
ATOM     19  C   UNL     1      12.248 -14.607  18.808  1.00  0.00    -0.003 C 
ATOM     20  C   UNL     1      13.291 -15.371  19.623  1.00  0.00     0.004 C 
ENDBRANCH  18  19
ENDBRANCH  17  18
ENDBRANCH  16  17
ENDBRANCH  15  16
ENDBRANCH  14  15
ENDBRANCH  13  14
ENDBRANCH  12  13
ENDBRANCH   1  12
TORSDOF 16
ENDMDL
MODEL 3
REMARK VINA RESULT:    -4.360      4.928      9.480
REMARK INTER + INTRA:         -11.032
REMARK INTER:                  -9.596
REMARK INTRA:                  -1.436
REMARK UNBOUND:                -2.594
REMARK SMILES CCCCCCCCCCCCCCCCCC(=O)[O-]
REMARK SMILES IDX 10 1 11 2 12 3 13 4 14 5 15 6 16 7 17 8 18 9 19 10 20 11
REMARK SMILES IDX 9 12 8 13 7 14 6 15 5 16 4 17 3 18 2 19 1 20
REMARK H PARENT
REMARK Flexibility Score: inf
ROOT
ATOM      1  C   UNL     1      10.133 -16.425   7.864  1.00  0.00     0.000 C 
ENDROOT
BRANCH   1   2
ATOM      2  C   UNL     1      10.757 -17.757   8.304  1.00  0.00     0.000 C 
BRANCH   2   3
ATOM      3  C   UNL     1      11.664 -17.556   9.526  1.00  0.00     0.000 C 
BRANCH   3   4
ATOM      4  C   UNL     1      11.308 -16.299  10.335  1.00  0.00     0.000 C 
BRANCH   4   5
ATOM      5  C   UNL     1      11.998 -16.260  11.707  1.00  0.00     0.000 C 
BRANCH   5   6
ATOM      6  C   UNL     1      10.973 -16.079  12.834  1.00  0.00     0.000 C 
BRANCH   6   7
ATOM      7  C   UNL     1      11.638 -16.207  14.208  1.00  0.00     0.006 C 
BRANCH   7   8
ATOM      8  C   UNL     1      11.138 -15.124  15.168  1.00  0.00     0.053 C 
BRANCH   8   9
ATOM      9  C   UNL     1      12.053 -15.001  16.344  1.00  0.00     0.041 C 
ATOM     10  O   UNL     1      11.893 -14.071  17.176  1.00  0.00    -0.550 OA
ATOM     11  O   UNL     1      13.054 -15.943  16.549  1.00  0.00    -0.550 OA
ENDBRANCH   8   9
ENDBRANCH   7   8
ENDBRANCH   6   7
ENDBRANCH   5   6
ENDBRANCH   4   5
ENDBRANCH   3   4
ENDBRANCH   2   3
ENDBRANCH   1   2
BRANCH   1  12
ATOM     12  C   UNL     1       8.818 -16.608   7.088  1.00  0.00     0.000 C 
BRANCH  12  13
ATOM     13  C   UNL     1       8.739 -15.832   5.759  1.00  0.00    -0.000 C 
BRANCH  13  14
ATOM     14  C   UNL     1       9.656 -16.400   4.652  1.00  0.00    -0.000 C 
BRANCH  14  15
ATOM     15  C   UNL     1       8.870 -16.792   3.388  1.00  0.00    -0.000 C 
BRANCH  15  16
ATOM     16  C   UNL     1       7.351 -16.886   3.650  1.00  0.00    -0.000 C 
BRANCH  16  17
ATOM     17  C   UNL     1       6.786 -18.310   3.505  1.00  0.00    -0.000 C 
BRANCH  17  18
ATOM     18  C   UNL     1       6.759 -19.078   4.835  1.00  0.00    -0.000 C 
BRANCH  18  19
ATOM     19  C   UNL     1       8.006 -19.956   5.030  1.00  0.00    -0.003 C 
ATOM     20  C   UNL     1       8.371 -20.144   6.502  1.00  0.00     0.004 C 
ENDBRANCH  18  19
ENDBRANCH  17  18
ENDBRANCH  16  17
ENDBRANCH  15  16
ENDBRANCH  14  15
ENDBRANCH  13  14
ENDBRANCH  12  13
ENDBRANCH   1  12
TORSDOF 16
ENDMDL
MODEL 4
REMARK VINA RESULT:    -4.339      3.273      7.398
REMARK INTER + INTRA:         -10.992
REMARK INTER:                  -9.544
REMARK INTRA:                  -1.448
REMARK UNBOUND:                -2.594
REMARK SMILES CCCCCCCCCCCCCCCCCC(=O)[O-]
REMARK SMILES IDX 10 1 11 2 12 3 13 4 14 5 15 6 16 7 17 8 18 9 19 10 20 11
REMARK SMILES IDX 9 12 8 13 7 14 6 15 5 16 4 17 3 18 2 19 1 20
REMARK H PARENT
REMARK Flexibility Score: inf
ROOT
ATOM      1  C   UNL     1      11.480 -15.882  10.330  1.00  0.00     0.000 C 
ENDROOT
BRANCH   1   2
ATOM      2  C   UNL     1      10.538 -15.592  11.508  1.00  0.00     0.000 C 
BRANCH   2   3
ATOM      3  C   UNL     1      11.120 -16.141  12.818  1.00  0.00     0.000 C 
BRANCH   3   4
ATOM      4  C   UNL     1      11.438 -15.039  13.840  1.00  0.00     0.000 C 
BRANCH   4   5
ATOM      5  C   UNL     1      11.066 -15.434  15.277  1.00  0.00     0.000 C 
BRANCH   5   6
ATOM      6  C   UNL     1      12.148 -14.988  16.268  1.00  0.00     0.000 C 
BRANCH   6   7
ATOM      7  C   UNL     1      13.549 -15.308  15.733  1.00  0.00     0.006 C 
BRANCH   7   8
ATOM      8  C   UNL     1      14.065 -16.635  16.296  1.00  0.00     0.053 C 
BRANCH   8   9
ATOM      9  C   UNL     1      14.289 -17.620  15.193  1.00  0.00     0.041 C 
ATOM     10  O   UNL     1      13.315 -18.237  14.688  1.00  0.00    -0.550 OA
ATOM     11  O   UNL     1      15.568 -17.823  14.689  1.00  0.00    -0.550 OA
ENDBRANCH   8   9
ENDBRANCH   7   8
ENDBRANCH   6   7
ENDBRANCH   5   6
ENDBRANCH   4   5
ENDBRANCH   3   4
ENDBRANCH   2   3
ENDBRANCH   1   2
BRANCH   1  12
ATOM     12  C   UNL     1      11.423 -17.347   9.865  1.00  0.00     0.000 C 
BRANCH  12  13
ATOM     13  C   UNL     1      11.194 -17.537   8.354  1.00  0.00    -0.000 C 
BRANCH  13  14
ATOM     14  C   UNL     1      10.103 -18.578   8.017  1.00  0.00    -0.000 C 
BRANCH  14  15
ATOM     15  C   UNL     1       9.160 -18.094   6.900  1.00  0.00    -0.000 C 
BRANCH  15  16
ATOM     16  C   UNL     1       8.730 -16.624   7.096  1.00  0.00    -0.000 C 
BRANCH  16  17
ATOM     17  C   UNL     1       8.780 -15.789   5.804  1.00  0.00    -0.000 C 
BRANCH  17  18
ATOM     18  C   UNL     1       9.902 -14.739   5.817  1.00  0.00    -0.000 C 
BRANCH  18  19
ATOM     19  C   UNL     1      11.236 -15.302   5.300  1.00  0.00    -0.003 C 
ATOM     20  C   UNL     1      11.077 -16.101   4.008  1.00  0.00     0.004 C 
ENDBRANCH  18  19
ENDBRANCH  17  18
ENDBRANCH  16  17
ENDBRANCH  15  16
ENDBRANCH  14  15
ENDBRANCH  13  14
ENDBRANCH  12  13
ENDBRANCH   1  12
TORSDOF 16
ENDMDL
MODEL 5
REMARK VINA RESULT:    -4.337      2.217      4.307
REMARK INTER + INTRA:         -10.988
REMARK INTER:                  -8.884
REMARK INTRA:                  -2.104
REMARK UNBOUND:                -2.594
REMARK SMILES CCCCCCCCCCCCCCCCCC(=O)[O-]
REMARK SMILES IDX 10 1 11 2 12 3 13 4 14 5 15 6 16 7 17 8 18 9 19 10 20 11
REMARK SMILES IDX 9 12 8 13 7 14 6 15 5 16 4 17 3 18 2 19 1 20
REMARK H PARENT
REMARK Flexibility Score: inf
ROOT
ATOM      1  C   UNL     1      11.002 -15.457  15.122  1.00  0.00     0.000 C 
ENDROOT
BRANCH   1   2
ATOM      2  C   UNL     1      11.484 -15.243  13.679  1.00  0.00     0.000 C 
BRANCH   2   3
ATOM      3  C   UNL     1      10.612 -16.033  12.692  1.00  0.00     0.000 C 
BRANCH   3   4
ATOM      4  C   UNL     1      10.679 -15.479  11.260  1.00  0.00     0.000 C 
BRANCH   4   5
ATOM      5  C   UNL     1      11.350 -16.451  10.278  1.00  0.00     0.000 C 
BRANCH   5   6
ATOM      6  C   UNL     1      11.634 -15.767   8.935  1.00  0.00     0.000 C 
BRANCH   6   7
ATOM      7  C   UNL     1      11.080 -16.593   7.769  1.00  0.00     0.006 C 
BRANCH   7   8
ATOM      8  C   UNL     1      10.386 -15.698   6.738  1.00  0.00     0.053 C 
BRANCH   8   9
ATOM      9  C   UNL     1       9.043 -16.253   6.382  1.00  0.00     0.041 C 
ATOM     10  O   UNL     1       8.442 -15.842   5.356  1.00  0.00    -0.550 OA
ATOM     11  O   UNL     1       8.477 -17.257   7.156  1.00  0.00    -0.550 OA
ENDBRANCH   8   9
ENDBRANCH   7   8
ENDBRANCH   6   7
ENDBRANCH   5   6
ENDBRANCH   4   5
ENDBRANCH   3   4
ENDBRANCH   2   3
ENDBRANCH   1   2
BRANCH   1  12
ATOM     12  C   UNL     1      12.036 -15.012  16.169  1.00  0.00     0.000 C 
BRANCH  12  13
ATOM     13  C   UNL     1      13.504 -15.254  15.772  1.00  0.00    -0.000 C 
BRANCH  13  14
ATOM     14  C   UNL     1      14.094 -16.565  16.338  1.00  0.00    -0.000 C 
BRANCH  14  15
ATOM     15  C   UNL     1      13.875 -17.760  15.393  1.00  0.00    -0.000 C 
BRANCH  15  16
ATOM     16  C   UNL     1      14.796 -17.703  14.156  1.00  0.00    -0.000 C 
BRANCH  16  17
ATOM     17  C   UNL     1      14.038 -17.544  12.827  1.00  0.00    -0.000 C 
BRANCH  17  18
ATOM     18  C   UNL     1      14.710 -16.544  11.874  1.00  0.00    -0.000 C 
BRANCH  18  19
ATOM     19  C   UNL     1      15.699 -15.617  12.600  1.00  0.00    -0.003 C 
ATOM     20  C   UNL     1      15.213 -14.169  12.660  1.00  0.00     0.004 C 
ENDBRANCH  18  19
ENDBRANCH  17  18
ENDBRANCH  16  17
ENDBRANCH  15  16
ENDBRANCH  14  15
ENDBRANCH  13  14
ENDBRANCH  12  13
ENDBRANCH   1  12
TORSDOF 16
ENDMDL
MODEL 6
REMARK VINA RESULT:    -4.306      2.960      5.652
REMARK INTER + INTRA:         -10.927
REMARK INTER:                  -8.422
REMARK INTRA:                  -2.506
REMARK UNBOUND:                -2.594
REMARK SMILES CCCCCCCCCCCCCCCCCC(=O)[O-]
REMARK SMILES IDX 10 1 11 2 12 3 13 4 14 5 15 6 16 7 17 8 18 9 19 10 20 11
REMARK SMILES IDX 9 12 8 13 7 14 6 15 5 16 4 17 3 18 2 19 1 20
REMARK H PARENT
REMARK Flexibility Score: inf
ROOT
ATOM      1  C   UNL     1      14.971 -16.933  11.622  1.00  0.00     0.000 C 
ENDROOT
BRANCH   1   2
ATOM      2  C   UNL     1      14.385 -15.563  11.251  1.00  0.00     0.000 C 
BRANCH   2   3
ATOM      3  C   UNL     1      15.342 -14.433  11.658  1.00  0.00     0.000 C 
BRANCH   3   4
ATOM      4  C   UNL     1      15.093 -13.923  13.086  1.00  0.00     0.000 C 
BRANCH   4   5
ATOM      5  C   UNL     1      16.383 -13.483  13.794  1.00  0.00     0.000 C 
BRANCH   5   6
ATOM      6  C   UNL     1      16.200 -12.121  14.475  1.00  0.00     0.000 C 
BRANCH   6   7
ATOM      7  C   UNL     1      14.822 -11.528  14.158  1.00  0.00     0.006 C 
BRANCH   7   8
ATOM      8  C   UNL     1      14.643 -10.161  14.824  1.00  0.00     0.053 C 
BRANCH   8   9
ATOM      9  C   UNL     1      13.196  -9.897  15.097  1.00  0.00     0.041 C 
ATOM     10  O   UNL     1      12.783  -8.715  15.227  1.00  0.00    -0.550 OA
ATOM     11  O   UNL     1      12.295 -10.952  15.161  1.00  0.00    -0.550 OA
ENDBRANCH   8   9
ENDBRANCH   7   8
ENDBRANCH   6   7
ENDBRANCH   5   6
ENDBRANCH   4   5
ENDBRANCH   3   4
ENDBRANCH   2   3
ENDBRANCH   1   2
BRANCH   1  12
ATOM     12  C   UNL     1      14.391 -17.498  12.929  1.00  0.00     0.000 C 
BRANCH  12  13
ATOM     13  C   UNL     1      15.393 -17.585  14.096  1.00  0.00    -0.000 C 
BRANCH  13  14
ATOM     14  C   UNL     1      14.726 -17.576  15.489  1.00  0.00    -0.000 C 
BRANCH  14  15
ATOM     15  C   UNL     1      14.402 -16.151  15.972  1.00  0.00    -0.000 C 
BRANCH  15  16
ATOM     16  C   UNL     1      12.898 -15.959  16.263  1.00  0.00    -0.000 C 
BRANCH  16  17
ATOM     17  C   UNL     1      12.356 -14.585  15.833  1.00  0.00    -0.000 C 
BRANCH  17  18
ATOM     18  C   UNL     1      11.904 -14.555  14.365  1.00  0.00    -0.000 C 
BRANCH  18  19
ATOM     19  C   UNL     1      11.196 -15.854  13.945  1.00  0.00    -0.003 C 
ATOM     20  C   UNL     1      10.622 -15.780  12.531  1.00  0.00     0.004 C 
ENDBRANCH  18  19
ENDBRANCH  17  18
ENDBRANCH  16  17
ENDBRANCH  15  16
ENDBRANCH  14  15
ENDBRANCH  13  14
ENDBRANCH  12  13
ENDBRANCH   1  12
TORSDOF 16
ENDMDL
MODEL 7
REMARK VINA RESULT:    -4.291      5.383     10.280
REMARK INTER + INTRA:         -10.899
REMARK INTER:                  -8.349
REMARK INTRA:                  -2.550
REMARK UNBOUND:                -2.594
REMARK SMILES CCCCCCCCCCCCCCCCCC(=O)[O-]
REMARK SMILES IDX 10 1 11 2 12 3 13 4 14 5 15 6 16 7 17 8 18 9 19 10 20 11
REMARK SMILES IDX 9 12 8 13 7 14 6 15 5 16 4 17 3 18 2 19 1 20
REMARK H PARENT
REMARK Flexibility Score: inf
ROOT
ATOM      1  C   UNL     1       9.945 -16.408   3.715  1.00  0.00     0.000 C 
ENDROOT
BRANCH   1   2
ATOM      2  C   UNL     1       9.987 -15.622   5.034  1.00  0.00     0.000 C 
BRANCH   2   3
ATOM      3  C   UNL     1       8.684 -15.814   5.824  1.00  0.00     0.000 C 
BRANCH   3   4
ATOM      4  C   UNL     1       8.830 -16.804   6.990  1.00  0.00     0.000 C 
BRANCH   4   5
ATOM      5  C   UNL     1       9.913 -16.382   7.995  1.00  0.00     0.000 C 
BRANCH   5   6
ATOM      6  C   UNL     1      10.936 -17.506   8.206  1.00  0.00     0.000 C 
BRANCH   6   7
ATOM      7  C   UNL     1      11.653 -17.350   9.551  1.00  0.00     0.006 C 
BRANCH   7   8
ATOM      8  C   UNL     1      11.378 -15.976  10.168  1.00  0.00     0.053 C 
BRANCH   8   9
ATOM      9  C   UNL     1      11.322 -16.072  11.660  1.00  0.00     0.041 C 
ATOM     10  O   UNL     1      12.291 -16.560  12.298  1.00  0.00    -0.550 OA
ATOM     11  O   UNL     1      10.221 -15.581  12.349  1.00  0.00    -0.550 OA
ENDBRANCH   8   9
ENDBRANCH   7   8
ENDBRANCH   6   7
ENDBRANCH   5   6
ENDBRANCH   4   5
ENDBRANCH   3   4
ENDBRANCH   2   3
ENDBRANCH   1   2
BRANCH   1  12
ATOM     12  C   UNL     1       8.515 -16.617   3.189  1.00  0.00     0.000 C 
BRANCH  12  13
ATOM     13  C   UNL     1       8.350 -17.805   2.222  1.00  0.00    -0.000 C 
BRANCH  13  14
ATOM     14  C   UNL     1       7.329 -18.860   2.702  1.00  0.00    -0.000 C 
BRANCH  14  15
ATOM     15  C   UNL     1       6.472 -18.351   3.875  1.00  0.00    -0.000 C 
BRANCH  15  16
ATOM     16  C   UNL     1       6.628 -19.229   5.136  1.00  0.00    -0.000 C 
BRANCH  16  17
ATOM     17  C   UNL     1       7.635 -20.380   4.967  1.00  0.00    -0.000 C 
BRANCH  17  18
ATOM     18  C   UNL     1       8.877 -20.221   5.858  1.00  0.00    -0.000 C 
BRANCH  18  19
ATOM     19  C   UNL     1      10.120 -19.796   5.059  1.00  0.00    -0.003 C 
ATOM     20  C   UNL     1      11.425 -20.154   5.767  1.00  0.00     0.004 C 
ENDBRANCH  18  19
ENDBRANCH  17  18
ENDBRANCH  16  17
ENDBRANCH  15  16
ENDBRANCH  14  15
ENDBRANCH  13  14
ENDBRANCH  12  13
ENDBRANCH   1  12
TORSDOF 16
ENDMDL
MODEL 8
REMARK VINA RESULT:    -4.276      2.620      5.227
REMARK INTER + INTRA:         -10.869
REMARK INTER:                  -8.925
REMARK INTRA:                  -1.944
REMARK UNBOUND:                -2.594
REMARK SMILES CCCCCCCCCCCCCCCCCC(=O)[O-]
REMARK SMILES IDX 10 1 11 2 12 3 13 4 14 5 15 6 16 7 17 8 18 9 19 10 20 11
REMARK SMILES IDX 9 12 8 13 7 14 6 15 5 16 4 17 3 18 2 19 1 20
REMARK H PARENT
REMARK Flexibility Score: inf
ROOT
ATOM      1  C   UNL     1      13.410 -16.341  15.298  1.00  0.00     0.000 C 
ENDROOT
BRANCH   1   2
ATOM      2  C   UNL     1      12.122 -16.345  14.462  1.00  0.00     0.000 C 
BRANCH   2   3
ATOM      3  C   UNL     1      11.215 -15.170  14.854  1.00  0.00     0.000 C 
BRANCH   3   4
ATOM      4  C   UNL     1      11.393 -14.739  16.318  1.00  0.00     0.000 C 
BRANCH   4   5
ATOM      5  C   UNL     1      11.510 -13.216  16.480  1.00  0.00     0.000 C 
BRANCH   5   6
ATOM      6  C   UNL     1      11.620 -12.525  15.115  1.00  0.00     0.000 C 
BRANCH   6   7
ATOM      7  C   UNL     1      12.941 -11.755  14.994  1.00  0.00     0.006 C 
BRANCH   7   8
ATOM      8  C   UNL     1      14.100 -12.697  14.657  1.00  0.00     0.053 C 
BRANCH   8   9
ATOM      9  C   UNL     1      15.310 -11.916  14.254  1.00  0.00     0.041 C 
ATOM     10  O   UNL     1      16.447 -12.248  14.679  1.00  0.00    -0.550 OA
ATOM     11  O   UNL     1      15.189 -10.850  13.371  1.00  0.00    -0.550 OA
ENDBRANCH   8   9
ENDBRANCH   7   8
ENDBRANCH   6   7
ENDBRANCH   5   6
ENDBRANCH   4   5
ENDBRANCH   3   4
ENDBRANCH   2   3
ENDBRANCH   1   2
BRANCH   1  12
ATOM     12  C   UNL     1      14.127 -17.701  15.299  1.00  0.00     0.000 C 
BRANCH  12  13
ATOM     13  C   UNL     1      15.421 -17.750  14.464  1.00  0.00    -0.000 C 
BRANCH  13  14
ATOM     14  C   UNL     1      15.676 -16.470  13.637  1.00  0.00    -0.000 C 
BRANCH  14  15
ATOM     15  C   UNL     1      15.605 -16.731  12.122  1.00  0.00    -0.000 C 
BRANCH  15  16
ATOM     16  C   UNL     1      14.224 -16.372  11.532  1.00  0.00    -0.000 C 
BRANCH  16  17
ATOM     17  C   UNL     1      13.328 -17.594  11.268  1.00  0.00    -0.000 C 
BRANCH  17  18
ATOM     18  C   UNL     1      12.692 -17.577   9.869  1.00  0.00    -0.000 C 
BRANCH  18  19
ATOM     19  C   UNL     1      12.191 -16.178   9.472  1.00  0.00    -0.003 C 
ATOM     20  C   UNL     1      10.790 -16.206   8.864  1.00  0.00     0.004 C 
ENDBRANCH  18  19
ENDBRANCH  17  18
ENDBRANCH  16  17
ENDBRANCH  15  16
ENDBRANCH  14  15
ENDBRANCH  13  14
ENDBRANCH  12  13
ENDBRANCH   1  12
TORSDOF 16
ENDMDL
MODEL 9
REMARK VINA RESULT:    -4.240      2.801      5.373
REMARK INTER + INTRA:         -10.800
REMARK INTER:                  -8.300
REMARK INTRA:                  -2.501
REMARK UNBOUND:                -2.594
REMARK SMILES CCCCCCCCCCCCCCCCCC(=O)[O-]
REMARK SMILES IDX 10 1 11 2 12 3 13 4 14 5 15 6 16 7 17 8 18 9 19 10 20 11
REMARK SMILES IDX 9 12 8 13 7 14 6 15 5 16 4 17 3 18 2 19 1 20
REMARK H PARENT
REMARK Flexibility Score: inf
ROOT
ATOM      1  C   UNL     1      14.891 -16.389  14.769  1.00  0.00     0.000 C 
ENDROOT
BRANCH   1   2
ATOM      2  C   UNL     1      14.036 -17.625  14.455  1.00  0.00     0.000 C 
BRANCH   2   3
ATOM      3  C   UNL     1      12.569 -17.385  14.841  1.00  0.00     0.000 C 
BRANCH   3   4
ATOM      4  C   UNL     1      11.787 -16.613  13.767  1.00  0.00     0.000 C 
BRANCH   4   5
ATOM      5  C   UNL     1      11.333 -15.225  14.246  1.00  0.00     0.000 C 
BRANCH   5   6
ATOM      6  C   UNL     1      11.272 -15.164  15.777  1.00  0.00     0.000 C 
BRANCH   6   7
ATOM      7  C   UNL     1      12.006 -13.927  16.307  1.00  0.00     0.006 C 
BRANCH   7   8
ATOM      8  C   UNL     1      12.779 -13.222  15.189  1.00  0.00     0.053 C 
BRANCH   8   9
ATOM      9  C   UNL     1      12.391 -11.780  15.112  1.00  0.00     0.041 C 
ATOM     10  O   UNL     1      11.188 -11.440  15.257  1.00  0.00    -0.550 OA
ATOM     11  O   UNL     1      13.364 -10.806  14.926  1.00  0.00    -0.550 OA
ENDBRANCH   8   9
ENDBRANCH   7   8
ENDBRANCH   6   7
ENDBRANCH   5   6
ENDBRANCH   4   5
ENDBRANCH   3   4
ENDBRANCH   2   3
ENDBRANCH   1   2
BRANCH   1  12
ATOM     12  C   UNL     1      15.767 -15.951  13.584  1.00  0.00     0.000 C 
BRANCH  12  13
ATOM     13  C   UNL     1      15.211 -14.766  12.772  1.00  0.00    -0.000 C 
BRANCH  13  14
ATOM     14  C   UNL     1      14.797 -15.139  11.331  1.00  0.00    -0.000 C 
BRANCH  14  15
ATOM     15  C   UNL     1      14.919 -16.649  11.062  1.00  0.00    -0.000 C 
BRANCH  15  16
ATOM     16  C   UNL     1      13.565 -17.286  10.679  1.00  0.00    -0.000 C 
BRANCH  16  17
ATOM     17  C   UNL     1      12.488 -16.258  10.290  1.00  0.00    -0.000 C 
BRANCH  17  18
ATOM     18  C   UNL     1      11.302 -16.892   9.546  1.00  0.00    -0.000 C 
BRANCH  18  19
ATOM     19  C   UNL     1      10.904 -16.093   8.294  1.00  0.00    -0.003 C 
ATOM     20  C   UNL     1       9.694 -16.690   7.576  1.00  0.00     0.004 C 
ENDBRANCH  18  19
ENDBRANCH  17  18
ENDBRANCH  16  17
ENDBRANCH  15  16
ENDBRANCH  14  15
ENDBRANCH  13  14
ENDBRANCH  12  13
ENDBRANCH   1  12
TORSDOF 16
ENDMDL
