MODEL 1
REMARK VINA RESULT:     0.000      0.000      0.000
REMARK INTER + INTRA:          -2.821
REMARK INTER:                   0.000
REMARK INTRA:                  -2.821
REMARK UNBOUND:                -2.821
REMARK SMILES CCCCCCCCCCCCCCC(=O)[O-]
REMARK SMILES IDX 9 1 10 2 11 3 12 4 13 5 14 6 15 7 16 8 17 9 8 10 7 11 6 12
REMARK SMILES IDX 5 13 4 14 3 15 2 16 1 17
REMARK H PARENT
REMARK Flexibility Score: inf
ROOT
ATOM      1  C   UNL     1     181.004 183.774 185.859  1.00  0.00     0.000 C 
ENDROOT
BRANCH   1   2
ATOM      2  C   UNL     1     179.879 184.823 185.804  1.00  0.00     0.000 C 
BRANCH   2   3
ATOM      3  C   UNL     1     178.971 184.867 187.048  1.00  0.00     0.000 C 
BRANCH   3   4
ATOM      4  C   UNL     1     178.655 186.276 187.583  1.00  0.00     0.000 C 
BRANCH   4   5
ATOM      5  C   UNL     1     179.064 187.438 186.656  1.00  0.00     0.006 C 
BRANCH   5   6
ATOM      6  C   UNL     1     179.736 188.613 187.388  1.00  0.00     0.053 C 
BRANCH   6   7
ATOM      7  C   UNL     1     178.964 189.053 188.595  1.00  0.00     0.041 C 
ATOM      8  O   UNL     1     177.849 189.624 188.463  1.00  0.00    -0.550 OA
ATOM      9  O   UNL     1     179.492 188.866 189.866  1.00  0.00    -0.550 OA
ENDBRANCH   6   7
ENDBRANCH   5   6
ENDBRANCH   4   5
ENDBRANCH   3   4
ENDBRANCH   2   3
ENDBRANCH   1   2
BRANCH   1  10
ATOM     10  C   UNL     1     182.406 184.407 185.919  1.00  0.00     0.000 C 
BRANCH  10  11
ATOM     11  C   UNL     1     182.369 185.934 185.719  1.00  0.00    -0.000 C 
BRANCH  11  12
ATOM     12  C   UNL     1     182.897 186.740 186.922  1.00  0.00    -0.000 C 
BRANCH  12  13
ATOM     13  C   UNL     1     183.013 185.926 188.226  1.00  0.00    -0.000 C 
BRANCH  13  14
ATOM     14  C   UNL     1     181.980 186.356 189.284  1.00  0.00    -0.000 C 
BRANCH  14  15
ATOM     15  C   UNL     1     181.295 185.148 189.956  1.00  0.00    -0.000 C 
BRANCH  15  16
ATOM     16  C   UNL     1     181.891 183.792 189.544  1.00  0.00    -0.003 C 
ATOM     17  C   UNL     1     180.842 182.687 189.434  1.00  0.00     0.004 C 
ENDBRANCH  15  16
ENDBRANCH  14  15
ENDBRANCH  13  14
ENDBRANCH  12  13
ENDBRANCH  11  12
ENDBRANCH  10  11
ENDBRANCH   1  10
TORSDOF 13
ENDMDL
MODEL 2
REMARK VINA RESULT:     0.000      5.428      7.419
REMARK INTER + INTRA:          -2.820
REMARK INTER:                   0.000
REMARK INTRA:                  -2.820
REMARK UNBOUND:                -2.821
REMARK SMILES CCCCCCCCCCCCCCC(=O)[O-]
REMARK SMILES IDX 9 1 10 2 11 3 12 4 13 5 14 6 15 7 16 8 17 9 8 10 7 11 6 12
REMARK SMILES IDX 5 13 4 14 3 15 2 16 1 17
REMARK H PARENT
REMARK Flexibility Score: inf
ROOT
ATOM      1  C   UNL     1     184.641 188.821 191.234  1.00  0.00     0.000 C 
ENDROOT
BRANCH   1   2
ATOM      2  C   UNL     1     184.022 190.035 191.949  1.00  0.00     0.000 C 
BRANCH   2   3
ATOM      3  C   UNL     1     185.000 191.194 192.226  1.00  0.00     0.000 C 
BRANCH   3   4
ATOM      4  C   UNL     1     184.451 192.602 191.929  1.00  0.00     0.000 C 
BRANCH   4   5
ATOM      5  C   UNL     1     182.993 192.649 191.435  1.00  0.00     0.006 C 
BRANCH   5   6
ATOM      6  C   UNL     1     182.668 193.873 190.560  1.00  0.00     0.053 C 
BRANCH   6   7
ATOM      7  C   UNL     1     181.631 193.575 189.520  1.00  0.00     0.041 C 
ATOM      8  O   UNL     1     180.591 192.933 189.826  1.00  0.00    -0.550 OA
ATOM      9  O   UNL     1     181.828 193.974 188.204  1.00  0.00    -0.550 OA
ENDBRANCH   6   7
ENDBRANCH   5   6
ENDBRANCH   4   5
ENDBRANCH   3   4
ENDBRANCH   2   3
ENDBRANCH   1   2
BRANCH   1  10
ATOM     10  C   UNL     1     184.000 188.547 189.861  1.00  0.00     0.000 C 
BRANCH  10  11
ATOM     11  C   UNL     1     182.765 189.433 189.605  1.00  0.00    -0.000 C 
BRANCH  11  12
ATOM     12  C   UNL     1     182.896 190.357 188.378  1.00  0.00    -0.000 C 
BRANCH  12  13
ATOM     13  C   UNL     1     184.347 190.574 187.903  1.00  0.00    -0.000 C 
BRANCH  13  14
ATOM     14  C   UNL     1     184.867 191.988 188.224  1.00  0.00    -0.000 C 
BRANCH  14  15
ATOM     15  C   UNL     1     186.299 191.966 188.799  1.00  0.00    -0.000 C 
BRANCH  15  16
ATOM     16  C   UNL     1     186.938 190.567 188.813  1.00  0.00    -0.003 C 
ATOM     17  C   UNL     1     187.853 190.341 190.015  1.00  0.00     0.004 C 
ENDBRANCH  15  16
ENDBRANCH  14  15
ENDBRANCH  13  14
ENDBRANCH  12  13
ENDBRANCH  11  12
ENDBRANCH  10  11
ENDBRANCH   1  10
TORSDOF 13
ENDMDL
MODEL 3
REMARK VINA RESULT:     0.003      4.896      6.920
REMARK INTER + INTRA:          -2.815
REMARK INTER:                   0.000
REMARK INTRA:                  -2.815
REMARK UNBOUND:                -2.821
REMARK SMILES CCCCCCCCCCCCCCC(=O)[O-]
REMARK SMILES IDX 9 1 10 2 11 3 12 4 13 5 14 6 15 7 16 8 17 9 8 10 7 11 6 12
REMARK SMILES IDX 5 13 4 14 3 15 2 16 1 17
REMARK H PARENT
REMARK Flexibility Score: inf
ROOT
ATOM      1  C   UNL     1     180.263 184.002 191.961  1.00  0.00     0.000 C 
ENDROOT
BRANCH   1   2
ATOM      2  C   UNL     1     181.277 184.286 190.838  1.00  0.00     0.000 C 
BRANCH   2   3
ATOM      3  C   UNL     1     181.756 183.042 190.065  1.00  0.00     0.000 C 
BRANCH   3   4
ATOM      4  C   UNL     1     183.267 182.990 189.774  1.00  0.00     0.000 C 
BRANCH   4   5
ATOM      5  C   UNL     1     184.075 184.203 190.272  1.00  0.00     0.006 C 
BRANCH   5   6
ATOM      6  C   UNL     1     185.550 183.888 190.579  1.00  0.00     0.053 C 
BRANCH   6   7
ATOM      7  C   UNL     1     186.081 184.694 191.726  1.00  0.00     0.041 C 
ATOM      8  O   UNL     1     185.883 185.937 191.774  1.00  0.00    -0.550 OA
ATOM      9  O   UNL     1     186.826 184.079 192.724  1.00  0.00    -0.550 OA
ENDBRANCH   6   7
ENDBRANCH   5   6
ENDBRANCH   4   5
ENDBRANCH   3   4
ENDBRANCH   2   3
ENDBRANCH   1   2
BRANCH   1  10
ATOM     10  C   UNL     1     180.779 184.418 193.350  1.00  0.00     0.000 C 
BRANCH  10  11
ATOM     11  C   UNL     1     182.127 185.161 193.275  1.00  0.00    -0.000 C 
BRANCH  11  12
ATOM     12  C   UNL     1     183.274 184.462 194.032  1.00  0.00    -0.000 C 
BRANCH  12  13
ATOM     13  C   UNL     1     183.038 182.961 194.290  1.00  0.00    -0.000 C 
BRANCH  13  14
ATOM     14  C   UNL     1     183.893 182.063 193.376  1.00  0.00    -0.000 C 
BRANCH  14  15
ATOM     15  C   UNL     1     183.089 180.874 192.809  1.00  0.00    -0.000 C 
BRANCH  15  16
ATOM     16  C   UNL     1     181.650 180.791 193.343  1.00  0.00    -0.003 C 
ATOM     17  C   UNL     1     180.654 180.286 192.301  1.00  0.00     0.004 C 
ENDBRANCH  15  16
ENDBRANCH  14  15
ENDBRANCH  13  14
ENDBRANCH  12  13
ENDBRANCH  11  12
ENDBRANCH  10  11
ENDBRANCH   1  10
TORSDOF 13
ENDMDL
MODEL 4
REMARK VINA RESULT:     0.003      8.448     10.519
REMARK INTER + INTRA:          -2.815
REMARK INTER:                   0.000
REMARK INTRA:                  -2.815
REMARK UNBOUND:                -2.821
REMARK SMILES CCCCCCCCCCCCCCC(=O)[O-]
REMARK SMILES IDX 9 1 10 2 11 3 12 4 13 5 14 6 15 7 16 8 17 9 8 10 7 11 6 12
REMARK SMILES IDX 5 13 4 14 3 15 2 16 1 17
REMARK H PARENT
REMARK Flexibility Score: inf
ROOT
ATOM      1  C   UNL     1     181.628 189.260 194.398  1.00  0.00     0.000 C 
ENDROOT
BRANCH   1   2
ATOM      2  C   UNL     1     180.469 189.367 195.406  1.00  0.00     0.000 C 
BRANCH   2   3
ATOM      3  C   UNL     1     179.446 190.479 195.104  1.00  0.00     0.000 C 
BRANCH   3   4
ATOM      4  C   UNL     1     179.012 191.320 196.319  1.00  0.00     0.000 C 
BRANCH   4   5
ATOM      5  C   UNL     1     179.432 190.760 197.691  1.00  0.00     0.006 C 
BRANCH   5   6
ATOM      6  C   UNL     1     180.089 191.800 198.616  1.00  0.00     0.053 C 
BRANCH   6   7
ATOM      7  C   UNL     1     179.258 193.038 198.767  1.00  0.00     0.041 C 
ATOM      8  O   UNL     1     179.714 194.156 198.409  1.00  0.00    -0.550 OA
ATOM      9  O   UNL     1     177.993 192.964 199.337  1.00  0.00    -0.550 OA
ENDBRANCH   6   7
ENDBRANCH   5   6
ENDBRANCH   4   5
ENDBRANCH   3   4
ENDBRANCH   2   3
ENDBRANCH   1   2
BRANCH   1  10
ATOM     10  C   UNL     1     182.997 189.570 195.029  1.00  0.00     0.000 C 
BRANCH  10  11
ATOM     11  C   UNL     1     182.894 189.861 196.539  1.00  0.00    -0.000 C 
BRANCH  11  12
ATOM     12  C   UNL     1     183.392 191.262 196.946  1.00  0.00    -0.000 C 
BRANCH  12  13
ATOM     13  C   UNL     1     183.350 192.303 195.809  1.00  0.00    -0.000 C 
BRANCH  13  14
ATOM     14  C   UNL     1     182.164 193.276 195.944  1.00  0.00    -0.000 C 
BRANCH  14  15
ATOM     15  C   UNL     1     181.478 193.551 194.589  1.00  0.00    -0.000 C 
BRANCH  15  16
ATOM     16  C   UNL     1     182.145 192.837 193.403  1.00  0.00    -0.003 C 
ATOM     17  C   UNL     1     181.143 192.350 192.359  1.00  0.00     0.004 C 
ENDBRANCH  15  16
ENDBRANCH  14  15
ENDBRANCH  13  14
ENDBRANCH  12  13
ENDBRANCH  11  12
ENDBRANCH  10  11
ENDBRANCH   1  10
TORSDOF 13
ENDMDL
MODEL 5
REMARK VINA RESULT:     0.005      2.296      2.990
REMARK INTER + INTRA:          -2.813
REMARK INTER:                   0.000
REMARK INTRA:                  -2.813
REMARK UNBOUND:                -2.821
REMARK SMILES CCCCCCCCCCCCCCC(=O)[O-]
REMARK SMILES IDX 9 1 10 2 11 3 12 4 13 5 14 6 15 7 16 8 17 9 8 10 7 11 6 12
REMARK SMILES IDX 5 13 4 14 3 15 2 16 1 17
REMARK H PARENT
REMARK Flexibility Score: inf
ROOT
ATOM      1  C   UNL     1     182.864 186.286 185.981  1.00  0.00     0.000 C 
ENDROOT
BRANCH   1   2
ATOM      2  C   UNL     1     181.631 186.980 186.587  1.00  0.00     0.000 C 
BRANCH   2   3
ATOM      3  C   UNL     1     180.708 186.062 187.412  1.00  0.00     0.000 C 
BRANCH   3   4
ATOM      4  C   UNL     1     180.190 186.664 188.731  1.00  0.00     0.000 C 
BRANCH   4   5
ATOM      5  C   UNL     1     180.651 188.105 189.023  1.00  0.00     0.006 C 
BRANCH   5   6
ATOM      6  C   UNL     1     180.758 188.435 190.522  1.00  0.00     0.053 C 
BRANCH   6   7
ATOM      7  C   UNL     1     181.848 189.422 190.815  1.00  0.00     0.041 C 
ATOM      8  O   UNL     1     182.513 189.335 191.880  1.00  0.00    -0.550 OA
ATOM      9  O   UNL     1     182.106 190.460 189.928  1.00  0.00    -0.550 OA
ENDBRANCH   6   7
ENDBRANCH   5   6
ENDBRANCH   4   5
ENDBRANCH   3   4
ENDBRANCH   2   3
ENDBRANCH   1   2
BRANCH   1  10
ATOM     10  C   UNL     1     184.191 186.897 186.466  1.00  0.00     0.000 C 
BRANCH  10  11
ATOM     11  C   UNL     1     183.974 188.138 187.355  1.00  0.00    -0.000 C 
BRANCH  11  12
ATOM     12  C   UNL     1     184.556 188.004 188.776  1.00  0.00    -0.000 C 
BRANCH  12  13
ATOM     13  C   UNL     1     184.726 186.548 189.255  1.00  0.00    -0.000 C 
BRANCH  13  14
ATOM     14  C   UNL     1     183.637 186.127 190.259  1.00  0.00    -0.000 C 
BRANCH  14  15
ATOM     15  C   UNL     1     183.079 184.719 189.959  1.00  0.00    -0.000 C 
BRANCH  15  16
ATOM     16  C   UNL     1     183.804 184.000 188.810  1.00  0.00    -0.003 C 
ATOM     17  C   UNL     1     182.878 183.111 187.983  1.00  0.00     0.004 C 
ENDBRANCH  15  16
ENDBRANCH  14  15
ENDBRANCH  13  14
ENDBRANCH  12  13
ENDBRANCH  11  12
ENDBRANCH  10  11
ENDBRANCH   1  10
TORSDOF 13
ENDMDL
MODEL 6
REMARK VINA RESULT:     0.007      4.960      6.762
REMARK INTER + INTRA:          -2.808
REMARK INTER:                   0.000
REMARK INTRA:                  -2.808
REMARK UNBOUND:                -2.821
REMARK SMILES CCCCCCCCCCCCCCC(=O)[O-]
REMARK SMILES IDX 9 1 10 2 11 3 12 4 13 5 14 6 15 7 16 8 17 9 8 10 7 11 6 12
REMARK SMILES IDX 5 13 4 14 3 15 2 16 1 17
REMARK H PARENT
REMARK Flexibility Score: inf
ROOT
ATOM      1  C   UNL     1     180.490 182.335 191.400  1.00  0.00     0.000 C 
ENDROOT
BRANCH   1   2
ATOM      2  C   UNL     1     181.011 182.749 190.012  1.00  0.00     0.000 C 
BRANCH   2   3
ATOM      3  C   UNL     1     181.237 181.584 189.029  1.00  0.00     0.000 C 
BRANCH   3   4
ATOM      4  C   UNL     1     182.576 181.614 188.271  1.00  0.00     0.000 C 
BRANCH   4   5
ATOM      5  C   UNL     1     183.420 182.887 188.476  1.00  0.00     0.006 C 
BRANCH   5   6
ATOM      6  C   UNL     1     184.922 182.691 188.206  1.00  0.00     0.053 C 
BRANCH   6   7
ATOM      7  C   UNL     1     185.781 183.503 189.128  1.00  0.00     0.041 C 
ATOM      8  O   UNL     1     185.532 184.722 189.318  1.00  0.00    -0.550 OA
ATOM      9  O   UNL     1     186.878 182.921 189.751  1.00  0.00    -0.550 OA
ENDBRANCH   6   7
ENDBRANCH   5   6
ENDBRANCH   4   5
ENDBRANCH   3   4
ENDBRANCH   2   3
ENDBRANCH   1   2
BRANCH   1  10
ATOM     10  C   UNL     1     181.441 182.743 192.540  1.00  0.00     0.000 C 
BRANCH  10  11
ATOM     11  C   UNL     1     182.623 183.595 192.039  1.00  0.00    -0.000 C 
BRANCH  11  12
ATOM     12  C   UNL     1     184.005 182.953 192.274  1.00  0.00    -0.000 C 
BRANCH  12  13
ATOM     13  C   UNL     1     183.963 181.430 192.511  1.00  0.00    -0.000 C 
BRANCH  13  14
ATOM     14  C   UNL     1     184.520 180.632 191.318  1.00  0.00    -0.000 C 
BRANCH  14  15
ATOM     15  C   UNL     1     183.641 179.411 190.971  1.00  0.00    -0.000 C 
BRANCH  15  16
ATOM     16  C   UNL     1     182.477 179.190 191.952  1.00  0.00    -0.003 C 
ATOM     17  C   UNL     1     181.223 178.643 191.275  1.00  0.00     0.004 C 
ENDBRANCH  15  16
ENDBRANCH  14  15
ENDBRANCH  13  14
ENDBRANCH  12  13
ENDBRANCH  11  12
ENDBRANCH  10  11
ENDBRANCH   1  10
TORSDOF 13
ENDMDL
MODEL 7
REMARK VINA RESULT:     0.020      3.158      5.896
REMARK INTER + INTRA:          -2.786
REMARK INTER:                   0.000
REMARK INTRA:                  -2.786
REMARK UNBOUND:                -2.821
REMARK SMILES CCCCCCCCCCCCCCC(=O)[O-]
REMARK SMILES IDX 9 1 10 2 11 3 12 4 13 5 14 6 15 7 16 8 17 9 8 10 7 11 6 12
REMARK SMILES IDX 5 13 4 14 3 15 2 16 1 17
REMARK H PARENT
REMARK Flexibility Score: inf
ROOT
ATOM      1  C   UNL     1     176.481 186.712 184.646  1.00  0.00     0.000 C 
ENDROOT
BRANCH   1   2
ATOM      2  C   UNL     1     177.994 186.989 184.694  1.00  0.00     0.000 C 
BRANCH   2   3
ATOM      3  C   UNL     1     178.792 186.071 185.642  1.00  0.00     0.000 C 
BRANCH   3   4
ATOM      4  C   UNL     1     179.295 186.739 186.935  1.00  0.00     0.000 C 
BRANCH   4   5
ATOM      5  C   UNL     1     179.067 185.929 188.225  1.00  0.00     0.006 C 
BRANCH   5   6
ATOM      6  C   UNL     1     178.498 184.520 187.986  1.00  0.00     0.053 C 
BRANCH   6   7
ATOM      7  C   UNL     1     177.519 184.110 189.044  1.00  0.00     0.041 C 
ATOM      8  O   UNL     1     176.664 183.216 188.806  1.00  0.00    -0.550 OA
ATOM      9  O   UNL     1     177.525 184.740 190.282  1.00  0.00    -0.550 OA
ENDBRANCH   6   7
ENDBRANCH   5   6
ENDBRANCH   4   5
ENDBRANCH   3   4
ENDBRANCH   2   3
ENDBRANCH   1   2
BRANCH   1  10
ATOM     10  C   UNL     1     176.104 185.352 185.262  1.00  0.00     0.000 C 
BRANCH  10  11
ATOM     11  C   UNL     1     175.165 185.500 186.475  1.00  0.00    -0.000 C 
BRANCH  11  12
ATOM     12  C   UNL     1     175.004 186.950 186.973  1.00  0.00    -0.000 C 
BRANCH  12  13
ATOM     13  C   UNL     1     175.583 187.203 188.380  1.00  0.00    -0.000 C 
BRANCH  13  14
ATOM     14  C   UNL     1     176.371 188.523 188.466  1.00  0.00    -0.000 C 
BRANCH  14  15
ATOM     15  C   UNL     1     176.197 189.390 187.201  1.00  0.00    -0.000 C 
BRANCH  15  16
ATOM     16  C   UNL     1     177.501 190.050 186.721  1.00  0.00    -0.003 C 
ATOM     17  C   UNL     1     178.522 190.239 187.841  1.00  0.00     0.004 C 
ENDBRANCH  15  16
ENDBRANCH  14  15
ENDBRANCH  13  14
ENDBRANCH  12  13
ENDBRANCH  11  12
ENDBRANCH  10  11
ENDBRANCH   1  10
TORSDOF 13
ENDMDL
MODEL 8
REMARK VINA RESULT:     0.026      3.420      5.439
REMARK INTER + INTRA:          -2.775
REMARK INTER:                   0.000
REMARK INTRA:                  -2.775
REMARK UNBOUND:                -2.821
REMARK SMILES CCCCCCCCCCCCCCC(=O)[O-]
REMARK SMILES IDX 9 1 10 2 11 3 12 4 13 5 14 6 15 7 16 8 17 9 8 10 7 11 6 12
REMARK SMILES IDX 5 13 4 14 3 15 2 16 1 17
REMARK H PARENT
REMARK Flexibility Score: inf
ROOT
ATOM      1  C   UNL     1     179.425 187.244 187.935  1.00  0.00     0.000 C 
ENDROOT
BRANCH   1   2
ATOM      2  C   UNL     1     179.312 188.506 187.062  1.00  0.00     0.000 C 
BRANCH   2   3
ATOM      3  C   UNL     1     178.525 188.320 185.750  1.00  0.00     0.000 C 
BRANCH   3   4
ATOM      4  C   UNL     1     177.523 189.442 185.419  1.00  0.00     0.000 C 
BRANCH   4   5
ATOM      5  C   UNL     1     177.632 190.702 186.300  1.00  0.00     0.006 C 
BRANCH   5   6
ATOM      6  C   UNL     1     176.278 191.227 186.808  1.00  0.00     0.053 C 
BRANCH   6   7
ATOM      7  C   UNL     1     176.424 192.142 187.987  1.00  0.00     0.041 C 
ATOM      8  O   UNL     1     177.448 192.865 188.105  1.00  0.00    -0.550 OA
ATOM      9  O   UNL     1     175.448 192.167 188.975  1.00  0.00    -0.550 OA
ENDBRANCH   6   7
ENDBRANCH   5   6
ENDBRANCH   4   5
ENDBRANCH   3   4
ENDBRANCH   2   3
ENDBRANCH   1   2
BRANCH   1  10
ATOM     10  C   UNL     1     178.678 187.377 189.275  1.00  0.00     0.000 C 
BRANCH  10  11
ATOM     11  C   UNL     1     178.076 188.782 189.473  1.00  0.00    -0.000 C 
BRANCH  11  12
ATOM     12  C   UNL     1     176.542 188.794 189.623  1.00  0.00    -0.000 C 
BRANCH  12  13
ATOM     13  C   UNL     1     175.842 187.540 189.064  1.00  0.00    -0.000 C 
BRANCH  13  14
ATOM     14  C   UNL     1     175.115 187.812 187.734  1.00  0.00    -0.000 C 
BRANCH  14  15
ATOM     15  C   UNL     1     175.341 186.685 186.703  1.00  0.00    -0.000 C 
BRANCH  15  16
ATOM     16  C   UNL     1     176.157 185.502 187.251  1.00  0.00    -0.003 C 
ATOM     17  C   UNL     1     177.093 184.890 186.211  1.00  0.00     0.004 C 
ENDBRANCH  15  16
ENDBRANCH  14  15
ENDBRANCH  13  14
ENDBRANCH  12  13
ENDBRANCH  11  12
ENDBRANCH  10  11
ENDBRANCH   1  10
TORSDOF 13
ENDMDL
MODEL 9
REMARK VINA RESULT:     0.035      3.229      5.094
REMARK INTER + INTRA:          -2.759
REMARK INTER:                   0.000
REMARK INTRA:                  -2.759
REMARK UNBOUND:                -2.821
REMARK SMILES CCCCCCCCCCCCCCC(=O)[O-]
REMARK SMILES IDX 9 1 10 2 11 3 12 4 13 5 14 6 15 7 16 8 17 9 8 10 7 11 6 12
REMARK SMILES IDX 5 13 4 14 3 15 2 16 1 17
REMARK H PARENT
REMARK Flexibility Score: inf
ROOT
ATOM      1  C   UNL     1     185.183 187.422 190.254  1.00  0.00     0.000 C 
ENDROOT
BRANCH   1   2
ATOM      2  C   UNL     1     183.979 187.339 189.299  1.00  0.00     0.000 C 
BRANCH   2   3
ATOM      3  C   UNL     1     182.602 187.500 189.974  1.00  0.00     0.000 C 
BRANCH   3   4
ATOM      4  C   UNL     1     181.530 186.488 189.529  1.00  0.00     0.000 C 
BRANCH   4   5
ATOM      5  C   UNL     1     181.919 185.602 188.330  1.00  0.00     0.006 C 
BRANCH   5   6
ATOM      6  C   UNL     1     181.443 184.143 188.450  1.00  0.00     0.053 C 
BRANCH   6   7
ATOM      7  C   UNL     1     179.953 184.016 188.342  1.00  0.00     0.041 C 
ATOM      8  O   UNL     1     179.339 184.546 187.379  1.00  0.00    -0.550 OA
ATOM      9  O   UNL     1     179.238 183.343 189.325  1.00  0.00    -0.550 OA
ENDBRANCH   6   7
ENDBRANCH   5   6
ENDBRANCH   4   5
ENDBRANCH   3   4
ENDBRANCH   2   3
ENDBRANCH   1   2
BRANCH   1  10
ATOM     10  C   UNL     1     185.941 186.088 190.376  1.00  0.00     0.000 C 
BRANCH  10  11
ATOM     11  C   UNL     1     185.427 185.030 189.380  1.00  0.00    -0.000 C 
BRANCH  11  12
ATOM     12  C   UNL     1     184.812 183.784 190.046  1.00  0.00    -0.000 C 
BRANCH  12  13
ATOM     13  C   UNL     1     184.500 183.958 191.546  1.00  0.00    -0.000 C 
BRANCH  13  14
ATOM     14  C   UNL     1     182.988 183.969 191.838  1.00  0.00    -0.000 C 
BRANCH  14  15
ATOM     15  C   UNL     1     182.594 185.079 192.834  1.00  0.00    -0.000 C 
BRANCH  15  16
ATOM     16  C   UNL     1     183.793 185.860 193.395  1.00  0.00    -0.003 C 
ATOM     17  C   UNL     1     183.500 187.346 193.591  1.00  0.00     0.004 C 
ENDBRANCH  15  16
ENDBRANCH  14  15
ENDBRANCH  13  14
ENDBRANCH  12  13
ENDBRANCH  11  12
ENDBRANCH  10  11
ENDBRANCH   1  10
TORSDOF 13
ENDMDL
