MODEL 1
REMARK VINA RESULT:    -4.344      0.000      0.000
REMARK INTER + INTRA:          -9.853
REMARK INTER:                  -7.899
REMARK INTRA:                  -1.953
REMARK UNBOUND:                -1.953
REMARK SMILES CCCCCCCCCCCCCC[C@H](C)C(=O)[O-]
REMARK SMILES IDX 9 1 10 2 11 3 12 4 13 5 14 6 15 7 16 8 17 9 18 10 19 11 8 12
REMARK SMILES IDX 7 13 6 14 5 15 4 16 3 17 2 18 1 19
REMARK H PARENT
REMARK Flexibility Score: inf
ROOT
ATOM      1  C   UNL     1      46.481   3.284  21.482  1.00  0.00     0.000 C 
ENDROOT
BRANCH   1   2
ATOM      2  C   UNL     1      46.335   4.720  20.950  1.00  0.00     0.000 C 
BRANCH   2   3
ATOM      3  C   UNL     1      46.821   5.823  21.912  1.00  0.00     0.000 C 
BRANCH   3   4
ATOM      4  C   UNL     1      47.990   5.421  22.829  1.00  0.00     0.000 C 
BRANCH   4   5
ATOM      5  C   UNL     1      49.244   6.280  22.610  1.00  0.00     0.001 C 
BRANCH   5   6
ATOM      6  C   UNL     1      49.506   6.499  21.112  1.00  0.00     0.009 C 
BRANCH   6   7
ATOM      7  C   UNL     1      49.682   7.990  20.763  1.00  0.00     0.032 C 
ATOM      8  C   UNL     1      48.322   8.653  20.524  1.00  0.00     0.014 C 
BRANCH   7   9
ATOM      9  C   UNL     1      50.554   8.169  19.548  1.00  0.00     0.044 C 
ATOM     10  O   UNL     1      51.337   7.249  19.192  1.00  0.00    -0.550 OA
ATOM     11  O   UNL     1      50.503   9.347  18.814  1.00  0.00    -0.550 OA
ENDBRANCH   7   9
ENDBRANCH   6   7
ENDBRANCH   5   6
ENDBRANCH   4   5
ENDBRANCH   3   4
ENDBRANCH   2   3
ENDBRANCH   1   2
BRANCH   1  12
ATOM     12  C   UNL     1      46.806   2.269  20.372  1.00  0.00     0.000 C 
BRANCH  12  13
ATOM     13  C   UNL     1      48.133   1.535  20.614  1.00  0.00    -0.000 C 
BRANCH  13  14
ATOM     14  C   UNL     1      48.901   2.084  21.830  1.00  0.00    -0.000 C 
BRANCH  14  15
ATOM     15  C   UNL     1      50.291   2.634  21.444  1.00  0.00    -0.000 C 
BRANCH  15  16
ATOM     16  C   UNL     1      50.383   3.111  19.981  1.00  0.00    -0.000 C 
BRANCH  16  17
ATOM     17  C   UNL     1      51.805   3.126  19.397  1.00  0.00    -0.000 C 
BRANCH  17  18
ATOM     18  C   UNL     1      52.803   2.324  20.244  1.00  0.00    -0.003 C 
ATOM     19  C   UNL     1      53.220   1.041  19.531  1.00  0.00     0.004 C 
ENDBRANCH  17  18
ENDBRANCH  16  17
ENDBRANCH  15  16
ENDBRANCH  14  15
ENDBRANCH  13  14
ENDBRANCH  12  13
ENDBRANCH   1  12
TORSDOF 14
ENDMDL
MODEL 2
REMARK VINA RESULT:    -4.283      2.391      5.774
REMARK INTER + INTRA:          -9.742
REMARK INTER:                  -8.107
REMARK INTRA:                  -1.635
REMARK UNBOUND:                -1.953
REMARK SMILES CCCCCCCCCCCCCC[C@H](C)C(=O)[O-]
REMARK SMILES IDX 9 1 10 2 11 3 12 4 13 5 14 6 15 7 16 8 17 9 18 10 19 11 8 12
REMARK SMILES IDX 7 13 6 14 5 15 4 16 3 17 2 18 1 19
REMARK H PARENT
REMARK Flexibility Score: inf
ROOT
ATOM      1  C   UNL     1      50.082   6.004  25.557  1.00  0.00     0.000 C 
ENDROOT
BRANCH   1   2
ATOM      2  C   UNL     1      48.965   4.954  25.431  1.00  0.00     0.000 C 
BRANCH   2   3
ATOM      3  C   UNL     1      48.158   5.018  24.118  1.00  0.00     0.000 C 
BRANCH   3   4
ATOM      4  C   UNL     1      48.479   3.910  23.100  1.00  0.00     0.000 C 
BRANCH   4   5
ATOM      5  C   UNL     1      49.932   3.956  22.606  1.00  0.00     0.001 C 
BRANCH   5   6
ATOM      6  C   UNL     1      49.991   3.994  21.071  1.00  0.00     0.009 C 
BRANCH   6   7
ATOM      7  C   UNL     1      50.549   2.685  20.476  1.00  0.00     0.032 C 
ATOM      8  C   UNL     1      51.126   1.793  21.581  1.00  0.00     0.014 C 
BRANCH   7   9
ATOM      9  C   UNL     1      51.609   2.963  19.443  1.00  0.00     0.044 C 
ATOM     10  O   UNL     1      51.558   4.014  18.752  1.00  0.00    -0.550 OA
ATOM     11  O   UNL     1      52.648   2.062  19.243  1.00  0.00    -0.550 OA
ENDBRANCH   7   9
ENDBRANCH   6   7
ENDBRANCH   5   6
ENDBRANCH   4   5
ENDBRANCH   3   4
ENDBRANCH   2   3
ENDBRANCH   1   2
BRANCH   1  12
ATOM     12  C   UNL     1      49.541   7.440  25.668  1.00  0.00     0.000 C 
BRANCH  12  13
ATOM     13  C   UNL     1      49.925   8.310  24.461  1.00  0.00    -0.000 C 
BRANCH  13  14
ATOM     14  C   UNL     1      48.708   8.990  23.810  1.00  0.00    -0.000 C 
BRANCH  14  15
ATOM     15  C   UNL     1      48.178   8.199  22.595  1.00  0.00    -0.000 C 
BRANCH  15  16
ATOM     16  C   UNL     1      49.281   7.762  21.612  1.00  0.00    -0.000 C 
BRANCH  16  17
ATOM     17  C   UNL     1      49.057   8.202  20.156  1.00  0.00    -0.000 C 
BRANCH  17  18
ATOM     18  C   UNL     1      50.357   8.630  19.459  1.00  0.00    -0.003 C 
ATOM     19  C   UNL     1      51.220   7.419  19.116  1.00  0.00     0.004 C 
ENDBRANCH  17  18
ENDBRANCH  16  17
ENDBRANCH  15  16
ENDBRANCH  14  15
ENDBRANCH  13  14
ENDBRANCH  12  13
ENDBRANCH   1  12
TORSDOF 14
ENDMDL
MODEL 3
REMARK VINA RESULT:    -4.217      3.649      6.746
REMARK INTER + INTRA:          -9.622
REMARK INTER:                  -7.909
REMARK INTRA:                  -1.713
REMARK UNBOUND:                -1.953
REMARK SMILES CCCCCCCCCCCCCC[C@H](C)C(=O)[O-]
REMARK SMILES IDX 9 1 10 2 11 3 12 4 13 5 14 6 15 7 16 8 17 9 18 10 19 11 8 12
REMARK SMILES IDX 7 13 6 14 5 15 4 16 3 17 2 18 1 19
REMARK H PARENT
REMARK Flexibility Score: inf
ROOT
ATOM      1  C   UNL     1      50.004   5.342  26.708  1.00  0.00     0.000 C 
ENDROOT
BRANCH   1   2
ATOM      2  C   UNL     1      49.826   5.669  25.215  1.00  0.00     0.000 C 
BRANCH   2   3
ATOM      3  C   UNL     1      50.322   7.066  24.791  1.00  0.00     0.000 C 
BRANCH   3   4
ATOM      4  C   UNL     1      50.030   7.446  23.329  1.00  0.00     0.000 C 
BRANCH   4   5
ATOM      5  C   UNL     1      49.162   6.409  22.604  1.00  0.00     0.001 C 
BRANCH   5   6
ATOM      6  C   UNL     1      49.088   6.708  21.098  1.00  0.00     0.009 C 
BRANCH   6   7
ATOM      7  C   UNL     1      49.446   8.174  20.778  1.00  0.00     0.032 C 
ATOM      8  C   UNL     1      48.188   8.969  20.412  1.00  0.00     0.014 C 
BRANCH   7   9
ATOM      9  C   UNL     1      50.444   8.260  19.654  1.00  0.00     0.044 C 
ATOM     10  O   UNL     1      50.474   9.276  18.912  1.00  0.00    -0.550 OA
ATOM     11  O   UNL     1      51.338   7.220  19.426  1.00  0.00    -0.550 OA
ENDBRANCH   7   9
ENDBRANCH   6   7
ENDBRANCH   5   6
ENDBRANCH   4   5
ENDBRANCH   3   4
ENDBRANCH   2   3
ENDBRANCH   1   2
BRANCH   1  12
ATOM     12  C   UNL     1      49.629   6.520  27.624  1.00  0.00     0.000 C 
BRANCH  12  13
ATOM     13  C   UNL     1      48.136   6.538  27.982  1.00  0.00    -0.000 C 
BRANCH  13  14
ATOM     14  C   UNL     1      47.573   7.965  28.107  1.00  0.00    -0.000 C 
BRANCH  14  15
ATOM     15  C   UNL     1      46.595   8.309  26.964  1.00  0.00    -0.000 C 
BRANCH  15  16
ATOM     16  C   UNL     1      47.280   8.486  25.595  1.00  0.00    -0.000 C 
BRANCH  16  17
ATOM     17  C   UNL     1      47.078   9.865  24.947  1.00  0.00    -0.000 C 
BRANCH  17  18
ATOM     18  C   UNL     1      46.471   9.776  23.539  1.00  0.00    -0.003 C 
ATOM     19  C   UNL     1      46.259  11.165  22.945  1.00  0.00     0.004 C 
ENDBRANCH  17  18
ENDBRANCH  16  17
ENDBRANCH  15  16
ENDBRANCH  14  15
ENDBRANCH  13  14
ENDBRANCH  12  13
ENDBRANCH   1  12
TORSDOF 14
ENDMDL
MODEL 4
REMARK VINA RESULT:    -4.183      2.209      5.054
REMARK INTER + INTRA:          -9.560
REMARK INTER:                  -8.142
REMARK INTRA:                  -1.418
REMARK UNBOUND:                -1.953
REMARK SMILES CCCCCCCCCCCCCC[C@H](C)C(=O)[O-]
REMARK SMILES IDX 9 1 10 2 11 3 12 4 13 5 14 6 15 7 16 8 17 9 18 10 19 11 8 12
REMARK SMILES IDX 7 13 6 14 5 15 4 16 3 17 2 18 1 19
REMARK H PARENT
REMARK Flexibility Score: inf
ROOT
ATOM      1  C   UNL     1      51.572   4.537  18.317  1.00  0.00     0.000 C 
ENDROOT
BRANCH   1   2
ATOM      2  C   UNL     1      52.232   5.926  18.371  1.00  0.00     0.000 C 
BRANCH   2   3
ATOM      3  C   UNL     1      51.247   7.113  18.391  1.00  0.00     0.000 C 
BRANCH   3   4
ATOM      4  C   UNL     1      51.017   7.746  19.775  1.00  0.00     0.000 C 
BRANCH   4   5
ATOM      5  C   UNL     1      49.536   8.031  20.063  1.00  0.00     0.001 C 
BRANCH   5   6
ATOM      6  C   UNL     1      48.961   7.004  21.051  1.00  0.00     0.009 C 
BRANCH   6   7
ATOM      7  C   UNL     1      49.628   7.093  22.438  1.00  0.00     0.032 C 
ATOM      8  C   UNL     1      49.438   5.784  23.213  1.00  0.00     0.014 C 
BRANCH   7   9
ATOM      9  C   UNL     1      49.073   8.240  23.240  1.00  0.00     0.044 C 
ATOM     10  O   UNL     1      47.912   8.669  23.008  1.00  0.00    -0.550 OA
ATOM     11  O   UNL     1      49.836   8.836  24.237  1.00  0.00    -0.550 OA
ENDBRANCH   7   9
ENDBRANCH   6   7
ENDBRANCH   5   6
ENDBRANCH   4   5
ENDBRANCH   3   4
ENDBRANCH   2   3
ENDBRANCH   1   2
BRANCH   1  12
ATOM     12  C   UNL     1      52.329   3.486  19.148  1.00  0.00     0.000 C 
BRANCH  12  13
ATOM     13  C   UNL     1      51.385   2.554  19.921  1.00  0.00    -0.000 C 
BRANCH  13  14
ATOM     14  C   UNL     1      50.226   3.310  20.596  1.00  0.00    -0.000 C 
BRANCH  14  15
ATOM     15  C   UNL     1      48.946   2.453  20.692  1.00  0.00    -0.000 C 
BRANCH  15  16
ATOM     16  C   UNL     1      47.664   3.279  20.910  1.00  0.00    -0.000 C 
BRANCH  16  17
ATOM     17  C   UNL     1      46.368   2.589  20.453  1.00  0.00    -0.000 C 
BRANCH  17  18
ATOM     18  C   UNL     1      45.279   3.588  20.034  1.00  0.00    -0.003 C 
ATOM     19  C   UNL     1      43.953   3.273  20.720  1.00  0.00     0.004 C 
ENDBRANCH  17  18
ENDBRANCH  16  17
ENDBRANCH  15  16
ENDBRANCH  14  15
ENDBRANCH  13  14
ENDBRANCH  12  13
ENDBRANCH   1  12
TORSDOF 14
ENDMDL
MODEL 5
REMARK VINA RESULT:    -4.038      2.662      5.400
REMARK INTER + INTRA:          -9.297
REMARK INTER:                  -6.866
REMARK INTRA:                  -2.431
REMARK UNBOUND:                -1.953
REMARK SMILES CCCCCCCCCCCCCC[C@H](C)C(=O)[O-]
REMARK SMILES IDX 9 1 10 2 11 3 12 4 13 5 14 6 15 7 16 8 17 9 18 10 19 11 8 12
REMARK SMILES IDX 7 13 6 14 5 15 4 16 3 17 2 18 1 19
REMARK H PARENT
REMARK Flexibility Score: inf
ROOT
ATOM      1  C   UNL     1      48.642   3.720  24.899  1.00  0.00     0.000 C 
ENDROOT
BRANCH   1   2
ATOM      2  C   UNL     1      48.347   3.303  23.448  1.00  0.00     0.000 C 
BRANCH   2   3
ATOM      3  C   UNL     1      48.903   4.257  22.370  1.00  0.00     0.000 C 
BRANCH   3   4
ATOM      4  C   UNL     1      47.838   4.987  21.532  1.00  0.00     0.000 C 
BRANCH   4   5
ATOM      5  C   UNL     1      48.087   6.499  21.436  1.00  0.00     0.001 C 
BRANCH   5   6
ATOM      6  C   UNL     1      49.545   6.793  21.051  1.00  0.00     0.009 C 
BRANCH   6   7
ATOM      7  C   UNL     1      49.705   8.178  20.391  1.00  0.00     0.032 C 
ATOM      8  C   UNL     1      48.335   8.782  20.065  1.00  0.00     0.014 C 
BRANCH   7   9
ATOM      9  C   UNL     1      50.532   8.092  19.136  1.00  0.00     0.044 C 
ATOM     10  O   UNL     1      50.217   8.773  18.124  1.00  0.00    -0.550 OA
ATOM     11  O   UNL     1      51.645   7.263  19.082  1.00  0.00    -0.550 OA
ENDBRANCH   7   9
ENDBRANCH   6   7
ENDBRANCH   5   6
ENDBRANCH   4   5
ENDBRANCH   3   4
ENDBRANCH   2   3
ENDBRANCH   1   2
BRANCH   1  12
ATOM     12  C   UNL     1      48.322   5.200  25.170  1.00  0.00     0.000 C 
BRANCH  12  13
ATOM     13  C   UNL     1      49.528   5.972  25.727  1.00  0.00    -0.000 C 
BRANCH  13  14
ATOM     14  C   UNL     1      50.336   6.684  24.627  1.00  0.00    -0.000 C 
BRANCH  14  15
ATOM     15  C   UNL     1      50.095   8.208  24.619  1.00  0.00    -0.000 C 
BRANCH  15  16
ATOM     16  C   UNL     1      48.616   8.602  24.804  1.00  0.00    -0.000 C 
BRANCH  16  17
ATOM     17  C   UNL     1      48.038   9.477  23.680  1.00  0.00    -0.000 C 
BRANCH  17  18
ATOM     18  C   UNL     1      46.514   9.340  23.547  1.00  0.00    -0.003 C 
ATOM     19  C   UNL     1      46.044   7.964  24.008  1.00  0.00     0.004 C 
ENDBRANCH  17  18
ENDBRANCH  16  17
ENDBRANCH  15  16
ENDBRANCH  14  15
ENDBRANCH  13  14
ENDBRANCH  12  13
ENDBRANCH   1  12
TORSDOF 14
ENDMDL
MODEL 6
REMARK VINA RESULT:    -4.023      4.177      6.321
REMARK INTER + INTRA:          -9.269
REMARK INTER:                  -7.400
REMARK INTRA:                  -1.869
REMARK UNBOUND:                -1.953
REMARK SMILES CCCCCCCCCCCCCC[C@H](C)C(=O)[O-]
REMARK SMILES IDX 9 1 10 2 11 3 12 4 13 5 14 6 15 7 16 8 17 9 18 10 19 11 8 12
REMARK SMILES IDX 7 13 6 14 5 15 4 16 3 17 2 18 1 19
REMARK H PARENT
REMARK Flexibility Score: inf
ROOT
ATOM      1  C   UNL     1      50.237   5.738  26.997  1.00  0.00     0.000 C 
ENDROOT
BRANCH   1   2
ATOM      2  C   UNL     1      49.125   4.753  27.395  1.00  0.00     0.000 C 
BRANCH   2   3
ATOM      3  C   UNL     1      47.766   5.403  27.725  1.00  0.00     0.000 C 
BRANCH   3   4
ATOM      4  C   UNL     1      47.833   6.888  28.125  1.00  0.00     0.000 C 
BRANCH   4   5
ATOM      5  C   UNL     1      46.609   7.688  27.659  1.00  0.00     0.001 C 
BRANCH   5   6
ATOM      6  C   UNL     1      47.003   8.733  26.604  1.00  0.00     0.009 C 
BRANCH   6   7
ATOM      7  C   UNL     1      46.121   8.648  25.342  1.00  0.00     0.032 C 
ATOM      8  C   UNL     1      46.317   7.301  24.637  1.00  0.00     0.014 C 
BRANCH   7   9
ATOM      9  C   UNL     1      46.426   9.770  24.385  1.00  0.00     0.044 C 
ATOM     10  O   UNL     1      45.489  10.362  23.787  1.00  0.00    -0.550 OA
ATOM     11  O   UNL     1      47.740  10.158  24.153  1.00  0.00    -0.550 OA
ENDBRANCH   7   9
ENDBRANCH   6   7
ENDBRANCH   5   6
ENDBRANCH   4   5
ENDBRANCH   3   4
ENDBRANCH   2   3
ENDBRANCH   1   2
BRANCH   1  12
ATOM     12  C   UNL     1      50.335   5.941  25.475  1.00  0.00     0.000 C 
BRANCH  12  13
ATOM     13  C   UNL     1      50.000   7.379  25.048  1.00  0.00    -0.000 C 
BRANCH  13  14
ATOM     14  C   UNL     1      49.960   7.549  23.519  1.00  0.00    -0.000 C 
BRANCH  14  15
ATOM     15  C   UNL     1      49.424   6.289  22.805  1.00  0.00    -0.000 C 
BRANCH  15  16
ATOM     16  C   UNL     1      48.768   6.583  21.442  1.00  0.00    -0.000 C 
BRANCH  16  17
ATOM     17  C   UNL     1      49.136   7.943  20.829  1.00  0.00    -0.000 C 
BRANCH  17  18
ATOM     18  C   UNL     1      50.382   7.873  19.934  1.00  0.00    -0.003 C 
ATOM     19  C   UNL     1      50.367   8.981  18.886  1.00  0.00     0.004 C 
ENDBRANCH  17  18
ENDBRANCH  16  17
ENDBRANCH  15  16
ENDBRANCH  14  15
ENDBRANCH  13  14
ENDBRANCH  12  13
ENDBRANCH   1  12
TORSDOF 14
ENDMDL
MODEL 7
REMARK VINA RESULT:    -4.010      2.993      5.164
REMARK INTER + INTRA:          -9.245
REMARK INTER:                  -7.049
REMARK INTRA:                  -2.196
REMARK UNBOUND:                -1.953
REMARK SMILES CCCCCCCCCCCCCC[C@H](C)C(=O)[O-]
REMARK SMILES IDX 9 1 10 2 11 3 12 4 13 5 14 6 15 7 16 8 17 9 18 10 19 11 8 12
REMARK SMILES IDX 7 13 6 14 5 15 4 16 3 17 2 18 1 19
REMARK H PARENT
REMARK Flexibility Score: inf
ROOT
ATOM      1  C   UNL     1      44.200   3.127  20.783  1.00  0.00     0.000 C 
ENDROOT
BRANCH   1   2
ATOM      2  C   UNL     1      45.494   3.929  20.560  1.00  0.00     0.000 C 
BRANCH   2   3
ATOM      3  C   UNL     1      46.798   3.128  20.755  1.00  0.00     0.000 C 
BRANCH   3   4
ATOM      4  C   UNL     1      47.577   3.452  22.042  1.00  0.00     0.000 C 
BRANCH   4   5
ATOM      5  C   UNL     1      49.081   3.640  21.800  1.00  0.00     0.001 C 
BRANCH   5   6
ATOM      6  C   UNL     1      49.548   2.826  20.583  1.00  0.00     0.009 C 
BRANCH   6   7
ATOM      7  C   UNL     1      50.918   2.159  20.819  1.00  0.00     0.032 C 
ATOM      8  C   UNL     1      51.362   2.339  22.275  1.00  0.00     0.014 C 
BRANCH   7   9
ATOM      9  C   UNL     1      51.966   2.721  19.896  1.00  0.00     0.044 C 
ATOM     10  O   UNL     1      51.632   3.473  18.944  1.00  0.00    -0.550 OA
ATOM     11  O   UNL     1      53.308   2.413  20.086  1.00  0.00    -0.550 OA
ENDBRANCH   7   9
ENDBRANCH   6   7
ENDBRANCH   5   6
ENDBRANCH   4   5
ENDBRANCH   3   4
ENDBRANCH   2   3
ENDBRANCH   1   2
BRANCH   1  12
ATOM     12  C   UNL     1      44.462   1.629  21.018  1.00  0.00     0.000 C 
BRANCH  12  13
ATOM     13  C   UNL     1      43.370   0.966  21.871  1.00  0.00    -0.000 C 
BRANCH  13  14
ATOM     14  C   UNL     1      43.946   0.175  23.060  1.00  0.00    -0.000 C 
BRANCH  14  15
ATOM     15  C   UNL     1      45.136   0.901  23.722  1.00  0.00    -0.000 C 
BRANCH  15  16
ATOM     16  C   UNL     1      46.062  -0.034  24.525  1.00  0.00    -0.000 C 
BRANCH  16  17
ATOM     17  C   UNL     1      46.965  -0.936  23.668  1.00  0.00    -0.000 C 
BRANCH  17  18
ATOM     18  C   UNL     1      48.011  -0.144  22.870  1.00  0.00    -0.003 C 
ATOM     19  C   UNL     1      47.812  -0.331  21.369  1.00  0.00     0.004 C 
ENDBRANCH  17  18
ENDBRANCH  16  17
ENDBRANCH  15  16
ENDBRANCH  14  15
ENDBRANCH  13  14
ENDBRANCH  12  13
ENDBRANCH   1  12
TORSDOF 14
ENDMDL
MODEL 8
REMARK VINA RESULT:    -4.000      4.050      6.501
REMARK INTER + INTRA:          -9.227
REMARK INTER:                  -7.458
REMARK INTRA:                  -1.769
REMARK UNBOUND:                -1.953
REMARK SMILES CCCCCCCCCCCCCC[C@H](C)C(=O)[O-]
REMARK SMILES IDX 9 1 10 2 11 3 12 4 13 5 14 6 15 7 16 8 17 9 18 10 19 11 8 12
REMARK SMILES IDX 7 13 6 14 5 15 4 16 3 17 2 18 1 19
REMARK H PARENT
REMARK Flexibility Score: inf
ROOT
ATOM      1  C   UNL     1      45.709   3.348  20.302  1.00  0.00     0.000 C 
ENDROOT
BRANCH   1   2
ATOM      2  C   UNL     1      46.352   1.951  20.257  1.00  0.00     0.000 C 
BRANCH   2   3
ATOM      3  C   UNL     1      47.865   1.921  20.552  1.00  0.00     0.000 C 
BRANCH   3   4
ATOM      4  C   UNL     1      48.347   2.944  21.596  1.00  0.00     0.000 C 
BRANCH   4   5
ATOM      5  C   UNL     1      49.837   3.286  21.455  1.00  0.00     0.001 C 
BRANCH   5   6
ATOM      6  C   UNL     1      50.602   2.958  22.747  1.00  0.00     0.009 C 
BRANCH   6   7
ATOM      7  C   UNL     1      51.662   1.859  22.534  1.00  0.00     0.032 C 
ATOM      8  C   UNL     1      52.250   1.943  21.121  1.00  0.00     0.014 C 
BRANCH   7   9
ATOM      9  C   UNL     1      51.081   0.488  22.760  1.00  0.00     0.044 C 
ATOM     10  O   UNL     1      50.057   0.347  23.479  1.00  0.00    -0.550 OA
ATOM     11  O   UNL     1      51.670  -0.629  22.180  1.00  0.00    -0.550 OA
ENDBRANCH   7   9
ENDBRANCH   6   7
ENDBRANCH   5   6
ENDBRANCH   4   5
ENDBRANCH   3   4
ENDBRANCH   2   3
ENDBRANCH   1   2
BRANCH   1  12
ATOM     12  C   UNL     1      44.203   3.300  20.613  1.00  0.00     0.000 C 
BRANCH  12  13
ATOM     13  C   UNL     1      43.877   2.408  21.821  1.00  0.00    -0.000 C 
BRANCH  13  14
ATOM     14  C   UNL     1      42.997   1.202  21.446  1.00  0.00    -0.000 C 
BRANCH  14  15
ATOM     15  C   UNL     1      43.375  -0.067  22.240  1.00  0.00    -0.000 C 
BRANCH  15  16
ATOM     16  C   UNL     1      43.609   0.190  23.742  1.00  0.00    -0.000 C 
BRANCH  16  17
ATOM     17  C   UNL     1      44.963  -0.303  24.276  1.00  0.00    -0.000 C 
BRANCH  17  18
ATOM     18  C   UNL     1      46.146   0.163  23.415  1.00  0.00    -0.003 C 
ATOM     19  C   UNL     1      46.900  -1.026  22.829  1.00  0.00     0.004 C 
ENDBRANCH  17  18
ENDBRANCH  16  17
ENDBRANCH  15  16
ENDBRANCH  14  15
ENDBRANCH  13  14
ENDBRANCH  12  13
ENDBRANCH   1  12
TORSDOF 14
ENDMDL
MODEL 9
REMARK VINA RESULT:    -3.977      3.841      7.123
REMARK INTER + INTRA:          -9.186
REMARK INTER:                  -6.939
REMARK INTRA:                  -2.248
REMARK UNBOUND:                -1.953
REMARK SMILES CCCCCCCCCCCCCC[C@H](C)C(=O)[O-]
REMARK SMILES IDX 9 1 10 2 11 3 12 4 13 5 14 6 15 7 16 8 17 9 18 10 19 11 8 12
REMARK SMILES IDX 7 13 6 14 5 15 4 16 3 17 2 18 1 19
REMARK H PARENT
REMARK Flexibility Score: inf
ROOT
ATOM      1  C   UNL     1      49.544   6.848  27.683  1.00  0.00     0.000 C 
ENDROOT
BRANCH   1   2
ATOM      2  C   UNL     1      49.797   5.658  26.741  1.00  0.00     0.000 C 
BRANCH   2   3
ATOM      3  C   UNL     1      50.322   6.037  25.341  1.00  0.00     0.000 C 
BRANCH   3   4
ATOM      4  C   UNL     1      50.259   7.537  25.003  1.00  0.00     0.000 C 
BRANCH   4   5
ATOM      5  C   UNL     1      49.628   7.814  23.632  1.00  0.00     0.001 C 
BRANCH   5   6
ATOM      6  C   UNL     1      48.956   6.552  23.069  1.00  0.00     0.009 C 
BRANCH   6   7
ATOM      7  C   UNL     1      48.867   6.576  21.530  1.00  0.00     0.032 C 
ATOM      8  C   UNL     1      49.585   7.807  20.967  1.00  0.00     0.014 C 
BRANCH   7   9
ATOM      9  C   UNL     1      47.435   6.569  21.065  1.00  0.00     0.044 C 
ATOM     10  O   UNL     1      46.956   7.575  20.478  1.00  0.00    -0.550 OA
ATOM     11  O   UNL     1      46.631   5.456  21.282  1.00  0.00    -0.550 OA
ENDBRANCH   7   9
ENDBRANCH   6   7
ENDBRANCH   5   6
ENDBRANCH   4   5
ENDBRANCH   3   4
ENDBRANCH   2   3
ENDBRANCH   1   2
BRANCH   1  12
ATOM     12  C   UNL     1      48.052   7.051  27.998  1.00  0.00     0.000 C 
BRANCH  12  13
ATOM     13  C   UNL     1      47.137   6.224  27.082  1.00  0.00    -0.000 C 
BRANCH  13  14
ATOM     14  C   UNL     1      46.563   7.050  25.916  1.00  0.00    -0.000 C 
BRANCH  14  15
ATOM     15  C   UNL     1      46.626   8.567  26.190  1.00  0.00    -0.000 C 
BRANCH  15  16
ATOM     16  C   UNL     1      45.771   9.407  25.221  1.00  0.00    -0.000 C 
BRANCH  16  17
ATOM     17  C   UNL     1      46.300   9.463  23.778  1.00  0.00    -0.000 C 
BRANCH  17  18
ATOM     18  C   UNL     1      47.296  10.610  23.555  1.00  0.00    -0.003 C 
ATOM     19  C   UNL     1      46.600  11.965  23.648  1.00  0.00     0.004 C 
ENDBRANCH  17  18
ENDBRANCH  16  17
ENDBRANCH  15  16
ENDBRANCH  14  15
ENDBRANCH  13  14
ENDBRANCH  12  13
ENDBRANCH   1  12
TORSDOF 14
ENDMDL
