MODEL 1
REMARK VINA RESULT:    -3.544      0.000      0.000
REMARK INTER + INTRA:          -4.595
REMARK INTER:                  -4.476
REMARK INTRA:                  -0.119
REMARK UNBOUND:                -0.119
REMARK SMILES CCCCCCO
REMARK SMILES IDX 4 1 3 2 2 3 1 4 5 5 6 6 7 7
REMARK H PARENT 7 8
REMARK Flexibility Score: inf
ROOT
ATOM      1  C   UNL     1     172.267 173.025 208.869  1.00  0.00     0.002 C 
ENDROOT
BRANCH   1   2
ATOM      2  C   UNL     1     172.452 172.452 207.453  1.00  0.00    -0.000 C 
BRANCH   2   3
ATOM      3  C   UNL     1     172.850 170.966 207.400  1.00  0.00    -0.003 C 
ATOM      4  C   UNL     1     173.834 170.571 208.501  1.00  0.00     0.004 C 
ENDBRANCH   2   3
ENDBRANCH   1   2
BRANCH   1   5
ATOM      5  C   UNL     1     170.898 172.680 209.479  1.00  0.00     0.028 C 
BRANCH   5   6
ATOM      6  C   UNL     1     169.746 173.034 208.533  1.00  0.00     0.156 C 
BRANCH   6   7
ATOM      7  O   UNL     1     168.702 173.654 209.233  1.00  0.00    -0.396 OA
ATOM      8  H   UNL     1     168.459 174.472 208.726  1.00  0.00     0.210 HD
ENDBRANCH   6   7
ENDBRANCH   5   6
ENDBRANCH   1   5
TORSDOF 5
ENDMDL
MODEL 2
REMARK VINA RESULT:    -3.529      8.215      8.789
REMARK INTER + INTRA:          -4.577
REMARK INTER:                  -4.441
REMARK INTRA:                  -0.136
REMARK UNBOUND:                -0.119
REMARK SMILES CCCCCCO
REMARK SMILES IDX 4 1 3 2 2 3 1 4 5 5 6 6 7 7
REMARK H PARENT 7 8
REMARK Flexibility Score: inf
ROOT
ATOM      1  C   UNL     1     169.901 165.546 212.597  1.00  0.00     0.002 C 
ENDROOT
BRANCH   1   2
ATOM      2  C   UNL     1     169.962 165.159 214.086  1.00  0.00    -0.000 C 
BRANCH   2   3
ATOM      3  C   UNL     1     170.693 166.167 214.990  1.00  0.00    -0.003 C 
ATOM      4  C   UNL     1     170.718 167.582 214.410  1.00  0.00     0.004 C 
ENDBRANCH   2   3
ENDBRANCH   1   2
BRANCH   1   5
ATOM      5  C   UNL     1     168.534 165.249 211.959  1.00  0.00     0.028 C 
BRANCH   5   6
ATOM      6  C   UNL     1     167.382 165.850 212.771  1.00  0.00     0.156 C 
BRANCH   6   7
ATOM      7  O   UNL     1     166.148 165.547 212.179  1.00  0.00    -0.396 OA
ATOM      8  H   UNL     1     166.251 164.672 211.724  1.00  0.00     0.210 HD
ENDBRANCH   6   7
ENDBRANCH   5   6
ENDBRANCH   1   5
TORSDOF 5
ENDMDL
MODEL 3
REMARK VINA RESULT:    -3.471      3.114      3.931
REMARK INTER + INTRA:          -4.503
REMARK INTER:                  -4.362
REMARK INTRA:                  -0.142
REMARK UNBOUND:                -0.119
REMARK SMILES CCCCCCO
REMARK SMILES IDX 4 1 3 2 2 3 1 4 5 5 6 6 7 7
REMARK H PARENT 7 8
REMARK Flexibility Score: inf
ROOT
ATOM      1  C   UNL     1     171.134 170.951 208.074  1.00  0.00     0.002 C 
ENDROOT
BRANCH   1   2
ATOM      2  C   UNL     1     170.935 172.351 207.465  1.00  0.00    -0.000 C 
BRANCH   2   3
ATOM      3  C   UNL     1     170.921 172.394 205.926  1.00  0.00    -0.003 C 
ATOM      4  C   UNL     1     171.157 171.025 205.287  1.00  0.00     0.004 C 
ENDBRANCH   2   3
ENDBRANCH   1   2
BRANCH   1   5
ATOM      5  C   UNL     1     172.328 170.885 209.040  1.00  0.00     0.028 C 
BRANCH   5   6
ATOM      6  C   UNL     1     173.643 170.609 208.304  1.00  0.00     0.156 C 
BRANCH   6   7
ATOM      7  O   UNL     1     174.617 170.129 209.192  1.00  0.00    -0.396 OA
ATOM      8  H   UNL     1     174.320 170.371 210.107  1.00  0.00     0.210 HD
ENDBRANCH   6   7
ENDBRANCH   5   6
ENDBRANCH   1   5
TORSDOF 5
ENDMDL
MODEL 4
REMARK VINA RESULT:    -3.468      7.728      7.827
REMARK INTER + INTRA:          -4.500
REMARK INTER:                  -4.441
REMARK INTRA:                  -0.060
REMARK UNBOUND:                -0.119
REMARK SMILES CCCCCCO
REMARK SMILES IDX 4 1 3 2 2 3 1 4 5 5 6 6 7 7
REMARK H PARENT 7 8
REMARK Flexibility Score: inf
ROOT
ATOM      1  C   UNL     1     173.304 178.344 213.084  1.00  0.00     0.002 C 
ENDROOT
BRANCH   1   2
ATOM      2  C   UNL     1     174.703 177.717 213.225  1.00  0.00    -0.000 C 
BRANCH   2   3
ATOM      3  C   UNL     1     175.713 178.134 212.142  1.00  0.00    -0.003 C 
ATOM      4  C   UNL     1     177.156 177.781 212.502  1.00  0.00     0.004 C 
ENDBRANCH   2   3
ENDBRANCH   1   2
BRANCH   1   5
ATOM      5  C   UNL     1     172.341 177.914 214.203  1.00  0.00     0.028 C 
BRANCH   5   6
ATOM      6  C   UNL     1     172.784 176.606 214.866  1.00  0.00     0.156 C 
BRANCH   6   7
ATOM      7  O   UNL     1     172.188 175.504 214.236  1.00  0.00    -0.396 OA
ATOM      8  H   UNL     1     171.274 175.782 213.969  1.00  0.00     0.210 HD
ENDBRANCH   6   7
ENDBRANCH   5   6
ENDBRANCH   1   5
TORSDOF 5
ENDMDL
MODEL 5
REMARK VINA RESULT:    -3.404      2.762      4.249
REMARK INTER + INTRA:          -4.419
REMARK INTER:                  -4.294
REMARK INTRA:                  -0.125
REMARK UNBOUND:                -0.119
REMARK SMILES CCCCCCO
REMARK SMILES IDX 4 1 3 2 2 3 1 4 5 5 6 6 7 7
REMARK H PARENT 7 8
REMARK Flexibility Score: inf
ROOT
ATOM      1  C   UNL     1     172.538 172.467 207.592  1.00  0.00     0.002 C 
ENDROOT
BRANCH   1   2
ATOM      2  C   UNL     1     172.141 173.100 208.939  1.00  0.00    -0.000 C 
BRANCH   2   3
ATOM      3  C   UNL     1     170.781 172.643 209.495  1.00  0.00    -0.003 C 
ATOM      4  C   UNL     1     169.596 173.152 208.675  1.00  0.00     0.004 C 
ENDBRANCH   2   3
ENDBRANCH   1   2
BRANCH   1   5
ATOM      5  C   UNL     1     172.693 170.940 207.674  1.00  0.00     0.028 C 
BRANCH   5   6
ATOM      6  C   UNL     1     173.820 170.531 208.628  1.00  0.00     0.156 C 
BRANCH   6   7
ATOM      7  O   UNL     1     174.974 170.183 207.911  1.00  0.00    -0.396 OA
ATOM      8  H   UNL     1     175.385 169.411 208.380  1.00  0.00     0.210 HD
ENDBRANCH   6   7
ENDBRANCH   5   6
ENDBRANCH   1   5
TORSDOF 5
ENDMDL
MODEL 6
REMARK VINA RESULT:    -3.362      1.421      1.987
REMARK INTER + INTRA:          -4.366
REMARK INTER:                  -4.220
REMARK INTRA:                  -0.146
REMARK UNBOUND:                -0.119
REMARK SMILES CCCCCCO
REMARK SMILES IDX 4 1 3 2 2 3 1 4 5 5 6 6 7 7
REMARK H PARENT 7 8
REMARK Flexibility Score: inf
ROOT
ATOM      1  C   UNL     1     171.087 170.987 208.268  1.00  0.00     0.002 C 
ENDROOT
BRANCH   1   2
ATOM      2  C   UNL     1     172.444 171.276 207.602  1.00  0.00    -0.000 C 
BRANCH   2   3
ATOM      3  C   UNL     1     172.370 171.628 206.105  1.00  0.00    -0.003 C 
ATOM      4  C   UNL     1     171.057 171.196 205.452  1.00  0.00     0.004 C 
ENDBRANCH   2   3
ENDBRANCH   1   2
BRANCH   1   5
ATOM      5  C   UNL     1     170.667 172.077 209.267  1.00  0.00     0.028 C 
BRANCH   5   6
ATOM      6  C   UNL     1     169.755 173.125 208.619  1.00  0.00     0.156 C 
BRANCH   6   7
ATOM      7  O   UNL     1     168.729 173.500 209.498  1.00  0.00    -0.396 OA
ATOM      8  H   UNL     1     168.155 172.702 209.631  1.00  0.00     0.210 HD
ENDBRANCH   6   7
ENDBRANCH   5   6
ENDBRANCH   1   5
TORSDOF 5
ENDMDL
MODEL 7
REMARK VINA RESULT:    -3.357      3.272      4.266
REMARK INTER + INTRA:          -4.360
REMARK INTER:                  -4.266
REMARK INTRA:                  -0.094
REMARK UNBOUND:                -0.119
REMARK SMILES CCCCCCO
REMARK SMILES IDX 4 1 3 2 2 3 1 4 5 5 6 6 7 7
REMARK H PARENT 7 8
REMARK Flexibility Score: inf
ROOT
ATOM      1  C   UNL     1     171.414 171.757 207.120  1.00  0.00     0.002 C 
ENDROOT
BRANCH   1   2
ATOM      2  C   UNL     1     171.016 172.390 205.774  1.00  0.00    -0.000 C 
BRANCH   2   3
ATOM      3  C   UNL     1     172.057 172.237 204.651  1.00  0.00    -0.003 C 
ATOM      4  C   UNL     1     172.392 173.559 203.960  1.00  0.00     0.004 C 
ENDBRANCH   2   3
ENDBRANCH   1   2
BRANCH   1   5
ATOM      5  C   UNL     1     172.849 171.204 207.118  1.00  0.00     0.028 C 
BRANCH   5   6
ATOM      6  C   UNL     1     173.300 170.783 208.521  1.00  0.00     0.156 C 
BRANCH   6   7
ATOM      7  O   UNL     1     174.652 170.411 208.516  1.00  0.00    -0.396 OA
ATOM      8  H   UNL     1     175.128 171.055 207.930  1.00  0.00     0.210 HD
ENDBRANCH   6   7
ENDBRANCH   5   6
ENDBRANCH   1   5
TORSDOF 5
ENDMDL
MODEL 8
REMARK VINA RESULT:    -3.339      1.993      2.520
REMARK INTER + INTRA:          -4.336
REMARK INTER:                  -4.257
REMARK INTRA:                  -0.079
REMARK UNBOUND:                -0.119
REMARK SMILES CCCCCCO
REMARK SMILES IDX 4 1 3 2 2 3 1 4 5 5 6 6 7 7
REMARK H PARENT 7 8
REMARK Flexibility Score: inf
ROOT
ATOM      1  C   UNL     1     171.017 172.360 206.712  1.00  0.00     0.002 C 
ENDROOT
BRANCH   1   2
ATOM      2  C   UNL     1     172.314 171.661 206.264  1.00  0.00    -0.000 C 
BRANCH   2   3
ATOM      3  C   UNL     1     172.331 171.206 204.793  1.00  0.00    -0.003 C 
ATOM      4  C   UNL     1     171.042 170.502 204.370  1.00  0.00     0.004 C 
ENDBRANCH   2   3
ENDBRANCH   1   2
BRANCH   1   5
ATOM      5  C   UNL     1     170.587 171.963 208.134  1.00  0.00     0.028 C 
BRANCH   5   6
ATOM      6  C   UNL     1     169.841 173.099 208.842  1.00  0.00     0.156 C 
BRANCH   6   7
ATOM      7  O   UNL     1     168.674 173.438 208.142  1.00  0.00    -0.396 OA
ATOM      8  H   UNL     1     167.979 172.780 208.401  1.00  0.00     0.210 HD
ENDBRANCH   6   7
ENDBRANCH   5   6
ENDBRANCH   1   5
TORSDOF 5
ENDMDL
MODEL 9
REMARK VINA RESULT:    -3.330      2.802      3.659
REMARK INTER + INTRA:          -4.325
REMARK INTER:                  -4.183
REMARK INTRA:                  -0.142
REMARK UNBOUND:                -0.119
REMARK SMILES CCCCCCO
REMARK SMILES IDX 4 1 3 2 2 3 1 4 5 5 6 6 7 7
REMARK H PARENT 7 8
REMARK Flexibility Score: inf
ROOT
ATOM      1  C   UNL     1     171.049 172.415 207.095  1.00  0.00     0.002 C 
ENDROOT
BRANCH   1   2
ATOM      2  C   UNL     1     171.121 172.388 205.557  1.00  0.00    -0.000 C 
BRANCH   2   3
ATOM      3  C   UNL     1     172.506 172.704 204.966  1.00  0.00    -0.003 C 
ATOM      4  C   UNL     1     172.436 173.552 203.696  1.00  0.00     0.004 C 
ENDBRANCH   2   3
ENDBRANCH   1   2
BRANCH   1   5
ATOM      5  C   UNL     1     172.397 172.092 207.761  1.00  0.00     0.028 C 
BRANCH   5   6
ATOM      6  C   UNL     1     172.799 173.159 208.784  1.00  0.00     0.156 C 
BRANCH   6   7
ATOM      7  O   UNL     1     173.607 174.138 208.188  1.00  0.00    -0.396 OA
ATOM      8  H   UNL     1     173.260 174.281 207.270  1.00  0.00     0.210 HD
ENDBRANCH   6   7
ENDBRANCH   5   6
ENDBRANCH   1   5
TORSDOF 5
ENDMDL
