MODEL 1
REMARK VINA RESULT:    -5.711      0.000      0.000
REMARK INTER + INTRA:          -5.711
REMARK INTER:                  -5.711
REMARK INTRA:                   0.000
REMARK UNBOUND:                 0.000
REMARK SMILES CC1=CC[C@@]23C[C@@H]1C(C)(C)[C@@H]2CC[C@@H]3C
REMARK SMILES IDX 15 1 14 2 13 3 12 4 11 5 5 6 4 7 3 8 2 9 7 10 6 11 8 12 9 13
REMARK SMILES IDX 10 14 1 15
REMARK H PARENT
REMARK Flexibility Score: inf
ROOT
ATOM      1  C   UNL     1     167.140 168.458 202.198  1.00  0.00     0.008 C 
ATOM      2  C   UNL     1     168.340 168.389 201.242  1.00  0.00    -0.007 C 
ATOM      3  C   UNL     1     169.019 167.025 201.252  1.00  0.00     0.004 C 
ATOM      4  C   UNL     1     169.811 166.964 199.952  1.00  0.00     0.005 C 
ATOM      5  C   UNL     1     169.108 167.913 198.953  1.00  0.00     0.002 C 
ATOM      6  C   UNL     1     168.014 168.654 199.761  1.00  0.00    -0.020 C 
ATOM      7  C   UNL     1     167.990 170.169 199.397  1.00  0.00     0.035 C 
ATOM      8  C   UNL     1     167.501 170.400 197.976  1.00  0.00    -0.027 C 
ATOM      9  C   UNL     1     166.962 169.400 197.235  1.00  0.00    -0.074 C 
ATOM     10  C   UNL     1     166.962 167.963 197.771  1.00  0.00     0.021 C 
ATOM     11  C   UNL     1     166.696 168.035 199.268  1.00  0.00     0.016 C 
ATOM     12  C   UNL     1     168.374 167.304 197.703  1.00  0.00    -0.025 C 
ATOM     13  C   UNL     1     169.128 167.650 196.395  1.00  0.00     0.012 C 
ATOM     14  C   UNL     1     168.211 165.760 197.743  1.00  0.00     0.012 C 
ATOM     15  C   UNL     1     166.397 169.702 195.875  1.00  0.00     0.039 C 
ENDROOT
TORSDOF 0
ENDMDL
MODEL 2
REMARK VINA RESULT:    -5.655      4.959      6.704
REMARK INTER + INTRA:          -5.655
REMARK INTER:                  -5.655
REMARK INTRA:                   0.000
REMARK UNBOUND:                 0.000
REMARK SMILES CC1=CC[C@@]23C[C@@H]1C(C)(C)[C@@H]2CC[C@@H]3C
REMARK SMILES IDX 15 1 14 2 13 3 12 4 11 5 5 6 4 7 3 8 2 9 7 10 6 11 8 12 9 13
REMARK SMILES IDX 10 14 1 15
REMARK H PARENT
REMARK Flexibility Score: inf
ROOT
ATOM      1  C   UNL     1     164.867 163.577 202.197  1.00  0.00     0.008 C 
ATOM      2  C   UNL     1     163.677 163.677 201.231  1.00  0.00    -0.007 C 
ATOM      3  C   UNL     1     163.028 165.056 201.243  1.00  0.00     0.004 C 
ATOM      4  C   UNL     1     162.249 165.141 199.936  1.00  0.00     0.005 C 
ATOM      5  C   UNL     1     162.940 164.182 198.939  1.00  0.00     0.002 C 
ATOM      6  C   UNL     1     164.010 163.412 199.752  1.00  0.00    -0.020 C 
ATOM      7  C   UNL     1     164.003 161.899 199.381  1.00  0.00     0.035 C 
ATOM      8  C   UNL     1     164.499 161.665 197.962  1.00  0.00    -0.027 C 
ATOM      9  C   UNL     1     165.066 162.656 197.232  1.00  0.00    -0.074 C 
ATOM     10  C   UNL     1     165.094 164.090 197.775  1.00  0.00     0.021 C 
ATOM     11  C   UNL     1     165.345 164.005 199.273  1.00  0.00     0.016 C 
ATOM     12  C   UNL     1     163.698 164.781 197.699  1.00  0.00    -0.025 C 
ATOM     13  C   UNL     1     162.948 164.458 196.382  1.00  0.00     0.012 C 
ATOM     14  C   UNL     1     163.895 166.320 197.748  1.00  0.00     0.012 C 
ATOM     15  C   UNL     1     165.637 162.348 195.875  1.00  0.00     0.039 C 
ENDROOT
TORSDOF 0
ENDMDL
MODEL 3
REMARK VINA RESULT:    -5.652      4.370      6.061
REMARK INTER + INTRA:          -5.652
REMARK INTER:                  -5.652
REMARK INTRA:                   0.000
REMARK UNBOUND:                 0.000
REMARK SMILES CC1=CC[C@@]23C[C@@H]1C(C)(C)[C@@H]2CC[C@@H]3C
REMARK SMILES IDX 15 1 14 2 13 3 12 4 11 5 5 6 4 7 3 8 2 9 7 10 6 11 8 12 9 13
REMARK SMILES IDX 10 14 1 15
REMARK H PARENT
REMARK Flexibility Score: inf
ROOT
ATOM      1  C   UNL     1     167.413 161.785 203.776  1.00  0.00     0.008 C 
ATOM      2  C   UNL     1     167.355 163.074 202.942  1.00  0.00    -0.007 C 
ATOM      3  C   UNL     1     168.732 163.685 202.712  1.00  0.00     0.004 C 
ATOM      4  C   UNL     1     168.565 164.605 201.509  1.00  0.00     0.005 C 
ATOM      5  C   UNL     1     167.377 164.054 200.685  1.00  0.00     0.002 C 
ATOM      6  C   UNL     1     166.755 162.917 201.533  1.00  0.00    -0.020 C 
ATOM      7  C   UNL     1     165.200 163.000 201.513  1.00  0.00     0.035 C 
ATOM      8  C   UNL     1     164.636 162.674 200.139  1.00  0.00    -0.027 C 
ATOM      9  C   UNL     1     165.413 162.170 199.150  1.00  0.00    -0.074 C 
ATOM     10  C   UNL     1     166.929 162.047 199.352  1.00  0.00     0.021 C 
ATOM     11  C   UNL     1     167.163 161.631 200.797  1.00  0.00     0.016 C 
ATOM     12  C   UNL     1     167.652 163.427 199.270  1.00  0.00    -0.025 C 
ATOM     13  C   UNL     1     167.083 164.328 198.145  1.00  0.00     0.012 C 
ATOM     14  C   UNL     1     169.153 163.190 198.952  1.00  0.00     0.012 C 
ATOM     15  C   UNL     1     164.787 161.764 197.845  1.00  0.00     0.039 C 
ENDROOT
TORSDOF 0
ENDMDL
MODEL 4
REMARK VINA RESULT:    -5.651      2.669      4.196
REMARK INTER + INTRA:          -5.651
REMARK INTER:                  -5.651
REMARK INTRA:                   0.000
REMARK UNBOUND:                 0.000
REMARK SMILES CC1=CC[C@@]23C[C@@H]1C(C)(C)[C@@H]2CC[C@@H]3C
REMARK SMILES IDX 15 1 14 2 13 3 12 4 11 5 5 6 4 7 3 8 2 9 7 10 6 11 8 12 9 13
REMARK SMILES IDX 10 14 1 15
REMARK H PARENT
REMARK Flexibility Score: inf
ROOT
ATOM      1  C   UNL     1     164.621 170.230 203.770  1.00  0.00     0.008 C 
ATOM      2  C   UNL     1     164.692 168.937 202.945  1.00  0.00    -0.007 C 
ATOM      3  C   UNL     1     163.324 168.296 202.742  1.00  0.00     0.004 C 
ATOM      4  C   UNL     1     163.491 167.372 201.542  1.00  0.00     0.005 C 
ATOM      5  C   UNL     1     164.653 167.942 200.694  1.00  0.00     0.002 C 
ATOM      6  C   UNL     1     165.265 169.098 201.524  1.00  0.00    -0.020 C 
ATOM      7  C   UNL     1     166.821 169.046 201.479  1.00  0.00     0.035 C 
ATOM      8  C   UNL     1     167.355 169.375 200.094  1.00  0.00    -0.027 C 
ATOM      9  C   UNL     1     166.551 169.856 199.114  1.00  0.00    -0.074 C 
ATOM     10  C   UNL     1     165.037 169.949 199.341  1.00  0.00     0.021 C 
ATOM     11  C   UNL     1     164.818 170.370 200.787  1.00  0.00     0.016 C 
ATOM     12  C   UNL     1     164.342 168.554 199.280  1.00  0.00    -0.025 C 
ATOM     13  C   UNL     1     164.910 167.657 198.152  1.00  0.00     0.012 C 
ATOM     14  C   UNL     1     162.831 168.757 198.986  1.00  0.00     0.012 C 
ATOM     15  C   UNL     1     167.146 170.266 197.796  1.00  0.00     0.039 C 
ENDROOT
TORSDOF 0
ENDMDL
MODEL 5
REMARK VINA RESULT:    -5.541      4.514      6.538
REMARK INTER + INTRA:          -5.541
REMARK INTER:                  -5.541
REMARK INTRA:                   0.000
REMARK UNBOUND:                 0.000
REMARK SMILES CC1=CC[C@@]23C[C@@H]1C(C)(C)[C@@H]2CC[C@@H]3C
REMARK SMILES IDX 15 1 14 2 13 3 12 4 11 5 5 6 4 7 3 8 2 9 7 10 6 11 8 12 9 13
REMARK SMILES IDX 10 14 1 15
REMARK H PARENT
REMARK Flexibility Score: inf
ROOT
ATOM      1  C   UNL     1     163.711 162.099 198.719  1.00  0.00     0.008 C 
ATOM      2  C   UNL     1     164.247 163.183 199.666  1.00  0.00    -0.007 C 
ATOM      3  C   UNL     1     163.817 162.961 201.112  1.00  0.00     0.004 C 
ATOM      4  C   UNL     1     164.798 163.773 201.949  1.00  0.00     0.005 C 
ATOM      5  C   UNL     1     166.099 163.896 201.121  1.00  0.00     0.002 C 
ATOM      6  C   UNL     1     165.781 163.302 199.727  1.00  0.00    -0.020 C 
ATOM      7  C   UNL     1     166.373 164.195 198.597  1.00  0.00     0.035 C 
ATOM      8  C   UNL     1     167.893 164.153 198.584  1.00  0.00    -0.027 C 
ATOM      9  C   UNL     1     168.589 163.269 199.340  1.00  0.00    -0.074 C 
ATOM     10  C   UNL     1     167.853 162.372 200.344  1.00  0.00     0.021 C 
ATOM     11  C   UNL     1     166.534 161.962 199.707  1.00  0.00     0.016 C 
ATOM     12  C   UNL     1     167.395 163.154 201.613  1.00  0.00    -0.025 C 
ATOM     13  C   UNL     1     168.460 164.166 202.103  1.00  0.00     0.012 C 
ATOM     14  C   UNL     1     167.157 162.144 202.768  1.00  0.00     0.012 C 
ATOM     15  C   UNL     1     170.085 163.195 199.213  1.00  0.00     0.039 C 
ENDROOT
TORSDOF 0
ENDMDL
MODEL 6
REMARK VINA RESULT:    -5.530      2.464      4.488
REMARK INTER + INTRA:          -5.530
REMARK INTER:                  -5.530
REMARK INTRA:                   0.000
REMARK UNBOUND:                 0.000
REMARK SMILES CC1=CC[C@@]23C[C@@H]1C(C)(C)[C@@H]2CC[C@@H]3C
REMARK SMILES IDX 15 1 14 2 13 3 12 4 11 5 5 6 4 7 3 8 2 9 7 10 6 11 8 12 9 13
REMARK SMILES IDX 10 14 1 15
REMARK H PARENT
REMARK Flexibility Score: inf
ROOT
ATOM      1  C   UNL     1     168.314 169.914 198.645  1.00  0.00     0.008 C 
ATOM      2  C   UNL     1     167.784 168.833 199.598  1.00  0.00    -0.007 C 
ATOM      3  C   UNL     1     168.229 169.054 201.039  1.00  0.00     0.004 C 
ATOM      4  C   UNL     1     167.253 168.246 201.886  1.00  0.00     0.005 C 
ATOM      5  C   UNL     1     165.944 168.127 201.071  1.00  0.00     0.002 C 
ATOM      6  C   UNL     1     166.251 168.720 199.673  1.00  0.00    -0.020 C 
ATOM      7  C   UNL     1     165.643 167.828 198.550  1.00  0.00     0.035 C 
ATOM      8  C   UNL     1     164.123 167.876 198.553  1.00  0.00    -0.027 C 
ATOM      9  C   UNL     1     163.438 168.763 199.315  1.00  0.00    -0.074 C 
ATOM     10  C   UNL     1     164.188 169.657 200.311  1.00  0.00     0.021 C 
ATOM     11  C   UNL     1     165.502 170.062 199.661  1.00  0.00     0.016 C 
ATOM     12  C   UNL     1     164.656 168.874 201.576  1.00  0.00    -0.025 C 
ATOM     13  C   UNL     1     163.592 167.866 202.077  1.00  0.00     0.012 C 
ATOM     14  C   UNL     1     164.909 169.883 202.728  1.00  0.00     0.012 C 
ATOM     15  C   UNL     1     161.941 168.842 199.203  1.00  0.00     0.039 C 
ENDROOT
TORSDOF 0
ENDMDL
MODEL 7
REMARK VINA RESULT:    -5.471      4.200      5.812
REMARK INTER + INTRA:          -5.471
REMARK INTER:                  -5.471
REMARK INTRA:                   0.000
REMARK UNBOUND:                 0.000
REMARK SMILES CC1=CC[C@@]23C[C@@H]1C(C)(C)[C@@H]2CC[C@@H]3C
REMARK SMILES IDX 15 1 14 2 13 3 12 4 11 5 5 6 4 7 3 8 2 9 7 10 6 11 8 12 9 13
REMARK SMILES IDX 10 14 1 15
REMARK H PARENT
REMARK Flexibility Score: inf
ROOT
ATOM      1  C   UNL     1     169.399 164.911 199.991  1.00  0.00     0.008 C 
ATOM      2  C   UNL     1     168.784 163.508 199.887  1.00  0.00    -0.007 C 
ATOM      3  C   UNL     1     168.243 163.005 201.220  1.00  0.00     0.004 C 
ATOM      4  C   UNL     1     167.263 161.895 200.860  1.00  0.00     0.005 C 
ATOM      5  C   UNL     1     166.756 162.192 199.430  1.00  0.00     0.002 C 
ATOM      6  C   UNL     1     167.600 163.382 198.911  1.00  0.00    -0.020 C 
ATOM      7  C   UNL     1     168.040 163.145 197.436  1.00  0.00     0.035 C 
ATOM      8  C   UNL     1     166.858 163.195 196.480  1.00  0.00    -0.027 C 
ATOM      9  C   UNL     1     165.632 163.610 196.882  1.00  0.00    -0.074 C 
ATOM     10  C   UNL     1     165.372 163.910 198.364  1.00  0.00     0.021 C 
ATOM     11  C   UNL     1     166.624 164.570 198.922  1.00  0.00     0.016 C 
ATOM     12  C   UNL     1     165.255 162.612 199.220  1.00  0.00    -0.025 C 
ATOM     13  C   UNL     1     164.463 161.494 198.497  1.00  0.00     0.012 C 
ATOM     14  C   UNL     1     164.491 162.940 200.531  1.00  0.00     0.012 C 
ATOM     15  C   UNL     1     164.523 163.743 195.876  1.00  0.00     0.039 C 
ENDROOT
TORSDOF 0
ENDMDL
MODEL 8
REMARK VINA RESULT:    -5.452      2.396      3.978
REMARK INTER + INTRA:          -5.452
REMARK INTER:                  -5.452
REMARK INTRA:                   0.000
REMARK UNBOUND:                 0.000
REMARK SMILES CC1=CC[C@@]23C[C@@H]1C(C)(C)[C@@H]2CC[C@@H]3C
REMARK SMILES IDX 15 1 14 2 13 3 12 4 11 5 5 6 4 7 3 8 2 9 7 10 6 11 8 12 9 13
REMARK SMILES IDX 10 14 1 15
REMARK H PARENT
REMARK Flexibility Score: inf
ROOT
ATOM      1  C   UNL     1     162.648 166.995 200.038  1.00  0.00     0.008 C 
ATOM      2  C   UNL     1     163.239 168.409 199.934  1.00  0.00    -0.007 C 
ATOM      3  C   UNL     1     163.783 168.916 201.264  1.00  0.00     0.004 C 
ATOM      4  C   UNL     1     164.741 170.043 200.899  1.00  0.00     0.005 C 
ATOM      5  C   UNL     1     165.241 169.760 199.463  1.00  0.00     0.002 C 
ATOM      6  C   UNL     1     164.412 168.558 198.947  1.00  0.00    -0.020 C 
ATOM      7  C   UNL     1     163.954 168.792 197.477  1.00  0.00     0.035 C 
ATOM      8  C   UNL     1     165.127 168.766 196.510  1.00  0.00    -0.027 C 
ATOM      9  C   UNL     1     166.364 168.369 196.900  1.00  0.00    -0.074 C 
ATOM     10  C   UNL     1     166.643 168.069 198.378  1.00  0.00     0.021 C 
ATOM     11  C   UNL     1     165.407 167.386 198.945  1.00  0.00     0.016 C 
ATOM     12  C   UNL     1     166.746 169.366 199.238  1.00  0.00    -0.025 C 
ATOM     13  C   UNL     1     167.512 170.500 198.512  1.00  0.00     0.012 C 
ATOM     14  C   UNL     1     167.528 169.045 200.540  1.00  0.00     0.012 C 
ATOM     15  C   UNL     1     167.465 168.259 195.882  1.00  0.00     0.039 C 
ENDROOT
TORSDOF 0
ENDMDL
MODEL 9
REMARK VINA RESULT:    -5.452      1.887      4.186
REMARK INTER + INTRA:          -5.452
REMARK INTER:                  -5.452
REMARK INTRA:                   0.000
REMARK UNBOUND:                 0.000
REMARK SMILES CC1=CC[C@@]23C[C@@H]1C(C)(C)[C@@H]2CC[C@@H]3C
REMARK SMILES IDX 15 1 14 2 13 3 12 4 11 5 5 6 4 7 3 8 2 9 7 10 6 11 8 12 9 13
REMARK SMILES IDX 10 14 1 15
REMARK H PARENT
REMARK Flexibility Score: inf
ROOT
ATOM      1  C   UNL     1     169.538 163.408 199.304  1.00  0.00     0.008 C 
ATOM      2  C   UNL     1     168.441 164.026 200.184  1.00  0.00    -0.007 C 
ATOM      3  C   UNL     1     168.668 163.768 201.669  1.00  0.00     0.004 C 
ATOM      4  C   UNL     1     167.834 164.821 202.388  1.00  0.00     0.005 C 
ATOM      5  C   UNL     1     167.687 166.017 201.418  1.00  0.00     0.002 C 
ATOM      6  C   UNL     1     168.292 165.554 200.070  1.00  0.00    -0.020 C 
ATOM      7  C   UNL     1     167.391 165.997 198.879  1.00  0.00     0.035 C 
ATOM      8  C   UNL     1     167.403 167.506 198.694  1.00  0.00    -0.027 C 
ATOM      9  C   UNL     1     168.271 168.301 199.367  1.00  0.00    -0.074 C 
ATOM     10  C   UNL     1     169.179 167.701 200.448  1.00  0.00     0.021 C 
ATOM     11  C   UNL     1     169.617 166.327 199.965  1.00  0.00     0.016 C 
ATOM     12  C   UNL     1     168.402 167.374 201.761  1.00  0.00    -0.025 C 
ATOM     13  C   UNL     1     167.368 168.468 202.126  1.00  0.00     0.012 C 
ATOM     14  C   UNL     1     169.414 167.290 202.936  1.00  0.00     0.012 C 
ATOM     15  C   UNL     1     168.315 169.774 199.071  1.00  0.00     0.039 C 
ENDROOT
TORSDOF 0
ENDMDL
