MODEL 1
REMARK VINA RESULT:    -8.594      0.000      0.000
REMARK INTER + INTRA:         -13.756
REMARK INTER:                 -13.618
REMARK INTRA:                  -0.139
REMARK UNBOUND:                -0.139
REMARK SMILES C[C@H]1O[C@H](O[C@@H]2[C@H](Oc3cc(O)c4c(c3)O[C@@H](c3ccc(O)cc3)CC4=O)O[C@@H](CO)[C@H](O)[C@H]2O)[C@H](O)[C@H](O)[C@@H]1O
REMARK SMILES IDX 6 1 34 2 32 3 29 4 28 5 7 6 5 7 4 8 1 9 2 10 40 11 3 12
REMARK SMILES IDX 38 13 36 14 41 15 39 17 37 19 35 21 8 23 9 24 10 25 15 26
REMARK SMILES IDX 11 27 14 28 13 29 16 30 26 31 17 32 27 33 25 34 12 35 18 37
REMARK SMILES IDX 19 38 24 39 20 40 23 41 21 42 22 43 33 45 30 47 31 48
REMARK H PARENT 41 16 39 18 37 20 35 22 12 36 22 44 33 46 31 49
REMARK Flexibility Score: inf
ROOT
ATOM      1  C   UNL     1       0.623  -8.089   9.878  1.00  0.00     0.221 C 
ATOM      2  C   UNL     1      -0.236  -8.770  11.010  1.00  0.00     0.181 C 
ATOM      3  C   UNL     1      -1.056  -9.997  10.404  1.00  0.00     0.177 C 
ATOM      4  C   UNL     1      -1.626  -9.749   8.991  1.00  0.00     0.179 C 
ATOM      5  O   UNL     1      -1.369  -8.493   8.418  1.00  0.00    -0.332 OA
ATOM      6  C   UNL     1      -0.078  -7.938   8.446  1.00  0.00     0.339 C 
ENDROOT
BRANCH   1   7
ATOM      7  O   UNL     1       1.906  -7.389  10.150  1.00  0.00    -0.337 OA
BRANCH   7   8
ATOM      8  C   UNL     1       3.007  -7.803   9.300  1.00  0.00     0.282 C 
ATOM      9  C   UNL     1       5.927  -9.091  11.500  1.00  0.00     0.041 C 
ATOM     10  C   UNL     1       4.496  -9.040  10.908  1.00  0.00     0.150 C 
ATOM     11  C   UNL     1       4.017 -10.315  10.205  1.00  0.00     0.174 C 
ATOM     12  O   UNL     1       4.250  -7.890  10.018  1.00  0.00    -0.344 OA
ATOM     13  C   UNL     1       3.983 -10.089   8.678  1.00  0.00     0.179 C 
ATOM     14  C   UNL     1       2.854  -9.076   8.306  1.00  0.00     0.202 C 
BRANCH  11  15
ATOM     15  O   UNL     1       2.734 -10.607  10.753  1.00  0.00    -0.388 OA
ATOM     16  H   UNL     1       2.781 -10.845  11.762  1.00  0.00     0.211 HD
ENDBRANCH  11  15
BRANCH  13  17
ATOM     17  O   UNL     1       3.940 -11.345   7.957  1.00  0.00    -0.387 OA
ATOM     18  H   UNL     1       3.200 -11.347   7.295  1.00  0.00     0.211 HD
ENDBRANCH  13  17
BRANCH  14  19
ATOM     19  O   UNL     1       1.566  -9.604   8.090  1.00  0.00    -0.385 OA
ATOM     20  H   UNL     1       1.744 -10.618   8.068  1.00  0.00     0.211 HD
ENDBRANCH  14  19
ENDBRANCH   7   8
ENDBRANCH   1   7
BRANCH   2  21
ATOM     21  O   UNL     1       0.660  -9.355  11.954  1.00  0.00    -0.387 OA
ATOM     22  H   UNL     1       0.967 -10.151  11.496  1.00  0.00     0.211 HD
ENDBRANCH   2  21
BRANCH   6  23
ATOM     23  O   UNL     1      -0.275  -6.689   7.715  1.00  0.00    -0.462 OA
BRANCH  23  24
ATOM     24  C   UNL     1       0.839  -6.353   6.875  1.00  0.00     0.130 A 
ATOM     25  C   UNL     1       1.299  -7.331   5.936  1.00  0.00     0.093 A 
ATOM     26  C   UNL     1       1.695  -5.249   7.167  1.00  0.00     0.094 A 
ATOM     27  C   UNL     1       2.316  -7.030   5.014  1.00  0.00     0.133 A 
ATOM     28  C   UNL     1       3.012  -5.307   6.609  1.00  0.00     0.138 A 
ATOM     29  C   UNL     1       3.175  -5.991   5.405  1.00  0.00     0.102 A 
ATOM     30  O   UNL     1       4.224  -4.701   7.107  1.00  0.00    -0.484 OA
ATOM     31  C   UNL     1       3.891  -5.249   4.355  1.00  0.00     0.174 C 
ATOM     32  C   UNL     1       5.340  -4.558   6.221  1.00  0.00     0.211 C 
ATOM     33  O   UNL     1       3.580  -5.300   3.137  1.00  0.00    -0.294 OA
ATOM     34  C   UNL     1       4.803  -4.151   4.802  1.00  0.00     0.131 C 
BRANCH  27  35
ATOM     35  O   UNL     1       2.840  -8.029   4.213  1.00  0.00    -0.507 OA
ATOM     36  H   UNL     1       3.726  -8.560   4.524  1.00  0.00     0.293 HD
ENDBRANCH  27  35
BRANCH  32  37
ATOM     37  C   UNL     1       6.158  -5.850   6.079  1.00  0.00    -0.007 A 
ATOM     38  C   UNL     1       7.244  -5.864   5.085  1.00  0.00     0.011 A 
ATOM     39  C   UNL     1       5.885  -7.101   6.678  1.00  0.00     0.011 A 
ATOM     40  C   UNL     1       7.923  -7.092   4.792  1.00  0.00     0.046 A 
ATOM     41  C   UNL     1       6.568  -8.302   6.376  1.00  0.00     0.046 A 
ATOM     42  C   UNL     1       7.630  -8.315   5.454  1.00  0.00     0.115 A 
BRANCH  42  43
ATOM     43  O   UNL     1       8.232  -9.490   5.084  1.00  0.00    -0.508 OA
ATOM     44  H   UNL     1       8.263  -9.777   4.087  1.00  0.00     0.293 HD
ENDBRANCH  42  43
ENDBRANCH  32  37
ENDBRANCH  23  24
ENDBRANCH   6  23
BRANCH   3  45
ATOM     45  O   UNL     1      -2.125 -10.447  11.218  1.00  0.00    -0.387 OA
ATOM     46  H   UNL     1      -2.631  -9.702  11.628  1.00  0.00     0.211 HD
ENDBRANCH   3  45
BRANCH   4  47
ATOM     47  C   UNL     1      -1.644 -10.890   7.923  1.00  0.00     0.191 C 
BRANCH  47  48
ATOM     48  O   UNL     1      -0.511 -11.756   7.750  1.00  0.00    -0.394 OA
ATOM     49  H   UNL     1      -0.900 -12.600   7.454  1.00  0.00     0.210 HD
ENDBRANCH  47  48
ENDBRANCH   4  47
TORSDOF 14
ENDMDL
MODEL 2
REMARK VINA RESULT:    -7.638      2.098      4.905
REMARK INTER + INTRA:         -12.242
REMARK INTER:                 -10.497
REMARK INTRA:                  -1.745
REMARK UNBOUND:                -0.139
REMARK SMILES C[C@H]1O[C@H](O[C@@H]2[C@H](Oc3cc(O)c4c(c3)O[C@@H](c3ccc(O)cc3)CC4=O)O[C@@H](CO)[C@H](O)[C@H]2O)[C@H](O)[C@H](O)[C@@H]1O
REMARK SMILES IDX 6 1 34 2 32 3 29 4 28 5 7 6 5 7 4 8 1 9 2 10 40 11 3 12
REMARK SMILES IDX 38 13 36 14 41 15 39 17 37 19 35 21 8 23 9 24 10 25 15 26
REMARK SMILES IDX 11 27 14 28 13 29 16 30 26 31 17 32 27 33 25 34 12 35 18 37
REMARK SMILES IDX 19 38 24 39 20 40 23 41 21 42 22 43 33 45 30 47 31 48
REMARK H PARENT 41 16 39 18 37 20 35 22 12 36 22 44 33 46 31 49
REMARK Flexibility Score: inf
ROOT
ATOM      1  C   UNL     1       2.405  -9.725   8.923  1.00  0.00     0.221 C 
ATOM      2  C   UNL     1       2.260 -10.449  10.315  1.00  0.00     0.181 C 
ATOM      3  C   UNL     1       3.417  -9.965  11.301  1.00  0.00     0.177 C 
ATOM      4  C   UNL     1       4.791  -9.772  10.627  1.00  0.00     0.179 C 
ATOM      5  O   UNL     1       4.865 -10.048   9.252  1.00  0.00    -0.332 OA
ATOM      6  C   UNL     1       3.896  -9.551   8.364  1.00  0.00     0.339 C 
ENDROOT
BRANCH   1   7
ATOM      7  O   UNL     1       1.245  -9.438   8.037  1.00  0.00    -0.337 OA
BRANCH   7   8
ATOM      8  C   UNL     1       0.578  -8.179   8.312  1.00  0.00     0.282 C 
ATOM      9  C   UNL     1       2.610  -5.270   6.750  1.00  0.00     0.041 C 
ATOM     10  C   UNL     1       1.786  -6.583   6.788  1.00  0.00     0.150 C 
ATOM     11  C   UNL     1       0.512  -6.597   5.937  1.00  0.00     0.174 C 
ATOM     12  O   UNL     1       1.452  -7.050   8.146  1.00  0.00    -0.344 OA
ATOM     13  C   UNL     1      -0.729  -6.529   6.853  1.00  0.00     0.179 C 
ATOM     14  C   UNL     1      -0.874  -7.852   7.668  1.00  0.00     0.202 C 
BRANCH  11  15
ATOM     15  O   UNL     1       0.568  -7.795   5.166  1.00  0.00    -0.388 OA
ATOM     16  H   UNL     1      -0.296  -7.947   4.611  1.00  0.00     0.211 HD
ENDBRANCH  11  15
BRANCH  13  17
ATOM     17  O   UNL     1      -1.911  -6.131   6.116  1.00  0.00    -0.387 OA
ATOM     18  H   UNL     1      -2.707  -6.110   6.710  1.00  0.00     0.211 HD
ENDBRANCH  13  17
BRANCH  14  19
ATOM     19  O   UNL     1      -1.587  -8.903   7.060  1.00  0.00    -0.385 OA
ATOM     20  H   UNL     1      -1.634  -8.600   6.077  1.00  0.00     0.211 HD
ENDBRANCH  14  19
ENDBRANCH   7   8
ENDBRANCH   1   7
BRANCH   2  21
ATOM     21  O   UNL     1       1.047 -10.003  10.921  1.00  0.00    -0.387 OA
ATOM     22  H   UNL     1       1.215 -10.136  11.865  1.00  0.00     0.211 HD
ENDBRANCH   2  21
BRANCH   6  23
ATOM     23  O   UNL     1       4.392 -10.036   7.079  1.00  0.00    -0.462 OA
BRANCH  23  24
ATOM     24  C   UNL     1       4.978  -8.999   6.280  1.00  0.00     0.130 A 
ATOM     25  C   UNL     1       5.474  -9.342   4.981  1.00  0.00     0.093 A 
ATOM     26  C   UNL     1       5.384  -7.753   6.845  1.00  0.00     0.094 A 
ATOM     27  C   UNL     1       5.966  -8.356   4.108  1.00  0.00     0.133 A 
ATOM     28  C   UNL     1       6.386  -7.029   6.123  1.00  0.00     0.138 A 
ATOM     29  C   UNL     1       6.429  -7.191   4.738  1.00  0.00     0.102 A 
ATOM     30  O   UNL     1       7.357  -6.091   6.632  1.00  0.00    -0.484 OA
ATOM     31  C   UNL     1       6.448  -5.941   3.961  1.00  0.00     0.174 C 
ATOM     32  C   UNL     1       8.007  -5.201   5.717  1.00  0.00     0.211 C 
ATOM     33  O   UNL     1       5.830  -5.791   2.876  1.00  0.00    -0.294 OA
ATOM     34  C   UNL     1       6.952  -4.717   4.657  1.00  0.00     0.131 C 
BRANCH  27  35
ATOM     35  O   UNL     1       6.567  -8.726   2.918  1.00  0.00    -0.507 OA
ATOM     36  H   UNL     1       6.659  -8.010   2.116  1.00  0.00     0.293 HD
ENDBRANCH  27  35
BRANCH  32  37
ATOM     37  C   UNL     1       9.176  -5.861   4.974  1.00  0.00    -0.007 A 
ATOM     38  C   UNL     1       9.902  -6.940   5.664  1.00  0.00     0.011 A 
ATOM     39  C   UNL     1       9.757  -5.440   3.755  1.00  0.00     0.011 A 
ATOM     40  C   UNL     1      11.103  -7.470   5.089  1.00  0.00     0.046 A 
ATOM     41  C   UNL     1      10.943  -5.978   3.202  1.00  0.00     0.046 A 
ATOM     42  C   UNL     1      11.621  -7.033   3.839  1.00  0.00     0.115 A 
BRANCH  42  43
ATOM     43  O   UNL     1      12.821  -7.493   3.362  1.00  0.00    -0.508 OA
ATOM     44  H   UNL     1      12.981  -7.591   2.340  1.00  0.00     0.293 HD
ENDBRANCH  42  43
ENDBRANCH  32  37
ENDBRANCH  23  24
ENDBRANCH   6  23
BRANCH   3  45
ATOM     45  O   UNL     1       3.612 -10.800  12.429  1.00  0.00    -0.387 OA
ATOM     46  H   UNL     1       4.035 -10.324  13.186  1.00  0.00     0.211 HD
ENDBRANCH   3  45
BRANCH   4  47
ATOM     47  C   UNL     1       5.727  -8.590  11.041  1.00  0.00     0.191 C 
BRANCH  47  48
ATOM     48  O   UNL     1       6.627  -8.717  12.154  1.00  0.00    -0.394 OA
ATOM     49  H   UNL     1       6.045  -8.667  12.935  1.00  0.00     0.210 HD
ENDBRANCH  47  48
ENDBRANCH   4  47
TORSDOF 14
ENDMDL
MODEL 3
REMARK VINA RESULT:    -7.252      2.117      3.280
REMARK INTER + INTRA:         -11.630
REMARK INTER:                 -10.785
REMARK INTRA:                  -0.845
REMARK UNBOUND:                -0.139
REMARK SMILES C[C@H]1O[C@H](O[C@@H]2[C@H](Oc3cc(O)c4c(c3)O[C@@H](c3ccc(O)cc3)CC4=O)O[C@@H](CO)[C@H](O)[C@H]2O)[C@H](O)[C@H](O)[C@@H]1O
REMARK SMILES IDX 6 1 34 2 32 3 29 4 28 5 7 6 5 7 4 8 1 9 2 10 40 11 3 12
REMARK SMILES IDX 38 13 36 14 41 15 39 17 37 19 35 21 8 23 9 24 10 25 15 26
REMARK SMILES IDX 11 27 14 28 13 29 16 30 26 31 17 32 27 33 25 34 12 35 18 37
REMARK SMILES IDX 19 38 24 39 20 40 23 41 21 42 22 43 33 45 30 47 31 48
REMARK H PARENT 41 16 39 18 37 20 35 22 12 36 22 44 33 46 31 49
REMARK Flexibility Score: inf
ROOT
ATOM      1  C   UNL     1       1.751  -9.026   9.031  1.00  0.00     0.221 C 
ATOM      2  C   UNL     1       0.307  -9.162   9.645  1.00  0.00     0.181 C 
ATOM      3  C   UNL     1      -0.790  -8.886   8.520  1.00  0.00     0.177 C 
ATOM      4  C   UNL     1      -0.429  -7.748   7.542  1.00  0.00     0.179 C 
ATOM      5  O   UNL     1       0.795  -7.094   7.758  1.00  0.00    -0.332 OA
ATOM      6  C   UNL     1       1.972  -7.826   7.992  1.00  0.00     0.339 C 
ENDROOT
BRANCH   1   7
ATOM      7  O   UNL     1       2.923  -9.780   9.549  1.00  0.00    -0.337 OA
BRANCH   7   8
ATOM      8  C   UNL     1       3.338  -9.399  10.886  1.00  0.00     0.282 C 
ATOM      9  C   UNL     1       4.623 -12.527  12.782  1.00  0.00     0.041 C 
ATOM     10  C   UNL     1       4.573 -11.445  11.673  1.00  0.00     0.150 C 
ATOM     11  C   UNL     1       5.848 -10.616  11.489  1.00  0.00     0.174 C 
ATOM     12  O   UNL     1       3.423 -10.527  11.774  1.00  0.00    -0.344 OA
ATOM     13  C   UNL     1       5.623  -9.185  12.023  1.00  0.00     0.179 C 
ATOM     14  C   UNL     1       4.611  -8.420  11.113  1.00  0.00     0.202 C 
BRANCH  11  15
ATOM     15  O   UNL     1       6.141 -10.649  10.095  1.00  0.00    -0.388 OA
ATOM     16  H   UNL     1       6.880 -11.339   9.863  1.00  0.00     0.211 HD
ENDBRANCH  11  15
BRANCH  13  17
ATOM     17  O   UNL     1       6.879  -8.500  12.252  1.00  0.00    -0.387 OA
ATOM     18  H   UNL     1       7.464  -8.557  11.451  1.00  0.00     0.211 HD
ENDBRANCH  13  17
BRANCH  14  19
ATOM     19  O   UNL     1       5.139  -7.742   9.998  1.00  0.00    -0.385 OA
ATOM     20  H   UNL     1       4.675  -8.216   9.210  1.00  0.00     0.211 HD
ENDBRANCH  14  19
ENDBRANCH   7   8
ENDBRANCH   1   7
BRANCH   2  21
ATOM     21  O   UNL     1       0.114 -10.525  10.023  1.00  0.00    -0.387 OA
ATOM     22  H   UNL     1      -0.780 -10.714   9.703  1.00  0.00     0.211 HD
ENDBRANCH   2  21
BRANCH   6  23
ATOM     23  O   UNL     1       2.966  -6.763   8.109  1.00  0.00    -0.462 OA
BRANCH  23  24
ATOM     24  C   UNL     1       3.937  -6.789   7.054  1.00  0.00     0.130 A 
ATOM     25  C   UNL     1       4.392  -8.063   6.583  1.00  0.00     0.093 A 
ATOM     26  C   UNL     1       4.698  -5.634   6.703  1.00  0.00     0.094 A 
ATOM     27  C   UNL     1       5.263  -8.162   5.484  1.00  0.00     0.133 A 
ATOM     28  C   UNL     1       5.944  -5.875   6.040  1.00  0.00     0.138 A 
ATOM     29  C   UNL     1       6.045  -7.020   5.249  1.00  0.00     0.102 A 
ATOM     30  O   UNL     1       7.131  -5.056   6.037  1.00  0.00    -0.484 OA
ATOM     31  C   UNL     1       6.556  -6.797   3.887  1.00  0.00     0.174 C 
ATOM     32  C   UNL     1       8.121  -5.275   5.025  1.00  0.00     0.211 C 
ATOM     33  O   UNL     1       6.120  -7.404   2.876  1.00  0.00    -0.294 OA
ATOM     34  C   UNL     1       7.390  -5.575   3.667  1.00  0.00     0.131 C 
BRANCH  27  35
ATOM     35  O   UNL     1       5.799  -9.389   5.136  1.00  0.00    -0.507 OA
ATOM     36  H   UNL     1       5.266 -10.036   4.458  1.00  0.00     0.293 HD
ENDBRANCH  27  35
BRANCH  32  37
ATOM     37  C   UNL     1       9.051  -6.454   5.347  1.00  0.00    -0.007 A 
ATOM     38  C   UNL     1      10.324  -6.154   6.025  1.00  0.00     0.011 A 
ATOM     39  C   UNL     1       8.909  -7.793   4.916  1.00  0.00     0.011 A 
ATOM     40  C   UNL     1      11.300  -7.189   6.193  1.00  0.00     0.046 A 
ATOM     41  C   UNL     1       9.886  -8.801   5.093  1.00  0.00     0.046 A 
ATOM     42  C   UNL     1      11.087  -8.530   5.771  1.00  0.00     0.115 A 
BRANCH  42  43
ATOM     43  O   UNL     1      12.078  -9.474   5.863  1.00  0.00    -0.508 OA
ATOM     44  H   UNL     1      12.771  -9.587   5.097  1.00  0.00     0.293 HD
ENDBRANCH  42  43
ENDBRANCH  32  37
ENDBRANCH  23  24
ENDBRANCH   6  23
BRANCH   3  45
ATOM     45  O   UNL     1      -2.089  -8.618   9.021  1.00  0.00    -0.387 OA
ATOM     46  H   UNL     1      -2.638  -8.091   8.390  1.00  0.00     0.211 HD
ENDBRANCH   3  45
BRANCH   4  47
ATOM     47  C   UNL     1      -0.778  -7.858   6.022  1.00  0.00     0.191 C 
BRANCH  47  48
ATOM     48  O   UNL     1       0.219  -7.612   5.017  1.00  0.00    -0.394 OA
ATOM     49  H   UNL     1      -0.057  -8.171   4.268  1.00  0.00     0.210 HD
ENDBRANCH  47  48
ENDBRANCH   4  47
TORSDOF 14
ENDMDL
MODEL 4
REMARK VINA RESULT:    -7.118      2.179      4.239
REMARK INTER + INTRA:         -11.418
REMARK INTER:                 -10.724
REMARK INTRA:                  -0.694
REMARK UNBOUND:                -0.139
REMARK SMILES C[C@H]1O[C@H](O[C@@H]2[C@H](Oc3cc(O)c4c(c3)O[C@@H](c3ccc(O)cc3)CC4=O)O[C@@H](CO)[C@H](O)[C@H]2O)[C@H](O)[C@H](O)[C@@H]1O
REMARK SMILES IDX 6 1 34 2 32 3 29 4 28 5 7 6 5 7 4 8 1 9 2 10 40 11 3 12
REMARK SMILES IDX 38 13 36 14 41 15 39 17 37 19 35 21 8 23 9 24 10 25 15 26
REMARK SMILES IDX 11 27 14 28 13 29 16 30 26 31 17 32 27 33 25 34 12 35 18 37
REMARK SMILES IDX 19 38 24 39 20 40 23 41 21 42 22 43 33 45 30 47 31 48
REMARK H PARENT 41 16 39 18 37 20 35 22 12 36 22 44 33 46 31 49
REMARK Flexibility Score: inf
ROOT
ATOM      1  C   UNL     1       2.369  -7.110   9.419  1.00  0.00     0.221 C 
ATOM      2  C   UNL     1       0.910  -6.525   9.313  1.00  0.00     0.181 C 
ATOM      3  C   UNL     1       0.310  -6.822   7.865  1.00  0.00     0.177 C 
ATOM      4  C   UNL     1       1.326  -6.680   6.712  1.00  0.00     0.179 C 
ATOM      5  O   UNL     1       2.632  -6.305   7.063  1.00  0.00    -0.332 OA
ATOM      6  C   UNL     1       3.301  -6.933   8.128  1.00  0.00     0.339 C 
ENDROOT
BRANCH   1   7
ATOM      7  O   UNL     1       2.963  -7.572  10.701  1.00  0.00    -0.337 OA
BRANCH   7   8
ATOM      8  C   UNL     1       2.509  -8.880  11.135  1.00  0.00     0.282 C 
ATOM      9  C   UNL     1       0.925 -10.759   8.136  1.00  0.00     0.041 C 
ATOM     10  C   UNL     1       2.026 -10.036   8.952  1.00  0.00     0.150 C 
ATOM     11  C   UNL     1       3.299 -10.845   9.221  1.00  0.00     0.174 C 
ATOM     12  O   UNL     1       1.557  -9.458  10.225  1.00  0.00    -0.344 OA
ATOM     13  C   UNL     1       3.350 -11.262  10.707  1.00  0.00     0.179 C 
ATOM     14  C   UNL     1       3.571 -10.009  11.613  1.00  0.00     0.202 C 
BRANCH  11  15
ATOM     15  O   UNL     1       4.387 -10.005   8.842  1.00  0.00    -0.388 OA
ATOM     16  H   UNL     1       4.615  -9.303   9.572  1.00  0.00     0.211 HD
ENDBRANCH  11  15
BRANCH  13  17
ATOM     17  O   UNL     1       4.287 -12.346  10.923  1.00  0.00    -0.387 OA
ATOM     18  H   UNL     1       4.744 -12.591  10.076  1.00  0.00     0.211 HD
ENDBRANCH  13  17
BRANCH  14  19
ATOM     19  O   UNL     1       4.902  -9.617  11.850  1.00  0.00    -0.385 OA
ATOM     20  H   UNL     1       5.268  -9.489  10.896  1.00  0.00     0.211 HD
ENDBRANCH  14  19
ENDBRANCH   7   8
ENDBRANCH   1   7
BRANCH   2  21
ATOM     21  O   UNL     1       0.076  -7.252  10.215  1.00  0.00    -0.387 OA
ATOM     22  H   UNL     1      -0.071  -8.088   9.748  1.00  0.00     0.211 HD
ENDBRANCH   2  21
BRANCH   6  23
ATOM     23  O   UNL     1       4.603  -6.271   8.094  1.00  0.00    -0.462 OA
BRANCH  23  24
ATOM     24  C   UNL     1       5.398  -6.664   6.967  1.00  0.00     0.130 A 
ATOM     25  C   UNL     1       5.804  -8.033   6.867  1.00  0.00     0.093 A 
ATOM     26  C   UNL     1       6.067  -5.705   6.148  1.00  0.00     0.094 A 
ATOM     27  C   UNL     1       6.495  -8.506   5.738  1.00  0.00     0.133 A 
ATOM     28  C   UNL     1       7.200  -6.182   5.414  1.00  0.00     0.138 A 
ATOM     29  C   UNL     1       7.203  -7.523   5.028  1.00  0.00     0.102 A 
ATOM     30  O   UNL     1       8.353  -5.441   4.963  1.00  0.00    -0.484 OA
ATOM     31  C   UNL     1       7.491  -7.765   3.606  1.00  0.00     0.174 C 
ATOM     32  C   UNL     1       9.178  -6.002   3.935  1.00  0.00     0.211 C 
ATOM     33  O   UNL     1       6.917  -8.652   2.925  1.00  0.00    -0.294 OA
ATOM     34  C   UNL     1       8.251  -6.702   2.877  1.00  0.00     0.131 C 
BRANCH  27  35
ATOM     35  O   UNL     1       6.999  -9.794   5.726  1.00  0.00    -0.507 OA
ATOM     36  H   UNL     1       7.286 -10.269   6.650  1.00  0.00     0.293 HD
ENDBRANCH  27  35
BRANCH  32  37
ATOM     37  C   UNL     1      10.174  -7.040   4.471  1.00  0.00    -0.007 A 
ATOM     38  C   UNL     1      10.612  -8.104   3.552  1.00  0.00     0.011 A 
ATOM     39  C   UNL     1      10.602  -7.199   5.809  1.00  0.00     0.011 A 
ATOM     40  C   UNL     1      11.403  -9.191   4.048  1.00  0.00     0.046 A 
ATOM     41  C   UNL     1      11.384  -8.279   6.280  1.00  0.00     0.046 A 
ATOM     42  C   UNL     1      11.835  -9.279   5.400  1.00  0.00     0.115 A 
BRANCH  42  43
ATOM     43  O   UNL     1      12.511 -10.378   5.864  1.00  0.00    -0.508 OA
ATOM     44  H   UNL     1      11.998 -11.165   6.308  1.00  0.00     0.293 HD
ENDBRANCH  42  43
ENDBRANCH  32  37
ENDBRANCH  23  24
ENDBRANCH   6  23
BRANCH   3  45
ATOM     45  O   UNL     1      -0.824  -6.041   7.529  1.00  0.00    -0.387 OA
ATOM     46  H   UNL     1      -1.305  -6.389   6.737  1.00  0.00     0.211 HD
ENDBRANCH   3  45
BRANCH   4  47
ATOM     47  C   UNL     1       1.303  -7.667   5.499  1.00  0.00     0.191 C 
BRANCH  47  48
ATOM     48  O   UNL     1       0.679  -7.296   4.259  1.00  0.00    -0.394 OA
ATOM     49  H   UNL     1       1.072  -6.430   4.046  1.00  0.00     0.210 HD
ENDBRANCH  47  48
ENDBRANCH   4  47
TORSDOF 14
ENDMDL
MODEL 5
REMARK VINA RESULT:    -7.099     13.904     16.428
REMARK INTER + INTRA:         -11.388
REMARK INTER:                  -9.901
REMARK INTRA:                  -1.487
REMARK UNBOUND:                -0.139
REMARK SMILES C[C@H]1O[C@H](O[C@@H]2[C@H](Oc3cc(O)c4c(c3)O[C@@H](c3ccc(O)cc3)CC4=O)O[C@@H](CO)[C@H](O)[C@H]2O)[C@H](O)[C@H](O)[C@@H]1O
REMARK SMILES IDX 6 1 34 2 32 3 29 4 28 5 7 6 5 7 4 8 1 9 2 10 40 11 3 12
REMARK SMILES IDX 38 13 36 14 41 15 39 17 37 19 35 21 8 23 9 24 10 25 15 26
REMARK SMILES IDX 11 27 14 28 13 29 16 30 26 31 17 32 27 33 25 34 12 35 18 37
REMARK SMILES IDX 19 38 24 39 20 40 23 41 21 42 22 43 33 45 30 47 31 48
REMARK H PARENT 41 16 39 18 37 20 35 22 12 36 22 44 33 46 31 49
REMARK Flexibility Score: inf
ROOT
ATOM      1  C   UNL     1      16.949 -15.259  11.534  1.00  0.00     0.221 C 
ATOM      2  C   UNL     1      17.273 -14.236  12.687  1.00  0.00     0.181 C 
ATOM      3  C   UNL     1      16.843 -12.765  12.244  1.00  0.00     0.177 C 
ATOM      4  C   UNL     1      17.129 -12.436  10.764  1.00  0.00     0.179 C 
ATOM      5  O   UNL     1      17.730 -13.446   9.996  1.00  0.00    -0.332 OA
ATOM      6  C   UNL     1      17.251 -14.767  10.040  1.00  0.00     0.339 C 
ENDROOT
BRANCH   1   7
ATOM      7  O   UNL     1      16.627 -16.688  11.790  1.00  0.00    -0.337 OA
BRANCH   7   8
ATOM      8  C   UNL     1      16.799 -17.557  10.640  1.00  0.00     0.282 C 
ATOM      9  C   UNL     1      17.210 -21.221  11.835  1.00  0.00     0.041 C 
ATOM     10  C   UNL     1      16.520 -19.847  11.644  1.00  0.00     0.150 C 
ATOM     11  C   UNL     1      15.159 -19.874  10.940  1.00  0.00     0.174 C 
ATOM     12  O   UNL     1      17.367 -18.829  10.995  1.00  0.00    -0.344 OA
ATOM     13  C   UNL     1      15.297 -19.300   9.514  1.00  0.00     0.179 C 
ATOM     14  C   UNL     1      15.596 -17.769   9.573  1.00  0.00     0.202 C 
BRANCH  11  15
ATOM     15  O   UNL     1      14.277 -19.114  11.762  1.00  0.00    -0.388 OA
ATOM     16  H   UNL     1      14.519 -18.105  11.773  1.00  0.00     0.211 HD
ENDBRANCH  11  15
BRANCH  13  17
ATOM     17  O   UNL     1      14.172 -19.673   8.681  1.00  0.00    -0.387 OA
ATOM     18  H   UNL     1      13.784 -18.875   8.234  1.00  0.00     0.211 HD
ENDBRANCH  13  17
BRANCH  14  19
ATOM     19  O   UNL     1      14.487 -16.902   9.635  1.00  0.00    -0.385 OA
ATOM     20  H   UNL     1      14.143 -16.914   8.664  1.00  0.00     0.211 HD
ENDBRANCH  14  19
ENDBRANCH   7   8
ENDBRANCH   1   7
BRANCH   2  21
ATOM     21  O   UNL     1      16.436 -14.546  13.801  1.00  0.00    -0.387 OA
ATOM     22  H   UNL     1      15.583 -14.735  13.385  1.00  0.00     0.211 HD
ENDBRANCH   2  21
BRANCH   6  23
ATOM     23  O   UNL     1      18.124 -15.433   9.077  1.00  0.00    -0.462 OA
BRANCH  23  24
ATOM     24  C   UNL     1      17.576 -15.459   7.752  1.00  0.00     0.130 A 
ATOM     25  C   UNL     1      16.325 -14.800   7.522  1.00  0.00     0.093 A 
ATOM     26  C   UNL     1      18.041 -16.378   6.764  1.00  0.00     0.094 A 
ATOM     27  C   UNL     1      15.784 -14.699   6.229  1.00  0.00     0.133 A 
ATOM     28  C   UNL     1      17.129 -16.677   5.701  1.00  0.00     0.138 A 
ATOM     29  C   UNL     1      16.218 -15.687   5.332  1.00  0.00     0.102 A 
ATOM     30  O   UNL     1      17.044 -17.876   4.904  1.00  0.00    -0.484 OA
ATOM     31  C   UNL     1      16.169 -15.388   3.892  1.00  0.00     0.174 C 
ATOM     32  C   UNL     1      16.330 -17.834   3.663  1.00  0.00     0.211 C 
ATOM     33  O   UNL     1      16.025 -14.227   3.430  1.00  0.00    -0.294 OA
ATOM     34  C   UNL     1      16.633 -16.461   2.959  1.00  0.00     0.131 C 
BRANCH  27  35
ATOM     35  O   UNL     1      14.513 -14.183   6.051  1.00  0.00    -0.507 OA
ATOM     36  H   UNL     1      14.302 -13.554   5.201  1.00  0.00     0.293 HD
ENDBRANCH  27  35
BRANCH  32  37
ATOM     37  C   UNL     1      14.811 -17.963   3.845  1.00  0.00    -0.007 A 
ATOM     38  C   UNL     1      14.324 -18.636   5.060  1.00  0.00     0.011 A 
ATOM     39  C   UNL     1      13.811 -17.657   2.894  1.00  0.00     0.011 A 
ATOM     40  C   UNL     1      12.929 -18.934   5.196  1.00  0.00     0.046 A 
ATOM     41  C   UNL     1      12.437 -17.959   3.048  1.00  0.00     0.046 A 
ATOM     42  C   UNL     1      11.961 -18.570   4.221  1.00  0.00     0.115 A 
BRANCH  42  43
ATOM     43  O   UNL     1      10.649 -18.952   4.338  1.00  0.00    -0.508 OA
ATOM     44  H   UNL     1      10.335 -19.520   5.149  1.00  0.00     0.293 HD
ENDBRANCH  42  43
ENDBRANCH  32  37
ENDBRANCH  23  24
ENDBRANCH   6  23
BRANCH   3  45
ATOM     45  O   UNL     1      17.411 -11.728  13.026  1.00  0.00    -0.387 OA
ATOM     46  H   UNL     1      17.375 -10.849  12.575  1.00  0.00     0.211 HD
ENDBRANCH   3  45
BRANCH   4  47
ATOM     47  C   UNL     1      16.123 -11.580   9.926  1.00  0.00     0.191 C 
BRANCH  47  48
ATOM     48  O   UNL     1      14.719 -11.885   9.923  1.00  0.00    -0.394 OA
ATOM     49  H   UNL     1      14.296 -11.048   9.655  1.00  0.00     0.210 HD
ENDBRANCH  47  48
ENDBRANCH   4  47
TORSDOF 14
ENDMDL
MODEL 6
REMARK VINA RESULT:    -7.044      3.616      9.340
REMARK INTER + INTRA:         -11.300
REMARK INTER:                  -9.855
REMARK INTRA:                  -1.444
REMARK UNBOUND:                -0.139
REMARK SMILES C[C@H]1O[C@H](O[C@@H]2[C@H](Oc3cc(O)c4c(c3)O[C@@H](c3ccc(O)cc3)CC4=O)O[C@@H](CO)[C@H](O)[C@H]2O)[C@H](O)[C@H](O)[C@@H]1O
REMARK SMILES IDX 6 1 34 2 32 3 29 4 28 5 7 6 5 7 4 8 1 9 2 10 40 11 3 12
REMARK SMILES IDX 38 13 36 14 41 15 39 17 37 19 35 21 8 23 9 24 10 25 15 26
REMARK SMILES IDX 11 27 14 28 13 29 16 30 26 31 17 32 27 33 25 34 12 35 18 37
REMARK SMILES IDX 19 38 24 39 20 40 23 41 21 42 22 43 33 45 30 47 31 48
REMARK H PARENT 41 16 39 18 37 20 35 22 12 36 22 44 33 46 31 49
REMARK Flexibility Score: inf
ROOT
ATOM      1  C   UNL     1      10.626  -8.536   3.987  1.00  0.00     0.221 C 
ATOM      2  C   UNL     1      11.443  -9.882   3.931  1.00  0.00     0.181 C 
ATOM      3  C   UNL     1      10.482 -11.082   3.501  1.00  0.00     0.177 C 
ATOM      4  C   UNL     1       9.067 -11.017   4.113  1.00  0.00     0.179 C 
ATOM      5  O   UNL     1       8.797  -9.936   4.967  1.00  0.00    -0.332 OA
ATOM      6  C   UNL     1       9.150  -8.624   4.604  1.00  0.00     0.339 C 
ENDROOT
BRANCH   1   7
ATOM      7  O   UNL     1      11.242  -7.207   3.733  1.00  0.00    -0.337 OA
BRANCH   7   8
ATOM      8  C   UNL     1      12.362  -6.890   4.600  1.00  0.00     0.282 C 
ATOM      9  C   UNL     1      14.627  -4.258   2.876  1.00  0.00     0.041 C 
ATOM     10  C   UNL     1      13.336  -4.847   3.499  1.00  0.00     0.150 C 
ATOM     11  C   UNL     1      12.740  -4.061   4.671  1.00  0.00     0.174 C 
ATOM     12  O   UNL     1      13.444  -6.266   3.888  1.00  0.00    -0.344 OA
ATOM     13  C   UNL     1      12.978  -4.828   5.990  1.00  0.00     0.179 C 
ATOM     14  C   UNL     1      12.126  -6.136   6.016  1.00  0.00     0.202 C 
BRANCH  11  15
ATOM     15  O   UNL     1      11.357  -3.892   4.368  1.00  0.00    -0.388 OA
ATOM     16  H   UNL     1      10.752  -4.035   5.199  1.00  0.00     0.211 HD
ENDBRANCH  11  15
BRANCH  13  17
ATOM     17  O   UNL     1      12.812  -3.966   7.142  1.00  0.00    -0.387 OA
ATOM     18  H   UNL     1      13.694  -3.704   7.517  1.00  0.00     0.211 HD
ENDBRANCH  13  17
BRANCH  14  19
ATOM     19  O   UNL     1      10.810  -6.033   6.508  1.00  0.00    -0.385 OA
ATOM     20  H   UNL     1      10.851  -6.599   7.368  1.00  0.00     0.211 HD
ENDBRANCH  14  19
ENDBRANCH   7   8
ENDBRANCH   1   7
BRANCH   2  21
ATOM     21  O   UNL     1      12.397  -9.776   2.875  1.00  0.00    -0.387 OA
ATOM     22  H   UNL     1      11.897 -10.072   2.101  1.00  0.00     0.211 HD
ENDBRANCH   2  21
BRANCH   6  23
ATOM     23  O   UNL     1       8.648  -7.856   5.740  1.00  0.00    -0.462 OA
BRANCH  23  24
ATOM     24  C   UNL     1       7.356  -7.282   5.497  1.00  0.00     0.130 A 
ATOM     25  C   UNL     1       6.997  -6.092   6.209  1.00  0.00     0.093 A 
ATOM     26  C   UNL     1       6.316  -8.017   4.853  1.00  0.00     0.094 A 
ATOM     27  C   UNL     1       5.791  -5.422   5.942  1.00  0.00     0.133 A 
ATOM     28  C   UNL     1       4.978  -7.580   5.114  1.00  0.00     0.138 A 
ATOM     29  C   UNL     1       4.782  -6.226   5.389  1.00  0.00     0.102 A 
ATOM     30  O   UNL     1       3.761  -8.354   5.090  1.00  0.00    -0.484 OA
ATOM     31  C   UNL     1       3.730  -5.572   4.594  1.00  0.00     0.174 C 
ATOM     32  C   UNL     1       2.506  -7.668   5.006  1.00  0.00     0.211 C 
ATOM     33  O   UNL     1       3.824  -4.397   4.155  1.00  0.00    -0.294 OA
ATOM     34  C   UNL     1       2.665  -6.453   4.022  1.00  0.00     0.131 C 
BRANCH  27  35
ATOM     35  O   UNL     1       5.402  -4.359   6.737  1.00  0.00    -0.507 OA
ATOM     36  H   UNL     1       6.124  -3.863   7.365  1.00  0.00     0.293 HD
ENDBRANCH  27  35
BRANCH  32  37
ATOM     37  C   UNL     1       2.026  -7.135   6.363  1.00  0.00    -0.007 A 
ATOM     38  C   UNL     1       2.741  -7.592   7.567  1.00  0.00     0.011 A 
ATOM     39  C   UNL     1       0.860  -6.378   6.617  1.00  0.00     0.011 A 
ATOM     40  C   UNL     1       2.229  -7.263   8.864  1.00  0.00     0.046 A 
ATOM     41  C   UNL     1       0.371  -6.063   7.907  1.00  0.00     0.046 A 
ATOM     42  C   UNL     1       1.069  -6.466   9.059  1.00  0.00     0.115 A 
BRANCH  42  43
ATOM     43  O   UNL     1       0.553  -6.248  10.311  1.00  0.00    -0.508 OA
ATOM     44  H   UNL     1       0.186  -7.038  10.876  1.00  0.00     0.293 HD
ENDBRANCH  42  43
ENDBRANCH  32  37
ENDBRANCH  23  24
ENDBRANCH   6  23
BRANCH   3  45
ATOM     45  O   UNL     1      11.001 -12.373   3.770  1.00  0.00    -0.387 OA
ATOM     46  H   UNL     1      11.072 -12.932   2.957  1.00  0.00     0.211 HD
ENDBRANCH   3  45
BRANCH   4  47
ATOM     47  C   UNL     1       7.814 -11.434   3.276  1.00  0.00     0.191 C 
BRANCH  47  48
ATOM     48  O   UNL     1       7.190 -12.714   3.469  1.00  0.00    -0.394 OA
ATOM     49  H   UNL     1       7.183 -12.829   4.438  1.00  0.00     0.210 HD
ENDBRANCH  47  48
ENDBRANCH   4  47
TORSDOF 14
ENDMDL
MODEL 7
REMARK VINA RESULT:    -7.020      2.387      5.012
REMARK INTER + INTRA:         -11.263
REMARK INTER:                 -12.422
REMARK INTRA:                   1.159
REMARK UNBOUND:                -0.139
REMARK SMILES C[C@H]1O[C@H](O[C@@H]2[C@H](Oc3cc(O)c4c(c3)O[C@@H](c3ccc(O)cc3)CC4=O)O[C@@H](CO)[C@H](O)[C@H]2O)[C@H](O)[C@H](O)[C@@H]1O
REMARK SMILES IDX 6 1 34 2 32 3 29 4 28 5 7 6 5 7 4 8 1 9 2 10 40 11 3 12
REMARK SMILES IDX 38 13 36 14 41 15 39 17 37 19 35 21 8 23 9 24 10 25 15 26
REMARK SMILES IDX 11 27 14 28 13 29 16 30 26 31 17 32 27 33 25 34 12 35 18 37
REMARK SMILES IDX 19 38 24 39 20 40 23 41 21 42 22 43 33 45 30 47 31 48
REMARK H PARENT 41 16 39 18 37 20 35 22 12 36 22 44 33 46 31 49
REMARK Flexibility Score: inf
ROOT
ATOM      1  C   UNL     1       2.216  -7.575   9.141  1.00  0.00     0.221 C 
ATOM      2  C   UNL     1       1.392  -6.250   8.928  1.00  0.00     0.181 C 
ATOM      3  C   UNL     1       1.053  -6.065   7.380  1.00  0.00     0.177 C 
ATOM      4  C   UNL     1       2.192  -6.475   6.423  1.00  0.00     0.179 C 
ATOM      5  O   UNL     1       3.376  -6.945   7.015  1.00  0.00    -0.332 OA
ATOM      6  C   UNL     1       3.337  -7.901   8.045  1.00  0.00     0.339 C 
ENDROOT
BRANCH   1   7
ATOM      7  O   UNL     1       2.163  -8.365  10.401  1.00  0.00    -0.337 OA
BRANCH   7   8
ATOM      8  C   UNL     1       1.825  -9.764  10.217  1.00  0.00     0.282 C 
ATOM      9  C   UNL     1      -1.400 -10.588  12.205  1.00  0.00     0.041 C 
ATOM     10  C   UNL     1      -0.510  -9.884  11.150  1.00  0.00     0.150 C 
ATOM     11  C   UNL     1      -0.971 -10.009   9.694  1.00  0.00     0.174 C 
ATOM     12  O   UNL     1       0.919 -10.244  11.225  1.00  0.00    -0.344 OA
ATOM     13  C   UNL     1      -0.034 -10.968   8.929  1.00  0.00     0.179 C 
ATOM     14  C   UNL     1       1.379 -10.326   8.762  1.00  0.00     0.202 C 
BRANCH  11  15
ATOM     15  O   UNL     1      -0.964  -8.686   9.164  1.00  0.00    -0.388 OA
ATOM     16  H   UNL     1      -1.696  -8.087   9.591  1.00  0.00     0.211 HD
ENDBRANCH  11  15
BRANCH  13  17
ATOM     17  O   UNL     1      -0.642 -11.437   7.701  1.00  0.00    -0.387 OA
ATOM     18  H   UNL     1      -0.588 -12.427   7.636  1.00  0.00     0.211 HD
ENDBRANCH  13  17
BRANCH  14  19
ATOM     19  O   UNL     1       1.579  -9.502   7.638  1.00  0.00    -0.385 OA
ATOM     20  H   UNL     1       2.087 -10.125   6.994  1.00  0.00     0.211 HD
ENDBRANCH  14  19
ENDBRANCH   7   8
ENDBRANCH   1   7
BRANCH   2  21
ATOM     21  O   UNL     1       0.126  -6.408   9.568  1.00  0.00    -0.387 OA
ATOM     22  H   UNL     1       0.364  -6.779  10.429  1.00  0.00     0.211 HD
ENDBRANCH   2  21
BRANCH   6  23
ATOM     23  O   UNL     1       4.757  -8.114   8.307  1.00  0.00    -0.462 OA
BRANCH  23  24
ATOM     24  C   UNL     1       5.498  -8.456   7.127  1.00  0.00     0.130 A 
ATOM     25  C   UNL     1       5.793  -9.836   6.887  1.00  0.00     0.093 A 
ATOM     26  C   UNL     1       6.223  -7.476   6.385  1.00  0.00     0.094 A 
ATOM     27  C   UNL     1       6.423 -10.249   5.700  1.00  0.00     0.133 A 
ATOM     28  C   UNL     1       7.300  -7.965   5.578  1.00  0.00     0.138 A 
ATOM     29  C   UNL     1       7.191  -9.258   5.068  1.00  0.00     0.102 A 
ATOM     30  O   UNL     1       8.498  -7.273   5.168  1.00  0.00    -0.484 OA
ATOM     31  C   UNL     1       7.431  -9.383   3.621  1.00  0.00     0.174 C 
ATOM     32  C   UNL     1       9.257  -7.794   4.070  1.00  0.00     0.211 C 
ATOM     33  O   UNL     1       6.776 -10.155   2.875  1.00  0.00    -0.294 OA
ATOM     34  C   UNL     1       8.257  -8.317   2.976  1.00  0.00     0.131 C 
BRANCH  27  35
ATOM     35  O   UNL     1       6.824 -11.564   5.552  1.00  0.00    -0.507 OA
ATOM     36  H   UNL     1       6.739 -12.049   4.593  1.00  0.00     0.293 HD
ENDBRANCH  27  35
BRANCH  32  37
ATOM     37  C   UNL     1      10.179  -8.951   4.478  1.00  0.00    -0.007 A 
ATOM     38  C   UNL     1      11.114  -8.719   5.592  1.00  0.00     0.011 A 
ATOM     39  C   UNL     1      10.361 -10.177   3.797  1.00  0.00     0.011 A 
ATOM     40  C   UNL     1      12.110  -9.701   5.900  1.00  0.00     0.046 A 
ATOM     41  C   UNL     1      11.351 -11.135   4.117  1.00  0.00     0.046 A 
ATOM     42  C   UNL     1      12.223 -10.934   5.203  1.00  0.00     0.115 A 
BRANCH  42  43
ATOM     43  O   UNL     1      13.246 -11.811   5.460  1.00  0.00    -0.508 OA
ATOM     44  H   UNL     1      14.030 -11.920   4.787  1.00  0.00     0.293 HD
ENDBRANCH  42  43
ENDBRANCH  32  37
ENDBRANCH  23  24
ENDBRANCH   6  23
BRANCH   3  45
ATOM     45  O   UNL     1       0.649  -4.755   7.020  1.00  0.00    -0.387 OA
ATOM     46  H   UNL     1       1.321  -4.070   7.261  1.00  0.00     0.211 HD
ENDBRANCH   3  45
BRANCH   4  47
ATOM     47  C   UNL     1       1.882  -7.199   5.073  1.00  0.00     0.191 C 
BRANCH  47  48
ATOM     48  O   UNL     1       0.536  -7.558   4.720  1.00  0.00    -0.394 OA
ATOM     49  H   UNL     1       0.423  -8.451   5.095  1.00  0.00     0.210 HD
ENDBRANCH  47  48
ENDBRANCH   4  47
TORSDOF 14
ENDMDL
MODEL 8
REMARK VINA RESULT:    -6.967      2.419      8.603
REMARK INTER + INTRA:         -11.179
REMARK INTER:                 -11.477
REMARK INTRA:                   0.298
REMARK UNBOUND:                -0.139
REMARK SMILES C[C@H]1O[C@H](O[C@@H]2[C@H](Oc3cc(O)c4c(c3)O[C@@H](c3ccc(O)cc3)CC4=O)O[C@@H](CO)[C@H](O)[C@H]2O)[C@H](O)[C@H](O)[C@@H]1O
REMARK SMILES IDX 6 1 34 2 32 3 29 4 28 5 7 6 5 7 4 8 1 9 2 10 40 11 3 12
REMARK SMILES IDX 38 13 36 14 41 15 39 17 37 19 35 21 8 23 9 24 10 25 15 26
REMARK SMILES IDX 11 27 14 28 13 29 16 30 26 31 17 32 27 33 25 34 12 35 18 37
REMARK SMILES IDX 19 38 24 39 20 40 23 41 21 42 22 43 33 45 30 47 31 48
REMARK H PARENT 41 16 39 18 37 20 35 22 12 36 22 44 33 46 31 49
REMARK Flexibility Score: inf
ROOT
ATOM      1  C   UNL     1       7.298  -6.857   4.872  1.00  0.00     0.221 C 
ATOM      2  C   UNL     1       7.075  -5.861   3.671  1.00  0.00     0.181 C 
ATOM      3  C   UNL     1       6.046  -4.720   4.097  1.00  0.00     0.177 C 
ATOM      4  C   UNL     1       4.873  -5.211   4.971  1.00  0.00     0.179 C 
ATOM      5  O   UNL     1       4.843  -6.581   5.277  1.00  0.00    -0.332 OA
ATOM      6  C   UNL     1       5.998  -7.245   5.724  1.00  0.00     0.339 C 
ENDROOT
BRANCH   1   7
ATOM      7  O   UNL     1       8.565  -7.608   5.074  1.00  0.00    -0.337 OA
BRANCH   7   8
ATOM      8  C   UNL     1       9.530  -7.454   4.000  1.00  0.00     0.282 C 
ATOM      9  C   UNL     1      12.348  -5.042   5.129  1.00  0.00     0.041 C 
ATOM     10  C   UNL     1      11.446  -6.303   5.156  1.00  0.00     0.150 C 
ATOM     11  C   UNL     1      12.173  -7.648   5.061  1.00  0.00     0.174 C 
ATOM     12  O   UNL     1      10.352  -6.286   4.167  1.00  0.00    -0.344 OA
ATOM     13  C   UNL     1      11.935  -8.274   3.670  1.00  0.00     0.179 C 
ATOM     14  C   UNL     1      10.442  -8.707   3.520  1.00  0.00     0.202 C 
BRANCH  11  15
ATOM     15  O   UNL     1      11.663  -8.447   6.125  1.00  0.00    -0.388 OA
ATOM     16  H   UNL     1      11.722  -9.463   5.918  1.00  0.00     0.211 HD
ENDBRANCH  11  15
BRANCH  13  17
ATOM     17  O   UNL     1      12.905  -9.310   3.380  1.00  0.00    -0.387 OA
ATOM     18  H   UNL     1      12.880  -9.558   2.419  1.00  0.00     0.211 HD
ENDBRANCH  13  17
BRANCH  14  19
ATOM     19  O   UNL     1      10.101  -9.995   3.974  1.00  0.00    -0.385 OA
ATOM     20  H   UNL     1      10.772 -10.592   3.471  1.00  0.00     0.211 HD
ENDBRANCH  14  19
ENDBRANCH   7   8
ENDBRANCH   1   7
BRANCH   2  21
ATOM     21  O   UNL     1       8.305  -5.179   3.429  1.00  0.00    -0.387 OA
ATOM     22  H   UNL     1       8.286  -4.461   4.079  1.00  0.00     0.211 HD
ENDBRANCH   2  21
BRANCH   6  23
ATOM     23  O   UNL     1       5.495  -8.597   5.953  1.00  0.00    -0.462 OA
BRANCH  23  24
ATOM     24  C   UNL     1       4.764  -8.719   7.181  1.00  0.00     0.130 A 
ATOM     25  C   UNL     1       4.421 -10.032   7.639  1.00  0.00     0.093 A 
ATOM     26  C   UNL     1       4.089  -7.607   7.768  1.00  0.00     0.094 A 
ATOM     27  C   UNL     1       3.797 -10.227   8.884  1.00  0.00     0.133 A 
ATOM     28  C   UNL     1       3.008  -7.920   8.654  1.00  0.00     0.138 A 
ATOM     29  C   UNL     1       3.078  -9.120   9.361  1.00  0.00     0.102 A 
ATOM     30  O   UNL     1       1.844  -7.126   8.963  1.00  0.00    -0.484 OA
ATOM     31  C   UNL     1       2.859  -9.006  10.811  1.00  0.00     0.174 C 
ATOM     32  C   UNL     1       1.086  -7.437  10.138  1.00  0.00     0.211 C 
ATOM     33  O   UNL     1       3.498  -9.677  11.662  1.00  0.00    -0.294 OA
ATOM     34  C   UNL     1       2.085  -7.820  11.290  1.00  0.00     0.131 C 
BRANCH  27  35
ATOM     35  O   UNL     1       3.350 -11.486   9.242  1.00  0.00    -0.507 OA
ATOM     36  H   UNL     1       4.060 -12.273   9.442  1.00  0.00     0.293 HD
ENDBRANCH  27  35
BRANCH  32  37
ATOM     37  C   UNL     1       0.114  -8.606   9.929  1.00  0.00    -0.007 A 
ATOM     38  C   UNL     1      -0.151  -9.488  11.077  1.00  0.00     0.011 A 
ATOM     39  C   UNL     1      -0.438  -9.045   8.704  1.00  0.00     0.011 A 
ATOM     40  C   UNL     1      -0.911 -10.688  10.892  1.00  0.00     0.046 A 
ATOM     41  C   UNL     1      -1.188 -10.234   8.541  1.00  0.00     0.046 A 
ATOM     42  C   UNL     1      -1.475 -11.061   9.641  1.00  0.00     0.115 A 
BRANCH  42  43
ATOM     43  O   UNL     1      -2.117 -12.262   9.476  1.00  0.00    -0.508 OA
ATOM     44  H   UNL     1      -1.629 -13.155   9.683  1.00  0.00     0.293 HD
ENDBRANCH  42  43
ENDBRANCH  32  37
ENDBRANCH  23  24
ENDBRANCH   6  23
BRANCH   3  45
ATOM     45  O   UNL     1       5.491  -3.996   3.012  1.00  0.00    -0.387 OA
ATOM     46  H   UNL     1       5.549  -4.489   2.157  1.00  0.00     0.211 HD
ENDBRANCH   3  45
BRANCH   4  47
ATOM     47  C   UNL     1       4.327  -4.335   6.145  1.00  0.00     0.191 C 
BRANCH  47  48
ATOM     48  O   UNL     1       2.924  -4.310   6.457  1.00  0.00    -0.394 OA
ATOM     49  H   UNL     1       2.502  -4.037   5.621  1.00  0.00     0.210 HD
ENDBRANCH  47  48
ENDBRANCH   4  47
TORSDOF 14
ENDMDL
MODEL 9
REMARK VINA RESULT:    -6.902      2.285      7.557
REMARK INTER + INTRA:         -11.075
REMARK INTER:                 -10.065
REMARK INTRA:                  -1.010
REMARK UNBOUND:                -0.139
REMARK SMILES C[C@H]1O[C@H](O[C@@H]2[C@H](Oc3cc(O)c4c(c3)O[C@@H](c3ccc(O)cc3)CC4=O)O[C@@H](CO)[C@H](O)[C@H]2O)[C@H](O)[C@H](O)[C@@H]1O
REMARK SMILES IDX 6 1 34 2 32 3 29 4 28 5 7 6 5 7 4 8 1 9 2 10 40 11 3 12
REMARK SMILES IDX 38 13 36 14 41 15 39 17 37 19 35 21 8 23 9 24 10 25 15 26
REMARK SMILES IDX 11 27 14 28 13 29 16 30 26 31 17 32 27 33 25 34 12 35 18 37
REMARK SMILES IDX 19 38 24 39 20 40 23 41 21 42 22 43 33 45 30 47 31 48
REMARK H PARENT 41 16 39 18 37 20 35 22 12 36 22 44 33 46 31 49
REMARK Flexibility Score: inf
ROOT
ATOM      1  C   UNL     1       7.306  -8.871   5.568  1.00  0.00     0.221 C 
ATOM      2  C   UNL     1       8.339  -9.694   4.710  1.00  0.00     0.181 C 
ATOM      3  C   UNL     1       7.609 -10.939   4.030  1.00  0.00     0.177 C 
ATOM      4  C   UNL     1       6.564 -11.634   4.928  1.00  0.00     0.179 C 
ATOM      5  O   UNL     1       6.387 -11.106   6.216  1.00  0.00    -0.332 OA
ATOM      6  C   UNL     1       6.247  -9.722   6.416  1.00  0.00     0.339 C 
ENDROOT
BRANCH   1   7
ATOM      7  O   UNL     1       7.437  -7.408   5.804  1.00  0.00    -0.337 OA
BRANCH   7   8
ATOM      8  C   UNL     1       7.030  -6.581   4.683  1.00  0.00     0.282 C 
ATOM      9  C   UNL     1       4.028  -8.240   2.875  1.00  0.00     0.041 C 
ATOM     10  C   UNL     1       4.816  -7.592   4.042  1.00  0.00     0.150 C 
ATOM     11  C   UNL     1       4.185  -6.340   4.661  1.00  0.00     0.174 C 
ATOM     12  O   UNL     1       6.229  -7.305   3.733  1.00  0.00    -0.344 OA
ATOM     13  C   UNL     1       4.992  -5.090   4.249  1.00  0.00     0.179 C 
ATOM     14  C   UNL     1       6.399  -5.107   4.927  1.00  0.00     0.202 C 
BRANCH  11  15
ATOM     15  O   UNL     1       4.179  -6.559   6.069  1.00  0.00    -0.388 OA
ATOM     16  H   UNL     1       3.740  -5.774   6.588  1.00  0.00     0.211 HD
ENDBRANCH  11  15
BRANCH  13  17
ATOM     17  O   UNL     1       4.230  -3.875   4.453  1.00  0.00    -0.387 OA
ATOM     18  H   UNL     1       4.629  -3.325   5.178  1.00  0.00     0.211 HD
ENDBRANCH  13  17
BRANCH  14  19
ATOM     19  O   UNL     1       6.497  -4.542   6.213  1.00  0.00    -0.385 OA
ATOM     20  H   UNL     1       7.101  -5.216   6.705  1.00  0.00     0.211 HD
ENDBRANCH  14  19
ENDBRANCH   7   8
ENDBRANCH   1   7
BRANCH   2  21
ATOM     21  O   UNL     1       8.763  -8.874   3.621  1.00  0.00    -0.387 OA
ATOM     22  H   UNL     1       8.490  -7.988   3.899  1.00  0.00     0.211 HD
ENDBRANCH   2  21
BRANCH   6  23
ATOM     23  O   UNL     1       6.046  -9.648   7.860  1.00  0.00    -0.462 OA
BRANCH  23  24
ATOM     24  C   UNL     1       4.688  -9.357   8.220  1.00  0.00     0.130 A 
ATOM     25  C   UNL     1       3.670 -10.288   7.836  1.00  0.00     0.093 A 
ATOM     26  C   UNL     1       4.282  -8.052   8.632  1.00  0.00     0.094 A 
ATOM     27  C   UNL     1       2.337 -10.116   8.245  1.00  0.00     0.133 A 
ATOM     28  C   UNL     1       2.894  -7.741   8.468  1.00  0.00     0.138 A 
ATOM     29  C   UNL     1       1.981  -8.793   8.552  1.00  0.00     0.102 A 
ATOM     30  O   UNL     1       2.281  -6.450   8.268  1.00  0.00    -0.484 OA
ATOM     31  C   UNL     1       0.852  -8.571   9.469  1.00  0.00     0.174 C 
ATOM     32  C   UNL     1       0.876  -6.307   8.504  1.00  0.00     0.211 C 
ATOM     33  O   UNL     1       0.368  -9.472  10.201  1.00  0.00    -0.294 OA
ATOM     34  C   UNL     1       0.494  -7.152   9.773  1.00  0.00     0.131 C 
BRANCH  27  35
ATOM     35  O   UNL     1       1.349 -10.947   7.748  1.00  0.00    -0.507 OA
ATOM     36  H   UNL     1       1.570 -11.983   7.542  1.00  0.00     0.293 HD
ENDBRANCH  27  35
BRANCH  32  37
ATOM     37  C   UNL     1       0.021  -6.788   7.323  1.00  0.00    -0.007 A 
ATOM     38  C   UNL     1       0.724  -7.241   6.111  1.00  0.00     0.011 A 
ATOM     39  C   UNL     1      -1.383  -6.693   7.194  1.00  0.00     0.011 A 
ATOM     40  C   UNL     1      -0.023  -7.537   4.925  1.00  0.00     0.046 A 
ATOM     41  C   UNL     1      -2.103  -6.990   6.013  1.00  0.00     0.046 A 
ATOM     42  C   UNL     1      -1.441  -7.457   4.864  1.00  0.00     0.115 A 
BRANCH  42  43
ATOM     43  O   UNL     1      -2.118  -7.656   3.688  1.00  0.00    -0.508 OA
ATOM     44  H   UNL     1      -2.691  -6.896   3.274  1.00  0.00     0.293 HD
ENDBRANCH  42  43
ENDBRANCH  32  37
ENDBRANCH  23  24
ENDBRANCH   6  23
BRANCH   3  45
ATOM     45  O   UNL     1       8.487 -11.942   3.548  1.00  0.00    -0.387 OA
ATOM     46  H   UNL     1       8.170 -12.353   2.706  1.00  0.00     0.211 HD
ENDBRANCH   3  45
BRANCH   4  47
ATOM     47  C   UNL     1       5.228 -12.179   4.326  1.00  0.00     0.191 C 
BRANCH  47  48
ATOM     48  O   UNL     1       5.013 -13.591   4.164  1.00  0.00    -0.394 OA
ATOM     49  H   UNL     1       4.043 -13.685   4.176  1.00  0.00     0.210 HD
ENDBRANCH  47  48
ENDBRANCH   4  47
TORSDOF 14
ENDMDL
