MODEL 1
REMARK VINA RESULT:    -3.419      0.000      0.000
REMARK INTER + INTRA:          -5.708
REMARK INTER:                  -5.219
REMARK INTRA:                  -0.489
REMARK UNBOUND:                -0.489
REMARK SMILES CCCCCCCCCCC(=O)[O-]
REMARK SMILES IDX 7 1 8 2 9 3 10 4 11 5 12 6 13 7 6 8 5 9 4 10 3 11 2 12 1 13
REMARK H PARENT
REMARK Flexibility Score: inf
ROOT
ATOM      1  C   UNL     1      -1.633  14.226  10.274  1.00  0.00     0.000 C 
ENDROOT
BRANCH   1   2
ATOM      2  C   UNL     1      -2.452  12.952  10.511  1.00  0.00     0.000 C 
BRANCH   2   3
ATOM      3  C   UNL     1      -1.544  11.719  10.593  1.00  0.00     0.006 C 
BRANCH   3   4
ATOM      4  C   UNL     1      -0.408  11.805   9.570  1.00  0.00     0.053 C 
BRANCH   4   5
ATOM      5  C   UNL     1      -0.843  11.235   8.256  1.00  0.00     0.041 C 
ATOM      6  O   UNL     1      -1.058  11.995   7.276  1.00  0.00    -0.550 OA
ATOM      7  O   UNL     1      -0.962   9.860   8.101  1.00  0.00    -0.550 OA
ENDBRANCH   4   5
ENDBRANCH   3   4
ENDBRANCH   2   3
ENDBRANCH   1   2
BRANCH   1   8
ATOM      8  C   UNL     1      -1.296  14.920  11.599  1.00  0.00     0.000 C 
BRANCH   8   9
ATOM      9  C   UNL     1      -1.164  16.438  11.406  1.00  0.00    -0.000 C 
BRANCH   9  10
ATOM     10  C   UNL     1      -0.372  17.112  12.537  1.00  0.00    -0.000 C 
BRANCH  10  11
ATOM     11  C   UNL     1      -1.043  18.398  13.046  1.00  0.00    -0.000 C 
BRANCH  11  12
ATOM     12  C   UNL     1      -2.486  18.499  12.542  1.00  0.00    -0.003 C 
ATOM     13  C   UNL     1      -3.469  18.622  13.704  1.00  0.00     0.004 C 
ENDBRANCH  11  12
ENDBRANCH  10  11
ENDBRANCH   9  10
ENDBRANCH   8   9
ENDBRANCH   1   8
TORSDOF 9
ENDMDL
MODEL 2
REMARK VINA RESULT:    -3.348     13.250     14.719
REMARK INTER + INTRA:          -5.598
REMARK INTER:                  -4.769
REMARK INTRA:                  -0.829
REMARK UNBOUND:                -0.489
REMARK SMILES CCCCCCCCCCC(=O)[O-]
REMARK SMILES IDX 7 1 8 2 9 3 10 4 11 5 12 6 13 7 6 8 5 9 4 10 3 11 2 12 1 13
REMARK H PARENT
REMARK Flexibility Score: inf
ROOT
ATOM      1  C   UNL     1     -15.319   9.796   8.528  1.00  0.00     0.000 C 
ENDROOT
BRANCH   1   2
ATOM      2  C   UNL     1     -13.897   9.363   8.906  1.00  0.00     0.000 C 
BRANCH   2   3
ATOM      3  C   UNL     1     -13.732   9.284  10.428  1.00  0.00     0.006 C 
BRANCH   3   4
ATOM      4  C   UNL     1     -14.858  10.036  11.143  1.00  0.00     0.053 C 
BRANCH   4   5
ATOM      5  C   UNL     1     -14.317  10.802  12.310  1.00  0.00     0.041 C 
ATOM      6  O   UNL     1     -13.082  10.801  12.551  1.00  0.00    -0.550 OA
ATOM      7  O   UNL     1     -15.173  11.558  13.101  1.00  0.00    -0.550 OA
ENDBRANCH   4   5
ENDBRANCH   3   4
ENDBRANCH   2   3
ENDBRANCH   1   2
BRANCH   1   8
ATOM      8  C   UNL     1     -15.530   9.733   7.010  1.00  0.00     0.000 C 
BRANCH   8   9
ATOM      9  C   UNL     1     -15.721  11.139   6.423  1.00  0.00    -0.000 C 
BRANCH   9  10
ATOM     10  C   UNL     1     -14.677  11.479   5.348  1.00  0.00    -0.000 C 
BRANCH  10  11
ATOM     11  C   UNL     1     -13.243  11.503   5.901  1.00  0.00    -0.000 C 
BRANCH  11  12
ATOM     12  C   UNL     1     -12.303  10.668   5.024  1.00  0.00    -0.003 C 
ATOM     13  C   UNL     1     -12.014   9.312   5.662  1.00  0.00     0.004 C 
ENDBRANCH  11  12
ENDBRANCH  10  11
ENDBRANCH   9  10
ENDBRANCH   8   9
ENDBRANCH   1   8
TORSDOF 9
ENDMDL
MODEL 3
REMARK VINA RESULT:    -3.258      3.480      6.637
REMARK INTER + INTRA:          -5.462
REMARK INTER:                  -4.585
REMARK INTRA:                  -0.877
REMARK UNBOUND:                -0.489
REMARK SMILES CCCCCCCCCCC(=O)[O-]
REMARK SMILES IDX 7 1 8 2 9 3 10 4 11 5 12 6 13 7 6 8 5 9 4 10 3 11 2 12 1 13
REMARK H PARENT
REMARK Flexibility Score: inf
ROOT
ATOM      1  C   UNL     1      -1.743  13.967  10.287  1.00  0.00     0.000 C 
ENDROOT
BRANCH   1   2
ATOM      2  C   UNL     1      -0.402  14.024  11.029  1.00  0.00     0.000 C 
BRANCH   2   3
ATOM      3  C   UNL     1      -0.089  15.452  11.495  1.00  0.00     0.006 C 
BRANCH   3   4
ATOM      4  C   UNL     1      -1.248  16.400  11.175  1.00  0.00     0.053 C 
BRANCH   4   5
ATOM      5  C   UNL     1      -1.561  17.262  12.358  1.00  0.00     0.041 C 
ATOM      6  O   UNL     1      -1.511  18.515  12.259  1.00  0.00    -0.550 OA
ATOM      7  O   UNL     1      -1.957  16.680  13.556  1.00  0.00    -0.550 OA
ENDBRANCH   4   5
ENDBRANCH   3   4
ENDBRANCH   2   3
ENDBRANCH   1   2
BRANCH   1   8
ATOM      8  C   UNL     1      -2.628  12.842  10.835  1.00  0.00     0.000 C 
BRANCH   8   9
ATOM      9  C   UNL     1      -1.786  11.615  11.216  1.00  0.00    -0.000 C 
BRANCH   9  10
ATOM     10  C   UNL     1      -1.465  10.719  10.010  1.00  0.00    -0.000 C 
BRANCH  10  11
ATOM     11  C   UNL     1       0.043  10.625   9.726  1.00  0.00    -0.000 C 
BRANCH  11  12
ATOM     12  C   UNL     1       0.348  10.982   8.267  1.00  0.00    -0.003 C 
ATOM     13  C   UNL     1      -0.859  11.631   7.594  1.00  0.00     0.004 C 
ENDBRANCH  11  12
ENDBRANCH  10  11
ENDBRANCH   9  10
ENDBRANCH   8   9
ENDBRANCH   1   8
TORSDOF 9
ENDMDL
MODEL 4
REMARK VINA RESULT:    -3.226     13.437     15.354
REMARK INTER + INTRA:          -5.413
REMARK INTER:                  -4.325
REMARK INTRA:                  -1.088
REMARK UNBOUND:                -0.489
REMARK SMILES CCCCCCCCCCC(=O)[O-]
REMARK SMILES IDX 7 1 8 2 9 3 10 4 11 5 12 6 13 7 6 8 5 9 4 10 3 11 2 12 1 13
REMARK H PARENT
REMARK Flexibility Score: inf
ROOT
ATOM      1  C   UNL     1     -15.373  11.237   5.280  1.00  0.00     0.000 C 
ENDROOT
BRANCH   1   2
ATOM      2  C   UNL     1     -15.865  11.135   6.729  1.00  0.00     0.000 C 
BRANCH   2   3
ATOM      3  C   UNL     1     -15.747   9.698   7.250  1.00  0.00     0.006 C 
BRANCH   3   4
ATOM      4  C   UNL     1     -14.398   9.472   7.939  1.00  0.00     0.053 C 
BRANCH   4   5
ATOM      5  C   UNL     1     -14.560   9.493   9.427  1.00  0.00     0.041 C 
ATOM      6  O   UNL     1     -15.709   9.468   9.940  1.00  0.00    -0.550 OA
ATOM      7  O   UNL     1     -13.439   9.488  10.248  1.00  0.00    -0.550 OA
ENDBRANCH   4   5
ENDBRANCH   3   4
ENDBRANCH   2   3
ENDBRANCH   1   2
BRANCH   1   8
ATOM      8  C   UNL     1     -16.121  10.253   4.372  1.00  0.00     0.000 C 
BRANCH   8   9
ATOM      9  C   UNL     1     -15.155   9.561   3.399  1.00  0.00    -0.000 C 
BRANCH   9  10
ATOM     10  C   UNL     1     -13.982   8.875   4.116  1.00  0.00    -0.000 C 
BRANCH  10  11
ATOM     11  C   UNL     1     -12.617   9.442   3.695  1.00  0.00    -0.000 C 
BRANCH  11  12
ATOM     12  C   UNL     1     -11.709   9.643   4.913  1.00  0.00    -0.003 C 
ATOM     13  C   UNL     1     -11.768  11.084   5.413  1.00  0.00     0.004 C 
ENDBRANCH  11  12
ENDBRANCH  10  11
ENDBRANCH   9  10
ENDBRANCH   8   9
ENDBRANCH   1   8
TORSDOF 9
ENDMDL
MODEL 5
REMARK VINA RESULT:    -3.205     13.033     14.840
REMARK INTER + INTRA:          -5.381
REMARK INTER:                  -4.828
REMARK INTRA:                  -0.553
REMARK UNBOUND:                -0.489
REMARK SMILES CCCCCCCCCCC(=O)[O-]
REMARK SMILES IDX 7 1 8 2 9 3 10 4 11 5 12 6 13 7 6 8 5 9 4 10 3 11 2 12 1 13
REMARK H PARENT
REMARK Flexibility Score: inf
ROOT
ATOM      1  C   UNL     1     -15.887  10.115   8.381  1.00  0.00     0.000 C 
ENDROOT
BRANCH   1   2
ATOM      2  C   UNL     1     -15.960   9.366   9.717  1.00  0.00     0.000 C 
BRANCH   2   3
ATOM      3  C   UNL     1     -15.702  10.314  10.895  1.00  0.00     0.006 C 
BRANCH   3   4
ATOM      4  C   UNL     1     -14.329  10.052  11.520  1.00  0.00     0.053 C 
BRANCH   4   5
ATOM      5  C   UNL     1     -14.115  10.941  12.705  1.00  0.00     0.041 C 
ATOM      6  O   UNL     1     -12.952  11.151  13.137  1.00  0.00    -0.550 OA
ATOM      7  O   UNL     1     -15.197  11.577  13.300  1.00  0.00    -0.550 OA
ENDBRANCH   4   5
ENDBRANCH   3   4
ENDBRANCH   2   3
ENDBRANCH   1   2
BRANCH   1   8
ATOM      8  C   UNL     1     -14.980   9.380   7.386  1.00  0.00     0.000 C 
BRANCH   8   9
ATOM      9  C   UNL     1     -13.498   9.609   7.721  1.00  0.00    -0.000 C 
BRANCH   9  10
ATOM     10  C   UNL     1     -12.570   9.309   6.535  1.00  0.00    -0.000 C 
BRANCH  10  11
ATOM     11  C   UNL     1     -12.118  10.581   5.799  1.00  0.00    -0.000 C 
BRANCH  11  12
ATOM     12  C   UNL     1     -12.447  10.495   4.305  1.00  0.00    -0.003 C 
ATOM     13  C   UNL     1     -12.746   9.058   3.887  1.00  0.00     0.004 C 
ENDBRANCH  11  12
ENDBRANCH  10  11
ENDBRANCH   9  10
ENDBRANCH   8   9
ENDBRANCH   1   8
TORSDOF 9
ENDMDL
MODEL 6
REMARK VINA RESULT:    -3.186     12.676     14.256
REMARK INTER + INTRA:          -5.352
REMARK INTER:                  -4.635
REMARK INTRA:                  -0.716
REMARK UNBOUND:                -0.489
REMARK SMILES CCCCCCCCCCC(=O)[O-]
REMARK SMILES IDX 7 1 8 2 9 3 10 4 11 5 12 6 13 7 6 8 5 9 4 10 3 11 2 12 1 13
REMARK H PARENT
REMARK Flexibility Score: inf
ROOT
ATOM      1  C   UNL     1     -15.847  11.045   6.499  1.00  0.00     0.000 C 
ENDROOT
BRANCH   1   2
ATOM      2  C   UNL     1     -14.980  11.437   5.296  1.00  0.00     0.000 C 
BRANCH   2   3
ATOM      3  C   UNL     1     -14.297  10.209   4.684  1.00  0.00     0.006 C 
BRANCH   3   4
ATOM      4  C   UNL     1     -12.849  10.521   4.296  1.00  0.00     0.053 C 
BRANCH   4   5
ATOM      5  C   UNL     1     -12.025  10.783   5.517  1.00  0.00     0.041 C 
ATOM      6  O   UNL     1     -11.982   9.936   6.447  1.00  0.00    -0.550 OA
ATOM      7  O   UNL     1     -11.263  11.942   5.605  1.00  0.00    -0.550 OA
ENDBRANCH   4   5
ENDBRANCH   3   4
ENDBRANCH   2   3
ENDBRANCH   1   2
BRANCH   1   8
ATOM      8  C   UNL     1     -15.555   9.606   6.943  1.00  0.00     0.000 C 
BRANCH   8   9
ATOM      9  C   UNL     1     -15.011   9.573   8.379  1.00  0.00    -0.000 C 
BRANCH   9  10
ATOM     10  C   UNL     1     -16.048  10.031   9.415  1.00  0.00    -0.000 C 
BRANCH  10  11
ATOM     11  C   UNL     1     -15.515   9.968  10.855  1.00  0.00    -0.000 C 
BRANCH  11  12
ATOM     12  C   UNL     1     -13.983   9.938  10.871  1.00  0.00    -0.003 C 
ATOM     13  C   UNL     1     -13.438  10.291  12.252  1.00  0.00     0.004 C 
ENDBRANCH  11  12
ENDBRANCH  10  11
ENDBRANCH   9  10
ENDBRANCH   8   9
ENDBRANCH   1   8
TORSDOF 9
ENDMDL
MODEL 7
REMARK VINA RESULT:    -3.151     12.732     13.644
REMARK INTER + INTRA:          -5.299
REMARK INTER:                  -4.713
REMARK INTRA:                  -0.585
REMARK UNBOUND:                -0.489
REMARK SMILES CCCCCCCCCCC(=O)[O-]
REMARK SMILES IDX 7 1 8 2 9 3 10 4 11 5 12 6 13 7 6 8 5 9 4 10 3 11 2 12 1 13
REMARK H PARENT
REMARK Flexibility Score: inf
ROOT
ATOM      1  C   UNL     1     -14.206   9.654  10.369  1.00  0.00     0.000 C 
ENDROOT
BRANCH   1   2
ATOM      2  C   UNL     1     -13.477   8.983   9.199  1.00  0.00     0.000 C 
BRANCH   2   3
ATOM      3  C   UNL     1     -13.856   9.638   7.865  1.00  0.00     0.006 C 
BRANCH   3   4
ATOM      4  C   UNL     1     -12.675   9.622   6.891  1.00  0.00     0.053 C 
BRANCH   4   5
ATOM      5  C   UNL     1     -12.821  10.710   5.873  1.00  0.00     0.041 C 
ATOM      6  O   UNL     1     -13.713  11.588   6.008  1.00  0.00    -0.550 OA
ATOM      7  O   UNL     1     -11.940  10.783   4.802  1.00  0.00    -0.550 OA
ENDBRANCH   4   5
ENDBRANCH   3   4
ENDBRANCH   2   3
ENDBRANCH   1   2
BRANCH   1   8
ATOM      8  C   UNL     1     -13.430   9.473  11.679  1.00  0.00     0.000 C 
BRANCH   8   9
ATOM      9  C   UNL     1     -13.450  10.763  12.513  1.00  0.00    -0.000 C 
BRANCH   9  10
ATOM     10  C   UNL     1     -14.142  10.579  13.872  1.00  0.00    -0.000 C 
BRANCH  10  11
ATOM     11  C   UNL     1     -15.668  10.744  13.787  1.00  0.00    -0.000 C 
BRANCH  11  12
ATOM     12  C   UNL     1     -16.040  11.961  12.933  1.00  0.00    -0.003 C 
ATOM     13  C   UNL     1     -17.063  11.591  11.862  1.00  0.00     0.004 C 
ENDBRANCH  11  12
ENDBRANCH  10  11
ENDBRANCH   9  10
ENDBRANCH   8   9
ENDBRANCH   1   8
TORSDOF 9
ENDMDL
MODEL 8
REMARK VINA RESULT:    -3.086     14.225     15.797
REMARK INTER + INTRA:          -5.200
REMARK INTER:                  -4.177
REMARK INTRA:                  -1.022
REMARK UNBOUND:                -0.489
REMARK SMILES CCCCCCCCCCC(=O)[O-]
REMARK SMILES IDX 7 1 8 2 9 3 10 4 11 5 12 6 13 7 6 8 5 9 4 10 3 11 2 12 1 13
REMARK H PARENT
REMARK Flexibility Score: inf
ROOT
ATOM      1  C   UNL     1     -12.576  10.029   4.023  1.00  0.00     0.000 C 
ENDROOT
BRANCH   1   2
ATOM      2  C   UNL     1     -13.964  10.593   4.353  1.00  0.00     0.000 C 
BRANCH   2   3
ATOM      3  C   UNL     1     -15.071   9.639   3.890  1.00  0.00     0.006 C 
BRANCH   3   4
ATOM      4  C   UNL     1     -16.422  10.356   3.824  1.00  0.00     0.053 C 
BRANCH   4   5
ATOM      5  C   UNL     1     -17.038  10.191   2.470  1.00  0.00     0.041 C 
ATOM      6  O   UNL     1     -16.407   9.599   1.555  1.00  0.00    -0.550 OA
ATOM      7  O   UNL     1     -18.328  10.648   2.233  1.00  0.00    -0.550 OA
ENDBRANCH   4   5
ENDBRANCH   3   4
ENDBRANCH   2   3
ENDBRANCH   1   2
BRANCH   1   8
ATOM      8  C   UNL     1     -11.980   9.291   5.228  1.00  0.00     0.000 C 
BRANCH   8   9
ATOM      9  C   UNL     1     -12.470   9.907   6.547  1.00  0.00    -0.000 C 
BRANCH   9  10
ATOM     10  C   UNL     1     -13.143   8.877   7.466  1.00  0.00    -0.000 C 
BRANCH  10  11
ATOM     11  C   UNL     1     -14.294   9.478   8.289  1.00  0.00    -0.000 C 
BRANCH  11  12
ATOM     12  C   UNL     1     -15.613   9.419   7.510  1.00  0.00    -0.003 C 
ATOM     13  C   UNL     1     -16.348  10.756   7.568  1.00  0.00     0.004 C 
ENDBRANCH  11  12
ENDBRANCH  10  11
ENDBRANCH   9  10
ENDBRANCH   8   9
ENDBRANCH   1   8
TORSDOF 9
ENDMDL
