MODEL 1
REMARK VINA RESULT:    -4.072      0.000      0.000
REMARK INTER + INTRA:          -6.470
REMARK INTER:                  -5.857
REMARK INTRA:                  -0.612
REMARK UNBOUND:                -0.612
REMARK SMILES CCCCCCCCCO
REMARK SMILES IDX 6 1 5 2 4 3 3 4 2 5 1 6 7 7 8 8 9 9 10 10
REMARK H PARENT 10 11
REMARK Flexibility Score: inf
ROOT
ATOM      1  C   UNL     1     201.157 203.879 229.832  1.00  0.00     0.000 C 
ENDROOT
BRANCH   1   2
ATOM      2  C   UNL     1     202.263 202.836 230.069  1.00  0.00     0.000 C 
BRANCH   2   3
ATOM      3  C   UNL     1     203.567 203.161 229.317  1.00  0.00    -0.000 C 
BRANCH   3   4
ATOM      4  C   UNL     1     204.696 203.745 230.184  1.00  0.00    -0.000 C 
BRANCH   4   5
ATOM      5  C   UNL     1     204.768 205.278 230.126  1.00  0.00    -0.003 C 
ATOM      6  C   UNL     1     204.367 205.898 231.462  1.00  0.00     0.004 C 
ENDBRANCH   4   5
ENDBRANCH   3   4
ENDBRANCH   2   3
ENDBRANCH   1   2
BRANCH   1   7
ATOM      7  C   UNL     1     200.657 204.530 231.135  1.00  0.00     0.002 C 
BRANCH   7   8
ATOM      8  C   UNL     1     200.795 203.660 232.400  1.00  0.00     0.028 C 
BRANCH   8   9
ATOM      9  C   UNL     1     199.469 203.397 233.122  1.00  0.00     0.156 C 
BRANCH   9  10
ATOM     10  O   UNL     1     198.456 204.206 232.591  1.00  0.00    -0.396 OA
ATOM     11  H   UNL     1     198.915 204.950 232.121  1.00  0.00     0.210 HD
ENDBRANCH   9  10
ENDBRANCH   8   9
ENDBRANCH   7   8
ENDBRANCH   1   7
TORSDOF 8
ENDMDL
MODEL 2
REMARK VINA RESULT:    -4.065      1.495      2.712
REMARK INTER + INTRA:          -6.460
REMARK INTER:                  -5.818
REMARK INTRA:                  -0.642
REMARK UNBOUND:                -0.612
REMARK SMILES CCCCCCCCCO
REMARK SMILES IDX 6 1 5 2 4 3 3 4 2 5 1 6 7 7 8 8 9 9 10 10
REMARK H PARENT 10 11
REMARK Flexibility Score: inf
ROOT
ATOM      1  C   UNL     1     202.228 204.484 231.127  1.00  0.00     0.000 C 
ENDROOT
BRANCH   1   2
ATOM      2  C   UNL     1     202.989 204.169 229.828  1.00  0.00     0.000 C 
BRANCH   2   3
ATOM      3  C   UNL     1     202.987 202.669 229.479  1.00  0.00    -0.000 C 
BRANCH   3   4
ATOM      4  C   UNL     1     204.043 201.823 230.212  1.00  0.00    -0.000 C 
BRANCH   4   5
ATOM      5  C   UNL     1     203.440 200.629 230.966  1.00  0.00    -0.003 C 
ATOM      6  C   UNL     1     202.069 200.261 230.406  1.00  0.00     0.004 C 
ENDBRANCH   4   5
ENDBRANCH   3   4
ENDBRANCH   2   3
ENDBRANCH   1   2
BRANCH   1   7
ATOM      7  C   UNL     1     200.766 204.002 231.098  1.00  0.00     0.002 C 
BRANCH   7   8
ATOM      8  C   UNL     1     200.386 202.990 232.197  1.00  0.00     0.028 C 
BRANCH   8   9
ATOM      9  C   UNL     1     199.395 203.536 233.230  1.00  0.00     0.156 C 
BRANCH   9  10
ATOM     10  O   UNL     1     198.370 204.249 232.593  1.00  0.00    -0.396 OA
ATOM     11  H   UNL     1     197.660 203.587 232.389  1.00  0.00     0.210 HD
ENDBRANCH   9  10
ENDBRANCH   8   9
ENDBRANCH   7   8
ENDBRANCH   1   7
TORSDOF 8
ENDMDL
MODEL 3
REMARK VINA RESULT:    -4.065      4.089      5.933
REMARK INTER + INTRA:          -6.460
REMARK INTER:                  -5.846
REMARK INTRA:                  -0.614
REMARK UNBOUND:                -0.612
REMARK SMILES CCCCCCCCCO
REMARK SMILES IDX 6 1 5 2 4 3 3 4 2 5 1 6 7 7 8 8 9 9 10 10
REMARK H PARENT 10 11
REMARK Flexibility Score: inf
ROOT
ATOM      1  C   UNL     1     205.856 202.250 229.881  1.00  0.00     0.000 C 
ENDROOT
BRANCH   1   2
ATOM      2  C   UNL     1     204.608 203.113 230.131  1.00  0.00     0.000 C 
BRANCH   2   3
ATOM      3  C   UNL     1     203.373 202.624 229.350  1.00  0.00    -0.000 C 
BRANCH   3   4
ATOM      4  C   UNL     1     202.226 202.071 230.215  1.00  0.00    -0.000 C 
BRANCH   4   5
ATOM      5  C   UNL     1     202.230 200.538 230.311  1.00  0.00    -0.003 C 
ATOM      6  C   UNL     1     202.849 200.071 231.625  1.00  0.00     0.004 C 
ENDBRANCH   4   5
ENDBRANCH   3   4
ENDBRANCH   2   3
ENDBRANCH   1   2
BRANCH   1   7
ATOM      7  C   UNL     1     206.304 201.466 231.128  1.00  0.00     0.002 C 
BRANCH   7   8
ATOM      8  C   UNL     1     206.214 202.240 232.458  1.00  0.00     0.028 C 
BRANCH   8   9
ATOM      9  C   UNL     1     207.523 202.265 233.254  1.00  0.00     0.156 C 
BRANCH   9  10
ATOM     10  O   UNL     1     208.542 201.626 232.536  1.00  0.00    -0.396 OA
ATOM     11  H   UNL     1     208.852 202.280 231.857  1.00  0.00     0.210 HD
ENDBRANCH   9  10
ENDBRANCH   8   9
ENDBRANCH   7   8
ENDBRANCH   1   7
TORSDOF 8
ENDMDL
MODEL 4
REMARK VINA RESULT:    -4.054      3.037      4.018
REMARK INTER + INTRA:          -6.443
REMARK INTER:                  -5.835
REMARK INTRA:                  -0.608
REMARK UNBOUND:                -0.612
REMARK SMILES CCCCCCCCCO
REMARK SMILES IDX 6 1 5 2 4 3 3 4 2 5 1 6 7 7 8 8 9 9 10 10
REMARK H PARENT 10 11
REMARK Flexibility Score: inf
ROOT
ATOM      1  C   UNL     1     202.798 204.465 231.167  1.00  0.00     0.000 C 
ENDROOT
BRANCH   1   2
ATOM      2  C   UNL     1     202.431 203.814 229.823  1.00  0.00     0.000 C 
BRANCH   2   3
ATOM      3  C   UNL     1     203.620 203.092 229.161  1.00  0.00    -0.000 C 
BRANCH   3   4
ATOM      4  C   UNL     1     204.311 202.030 230.034  1.00  0.00    -0.000 C 
BRANCH   4   5
ATOM      5  C   UNL     1     205.836 202.199 230.091  1.00  0.00    -0.003 C 
ATOM      6  C   UNL     1     206.317 202.370 231.529  1.00  0.00     0.004 C 
ENDBRANCH   4   5
ENDBRANCH   3   4
ENDBRANCH   2   3
ENDBRANCH   1   2
BRANCH   1   7
ATOM      7  C   UNL     1     203.803 205.622 231.019  1.00  0.00     0.002 C 
BRANCH   7   8
ATOM      8  C   UNL     1     204.757 205.821 232.212  1.00  0.00     0.028 C 
BRANCH   8   9
ATOM      9  C   UNL     1     204.343 206.953 233.159  1.00  0.00     0.156 C 
BRANCH   9  10
ATOM     10  O   UNL     1     204.939 208.159 232.767  1.00  0.00    -0.396 OA
ATOM     11  H   UNL     1     204.193 208.777 232.551  1.00  0.00     0.210 HD
ENDBRANCH   9  10
ENDBRANCH   8   9
ENDBRANCH   7   8
ENDBRANCH   1   7
TORSDOF 8
ENDMDL
MODEL 5
REMARK VINA RESULT:    -4.035      2.825      4.419
REMARK INTER + INTRA:          -6.417
REMARK INTER:                  -5.757
REMARK INTRA:                  -0.659
REMARK UNBOUND:                -0.612
REMARK SMILES CCCCCCCCCO
REMARK SMILES IDX 6 1 5 2 4 3 3 4 2 5 1 6 7 7 8 8 9 9 10 10
REMARK H PARENT 10 11
REMARK Flexibility Score: inf
ROOT
ATOM      1  C   UNL     1     205.717 204.183 231.320  1.00  0.00     0.000 C 
ENDROOT
BRANCH   1   2
ATOM      2  C   UNL     1     204.727 203.010 231.214  1.00  0.00     0.000 C 
BRANCH   2   3
ATOM      3  C   UNL     1     204.416 202.617 229.758  1.00  0.00    -0.000 C 
BRANCH   3   4
ATOM      4  C   UNL     1     202.920 202.521 229.410  1.00  0.00    -0.000 C 
BRANCH   4   5
ATOM      5  C   UNL     1     202.005 202.985 230.554  1.00  0.00    -0.003 C 
ATOM      6  C   UNL     1     201.116 204.143 230.111  1.00  0.00     0.004 C 
ENDBRANCH   4   5
ENDBRANCH   3   4
ENDBRANCH   2   3
ENDBRANCH   1   2
BRANCH   1   7
ATOM      7  C   UNL     1     205.109 205.525 230.871  1.00  0.00     0.002 C 
BRANCH   7   8
ATOM      8  C   UNL     1     203.949 206.045 231.742  1.00  0.00     0.028 C 
BRANCH   8   9
ATOM      9  C   UNL     1     204.402 206.794 233.000  1.00  0.00     0.156 C 
BRANCH   9  10
ATOM     10  O   UNL     1     204.953 208.036 232.655  1.00  0.00    -0.396 OA
ATOM     11  H   UNL     1     205.518 208.309 233.424  1.00  0.00     0.210 HD
ENDBRANCH   9  10
ENDBRANCH   8   9
ENDBRANCH   7   8
ENDBRANCH   1   7
TORSDOF 8
ENDMDL
MODEL 6
REMARK VINA RESULT:    -4.000      3.212      4.470
REMARK INTER + INTRA:          -6.366
REMARK INTER:                  -5.811
REMARK INTRA:                  -0.555
REMARK UNBOUND:                -0.612
REMARK SMILES CCCCCCCCCO
REMARK SMILES IDX 6 1 5 2 4 3 3 4 2 5 1 6 7 7 8 8 9 9 10 10
REMARK H PARENT 10 11
REMARK Flexibility Score: inf
ROOT
ATOM      1  C   UNL     1     202.479 201.417 229.830  1.00  0.00     0.000 C 
ENDROOT
BRANCH   1   2
ATOM      2  C   UNL     1     203.283 202.716 229.650  1.00  0.00     0.000 C 
BRANCH   2   3
ATOM      3  C   UNL     1     202.456 203.981 229.949  1.00  0.00    -0.000 C 
BRANCH   3   4
ATOM      4  C   UNL     1     200.984 203.730 230.320  1.00  0.00    -0.000 C 
BRANCH   4   5
ATOM      5  C   UNL     1     200.660 204.096 231.776  1.00  0.00    -0.003 C 
ATOM      6  C   UNL     1     200.100 202.895 232.534  1.00  0.00     0.004 C 
ENDBRANCH   4   5
ENDBRANCH   3   4
ENDBRANCH   2   3
ENDBRANCH   1   2
BRANCH   1   7
ATOM      7  C   UNL     1     203.154 200.420 230.789  1.00  0.00     0.002 C 
BRANCH   7   8
ATOM      8  C   UNL     1     202.395 200.156 232.104  1.00  0.00     0.028 C 
BRANCH   8   9
ATOM      9  C   UNL     1     202.914 198.947 232.890  1.00  0.00     0.156 C 
BRANCH   9  10
ATOM     10  O   UNL     1     202.226 197.787 232.510  1.00  0.00    -0.396 OA
ATOM     11  H   UNL     1     201.559 197.615 233.224  1.00  0.00     0.210 HD
ENDBRANCH   9  10
ENDBRANCH   8   9
ENDBRANCH   7   8
ENDBRANCH   1   7
TORSDOF 8
ENDMDL
MODEL 7
REMARK VINA RESULT:    -3.965      2.785      3.485
REMARK INTER + INTRA:          -6.316
REMARK INTER:                  -5.643
REMARK INTRA:                  -0.673
REMARK UNBOUND:                -0.612
REMARK SMILES CCCCCCCCCO
REMARK SMILES IDX 6 1 5 2 4 3 3 4 2 5 1 6 7 7 8 8 9 9 10 10
REMARK H PARENT 10 11
REMARK Flexibility Score: inf
ROOT
ATOM      1  C   UNL     1     203.512 203.241 229.177  1.00  0.00     0.000 C 
ENDROOT
BRANCH   1   2
ATOM      2  C   UNL     1     204.653 203.692 230.104  1.00  0.00     0.000 C 
BRANCH   2   3
ATOM      3  C   UNL     1     204.840 205.221 230.127  1.00  0.00    -0.000 C 
BRANCH   3   4
ATOM      4  C   UNL     1     204.621 205.887 231.497  1.00  0.00    -0.000 C 
BRANCH   4   5
ATOM      5  C   UNL     1     203.139 205.988 231.887  1.00  0.00    -0.003 C 
ATOM      6  C   UNL     1     202.839 205.156 233.130  1.00  0.00     0.004 C 
ENDBRANCH   4   5
ENDBRANCH   3   4
ENDBRANCH   2   3
ENDBRANCH   1   2
BRANCH   1   7
ATOM      7  C   UNL     1     202.193 202.986 229.930  1.00  0.00     0.002 C 
BRANCH   7   8
ATOM      8  C   UNL     1     202.254 201.887 231.009  1.00  0.00     0.028 C 
BRANCH   8   9
ATOM      9  C   UNL     1     202.086 200.466 230.460  1.00  0.00     0.156 C 
BRANCH   9  10
ATOM     10  O   UNL     1     203.332 199.836 230.349  1.00  0.00    -0.396 OA
ATOM     11  H   UNL     1     203.886 200.189 231.092  1.00  0.00     0.210 HD
ENDBRANCH   9  10
ENDBRANCH   8   9
ENDBRANCH   7   8
ENDBRANCH   1   7
TORSDOF 8
ENDMDL
MODEL 8
REMARK VINA RESULT:    -3.954      3.550      4.215
REMARK INTER + INTRA:          -6.300
REMARK INTER:                  -5.668
REMARK INTRA:                  -0.632
REMARK UNBOUND:                -0.612
REMARK SMILES CCCCCCCCCO
REMARK SMILES IDX 6 1 5 2 4 3 3 4 2 5 1 6 7 7 8 8 9 9 10 10
REMARK H PARENT 10 11
REMARK Flexibility Score: inf
ROOT
ATOM      1  C   UNL     1     202.481 201.278 230.076  1.00  0.00     0.000 C 
ENDROOT
BRANCH   1   2
ATOM      2  C   UNL     1     202.717 202.521 230.950  1.00  0.00     0.000 C 
BRANCH   2   3
ATOM      3  C   UNL     1     204.126 203.118 230.776  1.00  0.00    -0.000 C 
BRANCH   3   4
ATOM      4  C   UNL     1     205.057 202.338 229.831  1.00  0.00    -0.000 C 
BRANCH   4   5
ATOM      5  C   UNL     1     206.209 201.636 230.567  1.00  0.00    -0.003 C 
ATOM      6  C   UNL     1     206.195 201.969 232.055  1.00  0.00     0.004 C 
ENDBRANCH   4   5
ENDBRANCH   3   4
ENDBRANCH   2   3
ENDBRANCH   1   2
BRANCH   1   7
ATOM      7  C   UNL     1     202.426 199.972 230.892  1.00  0.00     0.002 C 
BRANCH   7   8
ATOM      8  C   UNL     1     202.756 200.119 232.390  1.00  0.00     0.028 C 
BRANCH   8   9
ATOM      9  C   UNL     1     202.899 198.785 233.130  1.00  0.00     0.156 C 
BRANCH   9  10
ATOM     10  O   UNL     1     202.191 197.778 232.461  1.00  0.00    -0.396 OA
ATOM     11  H   UNL     1     201.967 198.147 231.567  1.00  0.00     0.210 HD
ENDBRANCH   9  10
ENDBRANCH   8   9
ENDBRANCH   7   8
ENDBRANCH   1   7
TORSDOF 8
ENDMDL
MODEL 9
REMARK VINA RESULT:    -3.919      2.670      4.668
REMARK INTER + INTRA:          -6.250
REMARK INTER:                  -5.581
REMARK INTRA:                  -0.669
REMARK UNBOUND:                -0.612
REMARK SMILES CCCCCCCCCO
REMARK SMILES IDX 6 1 5 2 4 3 3 4 2 5 1 6 7 7 8 8 9 9 10 10
REMARK H PARENT 10 11
REMARK Flexibility Score: inf
ROOT
ATOM      1  C   UNL     1     203.237 202.645 229.187  1.00  0.00     0.000 C 
ENDROOT
BRANCH   1   2
ATOM      2  C   UNL     1     202.102 203.112 230.113  1.00  0.00     0.000 C 
BRANCH   2   3
ATOM      3  C   UNL     1     201.479 201.962 230.927  1.00  0.00    -0.000 C 
BRANCH   3   4
ATOM      4  C   UNL     1     201.973 200.553 230.555  1.00  0.00    -0.000 C 
BRANCH   4   5
ATOM      5  C   UNL     1     202.604 199.805 231.739  1.00  0.00    -0.003 C 
ATOM      6  C   UNL     1     204.098 200.099 231.842  1.00  0.00     0.004 C 
ENDBRANCH   4   5
ENDBRANCH   3   4
ENDBRANCH   2   3
ENDBRANCH   1   2
BRANCH   1   7
ATOM      7  C   UNL     1     204.630 203.087 229.674  1.00  0.00     0.002 C 
BRANCH   7   8
ATOM      8  C   UNL     1     204.629 204.144 230.795  1.00  0.00     0.028 C 
BRANCH   8   9
ATOM      9  C   UNL     1     204.793 205.583 230.295  1.00  0.00     0.156 C 
BRANCH   9  10
ATOM     10  O   UNL     1     203.690 206.359 230.676  1.00  0.00    -0.396 OA
ATOM     11  H   UNL     1     203.666 206.335 231.667  1.00  0.00     0.210 HD
ENDBRANCH   9  10
ENDBRANCH   8   9
ENDBRANCH   7   8
ENDBRANCH   1   7
TORSDOF 8
ENDMDL
