MODEL 1
REMARK VINA RESULT:    -3.108      0.000      0.000
REMARK INTER + INTRA:         -11.969
REMARK INTER:                  -7.378
REMARK INTRA:                  -4.591
REMARK UNBOUND:                -4.591
REMARK SMILES O=C(OC[C@@H]1O[C@@H](OC(=O)c2cc(O)c(O)c(O)c2)[C@@H](OC(=O)c2cc(O)c(O)c(O)c2)[C@H](OC(=O)c2cc(O)c(O)c(O)c2)[C@@H]1OC(=O)c1cc(O)c(O)c(O)c1)c1cc(O)c(O)c(O)c1
REMARK SMILES IDX 5 1 46 2 33 3 20 4 7 5 6 6 4 7 3 8 2 9 1 10 59 11 60 12
REMARK SMILES IDX 61 13 67 14 63 15 65 16 62 17 64 19 66 21 47 23 48 24 49 25
REMARK SMILES IDX 50 26 58 27 51 28 56 29 52 30 54 31 57 32 53 34 55 36 34 38
REMARK SMILES IDX 35 39 36 40 37 41 45 42 38 43 43 44 39 45 41 46 44 47 40 49
REMARK SMILES IDX 42 51 8 53 9 54 10 55 11 56 19 57 12 58 17 59 13 60 15 61
REMARK SMILES IDX 18 62 14 64 16 66 21 68 22 69 23 70 24 71 32 72 25 73 30 74
REMARK SMILES IDX 26 75 28 76 31 77 27 79 29 81
REMARK H PARENT 62 18 64 20 66 22 57 33 53 35 55 37 44 48 40 50 42 52 18 63
REMARK H PARENT 14 65 16 67 31 78 27 80 29 82
REMARK Flexibility Score: inf
ROOT
ATOM      1  C   UNL     1      24.323  28.564  29.337  1.00  0.00     0.205 C 
ATOM      2  C   UNL     1      23.273  29.499  29.975  1.00  0.00     0.254 C 
ATOM      3  C   UNL     1      23.773  30.955  29.888  1.00  0.00     0.267 C 
ATOM      4  C   UNL     1      25.192  31.063  30.475  1.00  0.00     0.290 C 
ATOM      5  C   UNL     1      26.109  29.999  29.845  1.00  0.00     0.357 C 
ATOM      6  O   UNL     1      25.572  28.695  30.000  1.00  0.00    -0.329 OA
ENDROOT
BRANCH   1   7
ATOM      7  C   UNL     1      23.869  27.096  29.401  1.00  0.00     0.269 C 
BRANCH   7   8
ATOM      8  O   UNL     1      22.942  26.809  28.355  1.00  0.00    -0.459 OA
BRANCH   8   9
ATOM      9  C   UNL     1      21.904  25.876  28.459  1.00  0.00     0.338 C 
ATOM     10  O   UNL     1      21.317  25.700  29.561  1.00  0.00    -0.246 OA
BRANCH   9  11
ATOM     11  C   UNL     1      21.477  25.121  27.261  1.00  0.00     0.067 A 
ATOM     12  C   UNL     1      21.840  25.565  25.982  1.00  0.00     0.066 A 
ATOM     13  C   UNL     1      21.429  24.872  24.842  1.00  0.00     0.162 A 
ATOM     14  C   UNL     1      20.701  23.960  27.384  1.00  0.00     0.066 A 
ATOM     15  C   UNL     1      20.641  23.713  24.965  1.00  0.00     0.200 A 
ATOM     16  C   UNL     1      20.281  23.249  26.255  1.00  0.00     0.162 A 
BRANCH  13  17
ATOM     17  O   UNL     1      21.800  25.360  23.587  1.00  0.00    -0.504 OA
ATOM     18  H   UNL     1      22.749  25.294  23.238  1.00  0.00     0.293 HD
ENDBRANCH  13  17
BRANCH  15  19
ATOM     19  O   UNL     1      20.233  23.060  23.798  1.00  0.00    -0.502 OA
ATOM     20  H   UNL     1      20.590  23.270  22.879  1.00  0.00     0.293 HD
ENDBRANCH  15  19
BRANCH  16  21
ATOM     21  O   UNL     1      19.521  22.094  26.458  1.00  0.00    -0.504 OA
ATOM     22  H   UNL     1      18.577  22.089  26.806  1.00  0.00     0.293 HD
ENDBRANCH  16  21
ENDBRANCH   9  11
ENDBRANCH   8   9
ENDBRANCH   7   8
ENDBRANCH   1   7
BRANCH   2  23
ATOM     23  O   UNL     1      23.080  29.134  31.342  1.00  0.00    -0.452 OA
BRANCH  23  24
ATOM     24  C   UNL     1      21.855  28.709  31.874  1.00  0.00     0.338 C 
ATOM     25  O   UNL     1      21.827  27.915  32.854  1.00  0.00    -0.246 OA
BRANCH  24  26
ATOM     26  C   UNL     1      20.594  29.201  31.282  1.00  0.00     0.067 A 
ATOM     27  C   UNL     1      20.499  29.450  29.902  1.00  0.00     0.066 A 
ATOM     28  C   UNL     1      19.471  29.416  32.095  1.00  0.00     0.066 A 
ATOM     29  C   UNL     1      19.303  29.906  29.341  1.00  0.00     0.162 A 
ATOM     30  C   UNL     1      18.273  29.878  31.544  1.00  0.00     0.162 A 
ATOM     31  C   UNL     1      18.184  30.127  30.163  1.00  0.00     0.200 A 
BRANCH  29  32
ATOM     32  O   UNL     1      19.237  30.115  27.963  1.00  0.00    -0.504 OA
ATOM     33  H   UNL     1      19.925  30.674  27.473  1.00  0.00     0.293 HD
ENDBRANCH  29  32
BRANCH  30  34
ATOM     34  O   UNL     1      17.165  30.099  32.365  1.00  0.00    -0.504 OA
ATOM     35  H   UNL     1      16.291  29.607  32.212  1.00  0.00     0.293 HD
ENDBRANCH  30  34
BRANCH  31  36
ATOM     36  O   UNL     1      16.993  30.584  29.597  1.00  0.00    -0.502 OA
ATOM     37  H   UNL     1      16.485  30.048  28.899  1.00  0.00     0.293 HD
ENDBRANCH  31  36
ENDBRANCH  24  26
ENDBRANCH  23  24
ENDBRANCH   2  23
BRANCH   3  38
ATOM     38  O   UNL     1      22.905  31.833  30.606  1.00  0.00    -0.450 OA
BRANCH  38  39
ATOM     39  C   UNL     1      22.267  32.946  30.049  1.00  0.00     0.338 C 
ATOM     40  O   UNL     1      22.926  33.778  29.367  1.00  0.00    -0.246 OA
BRANCH  39  41
ATOM     41  C   UNL     1      20.816  33.145  30.273  1.00  0.00     0.067 A 
ATOM     42  C   UNL     1      20.291  33.274  31.571  1.00  0.00     0.066 A 
ATOM     43  C   UNL     1      19.940  33.199  29.178  1.00  0.00     0.066 A 
ATOM     44  C   UNL     1      18.911  33.421  31.774  1.00  0.00     0.162 A 
ATOM     45  C   UNL     1      18.564  33.343  29.370  1.00  0.00     0.162 A 
ATOM     46  C   UNL     1      18.042  33.449  30.670  1.00  0.00     0.200 A 
BRANCH  44  47
ATOM     47  O   UNL     1      18.398  33.537  33.069  1.00  0.00    -0.504 OA
ATOM     48  H   UNL     1      17.713  34.245  33.312  1.00  0.00     0.293 HD
ENDBRANCH  44  47
BRANCH  45  49
ATOM     49  O   UNL     1      17.724  33.385  28.256  1.00  0.00    -0.504 OA
ATOM     50  H   UNL     1      17.023  32.676  28.087  1.00  0.00     0.293 HD
ENDBRANCH  45  49
BRANCH  46  51
ATOM     51  O   UNL     1      16.666  33.585  30.848  1.00  0.00    -0.502 OA
ATOM     52  H   UNL     1      16.129  34.323  30.405  1.00  0.00     0.293 HD
ENDBRANCH  46  51
ENDBRANCH  39  41
ENDBRANCH  38  39
ENDBRANCH   3  38
BRANCH   5  53
ATOM     53  O   UNL     1      26.347  30.286  28.465  1.00  0.00    -0.428 OA
BRANCH  53  54
ATOM     54  C   UNL     1      27.556  30.005  27.817  1.00  0.00     0.340 C 
ATOM     55  O   UNL     1      27.624  29.057  26.986  1.00  0.00    -0.246 OA
BRANCH  54  56
ATOM     56  C   UNL     1      28.758  30.808  28.136  1.00  0.00     0.067 A 
ATOM     57  C   UNL     1      28.917  32.088  27.581  1.00  0.00     0.066 A 
ATOM     58  C   UNL     1      29.743  30.306  29.002  1.00  0.00     0.066 A 
ATOM     59  C   UNL     1      30.051  32.857  27.880  1.00  0.00     0.162 A 
ATOM     60  C   UNL     1      30.874  31.073  29.311  1.00  0.00     0.162 A 
ATOM     61  C   UNL     1      31.035  32.348  28.745  1.00  0.00     0.200 A 
BRANCH  59  62
ATOM     62  O   UNL     1      30.205  34.124  27.324  1.00  0.00    -0.504 OA
ATOM     63  H   UNL     1      29.440  34.596  26.856  1.00  0.00     0.293 HD
ENDBRANCH  59  62
BRANCH  60  64
ATOM     64  O   UNL     1      31.841  30.552  30.171  1.00  0.00    -0.504 OA
ATOM     65  H   UNL     1      31.603  29.909  30.918  1.00  0.00     0.293 HD
ENDBRANCH  60  64
BRANCH  61  66
ATOM     66  O   UNL     1      32.175  33.095  29.053  1.00  0.00    -0.502 OA
ATOM     67  H   UNL     1      32.675  33.630  28.343  1.00  0.00     0.293 HD
ENDBRANCH  61  66
ENDBRANCH  54  56
ENDBRANCH  53  54
ENDBRANCH   5  53
BRANCH   4  68
ATOM     68  O   UNL     1      25.733  32.364  30.227  1.00  0.00    -0.448 OA
BRANCH  68  69
ATOM     69  C   UNL     1      26.411  33.119  31.195  1.00  0.00     0.339 C 
ATOM     70  O   UNL     1      25.856  34.125  31.715  1.00  0.00    -0.246 OA
BRANCH  69  71
ATOM     71  C   UNL     1      27.762  32.714  31.638  1.00  0.00     0.067 A 
ATOM     72  C   UNL     1      28.848  33.602  31.527  1.00  0.00     0.066 A 
ATOM     73  C   UNL     1      27.978  31.437  32.181  1.00  0.00     0.066 A 
ATOM     74  C   UNL     1      30.121  33.231  31.982  1.00  0.00     0.162 A 
ATOM     75  C   UNL     1      29.249  31.047  32.624  1.00  0.00     0.162 A 
ATOM     76  C   UNL     1      30.329  31.961  32.542  1.00  0.00     0.200 A 
BRANCH  74  77
ATOM     77  O   UNL     1      31.188  34.124  31.894  1.00  0.00    -0.504 OA
ATOM     78  H   UNL     1      31.595  34.373  31.005  1.00  0.00     0.293 HD
ENDBRANCH  74  77
BRANCH  75  79
ATOM     79  O   UNL     1      29.389  29.749  33.124  1.00  0.00    -0.504 OA
ATOM     80  H   UNL     1      29.398  28.920  32.551  1.00  0.00     0.293 HD
ENDBRANCH  75  79
BRANCH  76  81
ATOM     81  O   UNL     1      31.606  31.650  33.012  1.00  0.00    -0.502 OA
ATOM     82  H   UNL     1      32.452  31.986  32.585  1.00  0.00     0.293 HD
ENDBRANCH  76  81
ENDBRANCH  69  71
ENDBRANCH  68  69
ENDBRANCH   4  68
TORSDOF 31
ENDMDL
MODEL 2
REMARK VINA RESULT:    -2.288      1.311      2.605
REMARK INTER + INTRA:         -10.023
REMARK INTER:                  -5.927
REMARK INTRA:                  -4.096
REMARK UNBOUND:                -4.591
REMARK SMILES O=C(OC[C@@H]1O[C@@H](OC(=O)c2cc(O)c(O)c(O)c2)[C@@H](OC(=O)c2cc(O)c(O)c(O)c2)[C@H](OC(=O)c2cc(O)c(O)c(O)c2)[C@@H]1OC(=O)c1cc(O)c(O)c(O)c1)c1cc(O)c(O)c(O)c1
REMARK SMILES IDX 5 1 46 2 33 3 20 4 7 5 6 6 4 7 3 8 2 9 1 10 59 11 60 12
REMARK SMILES IDX 61 13 67 14 63 15 65 16 62 17 64 19 66 21 47 23 48 24 49 25
REMARK SMILES IDX 50 26 58 27 51 28 56 29 52 30 54 31 57 32 53 34 55 36 34 38
REMARK SMILES IDX 35 39 36 40 37 41 45 42 38 43 43 44 39 45 41 46 44 47 40 49
REMARK SMILES IDX 42 51 8 53 9 54 10 55 11 56 19 57 12 58 17 59 13 60 15 61
REMARK SMILES IDX 18 62 14 64 16 66 21 68 22 69 23 70 24 71 32 72 25 73 30 74
REMARK SMILES IDX 26 75 28 76 31 77 27 79 29 81
REMARK H PARENT 62 18 64 20 66 22 57 33 53 35 55 37 44 48 40 50 42 52 18 63
REMARK H PARENT 14 65 16 67 31 78 27 80 29 82
REMARK Flexibility Score: inf
ROOT
ATOM      1  C   UNL     1      22.989  28.769  29.766  1.00  0.00     0.205 C 
ATOM      2  C   UNL     1      22.014  29.912  30.122  1.00  0.00     0.254 C 
ATOM      3  C   UNL     1      22.696  31.266  29.840  1.00  0.00     0.267 C 
ATOM      4  C   UNL     1      24.064  31.325  30.545  1.00  0.00     0.290 C 
ATOM      5  C   UNL     1      24.891  30.072  30.205  1.00  0.00     0.357 C 
ATOM      6  O   UNL     1      24.185  28.883  30.524  1.00  0.00    -0.329 OA
ENDROOT
BRANCH   1   7
ATOM      7  C   UNL     1      22.352  27.395  30.033  1.00  0.00     0.269 C 
BRANCH   7   8
ATOM      8  O   UNL     1      21.992  26.760  28.807  1.00  0.00    -0.459 OA
BRANCH   8   9
ATOM      9  C   UNL     1      21.828  25.378  28.656  1.00  0.00     0.338 C 
ATOM     10  O   UNL     1      21.977  24.610  29.645  1.00  0.00    -0.246 OA
BRANCH   9  11
ATOM     11  C   UNL     1      21.445  24.828  27.338  1.00  0.00     0.067 A 
ATOM     12  C   UNL     1      20.588  23.721  27.258  1.00  0.00     0.066 A 
ATOM     13  C   UNL     1      20.232  23.181  26.021  1.00  0.00     0.162 A 
ATOM     14  C   UNL     1      21.934  25.397  26.154  1.00  0.00     0.066 A 
ATOM     15  C   UNL     1      20.732  23.745  24.834  1.00  0.00     0.200 A 
ATOM     16  C   UNL     1      21.588  24.873  24.904  1.00  0.00     0.162 A 
BRANCH  13  17
ATOM     17  O   UNL     1      19.390  22.067  25.990  1.00  0.00    -0.504 OA
ATOM     18  H   UNL     1      18.583  22.014  25.379  1.00  0.00     0.293 HD
ENDBRANCH  13  17
BRANCH  15  19
ATOM     19  O   UNL     1      20.368  23.162  23.616  1.00  0.00    -0.502 OA
ATOM     20  H   UNL     1      20.732  22.284  23.279  1.00  0.00     0.293 HD
ENDBRANCH  15  19
BRANCH  16  21
ATOM     21  O   UNL     1      22.104  25.502  23.768  1.00  0.00    -0.504 OA
ATOM     22  H   UNL     1      23.059  25.421  23.458  1.00  0.00     0.293 HD
ENDBRANCH  16  21
ENDBRANCH   9  11
ENDBRANCH   8   9
ENDBRANCH   7   8
ENDBRANCH   1   7
BRANCH   2  23
ATOM     23  O   UNL     1      21.664  29.825  31.504  1.00  0.00    -0.452 OA
BRANCH  23  24
ATOM     24  C   UNL     1      20.416  29.387  31.970  1.00  0.00     0.338 C 
ATOM     25  O   UNL     1      20.194  28.155  32.131  1.00  0.00    -0.246 OA
BRANCH  24  26
ATOM     26  C   UNL     1      19.364  30.377  32.275  1.00  0.00     0.067 A 
ATOM     27  C   UNL     1      19.693  31.723  32.514  1.00  0.00     0.066 A 
ATOM     28  C   UNL     1      18.018  29.983  32.319  1.00  0.00     0.066 A 
ATOM     29  C   UNL     1      18.695  32.660  32.793  1.00  0.00     0.162 A 
ATOM     30  C   UNL     1      17.014  30.912  32.604  1.00  0.00     0.162 A 
ATOM     31  C   UNL     1      17.349  32.256  32.845  1.00  0.00     0.200 A 
BRANCH  29  32
ATOM     32  O   UNL     1      19.055  33.993  32.997  1.00  0.00    -0.504 OA
ATOM     33  H   UNL     1      18.676  34.539  33.762  1.00  0.00     0.293 HD
ENDBRANCH  29  32
BRANCH  30  34
ATOM     34  O   UNL     1      15.679  30.505  32.657  1.00  0.00    -0.504 OA
ATOM     35  H   UNL     1      14.924  31.183  32.673  1.00  0.00     0.293 HD
ENDBRANCH  30  34
BRANCH  31  36
ATOM     36  O   UNL     1      16.358  33.198  33.125  1.00  0.00    -0.502 OA
ATOM     37  H   UNL     1      16.117  33.464  34.075  1.00  0.00     0.293 HD
ENDBRANCH  31  36
ENDBRANCH  24  26
ENDBRANCH  23  24
ENDBRANCH   2  23
BRANCH   3  38
ATOM     38  O   UNL     1      21.888  32.347  30.302  1.00  0.00    -0.450 OA
BRANCH  38  39
ATOM     39  C   UNL     1      21.027  33.096  29.493  1.00  0.00     0.338 C 
ATOM     40  O   UNL     1      21.452  34.123  28.897  1.00  0.00    -0.246 OA
BRANCH  39  41
ATOM     41  C   UNL     1      19.613  32.678  29.347  1.00  0.00     0.067 A 
ATOM     42  C   UNL     1      18.564  33.607  29.457  1.00  0.00     0.066 A 
ATOM     43  C   UNL     1      19.304  31.331  29.103  1.00  0.00     0.066 A 
ATOM     44  C   UNL     1      17.227  33.194  29.358  1.00  0.00     0.162 A 
ATOM     45  C   UNL     1      17.975  30.909  29.005  1.00  0.00     0.162 A 
ATOM     46  C   UNL     1      16.931  31.838  29.138  1.00  0.00     0.200 A 
BRANCH  44  47
ATOM     47  O   UNL     1      16.192  34.125  29.480  1.00  0.00    -0.504 OA
ATOM     48  H   UNL     1      15.293  33.877  29.881  1.00  0.00     0.293 HD
ENDBRANCH  44  47
BRANCH  45  49
ATOM     49  O   UNL     1      17.708  29.559  28.770  1.00  0.00    -0.504 OA
ATOM     50  H   UNL     1      16.927  29.084  29.203  1.00  0.00     0.293 HD
ENDBRANCH  45  49
BRANCH  46  51
ATOM     51  O   UNL     1      15.609  31.403  29.046  1.00  0.00    -0.502 OA
ATOM     52  H   UNL     1      14.861  31.811  29.596  1.00  0.00     0.293 HD
ENDBRANCH  46  51
ENDBRANCH  39  41
ENDBRANCH  38  39
ENDBRANCH   3  38
BRANCH   5  53
ATOM     53  O   UNL     1      25.278  30.076  28.829  1.00  0.00    -0.428 OA
BRANCH  53  54
ATOM     54  C   UNL     1      26.430  29.439  28.350  1.00  0.00     0.340 C 
ATOM     55  O   UNL     1      26.332  28.475  27.543  1.00  0.00    -0.246 OA
BRANCH  54  56
ATOM     56  C   UNL     1      27.759  29.888  28.822  1.00  0.00     0.067 A 
ATOM     57  C   UNL     1      28.749  30.253  27.895  1.00  0.00     0.066 A 
ATOM     58  C   UNL     1      28.040  29.967  30.195  1.00  0.00     0.066 A 
ATOM     59  C   UNL     1      30.010  30.682  28.333  1.00  0.00     0.162 A 
ATOM     60  C   UNL     1      29.296  30.403  30.639  1.00  0.00     0.162 A 
ATOM     61  C   UNL     1      30.287  30.754  29.709  1.00  0.00     0.200 A 
BRANCH  59  62
ATOM     62  O   UNL     1      30.989  31.037  27.409  1.00  0.00    -0.504 OA
ATOM     63  H   UNL     1      30.757  31.274  26.451  1.00  0.00     0.293 HD
ENDBRANCH  59  62
BRANCH  60  64
ATOM     64  O   UNL     1      29.553  30.469  32.008  1.00  0.00    -0.504 OA
ATOM     65  H   UNL     1      30.310  31.029  32.385  1.00  0.00     0.293 HD
ENDBRANCH  60  64
BRANCH  61  66
ATOM     66  O   UNL     1      31.538  31.175  30.167  1.00  0.00    -0.502 OA
ATOM     67  H   UNL     1      32.165  30.549  30.672  1.00  0.00     0.293 HD
ENDBRANCH  61  66
ENDBRANCH  54  56
ENDBRANCH  53  54
ENDBRANCH   5  53
BRANCH   4  68
ATOM     68  O   UNL     1      24.782  32.493  30.135  1.00  0.00    -0.448 OA
BRANCH  68  69
ATOM     69  C   UNL     1      25.450  33.345  31.028  1.00  0.00     0.339 C 
ATOM     70  O   UNL     1      24.815  33.903  31.963  1.00  0.00    -0.246 OA
BRANCH  69  71
ATOM     71  C   UNL     1      26.907  33.557  30.898  1.00  0.00     0.067 A 
ATOM     72  C   UNL     1      27.732  33.575  32.037  1.00  0.00     0.066 A 
ATOM     73  C   UNL     1      27.488  33.739  29.633  1.00  0.00     0.066 A 
ATOM     74  C   UNL     1      29.119  33.739  31.911  1.00  0.00     0.162 A 
ATOM     75  C   UNL     1      28.871  33.920  29.493  1.00  0.00     0.162 A 
ATOM     76  C   UNL     1      29.698  33.901  30.643  1.00  0.00     0.200 A 
BRANCH  74  77
ATOM     77  O   UNL     1      29.935  33.730  33.041  1.00  0.00    -0.504 OA
ATOM     78  H   UNL     1      29.628  33.320  33.910  1.00  0.00     0.293 HD
ENDBRANCH  74  77
BRANCH  75  79
ATOM     79  O   UNL     1      29.369  34.125  28.202  1.00  0.00    -0.504 OA
ATOM     80  H   UNL     1      30.207  34.645  27.996  1.00  0.00     0.293 HD
ENDBRANCH  75  79
BRANCH  76  81
ATOM     81  O   UNL     1      31.087  34.026  30.565  1.00  0.00    -0.502 OA
ATOM     82  H   UNL     1      31.722  33.263  30.722  1.00  0.00     0.293 HD
ENDBRANCH  76  81
ENDBRANCH  69  71
ENDBRANCH  68  69
ENDBRANCH   4  68
TORSDOF 31
ENDMDL
MODEL 3
REMARK VINA RESULT:    -1.864      0.786      2.045
REMARK INTER + INTRA:          -9.015
REMARK INTER:                  -5.496
REMARK INTRA:                  -3.519
REMARK UNBOUND:                -4.591
REMARK SMILES O=C(OC[C@@H]1O[C@@H](OC(=O)c2cc(O)c(O)c(O)c2)[C@@H](OC(=O)c2cc(O)c(O)c(O)c2)[C@H](OC(=O)c2cc(O)c(O)c(O)c2)[C@@H]1OC(=O)c1cc(O)c(O)c(O)c1)c1cc(O)c(O)c(O)c1
REMARK SMILES IDX 5 1 46 2 33 3 20 4 7 5 6 6 4 7 3 8 2 9 1 10 59 11 60 12
REMARK SMILES IDX 61 13 67 14 63 15 65 16 62 17 64 19 66 21 47 23 48 24 49 25
REMARK SMILES IDX 50 26 58 27 51 28 56 29 52 30 54 31 57 32 53 34 55 36 34 38
REMARK SMILES IDX 35 39 36 40 37 41 45 42 38 43 43 44 39 45 41 46 44 47 40 49
REMARK SMILES IDX 42 51 8 53 9 54 10 55 11 56 19 57 12 58 17 59 13 60 15 61
REMARK SMILES IDX 18 62 14 64 16 66 21 68 22 69 23 70 24 71 32 72 25 73 30 74
REMARK SMILES IDX 26 75 28 76 31 77 27 79 29 81
REMARK H PARENT 62 18 64 20 66 22 57 33 53 35 55 37 44 48 40 50 42 52 18 63
REMARK H PARENT 14 65 16 67 31 78 27 80 29 82
REMARK Flexibility Score: inf
ROOT
ATOM      1  C   UNL     1      24.161  28.777  29.680  1.00  0.00     0.205 C 
ATOM      2  C   UNL     1      23.118  29.732  30.300  1.00  0.00     0.254 C 
ATOM      3  C   UNL     1      23.661  31.174  30.252  1.00  0.00     0.267 C 
ATOM      4  C   UNL     1      25.064  31.232  30.884  1.00  0.00     0.290 C 
ATOM      5  C   UNL     1      25.970  30.153  30.265  1.00  0.00     0.357 C 
ATOM      6  O   UNL     1      25.392  28.862  30.382  1.00  0.00    -0.329 OA
ENDROOT
BRANCH   1   7
ATOM      7  C   UNL     1      23.664  27.322  29.706  1.00  0.00     0.269 C 
BRANCH   7   8
ATOM      8  O   UNL     1      22.758  27.079  28.631  1.00  0.00    -0.459 OA
BRANCH   8   9
ATOM      9  C   UNL     1      21.738  26.121  28.664  1.00  0.00     0.338 C 
ATOM     10  O   UNL     1      21.074  25.938  29.720  1.00  0.00    -0.246 OA
BRANCH   9  11
ATOM     11  C   UNL     1      21.420  25.350  27.443  1.00  0.00     0.067 A 
ATOM     12  C   UNL     1      20.709  24.146  27.535  1.00  0.00     0.066 A 
ATOM     13  C   UNL     1      20.417  23.399  26.392  1.00  0.00     0.162 A 
ATOM     14  C   UNL     1      21.829  25.805  26.181  1.00  0.00     0.066 A 
ATOM     15  C   UNL     1      20.837  23.850  25.127  1.00  0.00     0.200 A 
ATOM     16  C   UNL     1      21.545  25.074  25.023  1.00  0.00     0.162 A 
BRANCH  13  17
ATOM     17  O   UNL     1      19.722  22.196  26.532  1.00  0.00    -0.504 OA
ATOM     18  H   UNL     1      20.036  21.334  26.104  1.00  0.00     0.293 HD
ENDBRANCH  13  17
BRANCH  15  19
ATOM     19  O   UNL     1      20.543  23.063  24.010  1.00  0.00    -0.502 OA
ATOM     20  H   UNL     1      19.651  22.621  23.848  1.00  0.00     0.293 HD
ENDBRANCH  15  19
BRANCH  16  21
ATOM     21  O   UNL     1      21.973  25.598  23.800  1.00  0.00    -0.504 OA
ATOM     22  H   UNL     1      21.391  26.134  23.178  1.00  0.00     0.293 HD
ENDBRANCH  16  21
ENDBRANCH   9  11
ENDBRANCH   8   9
ENDBRANCH   7   8
ENDBRANCH   1   7
BRANCH   2  23
ATOM     23  O   UNL     1      22.872  29.353  31.654  1.00  0.00    -0.452 OA
BRANCH  23  24
ATOM     24  C   UNL     1      21.686  28.750  32.096  1.00  0.00     0.338 C 
ATOM     25  O   UNL     1      21.718  27.864  32.995  1.00  0.00    -0.246 OA
BRANCH  24  26
ATOM     26  C   UNL     1      20.397  29.160  31.505  1.00  0.00     0.067 A 
ATOM     27  C   UNL     1      19.248  29.285  32.306  1.00  0.00     0.066 A 
ATOM     28  C   UNL     1      20.308  29.441  30.134  1.00  0.00     0.066 A 
ATOM     29  C   UNL     1      18.030  29.683  31.748  1.00  0.00     0.162 A 
ATOM     30  C   UNL     1      19.094  29.833  29.565  1.00  0.00     0.162 A 
ATOM     31  C   UNL     1      17.947  29.954  30.371  1.00  0.00     0.200 A 
BRANCH  29  32
ATOM     32  O   UNL     1      16.918  29.824  32.578  1.00  0.00    -0.504 OA
ATOM     33  H   UNL     1      16.539  30.733  32.816  1.00  0.00     0.293 HD
ENDBRANCH  29  32
BRANCH  30  34
ATOM     34  O   UNL     1      19.015  30.098  28.196  1.00  0.00    -0.504 OA
ATOM     35  H   UNL     1      18.119  30.211  27.733  1.00  0.00     0.293 HD
ENDBRANCH  30  34
BRANCH  31  36
ATOM     36  O   UNL     1      16.728  30.350  29.819  1.00  0.00    -0.502 OA
ATOM     37  H   UNL     1      16.056  29.681  29.454  1.00  0.00     0.293 HD
ENDBRANCH  31  36
ENDBRANCH  24  26
ENDBRANCH  23  24
ENDBRANCH   2  23
BRANCH   3  38
ATOM     38  O   UNL     1      22.797  32.066  30.956  1.00  0.00    -0.450 OA
BRANCH  38  39
ATOM     39  C   UNL     1      22.123  33.143  30.371  1.00  0.00     0.338 C 
ATOM     40  O   UNL     1      22.775  34.076  29.826  1.00  0.00    -0.246 OA
BRANCH  39  41
ATOM     41  C   UNL     1      20.643  33.185  30.406  1.00  0.00     0.067 A 
ATOM     42  C   UNL     1      19.888  33.237  29.221  1.00  0.00     0.066 A 
ATOM     43  C   UNL     1      19.972  33.182  31.638  1.00  0.00     0.066 A 
ATOM     44  C   UNL     1      18.489  33.318  29.265  1.00  0.00     0.162 A 
ATOM     45  C   UNL     1      18.578  33.264  31.693  1.00  0.00     0.162 A 
ATOM     46  C   UNL     1      17.830  33.338  30.507  1.00  0.00     0.200 A 
BRANCH  44  47
ATOM     47  O   UNL     1      17.749  33.380  28.081  1.00  0.00    -0.504 OA
ATOM     48  H   UNL     1      18.157  33.148  27.182  1.00  0.00     0.293 HD
ENDBRANCH  44  47
BRANCH  45  49
ATOM     49  O   UNL     1      17.947  33.266  32.938  1.00  0.00    -0.504 OA
ATOM     50  H   UNL     1      18.046  32.500  33.591  1.00  0.00     0.293 HD
ENDBRANCH  45  49
BRANCH  46  51
ATOM     51  O   UNL     1      16.440  33.427  30.575  1.00  0.00    -0.502 OA
ATOM     52  H   UNL     1      15.828  32.807  30.057  1.00  0.00     0.293 HD
ENDBRANCH  46  51
ENDBRANCH  39  41
ENDBRANCH  38  39
ENDBRANCH   3  38
BRANCH   5  53
ATOM     53  O   UNL     1      26.259  30.453  28.898  1.00  0.00    -0.428 OA
BRANCH  53  54
ATOM     54  C   UNL     1      27.378  29.955  28.219  1.00  0.00     0.340 C 
ATOM     55  O   UNL     1      27.377  28.773  27.778  1.00  0.00    -0.246 OA
BRANCH  54  56
ATOM     56  C   UNL     1      28.570  30.815  28.050  1.00  0.00     0.067 A 
ATOM     57  C   UNL     1      29.638  30.389  27.243  1.00  0.00     0.066 A 
ATOM     58  C   UNL     1      28.643  32.068  28.681  1.00  0.00     0.066 A 
ATOM     59  C   UNL     1      30.771  31.199  27.075  1.00  0.00     0.162 A 
ATOM     60  C   UNL     1      29.768  32.885  28.510  1.00  0.00     0.162 A 
ATOM     61  C   UNL     1      30.839  32.449  27.713  1.00  0.00     0.200 A 
BRANCH  59  62
ATOM     62  O   UNL     1      31.828  30.768  26.278  1.00  0.00    -0.504 OA
ATOM     63  H   UNL     1      32.763  30.655  26.650  1.00  0.00     0.293 HD
ENDBRANCH  59  62
BRANCH  60  64
ATOM     64  O   UNL     1      29.819  34.123  29.150  1.00  0.00    -0.504 OA
ATOM     65  H   UNL     1      30.664  34.461  29.597  1.00  0.00     0.293 HD
ENDBRANCH  60  64
BRANCH  61  66
ATOM     66  O   UNL     1      31.959  33.270  27.563  1.00  0.00    -0.502 OA
ATOM     67  H   UNL     1      32.771  33.190  28.174  1.00  0.00     0.293 HD
ENDBRANCH  61  66
ENDBRANCH  54  56
ENDBRANCH  53  54
ENDBRANCH   5  53
BRANCH   4  68
ATOM     68  O   UNL     1      25.650  32.521  30.673  1.00  0.00    -0.448 OA
BRANCH  68  69
ATOM     69  C   UNL     1      26.437  33.180  31.628  1.00  0.00     0.339 C 
ATOM     70  O   UNL     1      25.949  34.125  32.306  1.00  0.00    -0.246 OA
BRANCH  69  71
ATOM     71  C   UNL     1      27.828  32.742  31.871  1.00  0.00     0.067 A 
ATOM     72  C   UNL     1      28.789  33.648  32.354  1.00  0.00     0.066 A 
ATOM     73  C   UNL     1      28.206  31.412  31.627  1.00  0.00     0.066 A 
ATOM     74  C   UNL     1      30.099  33.223  32.620  1.00  0.00     0.162 A 
ATOM     75  C   UNL     1      29.516  30.978  31.873  1.00  0.00     0.162 A 
ATOM     76  C   UNL     1      30.468  31.889  32.394  1.00  0.00     0.200 A 
BRANCH  74  77
ATOM     77  O   UNL     1      31.041  34.119  33.124  1.00  0.00    -0.504 OA
ATOM     78  H   UNL     1      31.809  34.449  32.560  1.00  0.00     0.293 HD
ENDBRANCH  74  77
BRANCH  75  79
ATOM     79  O   UNL     1      29.822  29.646  31.576  1.00  0.00    -0.504 OA
ATOM     80  H   UNL     1      29.153  28.975  31.233  1.00  0.00     0.293 HD
ENDBRANCH  75  79
BRANCH  76  81
ATOM     81  O   UNL     1      31.774  31.505  32.706  1.00  0.00    -0.502 OA
ATOM     82  H   UNL     1      32.119  31.428  33.647  1.00  0.00     0.293 HD
ENDBRANCH  76  81
ENDBRANCH  69  71
ENDBRANCH  68  69
ENDBRANCH   4  68
TORSDOF 31
ENDMDL
MODEL 4
REMARK VINA RESULT:    -1.547      1.993      3.885
REMARK INTER + INTRA:          -8.264
REMARK INTER:                  -3.994
REMARK INTRA:                  -4.270
REMARK UNBOUND:                -4.591
REMARK SMILES O=C(OC[C@@H]1O[C@@H](OC(=O)c2cc(O)c(O)c(O)c2)[C@@H](OC(=O)c2cc(O)c(O)c(O)c2)[C@H](OC(=O)c2cc(O)c(O)c(O)c2)[C@@H]1OC(=O)c1cc(O)c(O)c(O)c1)c1cc(O)c(O)c(O)c1
REMARK SMILES IDX 5 1 46 2 33 3 20 4 7 5 6 6 4 7 3 8 2 9 1 10 59 11 60 12
REMARK SMILES IDX 61 13 67 14 63 15 65 16 62 17 64 19 66 21 47 23 48 24 49 25
REMARK SMILES IDX 50 26 58 27 51 28 56 29 52 30 54 31 57 32 53 34 55 36 34 38
REMARK SMILES IDX 35 39 36 40 37 41 45 42 38 43 43 44 39 45 41 46 44 47 40 49
REMARK SMILES IDX 42 51 8 53 9 54 10 55 11 56 19 57 12 58 17 59 13 60 15 61
REMARK SMILES IDX 18 62 14 64 16 66 21 68 22 69 23 70 24 71 32 72 25 73 30 74
REMARK SMILES IDX 26 75 28 76 31 77 27 79 29 81
REMARK H PARENT 62 18 64 20 66 22 57 33 53 35 55 37 44 48 40 50 42 52 18 63
REMARK H PARENT 14 65 16 67 31 78 27 80 29 82
REMARK Flexibility Score: inf
ROOT
ATOM      1  C   UNL     1      22.794  28.029  28.786  1.00  0.00     0.205 C 
ATOM      2  C   UNL     1      22.467  29.230  29.700  1.00  0.00     0.254 C 
ATOM      3  C   UNL     1      23.667  30.200  29.708  1.00  0.00     0.267 C 
ATOM      4  C   UNL     1      24.958  29.439  30.059  1.00  0.00     0.290 C 
ATOM      5  C   UNL     1      25.104  28.198  29.161  1.00  0.00     0.357 C 
ATOM      6  O   UNL     1      23.961  27.361  29.243  1.00  0.00    -0.329 OA
ENDROOT
BRANCH   1   7
ATOM      7  C   UNL     1      21.624  27.030  28.747  1.00  0.00     0.269 C 
BRANCH   7   8
ATOM      8  O   UNL     1      21.695  26.219  27.575  1.00  0.00    -0.459 OA
BRANCH   8   9
ATOM      9  C   UNL     1      21.715  24.819  27.589  1.00  0.00     0.338 C 
ATOM     10  O   UNL     1      22.213  24.202  28.569  1.00  0.00    -0.246 OA
BRANCH   9  11
ATOM     11  C   UNL     1      21.119  24.069  26.463  1.00  0.00     0.067 A 
ATOM     12  C   UNL     1      20.000  23.252  26.674  1.00  0.00     0.066 A 
ATOM     13  C   UNL     1      19.437  22.525  25.623  1.00  0.00     0.162 A 
ATOM     14  C   UNL     1      21.665  24.157  25.174  1.00  0.00     0.066 A 
ATOM     15  C   UNL     1      19.992  22.604  24.333  1.00  0.00     0.200 A 
ATOM     16  C   UNL     1      21.115  23.438  24.107  1.00  0.00     0.162 A 
BRANCH  13  17
ATOM     17  O   UNL     1      18.333  21.711  25.883  1.00  0.00    -0.504 OA
ATOM     18  H   UNL     1      17.381  22.051  25.819  1.00  0.00     0.293 HD
ENDBRANCH  13  17
BRANCH  15  19
ATOM     19  O   UNL     1      19.412  21.844  23.312  1.00  0.00    -0.502 OA
ATOM     20  H   UNL     1      19.709  21.872  22.349  1.00  0.00     0.293 HD
ENDBRANCH  15  19
BRANCH  16  21
ATOM     21  O   UNL     1      21.706  23.587  22.849  1.00  0.00    -0.504 OA
ATOM     22  H   UNL     1      21.393  23.118  22.015  1.00  0.00     0.293 HD
ENDBRANCH  16  21
ENDBRANCH   9  11
ENDBRANCH   8   9
ENDBRANCH   7   8
ENDBRANCH   1   7
BRANCH   2  23
ATOM     23  O   UNL     1      22.212  28.765  31.025  1.00  0.00    -0.452 OA
BRANCH  23  24
ATOM     24  C   UNL     1      21.332  29.391  31.919  1.00  0.00     0.338 C 
ATOM     25  O   UNL     1      21.767  29.909  32.984  1.00  0.00    -0.246 OA
BRANCH  24  26
ATOM     26  C   UNL     1      19.890  29.442  31.605  1.00  0.00     0.067 A 
ATOM     27  C   UNL     1      19.437  30.012  30.402  1.00  0.00     0.066 A 
ATOM     28  C   UNL     1      18.954  28.911  32.505  1.00  0.00     0.066 A 
ATOM     29  C   UNL     1      18.073  30.051  30.101  1.00  0.00     0.162 A 
ATOM     30  C   UNL     1      17.587  28.952  32.216  1.00  0.00     0.162 A 
ATOM     31  C   UNL     1      17.140  29.525  31.012  1.00  0.00     0.200 A 
BRANCH  29  32
ATOM     32  O   UNL     1      17.663  30.598  28.885  1.00  0.00    -0.504 OA
ATOM     33  H   UNL     1      16.862  30.239  28.379  1.00  0.00     0.293 HD
ENDBRANCH  29  32
BRANCH  30  34
ATOM     34  O   UNL     1      16.664  28.431  33.125  1.00  0.00    -0.504 OA
ATOM     35  H   UNL     1      15.674  28.640  33.046  1.00  0.00     0.293 HD
ENDBRANCH  30  34
BRANCH  31  36
ATOM     36  O   UNL     1      15.779  29.569  30.706  1.00  0.00    -0.502 OA
ATOM     37  H   UNL     1      15.409  30.160  29.967  1.00  0.00     0.293 HD
ENDBRANCH  31  36
ENDBRANCH  24  26
ENDBRANCH  23  24
ENDBRANCH   2  23
BRANCH   3  38
ATOM     38  O   UNL     1      23.468  31.244  30.661  1.00  0.00    -0.450 OA
BRANCH  38  39
ATOM     39  C   UNL     1      23.115  32.557  30.336  1.00  0.00     0.338 C 
ATOM     40  O   UNL     1      23.992  33.366  29.925  1.00  0.00    -0.246 OA
BRANCH  39  41
ATOM     41  C   UNL     1      21.706  32.993  30.485  1.00  0.00     0.067 A 
ATOM     42  C   UNL     1      21.190  33.373  31.736  1.00  0.00     0.066 A 
ATOM     43  C   UNL     1      20.862  33.024  29.364  1.00  0.00     0.066 A 
ATOM     44  C   UNL     1      19.845  33.744  31.874  1.00  0.00     0.162 A 
ATOM     45  C   UNL     1      19.519  33.391  29.491  1.00  0.00     0.162 A 
ATOM     46  C   UNL     1      19.004  33.747  30.748  1.00  0.00     0.200 A 
BRANCH  44  47
ATOM     47  O   UNL     1      19.339  34.109  33.125  1.00  0.00    -0.504 OA
ATOM     48  H   UNL     1      19.236  33.437  33.877  1.00  0.00     0.293 HD
ENDBRANCH  44  47
BRANCH  45  49
ATOM     49  O   UNL     1      18.709  33.401  28.355  1.00  0.00    -0.504 OA
ATOM     50  H   UNL     1      17.712  33.561  28.409  1.00  0.00     0.293 HD
ENDBRANCH  45  49
BRANCH  46  51
ATOM     51  O   UNL     1      17.660  34.105  30.862  1.00  0.00    -0.502 OA
ATOM     52  H   UNL     1      17.365  35.008  31.215  1.00  0.00     0.293 HD
ENDBRANCH  46  51
ENDBRANCH  39  41
ENDBRANCH  38  39
ENDBRANCH   3  38
BRANCH   5  53
ATOM     53  O   UNL     1      25.355  28.578  27.805  1.00  0.00    -0.428 OA
BRANCH  53  54
ATOM     54  C   UNL     1      26.522  28.235  27.112  1.00  0.00     0.340 C 
ATOM     55  O   UNL     1      27.645  28.637  27.523  1.00  0.00    -0.246 OA
BRANCH  54  56
ATOM     56  C   UNL     1      26.425  27.423  25.878  1.00  0.00     0.067 A 
ATOM     57  C   UNL     1      27.519  26.651  25.454  1.00  0.00     0.066 A 
ATOM     58  C   UNL     1      25.238  27.404  25.127  1.00  0.00     0.066 A 
ATOM     59  C   UNL     1      27.435  25.877  24.288  1.00  0.00     0.162 A 
ATOM     60  C   UNL     1      25.145  26.626  23.965  1.00  0.00     0.162 A 
ATOM     61  C   UNL     1      26.246  25.866  23.538  1.00  0.00     0.200 A 
BRANCH  59  62
ATOM     62  O   UNL     1      28.525  25.118  23.871  1.00  0.00    -0.504 OA
ATOM     63  H   UNL     1      28.405  24.225  23.406  1.00  0.00     0.293 HD
ENDBRANCH  59  62
BRANCH  60  64
ATOM     64  O   UNL     1      23.958  26.627  23.234  1.00  0.00    -0.504 OA
ATOM     65  H   UNL     1      23.951  26.715  22.224  1.00  0.00     0.293 HD
ENDBRANCH  60  64
BRANCH  61  66
ATOM     66  O   UNL     1      26.142  25.105  22.371  1.00  0.00    -0.502 OA
ATOM     67  H   UNL     1      25.674  24.199  22.360  1.00  0.00     0.293 HD
ENDBRANCH  61  66
ENDBRANCH  54  56
ENDBRANCH  53  54
ENDBRANCH   5  53
BRANCH   4  68
ATOM     68  O   UNL     1      26.097  30.288  29.884  1.00  0.00    -0.448 OA
BRANCH  68  69
ATOM     69  C   UNL     1      27.096  30.455  30.854  1.00  0.00     0.339 C 
ATOM     70  O   UNL     1      26.948  29.961  32.004  1.00  0.00    -0.246 OA
BRANCH  69  71
ATOM     71  C   UNL     1      28.342  31.175  30.518  1.00  0.00     0.067 A 
ATOM     72  C   UNL     1      29.099  30.808  29.390  1.00  0.00     0.066 A 
ATOM     73  C   UNL     1      28.784  32.241  31.318  1.00  0.00     0.066 A 
ATOM     74  C   UNL     1      30.261  31.516  29.050  1.00  0.00     0.162 A 
ATOM     75  C   UNL     1      29.952  32.947  30.999  1.00  0.00     0.162 A 
ATOM     76  C   UNL     1      30.688  32.593  29.841  1.00  0.00     0.200 A 
BRANCH  74  77
ATOM     77  O   UNL     1      30.993  31.165  27.917  1.00  0.00    -0.504 OA
ATOM     78  H   UNL     1      31.929  30.795  27.988  1.00  0.00     0.293 HD
ENDBRANCH  74  77
BRANCH  75  79
ATOM     79  O   UNL     1      30.342  33.975  31.862  1.00  0.00    -0.504 OA
ATOM     80  H   UNL     1      29.886  34.872  31.915  1.00  0.00     0.293 HD
ENDBRANCH  75  79
BRANCH  76  81
ATOM     81  O   UNL     1      31.832  33.289  29.443  1.00  0.00    -0.502 OA
ATOM     82  H   UNL     1      32.724  32.851  29.293  1.00  0.00     0.293 HD
ENDBRANCH  76  81
ENDBRANCH  69  71
ENDBRANCH  68  69
ENDBRANCH   4  68
TORSDOF 31
ENDMDL
MODEL 5
REMARK VINA RESULT:    -1.430      1.489      9.281
REMARK INTER + INTRA:          -7.984
REMARK INTER:                  -7.738
REMARK INTRA:                  -0.246
REMARK UNBOUND:                -4.591
REMARK SMILES O=C(OC[C@@H]1O[C@@H](OC(=O)c2cc(O)c(O)c(O)c2)[C@@H](OC(=O)c2cc(O)c(O)c(O)c2)[C@H](OC(=O)c2cc(O)c(O)c(O)c2)[C@@H]1OC(=O)c1cc(O)c(O)c(O)c1)c1cc(O)c(O)c(O)c1
REMARK SMILES IDX 5 1 46 2 33 3 20 4 7 5 6 6 4 7 3 8 2 9 1 10 59 11 60 12
REMARK SMILES IDX 61 13 67 14 63 15 65 16 62 17 64 19 66 21 47 23 48 24 49 25
REMARK SMILES IDX 50 26 58 27 51 28 56 29 52 30 54 31 57 32 53 34 55 36 34 38
REMARK SMILES IDX 35 39 36 40 37 41 45 42 38 43 43 44 39 45 41 46 44 47 40 49
REMARK SMILES IDX 42 51 8 53 9 54 10 55 11 56 19 57 12 58 17 59 13 60 15 61
REMARK SMILES IDX 18 62 14 64 16 66 21 68 22 69 23 70 24 71 32 72 25 73 30 74
REMARK SMILES IDX 26 75 28 76 31 77 27 79 29 81
REMARK H PARENT 62 18 64 20 66 22 57 33 53 35 55 37 44 48 40 50 42 52 18 63
REMARK H PARENT 14 65 16 67 31 78 27 80 29 82
REMARK Flexibility Score: inf
ROOT
ATOM      1  C   UNL     1      23.115  28.331  29.817  1.00  0.00     0.205 C 
ATOM      2  C   UNL     1      24.428  28.976  30.314  1.00  0.00     0.254 C 
ATOM      3  C   UNL     1      24.102  29.990  31.429  1.00  0.00     0.267 C 
ATOM      4  C   UNL     1      23.025  30.979  30.947  1.00  0.00     0.290 C 
ATOM      5  C   UNL     1      21.824  30.212  30.364  1.00  0.00     0.357 C 
ATOM      6  O   UNL     1      22.226  29.326  29.332  1.00  0.00    -0.329 OA
ENDROOT
BRANCH   1   7
ATOM      7  C   UNL     1      23.389  27.310  28.700  1.00  0.00     0.269 C 
BRANCH   7   8
ATOM      8  O   UNL     1      22.172  26.722  28.246  1.00  0.00    -0.459 OA
BRANCH   8   9
ATOM      9  C   UNL     1      21.914  25.346  28.252  1.00  0.00     0.338 C 
ATOM     10  O   UNL     1      22.103  24.669  29.299  1.00  0.00    -0.246 OA
BRANCH   9  11
ATOM     11  C   UNL     1      21.385  24.697  27.033  1.00  0.00     0.067 A 
ATOM     12  C   UNL     1      20.562  23.567  27.136  1.00  0.00     0.066 A 
ATOM     13  C   UNL     1      20.070  22.934  25.992  1.00  0.00     0.162 A 
ATOM     14  C   UNL     1      21.703  25.194  25.760  1.00  0.00     0.066 A 
ATOM     15  C   UNL     1      20.398  23.427  24.716  1.00  0.00     0.200 A 
ATOM     16  C   UNL     1      21.218  24.577  24.602  1.00  0.00     0.162 A 
BRANCH  13  17
ATOM     17  O   UNL     1      19.267  21.802  26.142  1.00  0.00    -0.504 OA
ATOM     18  H   UNL     1      19.317  21.014  25.508  1.00  0.00     0.293 HD
ENDBRANCH  13  17
BRANCH  15  19
ATOM     19  O   UNL     1      19.902  22.752  23.596  1.00  0.00    -0.502 OA
ATOM     20  H   UNL     1      20.295  22.829  22.671  1.00  0.00     0.293 HD
ENDBRANCH  15  19
BRANCH  16  21
ATOM     21  O   UNL     1      21.567  25.138  23.371  1.00  0.00    -0.504 OA
ATOM     22  H   UNL     1      22.513  25.300  23.068  1.00  0.00     0.293 HD
ENDBRANCH  16  21
ENDBRANCH   9  11
ENDBRANCH   8   9
ENDBRANCH   7   8
ENDBRANCH   1   7
BRANCH   2  23
ATOM     23  O   UNL     1      25.071  29.642  29.228  1.00  0.00    -0.452 OA
BRANCH  23  24
ATOM     24  C   UNL     1      25.507  30.974  29.272  1.00  0.00     0.338 C 
ATOM     25  O   UNL     1      24.703  31.897  29.579  1.00  0.00    -0.246 OA
BRANCH  24  26
ATOM     26  C   UNL     1      26.916  31.290  28.961  1.00  0.00     0.067 A 
ATOM     27  C   UNL     1      27.443  32.564  29.236  1.00  0.00     0.066 A 
ATOM     28  C   UNL     1      27.747  30.314  28.393  1.00  0.00     0.066 A 
ATOM     29  C   UNL     1      28.778  32.859  28.950  1.00  0.00     0.162 A 
ATOM     30  C   UNL     1      29.082  30.602  28.097  1.00  0.00     0.162 A 
ATOM     31  C   UNL     1      29.604  31.878  28.373  1.00  0.00     0.200 A 
BRANCH  29  32
ATOM     32  O   UNL     1      29.275  34.125  29.264  1.00  0.00    -0.504 OA
ATOM     33  H   UNL     1      28.972  34.956  28.770  1.00  0.00     0.293 HD
ENDBRANCH  29  32
BRANCH  30  34
ATOM     34  O   UNL     1      29.897  29.625  27.521  1.00  0.00    -0.504 OA
ATOM     35  H   UNL     1      30.686  29.235  28.026  1.00  0.00     0.293 HD
ENDBRANCH  30  34
BRANCH  31  36
ATOM     36  O   UNL     1      30.936  32.180  28.089  1.00  0.00    -0.502 OA
ATOM     37  H   UNL     1      31.214  32.653  27.233  1.00  0.00     0.293 HD
ENDBRANCH  31  36
ENDBRANCH  24  26
ENDBRANCH  23  24
ENDBRANCH   2  23
BRANCH   3  38
ATOM     38  O   UNL     1      25.268  30.722  31.806  1.00  0.00    -0.450 OA
BRANCH  38  39
ATOM     39  C   UNL     1      26.375  30.167  32.458  1.00  0.00     0.338 C 
ATOM     40  O   UNL     1      26.249  29.104  33.125  1.00  0.00    -0.246 OA
BRANCH  39  41
ATOM     41  C   UNL     1      27.691  30.842  32.367  1.00  0.00     0.067 A 
ATOM     42  C   UNL     1      27.864  32.163  32.815  1.00  0.00     0.066 A 
ATOM     43  C   UNL     1      28.789  30.162  31.819  1.00  0.00     0.066 A 
ATOM     44  C   UNL     1      29.103  32.807  32.687  1.00  0.00     0.162 A 
ATOM     45  C   UNL     1      30.028  30.795  31.685  1.00  0.00     0.162 A 
ATOM     46  C   UNL     1      30.189  32.123  32.113  1.00  0.00     0.200 A 
BRANCH  44  47
ATOM     47  O   UNL     1      29.261  34.125  33.125  1.00  0.00    -0.504 OA
ATOM     48  H   UNL     1      28.510  34.804  33.063  1.00  0.00     0.293 HD
ENDBRANCH  44  47
BRANCH  45  49
ATOM     49  O   UNL     1      31.093  30.088  31.127  1.00  0.00    -0.504 OA
ATOM     50  H   UNL     1      31.733  29.547  31.693  1.00  0.00     0.293 HD
ENDBRANCH  45  49
BRANCH  46  51
ATOM     51  O   UNL     1      31.428  32.745  31.968  1.00  0.00    -0.502 OA
ATOM     52  H   UNL     1      31.649  33.341  31.177  1.00  0.00     0.293 HD
ENDBRANCH  46  51
ENDBRANCH  39  41
ENDBRANCH  38  39
ENDBRANCH   3  38
BRANCH   5  53
ATOM     53  O   UNL     1      21.124  29.506  31.392  1.00  0.00    -0.428 OA
BRANCH  53  54
ATOM     54  C   UNL     1      19.977  30.001  32.023  1.00  0.00     0.340 C 
ATOM     55  O   UNL     1      20.072  30.609  33.125  1.00  0.00    -0.246 OA
BRANCH  54  56
ATOM     56  C   UNL     1      18.651  29.780  31.403  1.00  0.00     0.067 A 
ATOM     57  C   UNL     1      17.805  28.771  31.891  1.00  0.00     0.066 A 
ATOM     58  C   UNL     1      18.221  30.580  30.332  1.00  0.00     0.066 A 
ATOM     59  C   UNL     1      16.546  28.556  31.311  1.00  0.00     0.162 A 
ATOM     60  C   UNL     1      16.961  30.375  29.754  1.00  0.00     0.162 A 
ATOM     61  C   UNL     1      16.123  29.357  30.236  1.00  0.00     0.200 A 
BRANCH  59  62
ATOM     62  O   UNL     1      15.714  27.551  31.797  1.00  0.00    -0.504 OA
ATOM     63  H   UNL     1      16.066  26.807  32.389  1.00  0.00     0.293 HD
ENDBRANCH  59  62
BRANCH  60  64
ATOM     64  O   UNL     1      16.557  31.180  28.689  1.00  0.00    -0.504 OA
ATOM     65  H   UNL     1      16.933  31.060  27.755  1.00  0.00     0.293 HD
ENDBRANCH  60  64
BRANCH  61  66
ATOM     66  O   UNL     1      14.875  29.157  29.641  1.00  0.00    -0.502 OA
ATOM     67  H   UNL     1      14.137  28.628  30.105  1.00  0.00     0.293 HD
ENDBRANCH  61  66
ENDBRANCH  54  56
ENDBRANCH  53  54
ENDBRANCH   5  53
BRANCH   4  68
ATOM     68  O   UNL     1      22.583  31.799  32.033  1.00  0.00    -0.448 OA
BRANCH  68  69
ATOM     69  C   UNL     1      22.098  33.106  31.869  1.00  0.00     0.339 C 
ATOM     70  O   UNL     1      22.857  34.091  32.073  1.00  0.00    -0.246 OA
BRANCH  69  71
ATOM     71  C   UNL     1      20.707  33.329  31.420  1.00  0.00     0.067 A 
ATOM     72  C   UNL     1      20.388  33.321  30.050  1.00  0.00     0.066 A 
ATOM     73  C   UNL     1      19.684  33.546  32.357  1.00  0.00     0.066 A 
ATOM     74  C   UNL     1      19.063  33.495  29.626  1.00  0.00     0.162 A 
ATOM     75  C   UNL     1      18.358  33.737  31.947  1.00  0.00     0.162 A 
ATOM     76  C   UNL     1      18.041  33.692  30.566  1.00  0.00     0.200 A 
BRANCH  74  77
ATOM     77  O   UNL     1      18.748  33.460  28.268  1.00  0.00    -0.504 OA
ATOM     78  H   UNL     1      18.172  32.729  27.880  1.00  0.00     0.293 HD
ENDBRANCH  74  77
BRANCH  75  79
ATOM     79  O   UNL     1      17.403  33.978  32.939  1.00  0.00    -0.504 OA
ATOM     80  H   UNL     1      17.077  33.282  33.590  1.00  0.00     0.293 HD
ENDBRANCH  75  79
BRANCH  76  81
ATOM     81  O   UNL     1      16.732  33.826  30.098  1.00  0.00    -0.502 OA
ATOM     82  H   UNL     1      16.460  34.491  29.395  1.00  0.00     0.293 HD
ENDBRANCH  76  81
ENDBRANCH  69  71
ENDBRANCH  68  69
ENDBRANCH   4  68
TORSDOF 31
ENDMDL
MODEL 6
REMARK VINA RESULT:    -0.173      2.438      3.405
REMARK INTER + INTRA:          -5.002
REMARK INTER:                  -4.411
REMARK INTRA:                  -0.592
REMARK UNBOUND:                -4.591
REMARK SMILES O=C(OC[C@@H]1O[C@@H](OC(=O)c2cc(O)c(O)c(O)c2)[C@@H](OC(=O)c2cc(O)c(O)c(O)c2)[C@H](OC(=O)c2cc(O)c(O)c(O)c2)[C@@H]1OC(=O)c1cc(O)c(O)c(O)c1)c1cc(O)c(O)c(O)c1
REMARK SMILES IDX 5 1 46 2 33 3 20 4 7 5 6 6 4 7 3 8 2 9 1 10 59 11 60 12
REMARK SMILES IDX 61 13 67 14 63 15 65 16 62 17 64 19 66 21 47 23 48 24 49 25
REMARK SMILES IDX 50 26 58 27 51 28 56 29 52 30 54 31 57 32 53 34 55 36 34 38
REMARK SMILES IDX 35 39 36 40 37 41 45 42 38 43 43 44 39 45 41 46 44 47 40 49
REMARK SMILES IDX 42 51 8 53 9 54 10 55 11 56 19 57 12 58 17 59 13 60 15 61
REMARK SMILES IDX 18 62 14 64 16 66 21 68 22 69 23 70 24 71 32 72 25 73 30 74
REMARK SMILES IDX 26 75 28 76 31 77 27 79 29 81
REMARK H PARENT 62 18 64 20 66 22 57 33 53 35 55 37 44 48 40 50 42 52 18 63
REMARK H PARENT 14 65 16 67 31 78 27 80 29 82
REMARK Flexibility Score: inf
ROOT
ATOM      1  C   UNL     1      24.795  29.407  29.698  1.00  0.00     0.205 C 
ATOM      2  C   UNL     1      23.633  30.406  29.889  1.00  0.00     0.254 C 
ATOM      3  C   UNL     1      24.076  31.515  30.865  1.00  0.00     0.267 C 
ATOM      4  C   UNL     1      24.626  30.890  32.161  1.00  0.00     0.290 C 
ATOM      5  C   UNL     1      25.686  29.826  31.827  1.00  0.00     0.357 C 
ATOM      6  O   UNL     1      25.173  28.842  30.944  1.00  0.00    -0.329 OA
ENDROOT
BRANCH   1   7
ATOM      7  C   UNL     1      24.400  28.278  28.730  1.00  0.00     0.269 C 
BRANCH   7   8
ATOM      8  O   UNL     1      25.556  27.571  28.284  1.00  0.00    -0.459 OA
BRANCH   8   9
ATOM      9  C   UNL     1      26.402  28.014  27.261  1.00  0.00     0.338 C 
ATOM     10  O   UNL     1      27.162  29.002  27.450  1.00  0.00    -0.246 OA
BRANCH   9  11
ATOM     11  C   UNL     1      26.425  27.296  25.968  1.00  0.00     0.067 A 
ATOM     12  C   UNL     1      25.341  27.400  25.085  1.00  0.00     0.066 A 
ATOM     13  C   UNL     1      25.342  26.713  23.869  1.00  0.00     0.162 A 
ATOM     14  C   UNL     1      27.522  26.499  25.610  1.00  0.00     0.066 A 
ATOM     15  C   UNL     1      26.438  25.905  23.515  1.00  0.00     0.200 A 
ATOM     16  C   UNL     1      27.544  25.805  24.396  1.00  0.00     0.162 A 
BRANCH  13  17
ATOM     17  O   UNL     1      24.234  26.832  23.028  1.00  0.00    -0.504 OA
ATOM     18  H   UNL     1      23.514  26.122  22.976  1.00  0.00     0.293 HD
ENDBRANCH  13  17
BRANCH  15  19
ATOM     19  O   UNL     1      26.391  25.218  22.298  1.00  0.00    -0.502 OA
ATOM     20  H   UNL     1      27.128  24.620  21.958  1.00  0.00     0.293 HD
ENDBRANCH  15  19
BRANCH  16  21
ATOM     21  O   UNL     1      28.677  25.042  24.103  1.00  0.00    -0.504 OA
ATOM     22  H   UNL     1      29.147  24.446  24.764  1.00  0.00     0.293 HD
ENDBRANCH  16  21
ENDBRANCH   9  11
ENDBRANCH   8   9
ENDBRANCH   7   8
ENDBRANCH   1   7
BRANCH   2  23
ATOM     23  O   UNL     1      22.498  29.721  30.418  1.00  0.00    -0.452 OA
BRANCH  23  24
ATOM     24  C   UNL     1      21.477  29.172  29.629  1.00  0.00     0.338 C 
ATOM     25  O   UNL     1      21.758  28.528  28.581  1.00  0.00    -0.246 OA
BRANCH  24  26
ATOM     26  C   UNL     1      20.069  29.348  30.036  1.00  0.00     0.067 A 
ATOM     27  C   UNL     1      19.144  29.960  29.171  1.00  0.00     0.066 A 
ATOM     28  C   UNL     1      19.636  28.897  31.291  1.00  0.00     0.066 A 
ATOM     29  C   UNL     1      17.809  30.118  29.553  1.00  0.00     0.162 A 
ATOM     30  C   UNL     1      18.305  29.057  31.685  1.00  0.00     0.162 A 
ATOM     31  C   UNL     1      17.385  29.670  30.817  1.00  0.00     0.200 A 
BRANCH  29  32
ATOM     32  O   UNL     1      16.913  30.703  28.658  1.00  0.00    -0.504 OA
ATOM     33  H   UNL     1      16.302  30.147  28.071  1.00  0.00     0.293 HD
ENDBRANCH  29  32
BRANCH  30  34
ATOM     34  O   UNL     1      17.889  28.614  32.942  1.00  0.00    -0.504 OA
ATOM     35  H   UNL     1      17.992  27.642  33.217  1.00  0.00     0.293 HD
ENDBRANCH  30  34
BRANCH  31  36
ATOM     36  O   UNL     1      16.050  29.833  31.192  1.00  0.00    -0.502 OA
ATOM     37  H   UNL     1      15.746  30.590  31.797  1.00  0.00     0.293 HD
ENDBRANCH  31  36
ENDBRANCH  24  26
ENDBRANCH  23  24
ENDBRANCH   2  23
BRANCH   3  38
ATOM     38  O   UNL     1      22.981  32.371  31.191  1.00  0.00    -0.450 OA
BRANCH  38  39
ATOM     39  C   UNL     1      21.897  32.001  31.994  1.00  0.00     0.338 C 
ATOM     40  O   UNL     1      22.082  31.281  33.014  1.00  0.00    -0.246 OA
BRANCH  39  41
ATOM     41  C   UNL     1      20.533  32.453  31.635  1.00  0.00     0.067 A 
ATOM     42  C   UNL     1      19.469  32.354  32.548  1.00  0.00     0.066 A 
ATOM     43  C   UNL     1      20.285  32.983  30.359  1.00  0.00     0.066 A 
ATOM     44  C   UNL     1      18.173  32.746  32.184  1.00  0.00     0.162 A 
ATOM     45  C   UNL     1      18.997  33.375  29.986  1.00  0.00     0.162 A 
ATOM     46  C   UNL     1      17.934  33.253  30.895  1.00  0.00     0.200 A 
BRANCH  44  47
ATOM     47  O   UNL     1      17.119  32.632  33.096  1.00  0.00    -0.504 OA
ATOM     48  H   UNL     1      16.722  31.733  33.346  1.00  0.00     0.293 HD
ENDBRANCH  44  47
BRANCH  45  49
ATOM     49  O   UNL     1      18.790  33.890  28.706  1.00  0.00    -0.504 OA
ATOM     50  H   UNL     1      19.028  34.843  28.466  1.00  0.00     0.293 HD
ENDBRANCH  45  49
BRANCH  46  51
ATOM     51  O   UNL     1      16.651  33.641  30.507  1.00  0.00    -0.502 OA
ATOM     52  H   UNL     1      16.021  33.021  30.009  1.00  0.00     0.293 HD
ENDBRANCH  46  51
ENDBRANCH  39  41
ENDBRANCH  38  39
ENDBRANCH   3  38
BRANCH   5  53
ATOM     53  O   UNL     1      26.861  30.432  31.281  1.00  0.00    -0.428 OA
BRANCH  53  54
ATOM     54  C   UNL     1      28.134  30.294  31.848  1.00  0.00     0.340 C 
ATOM     55  O   UNL     1      28.259  29.879  33.033  1.00  0.00    -0.246 OA
BRANCH  54  56
ATOM     56  C   UNL     1      29.327  30.668  31.056  1.00  0.00     0.067 A 
ATOM     57  C   UNL     1      29.219  30.869  29.670  1.00  0.00     0.066 A 
ATOM     58  C   UNL     1      30.574  30.838  31.680  1.00  0.00     0.066 A 
ATOM     59  C   UNL     1      30.344  31.226  28.913  1.00  0.00     0.162 A 
ATOM     60  C   UNL     1      31.700  31.202  30.930  1.00  0.00     0.162 A 
ATOM     61  C   UNL     1      31.590  31.389  29.543  1.00  0.00     0.200 A 
BRANCH  59  62
ATOM     62  O   UNL     1      30.230  31.419  27.539  1.00  0.00    -0.504 OA
ATOM     63  H   UNL     1      30.944  31.097  26.895  1.00  0.00     0.293 HD
ENDBRANCH  59  62
BRANCH  60  64
ATOM     64  O   UNL     1      32.929  31.361  31.571  1.00  0.00    -0.504 OA
ATOM     65  H   UNL     1      33.707  31.834  31.127  1.00  0.00     0.293 HD
ENDBRANCH  60  64
BRANCH  61  66
ATOM     66  O   UNL     1      32.724  31.740  28.806  1.00  0.00    -0.502 OA
ATOM     67  H   UNL     1      33.046  32.706  28.741  1.00  0.00     0.293 HD
ENDBRANCH  61  66
ENDBRANCH  54  56
ENDBRANCH  53  54
ENDBRANCH   5  53
BRANCH   4  68
ATOM     68  O   UNL     1      25.210  31.900  32.989  1.00  0.00    -0.448 OA
BRANCH  68  69
ATOM     69  C   UNL     1      25.521  33.191  32.535  1.00  0.00     0.339 C 
ATOM     70  O   UNL     1      24.683  34.124  32.665  1.00  0.00    -0.246 OA
BRANCH  69  71
ATOM     71  C   UNL     1      26.845  33.468  31.939  1.00  0.00     0.067 A 
ATOM     72  C   UNL     1      27.992  33.544  32.750  1.00  0.00     0.066 A 
ATOM     73  C   UNL     1      26.975  33.656  30.554  1.00  0.00     0.066 A 
ATOM     74  C   UNL     1      29.253  33.769  32.180  1.00  0.00     0.162 A 
ATOM     75  C   UNL     1      28.227  33.898  29.973  1.00  0.00     0.162 A 
ATOM     76  C   UNL     1      29.382  33.936  30.793  1.00  0.00     0.200 A 
BRANCH  74  77
ATOM     77  O   UNL     1      30.391  33.816  32.985  1.00  0.00    -0.504 OA
ATOM     78  H   UNL     1      30.887  34.680  33.145  1.00  0.00     0.293 HD
ENDBRANCH  74  77
BRANCH  75  79
ATOM     79  O   UNL     1      28.270  34.103  28.591  1.00  0.00    -0.504 OA
ATOM     80  H   UNL     1      29.049  33.848  28.006  1.00  0.00     0.293 HD
ENDBRANCH  75  79
BRANCH  76  81
ATOM     81  O   UNL     1      30.663  34.123  30.269  1.00  0.00    -0.502 OA
ATOM     82  H   UNL     1      30.960  33.750  29.384  1.00  0.00     0.293 HD
ENDBRANCH  76  81
ENDBRANCH  69  71
ENDBRANCH  68  69
ENDBRANCH   4  68
TORSDOF 31
ENDMDL
