MODEL 1
REMARK VINA RESULT:    -5.563      0.000      0.000
REMARK INTER + INTRA:          -5.563
REMARK INTER:                  -5.563
REMARK INTRA:                   0.000
REMARK UNBOUND:                 0.000
REMARK SMILES CC1=CC(=O)[C@@H]2C[C@H]1C2(C)C
REMARK SMILES IDX 1 1 2 2 3 3 4 4 5 5 6 6 7 7 8 8 9 9 10 10 11 11
REMARK H PARENT
REMARK Flexibility Score: inf
ROOT
ATOM      1  C   UNL     1      11.749 -28.692  23.762  1.00  0.00     0.040 C 
ATOM      2  C   UNL     1      12.592 -29.764  23.147  1.00  0.00    -0.066 C 
ATOM      3  C   UNL     1      12.266 -30.323  21.949  1.00  0.00     0.047 C 
ATOM      4  C   UNL     1      13.207 -31.364  21.424  1.00  0.00     0.159 C 
ATOM      5  O   UNL     1      13.035 -31.925  20.311  1.00  0.00    -0.295 OA
ATOM      6  C   UNL     1      14.390 -31.695  22.335  1.00  0.00     0.067 C 
ATOM      7  C   UNL     1      13.759 -31.838  23.737  1.00  0.00     0.021 C 
ATOM      8  C   UNL     1      13.860 -30.300  23.845  1.00  0.00     0.022 C 
ATOM      9  C   UNL     1      15.029 -30.362  22.820  1.00  0.00    -0.019 C 
ATOM     10  C   UNL     1      15.173 -29.198  21.798  1.00  0.00     0.012 C 
ATOM     11  C   UNL     1      16.402 -30.582  23.504  1.00  0.00     0.012 C 
ENDROOT
TORSDOF 0
ENDMDL
MODEL 2
REMARK VINA RESULT:    -5.375      1.682      3.476
REMARK INTER + INTRA:          -5.375
REMARK INTER:                  -5.375
REMARK INTRA:                   0.000
REMARK UNBOUND:                 0.000
REMARK SMILES CC1=CC(=O)[C@@H]2C[C@H]1C2(C)C
REMARK SMILES IDX 1 1 2 2 3 3 4 4 5 5 6 6 7 7 8 8 9 9 10 10 11 11
REMARK H PARENT
REMARK Flexibility Score: inf
ROOT
ATOM      1  C   UNL     1      14.809 -33.254  24.245  1.00  0.00     0.040 C 
ATOM      2  C   UNL     1      14.579 -31.934  23.580  1.00  0.00    -0.066 C 
ATOM      3  C   UNL     1      15.614 -31.195  23.091  1.00  0.00     0.047 C 
ATOM      4  C   UNL     1      15.250 -29.906  22.420  1.00  0.00     0.159 C 
ATOM      5  O   UNL     1      16.112 -29.155  21.895  1.00  0.00    -0.295 OA
ATOM      6  C   UNL     1      13.759 -29.567  22.419  1.00  0.00     0.067 C 
ATOM      7  C   UNL     1      13.303 -29.859  23.865  1.00  0.00     0.021 C 
ATOM      8  C   UNL     1      13.164 -31.335  23.432  1.00  0.00     0.022 C 
ATOM      9  C   UNL     1      12.966 -30.829  21.974  1.00  0.00    -0.019 C 
ATOM     10  C   UNL     1      13.540 -31.691  20.812  1.00  0.00     0.012 C 
ATOM     11  C   UNL     1      11.483 -30.512  21.655  1.00  0.00     0.012 C 
ENDROOT
TORSDOF 0
ENDMDL
MODEL 3
REMARK VINA RESULT:    -5.251      1.593      2.983
REMARK INTER + INTRA:          -5.251
REMARK INTER:                  -5.251
REMARK INTRA:                   0.000
REMARK UNBOUND:                 0.000
REMARK SMILES CC1=CC(=O)[C@@H]2C[C@H]1C2(C)C
REMARK SMILES IDX 1 1 2 2 3 3 4 4 5 5 6 6 7 7 8 8 9 9 10 10 11 11
REMARK H PARENT
REMARK Flexibility Score: inf
ROOT
ATOM      1  C   UNL     1      13.148 -32.102  20.123  1.00  0.00     0.040 C 
ATOM      2  C   UNL     1      13.430 -31.167  21.256  1.00  0.00    -0.066 C 
ATOM      3  C   UNL     1      12.423 -30.545  21.930  1.00  0.00     0.047 C 
ATOM      4  C   UNL     1      12.834 -29.658  23.066  1.00  0.00     0.159 C 
ATOM      5  O   UNL     1      11.995 -29.059  23.788  1.00  0.00    -0.295 OA
ATOM      6  C   UNL     1      14.342 -29.531  23.285  1.00  0.00     0.067 C 
ATOM      7  C   UNL     1      14.913 -29.312  21.867  1.00  0.00     0.021 C 
ATOM      8  C   UNL     1      14.871 -30.848  21.706  1.00  0.00     0.022 C 
ATOM      9  C   UNL     1      14.967 -30.955  23.255  1.00  0.00    -0.019 C 
ATOM     10  C   UNL     1      14.202 -32.112  23.961  1.00  0.00     0.012 C 
ATOM     11  C   UNL     1      16.433 -30.966  23.757  1.00  0.00     0.012 C 
ENDROOT
TORSDOF 0
ENDMDL
MODEL 4
REMARK VINA RESULT:    -5.049      4.149      5.458
REMARK INTER + INTRA:          -5.049
REMARK INTER:                  -5.049
REMARK INTRA:                   0.000
REMARK UNBOUND:                 0.000
REMARK SMILES CC1=CC(=O)[C@@H]2C[C@H]1C2(C)C
REMARK SMILES IDX 1 1 2 2 3 3 4 4 5 5 6 6 7 7 8 8 9 9 10 10 11 11
REMARK H PARENT
REMARK Flexibility Score: inf
ROOT
ATOM      1  C   UNL     1      17.005 -35.012  23.612  1.00  0.00     0.040 C 
ATOM      2  C   UNL     1      16.495 -34.730  22.235  1.00  0.00    -0.066 C 
ATOM      3  C   UNL     1      15.349 -34.022  22.034  1.00  0.00     0.047 C 
ATOM      4  C   UNL     1      14.961 -33.779  20.607  1.00  0.00     0.159 C 
ATOM      5  O   UNL     1      13.945 -33.105  20.293  1.00  0.00    -0.295 OA
ATOM      6  C   UNL     1      15.884 -34.406  19.562  1.00  0.00     0.067 C 
ATOM      7  C   UNL     1      16.123 -35.841  20.080  1.00  0.00     0.021 C 
ATOM      8  C   UNL     1      17.229 -35.240  20.977  1.00  0.00     0.022 C 
ATOM      9  C   UNL     1      17.356 -34.082  19.946  1.00  0.00    -0.019 C 
ATOM     10  C   UNL     1      17.685 -32.657  20.477  1.00  0.00     0.012 C 
ATOM     11  C   UNL     1      18.350 -34.415  18.804  1.00  0.00     0.012 C 
ENDROOT
TORSDOF 0
ENDMDL
MODEL 5
REMARK VINA RESULT:    -4.914      8.283     10.251
REMARK INTER + INTRA:          -4.914
REMARK INTER:                  -4.914
REMARK INTRA:                   0.000
REMARK UNBOUND:                 0.000
REMARK SMILES CC1=CC(=O)[C@@H]2C[C@H]1C2(C)C
REMARK SMILES IDX 1 1 2 2 3 3 4 4 5 5 6 6 7 7 8 8 9 9 10 10 11 11
REMARK H PARENT
REMARK Flexibility Score: inf
ROOT
ATOM      1  C   UNL     1      23.613 -24.696  18.988  1.00  0.00     0.040 C 
ATOM      2  C   UNL     1      23.099 -25.347  20.232  1.00  0.00    -0.066 C 
ATOM      3  C   UNL     1      22.870 -24.629  21.367  1.00  0.00     0.047 C 
ATOM      4  C   UNL     1      22.325 -25.392  22.536  1.00  0.00     0.159 C 
ATOM      5  O   UNL     1      22.036 -24.834  23.626  1.00  0.00    -0.295 OA
ATOM      6  C   UNL     1      22.143 -26.893  22.310  1.00  0.00     0.067 C 
ATOM      7  C   UNL     1      23.454 -27.334  21.625  1.00  0.00     0.021 C 
ATOM      8  C   UNL     1      22.818 -26.863  20.298  1.00  0.00     0.022 C 
ATOM      9  C   UNL     1      21.424 -27.105  20.947  1.00  0.00    -0.019 C 
ATOM     10  C   UNL     1      20.260 -26.144  20.568  1.00  0.00     0.012 C 
ATOM     11  C   UNL     1      20.930 -28.562  20.761  1.00  0.00     0.012 C 
ENDROOT
TORSDOF 0
ENDMDL
MODEL 6
REMARK VINA RESULT:    -4.913      1.674      3.401
REMARK INTER + INTRA:          -4.913
REMARK INTER:                  -4.913
REMARK INTRA:                   0.000
REMARK UNBOUND:                 0.000
REMARK SMILES CC1=CC(=O)[C@@H]2C[C@H]1C2(C)C
REMARK SMILES IDX 1 1 2 2 3 3 4 4 5 5 6 6 7 7 8 8 9 9 10 10 11 11
REMARK H PARENT
REMARK Flexibility Score: inf
ROOT
ATOM      1  C   UNL     1      16.407 -29.410  22.034  1.00  0.00     0.040 C 
ATOM      2  C   UNL     1      15.192 -30.187  22.428  1.00  0.00    -0.066 C 
ATOM      3  C   UNL     1      15.251 -31.164  23.376  1.00  0.00     0.047 C 
ATOM      4  C   UNL     1      13.960 -31.848  23.705  1.00  0.00     0.159 C 
ATOM      5  O   UNL     1      13.878 -32.739  24.591  1.00  0.00    -0.295 OA
ATOM      6  C   UNL     1      12.749 -31.389  22.891  1.00  0.00     0.067 C 
ATOM      7  C   UNL     1      13.268 -31.341  21.438  1.00  0.00     0.021 C 
ATOM      8  C   UNL     1      13.818 -29.936  21.771  1.00  0.00     0.022 C 
ATOM      9  C   UNL     1      12.726 -29.833  22.875  1.00  0.00    -0.019 C 
ATOM     10  C   UNL     1      13.078 -29.076  24.188  1.00  0.00     0.012 C 
ATOM     11  C   UNL     1      11.389 -29.269  22.333  1.00  0.00     0.012 C 
ENDROOT
TORSDOF 0
ENDMDL
MODEL 7
REMARK VINA RESULT:    -4.910      0.988      3.319
REMARK INTER + INTRA:          -4.910
REMARK INTER:                  -4.910
REMARK INTRA:                   0.000
REMARK UNBOUND:                 0.000
REMARK SMILES CC1=CC(=O)[C@@H]2C[C@H]1C2(C)C
REMARK SMILES IDX 1 1 2 2 3 3 4 4 5 5 6 6 7 7 8 8 9 9 10 10 11 11
REMARK H PARENT
REMARK Flexibility Score: inf
ROOT
ATOM      1  C   UNL     1      17.462 -31.368  23.645  1.00  0.00     0.040 C 
ATOM      2  C   UNL     1      16.153 -31.308  22.924  1.00  0.00    -0.066 C 
ATOM      3  C   UNL     1      15.782 -32.280  22.045  1.00  0.00     0.047 C 
ATOM      4  C   UNL     1      14.433 -32.122  21.411  1.00  0.00     0.159 C 
ATOM      5  O   UNL     1      13.962 -32.973  20.612  1.00  0.00    -0.295 OA
ATOM      6  C   UNL     1      13.671 -30.855  21.802  1.00  0.00     0.067 C 
ATOM      7  C   UNL     1      14.726 -29.732  21.701  1.00  0.00     0.021 C 
ATOM      8  C   UNL     1      15.168 -30.137  23.125  1.00  0.00     0.022 C 
ATOM      9  C   UNL     1      13.734 -30.699  23.349  1.00  0.00    -0.019 C 
ATOM     10  C   UNL     1      13.572 -31.973  24.227  1.00  0.00     0.012 C 
ATOM     11  C   UNL     1      12.752 -29.621  23.873  1.00  0.00     0.012 C 
ENDROOT
TORSDOF 0
ENDMDL
MODEL 8
REMARK VINA RESULT:    -4.906      8.650      9.789
REMARK INTER + INTRA:          -4.906
REMARK INTER:                  -4.906
REMARK INTRA:                   0.000
REMARK UNBOUND:                 0.000
REMARK SMILES CC1=CC(=O)[C@@H]2C[C@H]1C2(C)C
REMARK SMILES IDX 1 1 2 2 3 3 4 4 5 5 6 6 7 7 8 8 9 9 10 10 11 11
REMARK H PARENT
REMARK Flexibility Score: inf
ROOT
ATOM      1  C   UNL     1      20.483 -24.253  23.565  1.00  0.00     0.040 C 
ATOM      2  C   UNL     1      21.106 -24.782  22.313  1.00  0.00    -0.066 C 
ATOM      3  C   UNL     1      22.185 -24.174  21.746  1.00  0.00     0.047 C 
ATOM      4  C   UNL     1      22.736 -24.819  20.511  1.00  0.00     0.159 C 
ATOM      5  O   UNL     1      23.753 -24.374  19.917  1.00  0.00    -0.295 OA
ATOM      6  C   UNL     1      21.978 -26.055  20.023  1.00  0.00     0.067 C 
ATOM      7  C   UNL     1      20.492 -25.641  20.100  1.00  0.00     0.021 C 
ATOM      8  C   UNL     1      20.550 -26.029  21.594  1.00  0.00     0.022 C 
ATOM      9  C   UNL     1      21.723 -26.989  21.240  1.00  0.00    -0.019 C 
ATOM     10  C   UNL     1      22.863 -27.173  22.283  1.00  0.00     0.012 C 
ATOM     11  C   UNL     1      21.227 -28.393  20.811  1.00  0.00     0.012 C 
ENDROOT
TORSDOF 0
ENDMDL
MODEL 9
REMARK VINA RESULT:    -4.825      1.836      2.915
REMARK INTER + INTRA:          -4.825
REMARK INTER:                  -4.825
REMARK INTRA:                   0.000
REMARK UNBOUND:                 0.000
REMARK SMILES CC1=CC(=O)[C@@H]2C[C@H]1C2(C)C
REMARK SMILES IDX 1 1 2 2 3 3 4 4 5 5 6 6 7 7 8 8 9 9 10 10 11 11
REMARK H PARENT
REMARK Flexibility Score: inf
ROOT
ATOM      1  C   UNL     1      13.891 -32.959  24.599  1.00  0.00     0.040 C 
ATOM      2  C   UNL     1      14.125 -31.822  23.657  1.00  0.00    -0.066 C 
ATOM      3  C   UNL     1      13.615 -30.582  23.899  1.00  0.00     0.047 C 
ATOM      4  C   UNL     1      13.947 -29.520  22.896  1.00  0.00     0.159 C 
ATOM      5  O   UNL     1      13.567 -28.328  23.029  1.00  0.00    -0.295 OA
ATOM      6  C   UNL     1      14.779 -29.986  21.700  1.00  0.00     0.067 C 
ATOM      7  C   UNL     1      14.103 -31.303  21.260  1.00  0.00     0.021 C 
ATOM      8  C   UNL     1      14.939 -31.999  22.357  1.00  0.00     0.022 C 
ATOM      9  C   UNL     1      15.968 -30.839  22.228  1.00  0.00    -0.019 C 
ATOM     10  C   UNL     1      16.704 -30.363  23.513  1.00  0.00     0.012 C 
ATOM     11  C   UNL     1      17.030 -31.110  21.133  1.00  0.00     0.012 C 
ENDROOT
TORSDOF 0
ENDMDL
