MODEL 1
REMARK VINA RESULT:    -2.405      0.000      0.000
REMARK INTER + INTRA:          -3.091
REMARK INTER:                  -2.827
REMARK INTRA:                  -0.265
REMARK UNBOUND:                -0.265
REMARK SMILES O=c1cc(-c2ccc(O)c(O)c2)oc2cc(O)cc(O)c12
REMARK SMILES IDX 4 1 3 2 2 3 1 4 21 5 19 6 18 7 16 8 15 9 14 10 13 11 5 12
REMARK SMILES IDX 6 13 7 14 8 15 12 16 10 17 9 18 11 20 20 22 17 24
REMARK H PARENT 9 19 11 21 20 23 17 25
REMARK Flexibility Score: inf
ROOT
ATOM      1  C   UNL     1      -9.406  15.708  30.432  1.00  0.00     0.138 A 
ATOM      2  C   UNL     1      -9.476  16.651  29.398  1.00  0.00     0.100 A 
ATOM      3  C   UNL     1      -9.843  16.245  28.115  1.00  0.00     0.197 A 
ATOM      4  O   UNL     1      -9.958  17.125  27.223  1.00  0.00    -0.289 OA
ATOM      5  C   UNL     1     -10.110  14.878  27.860  1.00  0.00     0.107 A 
ATOM      6  C   UNL     1     -10.453  14.342  26.583  1.00  0.00     0.134 A 
ATOM      7  C   UNL     1     -10.810  12.992  26.474  1.00  0.00     0.093 A 
ATOM      8  C   UNL     1     -10.778  12.147  27.583  1.00  0.00     0.123 A 
ATOM      9  C   UNL     1     -10.392  12.649  28.826  1.00  0.00     0.094 A 
ATOM     10  C   UNL     1     -10.064  13.999  28.974  1.00  0.00     0.146 A 
ATOM     11  O   UNL     1      -9.715  14.440  30.178  1.00  0.00    -0.456 OA
ENDROOT
BRANCH   1  12
ATOM     12  C   UNL     1      -9.019  16.086  31.815  1.00  0.00     0.021 A 
ATOM     13  C   UNL     1      -9.989  16.070  32.833  1.00  0.00     0.016 A 
ATOM     14  C   UNL     1      -9.650  16.415  34.142  1.00  0.00     0.051 A 
ATOM     15  C   UNL     1      -8.334  16.771  34.461  1.00  0.00     0.157 A 
ATOM     16  C   UNL     1      -7.695  16.433  32.145  1.00  0.00     0.062 A 
ATOM     17  C   UNL     1      -7.355  16.778  33.461  1.00  0.00     0.158 A 
BRANCH  15  18
ATOM     18  O   UNL     1      -7.993  17.117  35.767  1.00  0.00    -0.504 OA
ATOM     19  H   UNL     1      -7.818  16.413  36.473  1.00  0.00     0.293 HD
ENDBRANCH  15  18
BRANCH  17  20
ATOM     20  O   UNL     1      -6.043  17.123  33.784  1.00  0.00    -0.504 OA
ATOM     21  H   UNL     1      -5.261  16.533  33.526  1.00  0.00     0.293 HD
ENDBRANCH  17  20
ENDBRANCH   1  12
BRANCH   6  22
ATOM     22  O   UNL     1     -10.434  15.080  25.395  1.00  0.00    -0.507 OA
ATOM     23  H   UNL     1     -10.789  14.757  24.509  1.00  0.00     0.293 HD
ENDBRANCH   6  22
BRANCH   8  24
ATOM     24  O   UNL     1     -11.125  10.806  27.435  1.00  0.00    -0.508 OA
ATOM     25  H   UNL     1     -11.738  10.496  26.690  1.00  0.00     0.293 HD
ENDBRANCH   8  24
TORSDOF 5
ENDMDL
