MODEL 1
REMARK VINA RESULT:    -3.781      0.000      0.000
REMARK INTER + INTRA:          -6.643
REMARK INTER:                  -5.770
REMARK INTRA:                  -0.873
REMARK UNBOUND:                -0.873
REMARK SMILES CCCCCCCCCC=CC(=O)[O-]
REMARK SMILES IDX 7 1 8 2 9 3 10 4 11 5 12 6 13 7 14 8 6 9 5 10 4 11 3 12 2 13
REMARK SMILES IDX 1 14
REMARK H PARENT
REMARK Flexibility Score: inf
ROOT
ATOM      1  C   UNL     1     -52.701 120.602  -9.735  1.00  0.00     0.000 C 
ENDROOT
BRANCH   1   2
ATOM      2  C   UNL     1     -52.983 121.960  -9.073  1.00  0.00     0.004 C 
BRANCH   2   3
ATOM      3  C   UNL     1     -54.489 122.167  -8.867  1.00  0.00     0.027 C 
BRANCH   3   4
ATOM      4  C   UNL     1     -55.280 121.031  -9.448  1.00  0.00    -0.025 C 
ATOM      5  C   UNL     1     -56.219 121.236 -10.376  1.00  0.00     0.020 C 
BRANCH   5   6
ATOM      6  C   UNL     1     -57.012 120.134 -10.943  1.00  0.00     0.064 C 
ATOM      7  O   UNL     1     -56.631 118.946 -10.780  1.00  0.00    -0.545 OA
ATOM      8  O   UNL     1     -58.179 120.386 -11.656  1.00  0.00    -0.545 OA
ENDBRANCH   5   6
ENDBRANCH   3   4
ENDBRANCH   2   3
ENDBRANCH   1   2
BRANCH   1   9
ATOM      9  C   UNL     1     -52.314 120.733 -11.217  1.00  0.00     0.000 C 
BRANCH   9  10
ATOM     10  C   UNL     1     -51.959 122.178 -11.610  1.00  0.00     0.000 C 
BRANCH  10  11
ATOM     11  C   UNL     1     -50.480 122.336 -12.000  1.00  0.00    -0.000 C 
BRANCH  11  12
ATOM     12  C   UNL     1     -49.545 121.468 -11.140  1.00  0.00    -0.000 C 
BRANCH  12  13
ATOM     13  C   UNL     1     -49.163 122.147  -9.816  1.00  0.00    -0.003 C 
ATOM     14  C   UNL     1     -48.927 123.650  -9.966  1.00  0.00     0.004 C 
ENDBRANCH  12  13
ENDBRANCH  11  12
ENDBRANCH  10  11
ENDBRANCH   9  10
ENDBRANCH   1   9
TORSDOF 9
ENDMDL
MODEL 2
REMARK VINA RESULT:    -3.408      1.013      1.250
REMARK INTER + INTRA:          -6.073
REMARK INTER:                  -5.077
REMARK INTRA:                  -0.997
REMARK UNBOUND:                -0.873
REMARK SMILES CCCCCCCCCC=CC(=O)[O-]
REMARK SMILES IDX 7 1 8 2 9 3 10 4 11 5 12 6 13 7 14 8 6 9 5 10 4 11 3 12 2 13
REMARK SMILES IDX 1 14
REMARK H PARENT
REMARK Flexibility Score: inf
ROOT
ATOM      1  C   UNL     1     -52.508 122.293  -9.447  1.00  0.00     0.000 C 
ENDROOT
BRANCH   1   2
ATOM      2  C   UNL     1     -54.003 122.634  -9.535  1.00  0.00     0.004 C 
BRANCH   2   3
ATOM      3  C   UNL     1     -54.424 122.881 -10.990  1.00  0.00     0.027 C 
BRANCH   3   4
ATOM      4  C   UNL     1     -55.385 121.829 -11.465  1.00  0.00    -0.025 C 
ATOM      5  C   UNL     1     -55.936 120.954 -10.619  1.00  0.00     0.020 C 
BRANCH   5   6
ATOM      6  C   UNL     1     -56.866 119.909 -11.071  1.00  0.00     0.064 C 
ATOM      7  O   UNL     1     -56.751 118.737 -10.626  1.00  0.00    -0.545 OA
ATOM      8  O   UNL     1     -57.876 120.196 -11.984  1.00  0.00    -0.545 OA
ENDBRANCH   5   6
ENDBRANCH   3   4
ENDBRANCH   2   3
ENDBRANCH   1   2
BRANCH   1   9
ATOM      9  C   UNL     1     -52.176 120.918 -10.050  1.00  0.00     0.000 C 
BRANCH   9  10
ATOM     10  C   UNL     1     -51.175 121.010 -11.215  1.00  0.00     0.000 C 
BRANCH  10  11
ATOM     11  C   UNL     1     -50.719 122.453 -11.489  1.00  0.00    -0.000 C 
BRANCH  11  12
ATOM     12  C   UNL     1     -49.215 122.657 -11.237  1.00  0.00    -0.000 C 
BRANCH  12  13
ATOM     13  C   UNL     1     -48.875 122.746  -9.741  1.00  0.00    -0.003 C 
ATOM     14  C   UNL     1     -49.182 124.120  -9.145  1.00  0.00     0.004 C 
ENDBRANCH  12  13
ENDBRANCH  11  12
ENDBRANCH  10  11
ENDBRANCH   9  10
ENDBRANCH   1   9
TORSDOF 9
ENDMDL
MODEL 3
REMARK VINA RESULT:    -3.080      3.443      5.630
REMARK INTER + INTRA:          -5.573
REMARK INTER:                  -4.474
REMARK INTRA:                  -1.098
REMARK UNBOUND:                -0.873
REMARK SMILES CCCCCCCCCC=CC(=O)[O-]
REMARK SMILES IDX 7 1 8 2 9 3 10 4 11 5 12 6 13 7 14 8 6 9 5 10 4 11 3 12 2 13
REMARK SMILES IDX 1 14
REMARK H PARENT
REMARK Flexibility Score: inf
ROOT
ATOM      1  C   UNL     1     -55.697 120.190 -12.037  1.00  0.00     0.000 C 
ENDROOT
BRANCH   1   2
ATOM      2  C   UNL     1     -54.324 120.874 -12.125  1.00  0.00     0.004 C 
BRANCH   2   3
ATOM      3  C   UNL     1     -53.203 119.909 -11.717  1.00  0.00     0.027 C 
BRANCH   3   4
ATOM      4  C   UNL     1     -51.852 120.472 -12.052  1.00  0.00    -0.025 C 
ATOM      5  C   UNL     1     -51.395 121.584 -11.468  1.00  0.00     0.020 C 
BRANCH   5   6
ATOM      6  C   UNL     1     -50.079 122.155 -11.797  1.00  0.00     0.064 C 
ATOM      7  O   UNL     1     -49.990 123.369 -12.117  1.00  0.00    -0.545 OA
ATOM      8  O   UNL     1     -48.930 121.373 -11.756  1.00  0.00    -0.545 OA
ENDBRANCH   5   6
ENDBRANCH   3   4
ENDBRANCH   2   3
ENDBRANCH   1   2
BRANCH   1   9
ATOM      9  C   UNL     1     -56.146 119.944 -10.587  1.00  0.00     0.000 C 
BRANCH   9  10
ATOM     10  C   UNL     1     -56.625 121.230  -9.891  1.00  0.00     0.000 C 
BRANCH  10  11
ATOM     11  C   UNL     1     -55.954 121.446  -8.524  1.00  0.00    -0.000 C 
BRANCH  11  12
ATOM     12  C   UNL     1     -54.420 121.485  -8.618  1.00  0.00    -0.000 C 
BRANCH  12  13
ATOM     13  C   UNL     1     -53.892 122.858  -9.063  1.00  0.00    -0.003 C 
ATOM     14  C   UNL     1     -52.591 123.248  -8.362  1.00  0.00     0.004 C 
ENDBRANCH  12  13
ENDBRANCH  11  12
ENDBRANCH  10  11
ENDBRANCH   9  10
ENDBRANCH   1   9
TORSDOF 9
ENDMDL
MODEL 4
REMARK VINA RESULT:    -3.061      3.562      5.986
REMARK INTER + INTRA:          -5.544
REMARK INTER:                  -4.666
REMARK INTRA:                  -0.878
REMARK UNBOUND:                -0.873
REMARK SMILES CCCCCCCCCC=CC(=O)[O-]
REMARK SMILES IDX 7 1 8 2 9 3 10 4 11 5 12 6 13 7 14 8 6 9 5 10 4 11 3 12 2 13
REMARK SMILES IDX 1 14
REMARK H PARENT
REMARK Flexibility Score: inf
ROOT
ATOM      1  C   UNL     1     -54.606 121.205  -9.125  1.00  0.00     0.000 C 
ENDROOT
BRANCH   1   2
ATOM      2  C   UNL     1     -53.423 121.813  -8.356  1.00  0.00     0.004 C 
BRANCH   2   3
ATOM      3  C   UNL     1     -52.726 122.896  -9.190  1.00  0.00     0.027 C 
BRANCH   3   4
ATOM      4  C   UNL     1     -51.289 122.543  -9.449  1.00  0.00    -0.025 C 
ATOM      5  C   UNL     1     -50.937 121.751 -10.466  1.00  0.00     0.020 C 
BRANCH   5   6
ATOM      6  C   UNL     1     -49.536 121.386 -10.723  1.00  0.00     0.064 C 
ATOM      7  O   UNL     1     -48.924 120.651  -9.905  1.00  0.00    -0.545 OA
ATOM      8  O   UNL     1     -48.875 121.840 -11.860  1.00  0.00    -0.545 OA
ENDBRANCH   5   6
ENDBRANCH   3   4
ENDBRANCH   2   3
ENDBRANCH   1   2
BRANCH   1   9
ATOM      9  C   UNL     1     -54.208 119.968  -9.947  1.00  0.00     0.000 C 
BRANCH   9  10
ATOM     10  C   UNL     1     -54.219 120.237 -11.462  1.00  0.00     0.000 C 
BRANCH  10  11
ATOM     11  C   UNL     1     -54.661 121.670 -11.804  1.00  0.00    -0.000 C 
BRANCH  11  12
ATOM     12  C   UNL     1     -56.163 121.765 -12.123  1.00  0.00    -0.000 C 
BRANCH  12  13
ATOM     13  C   UNL     1     -56.854 120.392 -12.121  1.00  0.00    -0.003 C 
ATOM     14  C   UNL     1     -57.841 120.228 -10.965  1.00  0.00     0.004 C 
ENDBRANCH  12  13
ENDBRANCH  11  12
ENDBRANCH  10  11
ENDBRANCH   9  10
ENDBRANCH   1   9
TORSDOF 9
ENDMDL
MODEL 5
REMARK VINA RESULT:    -3.020      3.507      6.204
REMARK INTER + INTRA:          -5.481
REMARK INTER:                  -4.390
REMARK INTRA:                  -1.091
REMARK UNBOUND:                -0.873
REMARK SMILES CCCCCCCCCC=CC(=O)[O-]
REMARK SMILES IDX 7 1 8 2 9 3 10 4 11 5 12 6 13 7 14 8 6 9 5 10 4 11 3 12 2 13
REMARK SMILES IDX 1 14
REMARK H PARENT
REMARK Flexibility Score: inf
ROOT
ATOM      1  C   UNL     1     -54.542 122.050  -9.564  1.00  0.00     0.000 C 
ENDROOT
BRANCH   1   2
ATOM      2  C   UNL     1     -53.229 121.721  -8.837  1.00  0.00     0.004 C 
BRANCH   2   3
ATOM      3  C   UNL     1     -52.543 120.503  -9.468  1.00  0.00     0.027 C 
BRANCH   3   4
ATOM      4  C   UNL     1     -51.302 120.903 -10.213  1.00  0.00    -0.025 C 
ATOM      5  C   UNL     1     -50.748 122.108 -10.050  1.00  0.00     0.020 C 
BRANCH   5   6
ATOM      6  C   UNL     1     -49.541 122.518 -10.784  1.00  0.00     0.064 C 
ATOM      7  O   UNL     1     -48.929 123.564 -10.440  1.00  0.00    -0.545 OA
ATOM      8  O   UNL     1     -49.062 121.767 -11.852  1.00  0.00    -0.545 OA
ENDBRANCH   5   6
ENDBRANCH   3   4
ENDBRANCH   2   3
ENDBRANCH   1   2
BRANCH   1   9
ATOM      9  C   UNL     1     -54.330 122.938 -10.801  1.00  0.00     0.000 C 
BRANCH   9  10
ATOM     10  C   UNL     1     -54.546 122.175 -12.120  1.00  0.00     0.000 C 
BRANCH  10  11
ATOM     11  C   UNL     1     -55.247 120.822 -11.911  1.00  0.00    -0.000 C 
BRANCH  11  12
ATOM     12  C   UNL     1     -56.768 120.905 -12.125  1.00  0.00    -0.000 C 
BRANCH  12  13
ATOM     13  C   UNL     1     -57.561 120.237 -10.990  1.00  0.00    -0.003 C 
ATOM     14  C   UNL     1     -56.758 119.160 -10.261  1.00  0.00     0.004 C 
ENDBRANCH  12  13
ENDBRANCH  11  12
ENDBRANCH  10  11
ENDBRANCH   9  10
ENDBRANCH   1   9
TORSDOF 9
ENDMDL
MODEL 6
REMARK VINA RESULT:    -3.009      1.324      1.982
REMARK INTER + INTRA:          -5.465
REMARK INTER:                  -4.777
REMARK INTRA:                  -0.688
REMARK UNBOUND:                -0.873
REMARK SMILES CCCCCCCCCC=CC(=O)[O-]
REMARK SMILES IDX 7 1 8 2 9 3 10 4 11 5 12 6 13 7 14 8 6 9 5 10 4 11 3 12 2 13
REMARK SMILES IDX 1 14
REMARK H PARENT
REMARK Flexibility Score: inf
ROOT
ATOM      1  C   UNL     1     -53.370 121.524  -9.052  1.00  0.00     0.000 C 
ENDROOT
BRANCH   1   2
ATOM      2  C   UNL     1     -52.864 120.079  -9.184  1.00  0.00     0.004 C 
BRANCH   2   3
ATOM      3  C   UNL     1     -53.901 119.198  -9.890  1.00  0.00     0.027 C 
BRANCH   3   4
ATOM      4  C   UNL     1     -55.145 119.974 -10.214  1.00  0.00    -0.025 C 
ATOM      5  C   UNL     1     -55.317 120.552 -11.407  1.00  0.00     0.020 C 
BRANCH   5   6
ATOM      6  C   UNL     1     -56.523 121.327 -11.733  1.00  0.00     0.064 C 
ATOM      7  O   UNL     1     -56.410 122.518 -12.125  1.00  0.00    -0.545 OA
ATOM      8  O   UNL     1     -57.789 120.763 -11.618  1.00  0.00    -0.545 OA
ENDBRANCH   5   6
ENDBRANCH   3   4
ENDBRANCH   2   3
ENDBRANCH   1   2
BRANCH   1   9
ATOM      9  C   UNL     1     -52.473 122.537  -9.783  1.00  0.00     0.000 C 
BRANCH   9  10
ATOM     10  C   UNL     1     -52.612 122.451 -11.314  1.00  0.00     0.000 C 
BRANCH  10  11
ATOM     11  C   UNL     1     -51.276 122.144 -12.010  1.00  0.00    -0.000 C 
BRANCH  11  12
ATOM     12  C   UNL     1     -50.060 122.602 -11.186  1.00  0.00    -0.000 C 
BRANCH  12  13
ATOM     13  C   UNL     1     -48.988 121.508 -11.060  1.00  0.00    -0.003 C 
ATOM     14  C   UNL     1     -48.999 120.822  -9.694  1.00  0.00     0.004 C 
ENDBRANCH  12  13
ENDBRANCH  11  12
ENDBRANCH  10  11
ENDBRANCH   9  10
ENDBRANCH   1   9
TORSDOF 9
ENDMDL
MODEL 7
REMARK VINA RESULT:    -2.783      1.189      2.191
REMARK INTER + INTRA:          -5.120
REMARK INTER:                  -4.474
REMARK INTRA:                  -0.645
REMARK UNBOUND:                -0.873
REMARK SMILES CCCCCCCCCC=CC(=O)[O-]
REMARK SMILES IDX 7 1 8 2 9 3 10 4 11 5 12 6 13 7 14 8 6 9 5 10 4 11 3 12 2 13
REMARK SMILES IDX 1 14
REMARK H PARENT
REMARK Flexibility Score: inf
ROOT
ATOM      1  C   UNL     1     -52.994 122.793  -8.437  1.00  0.00     0.000 C 
ENDROOT
BRANCH   1   2
ATOM      2  C   UNL     1     -53.196 121.955  -9.709  1.00  0.00     0.004 C 
BRANCH   2   3
ATOM      3  C   UNL     1     -54.142 122.664 -10.687  1.00  0.00     0.027 C 
BRANCH   3   4
ATOM      4  C   UNL     1     -55.235 121.744 -11.150  1.00  0.00    -0.025 C 
ATOM      5  C   UNL     1     -55.837 120.896 -10.310  1.00  0.00     0.020 C 
BRANCH   5   6
ATOM      6  C   UNL     1     -56.899 119.980 -10.752  1.00  0.00     0.064 C 
ATOM      7  O   UNL     1     -56.707 118.737 -10.705  1.00  0.00    -0.545 OA
ATOM      8  O   UNL     1     -58.114 120.467 -11.220  1.00  0.00    -0.545 OA
ENDBRANCH   5   6
ENDBRANCH   3   4
ENDBRANCH   2   3
ENDBRANCH   1   2
BRANCH   1   9
ATOM      9  C   UNL     1     -51.613 123.466  -8.383  1.00  0.00     0.000 C 
BRANCH   9  10
ATOM     10  C   UNL     1     -50.820 123.295  -9.691  1.00  0.00     0.000 C 
BRANCH  10  11
ATOM     11  C   UNL     1     -49.488 122.555  -9.481  1.00  0.00    -0.000 C 
BRANCH  11  12
ATOM     12  C   UNL     1     -49.334 121.339 -10.410  1.00  0.00    -0.000 C 
BRANCH  12  13
ATOM     13  C   UNL     1     -49.866 121.608 -11.826  1.00  0.00    -0.003 C 
ATOM     14  C   UNL     1     -51.165 120.859 -12.123  1.00  0.00     0.004 C 
ENDBRANCH  12  13
ENDBRANCH  11  12
ENDBRANCH  10  11
ENDBRANCH   9  10
ENDBRANCH   1   9
TORSDOF 9
ENDMDL
MODEL 8
REMARK VINA RESULT:    -1.378      1.284      2.935
REMARK INTER + INTRA:          -2.975
REMARK INTER:                  -2.094
REMARK INTRA:                  -0.881
REMARK UNBOUND:                -0.873
REMARK SMILES CCCCCCCCCC=CC(=O)[O-]
REMARK SMILES IDX 7 1 8 2 9 3 10 4 11 5 12 6 13 7 14 8 6 9 5 10 4 11 3 12 2 13
REMARK SMILES IDX 1 14
REMARK H PARENT
REMARK Flexibility Score: inf
ROOT
ATOM      1  C   UNL     1     -51.278 122.218 -12.024  1.00  0.00     0.000 C 
ENDROOT
BRANCH   1   2
ATOM      2  C   UNL     1     -52.798 122.019 -12.125  1.00  0.00     0.004 C 
BRANCH   2   3
ATOM      3  C   UNL     1     -53.162 120.530 -12.054  1.00  0.00     0.027 C 
BRANCH   3   4
ATOM      4  C   UNL     1     -54.423 120.315 -11.268  1.00  0.00    -0.025 C 
ATOM      5  C   UNL     1     -55.559 119.933 -11.860  1.00  0.00     0.020 C 
BRANCH   5   6
ATOM      6  C   UNL     1     -56.805 119.732 -11.105  1.00  0.00     0.064 C 
ATOM      7  O   UNL     1     -56.904 118.758 -10.315  1.00  0.00    -0.545 OA
ATOM      8  O   UNL     1     -57.877 120.606 -11.250  1.00  0.00    -0.545 OA
ENDBRANCH   5   6
ENDBRANCH   3   4
ENDBRANCH   2   3
ENDBRANCH   1   2
BRANCH   1   9
ATOM      9  C   UNL     1     -50.596 121.150 -11.154  1.00  0.00     0.000 C 
BRANCH   9  10
ATOM     10  C   UNL     1     -50.185 121.688  -9.772  1.00  0.00     0.000 C 
BRANCH  10  11
ATOM     11  C   UNL     1     -50.661 123.131  -9.536  1.00  0.00    -0.000 C 
BRANCH  11  12
ATOM     12  C   UNL     1     -51.654 123.243  -8.366  1.00  0.00    -0.000 C 
BRANCH  12  13
ATOM     13  C   UNL     1     -53.093 122.898  -8.780  1.00  0.00    -0.003 C 
ATOM     14  C   UNL     1     -53.489 121.468  -8.413  1.00  0.00     0.004 C 
ENDBRANCH  12  13
ENDBRANCH  11  12
ENDBRANCH  10  11
ENDBRANCH   9  10
ENDBRANCH   1   9
TORSDOF 9
ENDMDL
