MODEL 1
REMARK VINA RESULT:    -7.176      0.000      0.000
REMARK INTER + INTRA:          -8.724
REMARK INTER:                  -8.434
REMARK INTRA:                  -0.290
REMARK UNBOUND:                -0.290
REMARK SMILES O=c1cc(-c2ccc(O)c(O)c2)oc2cc(O)cc(O)c12
REMARK SMILES IDX 4 1 3 2 2 3 1 4 21 5 19 6 18 7 16 8 15 9 14 10 13 11 5 12
REMARK SMILES IDX 6 13 7 14 8 15 12 16 10 17 9 18 11 20 20 22 17 24
REMARK H PARENT 9 19 11 21 20 23 17 25
REMARK Flexibility Score: inf
ROOT
ATOM      1  C   UNL     1       5.329   9.310 -24.006  1.00  0.00     0.138 A 
ATOM      2  C   UNL     1       5.283   9.083 -22.620  1.00  0.00     0.100 A 
ATOM      3  C   UNL     1       4.766   7.880 -22.138  1.00  0.00     0.197 A 
ATOM      4  O   UNL     1       4.728   7.686 -20.892  1.00  0.00    -0.289 OA
ATOM      5  C   UNL     1       4.294   6.912 -23.047  1.00  0.00     0.107 A 
ATOM      6  C   UNL     1       3.757   5.667 -22.642  1.00  0.00     0.134 A 
ATOM      7  C   UNL     1       3.302   4.759 -23.611  1.00  0.00     0.093 A 
ATOM      8  C   UNL     1       3.375   5.071 -24.971  1.00  0.00     0.123 A 
ATOM      9  C   UNL     1       3.906   6.300 -25.375  1.00  0.00     0.094 A 
ATOM     10  C   UNL     1       4.364   7.219 -24.427  1.00  0.00     0.146 A 
ATOM     11  O   UNL     1       4.866   8.380 -24.837  1.00  0.00    -0.456 OA
ENDROOT
BRANCH   1  12
ATOM     12  C   UNL     1       5.867  10.571 -24.575  1.00  0.00     0.021 A 
ATOM     13  C   UNL     1       6.393  10.571 -25.879  1.00  0.00     0.016 A 
ATOM     14  C   UNL     1       6.912  11.743 -26.436  1.00  0.00     0.051 A 
ATOM     15  C   UNL     1       6.924  12.932 -25.696  1.00  0.00     0.157 A 
ATOM     16  C   UNL     1       5.895  11.768 -23.831  1.00  0.00     0.062 A 
ATOM     17  C   UNL     1       6.419  12.943 -24.390  1.00  0.00     0.158 A 
BRANCH  15  18
ATOM     18  O   UNL     1       7.441  14.102 -26.248  1.00  0.00    -0.504 OA
ATOM     19  H   UNL     1       6.835  14.843 -26.583  1.00  0.00     0.293 HD
ENDBRANCH  15  18
BRANCH  17  20
ATOM     20  O   UNL     1       6.442  14.125 -23.652  1.00  0.00    -0.504 OA
ATOM     21  H   UNL     1       7.061  14.243 -22.858  1.00  0.00     0.293 HD
ENDBRANCH  17  20
ENDBRANCH   1  12
BRANCH   6  22
ATOM     22  O   UNL     1       3.670   5.327 -21.292  1.00  0.00    -0.507 OA
ATOM     23  H   UNL     1       3.488   6.021 -20.577  1.00  0.00     0.293 HD
ENDBRANCH   6  22
BRANCH   8  24
ATOM     24  O   UNL     1       2.916   4.153 -25.912  1.00  0.00    -0.508 OA
ATOM     25  H   UNL     1       2.338   3.364 -25.645  1.00  0.00     0.293 HD
ENDBRANCH   8  24
TORSDOF 5
ENDMDL
MODEL 2
REMARK VINA RESULT:    -7.085      6.164     11.646
REMARK INTER + INTRA:          -8.617
REMARK INTER:                  -8.342
REMARK INTRA:                  -0.275
REMARK UNBOUND:                -0.290
REMARK SMILES O=c1cc(-c2ccc(O)c(O)c2)oc2cc(O)cc(O)c12
REMARK SMILES IDX 4 1 3 2 2 3 1 4 21 5 19 6 18 7 16 8 15 9 14 10 13 11 5 12
REMARK SMILES IDX 6 13 7 14 8 15 12 16 10 17 9 18 11 20 20 22 17 24
REMARK H PARENT 9 19 11 21 20 23 17 25
REMARK Flexibility Score: inf
ROOT
ATOM      1  C   UNL     1       3.879  -0.650 -23.415  1.00  0.00     0.138 A 
ATOM      2  C   UNL     1       3.257  -0.192 -24.589  1.00  0.00     0.100 A 
ATOM      3  C   UNL     1       3.362   1.154 -24.941  1.00  0.00     0.197 A 
ATOM      4  O   UNL     1       2.800   1.556 -25.996  1.00  0.00    -0.289 OA
ATOM      5  C   UNL     1       4.088   2.035 -24.114  1.00  0.00     0.107 A 
ATOM      6  C   UNL     1       4.244   3.412 -24.399  1.00  0.00     0.134 A 
ATOM      7  C   UNL     1       4.978   4.225 -23.521  1.00  0.00     0.093 A 
ATOM      8  C   UNL     1       5.555   3.688 -22.367  1.00  0.00     0.123 A 
ATOM      9  C   UNL     1       5.403   2.327 -22.081  1.00  0.00     0.094 A 
ATOM     10  C   UNL     1       4.677   1.500 -22.943  1.00  0.00     0.146 A 
ATOM     11  O   UNL     1       4.548   0.210 -22.651  1.00  0.00    -0.456 OA
ENDROOT
BRANCH   1  12
ATOM     12  C   UNL     1       3.799  -2.070 -22.990  1.00  0.00     0.021 A 
ATOM     13  C   UNL     1       4.342  -3.070 -23.817  1.00  0.00     0.016 A 
ATOM     14  C   UNL     1       4.274  -4.415 -23.445  1.00  0.00     0.051 A 
ATOM     15  C   UNL     1       3.654  -4.784 -22.244  1.00  0.00     0.157 A 
ATOM     16  C   UNL     1       3.167  -2.451 -21.790  1.00  0.00     0.062 A 
ATOM     17  C   UNL     1       3.096  -3.801 -21.418  1.00  0.00     0.158 A 
BRANCH  15  18
ATOM     18  O   UNL     1       3.586  -6.125 -21.869  1.00  0.00    -0.504 OA
ATOM     19  H   UNL     1       3.601  -6.869 -22.556  1.00  0.00     0.293 HD
ENDBRANCH  15  18
BRANCH  17  20
ATOM     20  O   UNL     1       2.471  -4.174 -20.230  1.00  0.00    -0.504 OA
ATOM     21  H   UNL     1       2.168  -3.485 -19.550  1.00  0.00     0.293 HD
ENDBRANCH  17  20
ENDBRANCH   1  12
BRANCH   6  22
ATOM     22  O   UNL     1       3.680   3.978 -25.543  1.00  0.00    -0.507 OA
ATOM     23  H   UNL     1       2.917   4.643 -25.488  1.00  0.00     0.293 HD
ENDBRANCH   6  22
BRANCH   8  24
ATOM     24  O   UNL     1       6.277   4.516 -21.511  1.00  0.00    -0.508 OA
ATOM     25  H   UNL     1       5.935   5.431 -21.246  1.00  0.00     0.293 HD
ENDBRANCH   8  24
TORSDOF 5
ENDMDL
MODEL 3
REMARK VINA RESULT:    -7.084      6.201     11.382
REMARK INTER + INTRA:          -8.616
REMARK INTER:                  -8.331
REMARK INTRA:                  -0.285
REMARK UNBOUND:                -0.290
REMARK SMILES O=c1cc(-c2ccc(O)c(O)c2)oc2cc(O)cc(O)c12
REMARK SMILES IDX 4 1 3 2 2 3 1 4 21 5 19 6 18 7 16 8 15 9 14 10 13 11 5 12
REMARK SMILES IDX 6 13 7 14 8 15 12 16 10 17 9 18 11 20 20 22 17 24
REMARK H PARENT 9 19 11 21 20 23 17 25
REMARK Flexibility Score: inf
ROOT
ATOM      1  C   UNL     1       4.356  -0.517 -22.563  1.00  0.00     0.138 A 
ATOM      2  C   UNL     1       4.456   0.362 -21.472  1.00  0.00     0.100 A 
ATOM      3  C   UNL     1       4.654   1.724 -21.704  1.00  0.00     0.197 A 
ATOM      4  O   UNL     1       4.744   2.505 -20.719  1.00  0.00    -0.289 OA
ATOM      5  C   UNL     1       4.754   2.197 -23.028  1.00  0.00     0.107 A 
ATOM      6  C   UNL     1       4.953   3.560 -23.350  1.00  0.00     0.134 A 
ATOM      7  C   UNL     1       5.048   3.950 -24.695  1.00  0.00     0.093 A 
ATOM      8  C   UNL     1       4.948   3.005 -25.719  1.00  0.00     0.123 A 
ATOM      9  C   UNL     1       4.751   1.656 -25.406  1.00  0.00     0.094 A 
ATOM     10  C   UNL     1       4.653   1.247 -24.073  1.00  0.00     0.146 A 
ATOM     11  O   UNL     1       4.465  -0.040 -23.801  1.00  0.00    -0.456 OA
ENDROOT
BRANCH   1  12
ATOM     12  C   UNL     1       4.147  -1.975 -22.377  1.00  0.00     0.021 A 
ATOM     13  C   UNL     1       4.751  -2.880 -23.268  1.00  0.00     0.016 A 
ATOM     14  C   UNL     1       4.564  -4.256 -23.119  1.00  0.00     0.051 A 
ATOM     15  C   UNL     1       3.763  -4.752 -22.083  1.00  0.00     0.157 A 
ATOM     16  C   UNL     1       3.332  -2.481 -21.344  1.00  0.00     0.062 A 
ATOM     17  C   UNL     1       3.143  -3.863 -21.198  1.00  0.00     0.158 A 
BRANCH  15  18
ATOM     18  O   UNL     1       3.576  -6.125 -21.931  1.00  0.00    -0.504 OA
ATOM     19  H   UNL     1       2.880  -6.628 -22.469  1.00  0.00     0.293 HD
ENDBRANCH  15  18
BRANCH  17  20
ATOM     20  O   UNL     1       2.338  -4.360 -20.174  1.00  0.00    -0.504 OA
ATOM     21  H   UNL     1       1.392  -4.023 -20.031  1.00  0.00     0.293 HD
ENDBRANCH  17  20
ENDBRANCH   1  12
BRANCH   6  22
ATOM     22  O   UNL     1       5.057   4.527 -22.350  1.00  0.00    -0.507 OA
ATOM     23  H   UNL     1       5.216   4.277 -21.380  1.00  0.00     0.293 HD
ENDBRANCH   6  22
BRANCH   8  24
ATOM     24  O   UNL     1       5.047   3.418 -27.046  1.00  0.00    -0.508 OA
ATOM     25  H   UNL     1       5.876   3.232 -27.599  1.00  0.00     0.293 HD
ENDBRANCH   8  24
TORSDOF 5
ENDMDL
MODEL 4
REMARK VINA RESULT:    -7.055      5.567      8.500
REMARK INTER + INTRA:          -8.582
REMARK INTER:                  -8.313
REMARK INTRA:                  -0.269
REMARK UNBOUND:                -0.290
REMARK SMILES O=c1cc(-c2ccc(O)c(O)c2)oc2cc(O)cc(O)c12
REMARK SMILES IDX 4 1 3 2 2 3 1 4 21 5 19 6 18 7 16 8 15 9 14 10 13 11 5 12
REMARK SMILES IDX 6 13 7 14 8 15 12 16 10 17 9 18 11 20 20 22 17 24
REMARK H PARENT 9 19 11 21 20 23 17 25
REMARK Flexibility Score: inf
ROOT
ATOM      1  C   UNL     1       4.884   1.122 -22.727  1.00  0.00     0.138 A 
ATOM      2  C   UNL     1       4.672   0.310 -21.599  1.00  0.00     0.100 A 
ATOM      3  C   UNL     1       4.587  -1.074 -21.756  1.00  0.00     0.197 A 
ATOM      4  O   UNL     1       4.396  -1.794 -20.739  1.00  0.00    -0.289 OA
ATOM      5  C   UNL     1       4.713  -1.637 -23.041  1.00  0.00     0.107 A 
ATOM      6  C   UNL     1       4.641  -3.029 -23.287  1.00  0.00     0.134 A 
ATOM      7  C   UNL     1       4.770  -3.511 -24.599  1.00  0.00     0.093 A 
ATOM      8  C   UNL     1       4.968  -2.630 -25.665  1.00  0.00     0.123 A 
ATOM      9  C   UNL     1       5.040  -1.254 -25.428  1.00  0.00     0.094 A 
ATOM     10  C   UNL     1       4.915  -0.753 -24.129  1.00  0.00     0.146 A 
ATOM     11  O   UNL     1       4.988   0.559 -23.928  1.00  0.00    -0.456 OA
ENDROOT
BRANCH   1  12
ATOM     12  C   UNL     1       4.981   2.599 -22.620  1.00  0.00     0.021 A 
ATOM     13  C   UNL     1       6.115   3.175 -22.020  1.00  0.00     0.016 A 
ATOM     14  C   UNL     1       6.228   4.563 -21.900  1.00  0.00     0.051 A 
ATOM     15  C   UNL     1       5.206   5.398 -22.369  1.00  0.00     0.157 A 
ATOM     16  C   UNL     1       3.951   3.445 -23.078  1.00  0.00     0.062 A 
ATOM     17  C   UNL     1       4.064   4.837 -22.955  1.00  0.00     0.158 A 
BRANCH  15  18
ATOM     18  O   UNL     1       5.316   6.782 -22.253  1.00  0.00    -0.504 OA
ATOM     19  H   UNL     1       5.796   7.212 -21.471  1.00  0.00     0.293 HD
ENDBRANCH  15  18
BRANCH  17  20
ATOM     20  O   UNL     1       3.044   5.671 -23.410  1.00  0.00    -0.504 OA
ATOM     21  H   UNL     1       2.998   6.648 -23.143  1.00  0.00     0.293 HD
ENDBRANCH  17  20
ENDBRANCH   1  12
BRANCH   6  22
ATOM     22  O   UNL     1       4.443  -3.933 -22.244  1.00  0.00    -0.507 OA
ATOM     23  H   UNL     1       3.798  -4.710 -22.326  1.00  0.00     0.293 HD
ENDBRANCH   6  22
BRANCH   8  24
ATOM     24  O   UNL     1       5.093  -3.134 -26.958  1.00  0.00    -0.508 OA
ATOM     25  H   UNL     1       5.617  -3.979 -27.150  1.00  0.00     0.293 HD
ENDBRANCH   8  24
TORSDOF 5
ENDMDL
MODEL 5
REMARK VINA RESULT:    -6.992      5.609      8.884
REMARK INTER + INTRA:          -8.509
REMARK INTER:                  -8.245
REMARK INTRA:                  -0.264
REMARK UNBOUND:                -0.290
REMARK SMILES O=c1cc(-c2ccc(O)c(O)c2)oc2cc(O)cc(O)c12
REMARK SMILES IDX 4 1 3 2 2 3 1 4 21 5 19 6 18 7 16 8 15 9 14 10 13 11 5 12
REMARK SMILES IDX 6 13 7 14 8 15 12 16 10 17 9 18 11 20 20 22 17 24
REMARK H PARENT 9 19 11 21 20 23 17 25
REMARK Flexibility Score: inf
ROOT
ATOM      1  C   UNL     1       4.859   1.107 -23.444  1.00  0.00     0.138 A 
ATOM      2  C   UNL     1       5.246   0.707 -24.734  1.00  0.00     0.100 A 
ATOM      3  C   UNL     1       5.169  -0.641 -25.087  1.00  0.00     0.197 A 
ATOM      4  O   UNL     1       5.519  -0.992 -26.246  1.00  0.00    -0.289 OA
ATOM      5  C   UNL     1       4.708  -1.582 -24.143  1.00  0.00     0.107 A 
ATOM      6  C   UNL     1       4.598  -2.965 -24.419  1.00  0.00     0.134 A 
ATOM      7  C   UNL     1       4.136  -3.838 -23.422  1.00  0.00     0.093 A 
ATOM      8  C   UNL     1       3.782  -3.355 -22.160  1.00  0.00     0.123 A 
ATOM      9  C   UNL     1       3.889  -1.988 -21.882  1.00  0.00     0.094 A 
ATOM     10  C   UNL     1       4.347  -1.102 -22.861  1.00  0.00     0.146 A 
ATOM     11  O   UNL     1       4.438   0.193 -22.574  1.00  0.00    -0.456 OA
ENDROOT
BRANCH   1  12
ATOM     12  C   UNL     1       4.921   2.527 -23.014  1.00  0.00     0.021 A 
ATOM     13  C   UNL     1       5.990   2.958 -22.209  1.00  0.00     0.016 A 
ATOM     14  C   UNL     1       6.068   4.287 -21.784  1.00  0.00     0.051 A 
ATOM     15  C   UNL     1       5.075   5.205 -22.149  1.00  0.00     0.157 A 
ATOM     16  C   UNL     1       3.919   3.453 -23.366  1.00  0.00     0.062 A 
ATOM     17  C   UNL     1       3.997   4.785 -22.937  1.00  0.00     0.158 A 
BRANCH  15  18
ATOM     18  O   UNL     1       5.151   6.531 -21.728  1.00  0.00    -0.504 OA
ATOM     19  H   UNL     1       4.329   7.037 -21.420  1.00  0.00     0.293 HD
ENDBRANCH  15  18
BRANCH  17  20
ATOM     20  O   UNL     1       3.005   5.699 -23.289  1.00  0.00    -0.504 OA
ATOM     21  H   UNL     1       3.176   6.434 -23.966  1.00  0.00     0.293 HD
ENDBRANCH  17  20
ENDBRANCH   1  12
BRANCH   6  22
ATOM     22  O   UNL     1       4.944  -3.478 -25.670  1.00  0.00    -0.507 OA
ATOM     23  H   UNL     1       5.734  -4.101 -25.791  1.00  0.00     0.293 HD
ENDBRANCH   6  22
BRANCH   8  24
ATOM     24  O   UNL     1       3.326  -4.243 -21.188  1.00  0.00    -0.508 OA
ATOM     25  H   UNL     1       3.006  -5.173 -21.428  1.00  0.00     0.293 HD
ENDBRANCH   8  24
TORSDOF 5
ENDMDL
MODEL 6
REMARK VINA RESULT:    -6.933      1.978      2.790
REMARK INTER + INTRA:          -8.439
REMARK INTER:                  -8.152
REMARK INTRA:                  -0.286
REMARK UNBOUND:                -0.290
REMARK SMILES O=c1cc(-c2ccc(O)c(O)c2)oc2cc(O)cc(O)c12
REMARK SMILES IDX 4 1 3 2 2 3 1 4 21 5 19 6 18 7 16 8 15 9 14 10 13 11 5 12
REMARK SMILES IDX 6 13 7 14 8 15 12 16 10 17 9 18 11 20 20 22 17 24
REMARK H PARENT 9 19 11 21 20 23 17 25
REMARK Flexibility Score: inf
ROOT
ATOM      1  C   UNL     1       4.900   7.281 -23.085  1.00  0.00     0.138 A 
ATOM      2  C   UNL     1       5.701   6.530 -22.208  1.00  0.00     0.100 A 
ATOM      3  C   UNL     1       5.519   5.149 -22.125  1.00  0.00     0.197 A 
ATOM      4  O   UNL     1       6.242   4.483 -21.335  1.00  0.00    -0.289 OA
ATOM      5  C   UNL     1       4.534   4.528 -22.918  1.00  0.00     0.107 A 
ATOM      6  C   UNL     1       4.286   3.135 -22.895  1.00  0.00     0.134 A 
ATOM      7  C   UNL     1       3.281   2.594 -23.712  1.00  0.00     0.093 A 
ATOM      8  C   UNL     1       2.522   3.418 -24.548  1.00  0.00     0.123 A 
ATOM      9  C   UNL     1       2.763   4.795 -24.574  1.00  0.00     0.094 A 
ATOM     10  C   UNL     1       3.760   5.353 -23.769  1.00  0.00     0.146 A 
ATOM     11  O   UNL     1       3.971   6.665 -23.812  1.00  0.00    -0.456 OA
ENDROOT
BRANCH   1  12
ATOM     12  C   UNL     1       5.048   8.752 -23.214  1.00  0.00     0.021 A 
ATOM     13  C   UNL     1       6.323   9.300 -23.445  1.00  0.00     0.016 A 
ATOM     14  C   UNL     1       6.491  10.682 -23.563  1.00  0.00     0.051 A 
ATOM     15  C   UNL     1       5.392  11.541 -23.442  1.00  0.00     0.157 A 
ATOM     16  C   UNL     1       3.949   9.623 -23.080  1.00  0.00     0.062 A 
ATOM     17  C   UNL     1       4.119  11.010 -23.196  1.00  0.00     0.158 A 
BRANCH  15  18
ATOM     18  O   UNL     1       5.556  12.920 -23.561  1.00  0.00    -0.504 OA
ATOM     19  H   UNL     1       5.830  13.491 -22.770  1.00  0.00     0.293 HD
ENDBRANCH  15  18
BRANCH  17  20
ATOM     20  O   UNL     1       3.029  11.868 -23.066  1.00  0.00    -0.504 OA
ATOM     21  H   UNL     1       2.933  12.696 -23.643  1.00  0.00     0.293 HD
ENDBRANCH  17  20
ENDBRANCH   1  12
BRANCH   6  22
ATOM     22  O   UNL     1       5.027   2.287 -22.072  1.00  0.00    -0.507 OA
ATOM     23  H   UNL     1       6.040   2.311 -22.054  1.00  0.00     0.293 HD
ENDBRANCH   6  22
BRANCH   8  24
ATOM     24  O   UNL     1       1.530   2.856 -25.348  1.00  0.00    -0.508 OA
ATOM     25  H   UNL     1       1.678   2.689 -26.337  1.00  0.00     0.293 HD
ENDBRANCH   8  24
TORSDOF 5
ENDMDL
MODEL 7
REMARK VINA RESULT:    -6.873      1.556      2.691
REMARK INTER + INTRA:          -8.369
REMARK INTER:                  -8.051
REMARK INTRA:                  -0.318
REMARK UNBOUND:                -0.290
REMARK SMILES O=c1cc(-c2ccc(O)c(O)c2)oc2cc(O)cc(O)c12
REMARK SMILES IDX 4 1 3 2 2 3 1 4 21 5 19 6 18 7 16 8 15 9 14 10 13 11 5 12
REMARK SMILES IDX 6 13 7 14 8 15 12 16 10 17 9 18 11 20 20 22 17 24
REMARK H PARENT 9 19 11 21 20 23 17 25
REMARK Flexibility Score: inf
ROOT
ATOM      1  C   UNL     1       4.825   8.774 -24.177  1.00  0.00     0.138 A 
ATOM      2  C   UNL     1       3.742   8.446 -25.009  1.00  0.00     0.100 A 
ATOM      3  C   UNL     1       3.147   7.189 -24.898  1.00  0.00     0.197 A 
ATOM      4  O   UNL     1       2.176   6.903 -25.649  1.00  0.00    -0.289 OA
ATOM      5  C   UNL     1       3.643   6.265 -23.956  1.00  0.00     0.107 A 
ATOM      6  C   UNL     1       3.098   4.972 -23.779  1.00  0.00     0.134 A 
ATOM      7  C   UNL     1       3.655   4.108 -22.822  1.00  0.00     0.093 A 
ATOM      8  C   UNL     1       4.741   4.513 -22.043  1.00  0.00     0.123 A 
ATOM      9  C   UNL     1       5.284   5.790 -22.215  1.00  0.00     0.094 A 
ATOM     10  C   UNL     1       4.744   6.666 -23.161  1.00  0.00     0.146 A 
ATOM     11  O   UNL     1       5.276   7.876 -23.305  1.00  0.00    -0.456 OA
ENDROOT
BRANCH   1  12
ATOM     12  C   UNL     1       5.497  10.096 -24.252  1.00  0.00     0.021 A 
ATOM     13  C   UNL     1       4.973  11.090 -25.097  1.00  0.00     0.016 A 
ATOM     14  C   UNL     1       5.590  12.340 -25.192  1.00  0.00     0.051 A 
ATOM     15  C   UNL     1       6.746  12.615 -24.451  1.00  0.00     0.157 A 
ATOM     16  C   UNL     1       6.668  10.375 -23.519  1.00  0.00     0.062 A 
ATOM     17  C   UNL     1       7.288  11.629 -23.617  1.00  0.00     0.158 A 
BRANCH  15  18
ATOM     18  O   UNL     1       7.364  13.861 -24.542  1.00  0.00    -0.504 OA
ATOM     19  H   UNL     1       7.299  14.425 -25.382  1.00  0.00     0.293 HD
ENDBRANCH  15  18
BRANCH  17  20
ATOM     20  O   UNL     1       8.445  11.903 -22.890  1.00  0.00    -0.504 OA
ATOM     21  H   UNL     1       8.491  12.675 -22.235  1.00  0.00     0.293 HD
ENDBRANCH  17  20
ENDBRANCH   1  12
BRANCH   6  22
ATOM     22  O   UNL     1       2.013   4.539 -24.541  1.00  0.00    -0.507 OA
ATOM     23  H   UNL     1       1.914   3.571 -24.828  1.00  0.00     0.293 HD
ENDBRANCH   6  22
BRANCH   8  24
ATOM     24  O   UNL     1       5.275   3.636 -21.101  1.00  0.00    -0.508 OA
ATOM     25  H   UNL     1       4.771   3.394 -20.257  1.00  0.00     0.293 HD
ENDBRANCH   8  24
TORSDOF 5
ENDMDL
MODEL 8
REMARK VINA RESULT:    -6.832      4.948      9.958
REMARK INTER + INTRA:          -8.320
REMARK INTER:                  -8.020
REMARK INTRA:                  -0.300
REMARK UNBOUND:                -0.290
REMARK SMILES O=c1cc(-c2ccc(O)c(O)c2)oc2cc(O)cc(O)c12
REMARK SMILES IDX 4 1 3 2 2 3 1 4 21 5 19 6 18 7 16 8 15 9 14 10 13 11 5 12
REMARK SMILES IDX 6 13 7 14 8 15 12 16 10 17 9 18 11 20 20 22 17 24
REMARK H PARENT 9 19 11 21 20 23 17 25
REMARK Flexibility Score: inf
ROOT
ATOM      1  C   UNL     1       4.863   1.181 -23.017  1.00  0.00     0.138 A 
ATOM      2  C   UNL     1       5.803   1.965 -22.328  1.00  0.00     0.100 A 
ATOM      3  C   UNL     1       5.663   3.353 -22.316  1.00  0.00     0.197 A 
ATOM      4  O   UNL     1       6.512   4.049 -21.696  1.00  0.00    -0.289 OA
ATOM      5  C   UNL     1       4.583   3.949 -22.997  1.00  0.00     0.107 A 
ATOM      6  C   UNL     1       4.366   5.347 -23.033  1.00  0.00     0.134 A 
ATOM      7  C   UNL     1       3.269   5.863 -23.741  1.00  0.00     0.093 A 
ATOM      8  C   UNL     1       2.387   5.009 -24.409  1.00  0.00     0.123 A 
ATOM      9  C   UNL     1       2.596   3.627 -24.376  1.00  0.00     0.094 A 
ATOM     10  C   UNL     1       3.683   3.093 -23.677  1.00  0.00     0.146 A 
ATOM     11  O   UNL     1       3.860   1.775 -23.659  1.00  0.00    -0.456 OA
ENDROOT
BRANCH   1  12
ATOM     12  C   UNL     1       4.963  -0.299 -23.065  1.00  0.00     0.021 A 
ATOM     13  C   UNL     1       5.410  -0.998 -21.929  1.00  0.00     0.016 A 
ATOM     14  C   UNL     1       5.520  -2.391 -21.950  1.00  0.00     0.051 A 
ATOM     15  C   UNL     1       5.195  -3.108 -23.107  1.00  0.00     0.157 A 
ATOM     16  C   UNL     1       4.649  -1.027 -24.230  1.00  0.00     0.062 A 
ATOM     17  C   UNL     1       4.763  -2.424 -24.250  1.00  0.00     0.158 A 
BRANCH  15  18
ATOM     18  O   UNL     1       5.303  -4.497 -23.131  1.00  0.00    -0.504 OA
ATOM     19  H   UNL     1       4.483  -5.092 -23.151  1.00  0.00     0.293 HD
ENDBRANCH  15  18
BRANCH  17  20
ATOM     20  O   UNL     1       4.450  -3.141 -25.404  1.00  0.00    -0.504 OA
ATOM     21  H   UNL     1       4.038  -4.066 -25.359  1.00  0.00     0.293 HD
ENDBRANCH  17  20
ENDBRANCH   1  12
BRANCH   6  22
ATOM     22  O   UNL     1       5.229   6.225 -22.377  1.00  0.00    -0.507 OA
ATOM     23  H   UNL     1       6.236   6.136 -22.448  1.00  0.00     0.293 HD
ENDBRANCH   6  22
BRANCH   8  24
ATOM     24  O   UNL     1       1.306   5.546 -25.104  1.00  0.00    -0.508 OA
ATOM     25  H   UNL     1       1.299   5.599 -26.115  1.00  0.00     0.293 HD
ENDBRANCH   8  24
TORSDOF 5
ENDMDL
MODEL 9
REMARK VINA RESULT:    -6.786      3.291      7.835
REMARK INTER + INTRA:          -8.267
REMARK INTER:                  -7.957
REMARK INTRA:                  -0.310
REMARK UNBOUND:                -0.290
REMARK SMILES O=c1cc(-c2ccc(O)c(O)c2)oc2cc(O)cc(O)c12
REMARK SMILES IDX 4 1 3 2 2 3 1 4 21 5 19 6 18 7 16 8 15 9 14 10 13 11 5 12
REMARK SMILES IDX 6 13 7 14 8 15 12 16 10 17 9 18 11 20 20 22 17 24
REMARK H PARENT 9 19 11 21 20 23 17 25
REMARK Flexibility Score: inf
ROOT
ATOM      1  C   UNL     1       4.638   4.422 -22.909  1.00  0.00     0.138 A 
ATOM      2  C   UNL     1       4.779   5.262 -21.791  1.00  0.00     0.100 A 
ATOM      3  C   UNL     1       4.518   6.626 -21.920  1.00  0.00     0.197 A 
ATOM      4  O   UNL     1       4.648   7.372 -20.912  1.00  0.00    -0.289 OA
ATOM      5  C   UNL     1       4.119   7.143 -23.169  1.00  0.00     0.107 A 
ATOM      6  C   UNL     1       3.833   8.512 -23.385  1.00  0.00     0.134 A 
ATOM      7  C   UNL     1       3.448   8.948 -24.663  1.00  0.00     0.093 A 
ATOM      8  C   UNL     1       3.343   8.045 -25.723  1.00  0.00     0.123 A 
ATOM      9  C   UNL     1       3.624   6.690 -25.514  1.00  0.00     0.094 A 
ATOM     10  C   UNL     1       4.009   6.235 -24.250  1.00  0.00     0.146 A 
ATOM     11  O   UNL     1       4.270   4.943 -24.076  1.00  0.00    -0.456 OA
ENDROOT
BRANCH   1  12
ATOM     12  C   UNL     1       4.904   2.963 -22.830  1.00  0.00     0.021 A 
ATOM     13  C   UNL     1       4.796   2.308 -21.591  1.00  0.00     0.016 A 
ATOM     14  C   UNL     1       5.048   0.937 -21.488  1.00  0.00     0.051 A 
ATOM     15  C   UNL     1       5.421   0.201 -22.619  1.00  0.00     0.157 A 
ATOM     16  C   UNL     1       5.293   2.218 -23.961  1.00  0.00     0.062 A 
ATOM     17  C   UNL     1       5.548   0.844 -23.856  1.00  0.00     0.158 A 
BRANCH  15  18
ATOM     18  O   UNL     1       5.673  -1.167 -22.520  1.00  0.00    -0.504 OA
ATOM     19  H   UNL     1       6.269  -1.545 -21.793  1.00  0.00     0.293 HD
ENDBRANCH  15  18
BRANCH  17  20
ATOM     20  O   UNL     1       5.930   0.110 -24.978  1.00  0.00    -0.504 OA
ATOM     21  H   UNL     1       6.094  -0.890 -24.928  1.00  0.00     0.293 HD
ENDBRANCH  17  20
ENDBRANCH   1  12
BRANCH   6  22
ATOM     22  O   UNL     1       3.929   9.438 -22.347  1.00  0.00    -0.507 OA
ATOM     23  H   UNL     1       3.555   9.246 -21.424  1.00  0.00     0.293 HD
ENDBRANCH   6  22
BRANCH   8  24
ATOM     24  O   UNL     1       2.959   8.503 -26.981  1.00  0.00    -0.508 OA
ATOM     25  H   UNL     1       3.522   9.169 -27.497  1.00  0.00     0.293 HD
ENDBRANCH   8  24
TORSDOF 5
ENDMDL
