MODEL 1
REMARK VINA RESULT:    -3.041      0.000      0.000
REMARK INTER + INTRA:          -7.084
REMARK INTER:                  -5.174
REMARK INTRA:                  -1.910
REMARK UNBOUND:                -1.910
REMARK SMILES CCCCCCCCCCCCCC(=O)[O-]
REMARK SMILES IDX 8 1 9 2 10 3 11 4 12 5 13 6 14 7 15 8 16 9 7 10 6 11 5 12
REMARK SMILES IDX 4 13 3 14 2 15 1 16
REMARK H PARENT
REMARK Flexibility Score: inf
ROOT
ATOM      1  C   UNL     1      57.435  28.287  52.547  1.00  0.00     0.000 C 
ENDROOT
BRANCH   1   2
ATOM      2  C   UNL     1      57.170  29.477  51.614  1.00  0.00     0.000 C 
BRANCH   2   3
ATOM      3  C   UNL     1      57.419  29.094  50.150  1.00  0.00     0.000 C 
BRANCH   3   4
ATOM      4  C   UNL     1      58.820  29.531  49.698  1.00  0.00     0.000 C 
BRANCH   4   5
ATOM      5  C   UNL     1      59.642  28.373  49.112  1.00  0.00     0.006 C 
BRANCH   5   6
ATOM      6  C   UNL     1      59.040  27.000  49.435  1.00  0.00     0.053 C 
BRANCH   6   7
ATOM      7  C   UNL     1      59.951  26.232  50.341  1.00  0.00     0.041 C 
ATOM      8  O   UNL     1      60.421  26.774  51.375  1.00  0.00    -0.550 OA
ATOM      9  O   UNL     1      60.320  24.932  50.018  1.00  0.00    -0.550 OA
ENDBRANCH   6   7
ENDBRANCH   5   6
ENDBRANCH   4   5
ENDBRANCH   3   4
ENDBRANCH   2   3
ENDBRANCH   1   2
BRANCH   1  10
ATOM     10  C   UNL     1      56.220  27.352  52.689  1.00  0.00     0.000 C 
BRANCH  10  11
ATOM     11  C   UNL     1      56.220  26.138  51.742  1.00  0.00    -0.000 C 
BRANCH  11  12
ATOM     12  C   UNL     1      54.858  25.903  51.067  1.00  0.00    -0.000 C 
BRANCH  12  13
ATOM     13  C   UNL     1      54.699  26.729  49.772  1.00  0.00    -0.000 C 
BRANCH  13  14
ATOM     14  C   UNL     1      53.451  27.633  49.766  1.00  0.00    -0.000 C 
BRANCH  14  15
ATOM     15  C   UNL     1      53.714  29.090  50.184  1.00  0.00    -0.003 C 
ATOM     16  C   UNL     1      53.350  29.361  51.644  1.00  0.00     0.004 C 
ENDBRANCH  14  15
ENDBRANCH  13  14
ENDBRANCH  12  13
ENDBRANCH  11  12
ENDBRANCH  10  11
ENDBRANCH   1  10
TORSDOF 12
ENDMDL
MODEL 2
REMARK VINA RESULT:    -3.017      2.790      5.237
REMARK INTER + INTRA:          -7.044
REMARK INTER:                  -5.056
REMARK INTRA:                  -1.988
REMARK UNBOUND:                -1.910
REMARK SMILES CCCCCCCCCCCCCC(=O)[O-]
REMARK SMILES IDX 8 1 9 2 10 3 11 4 12 5 13 6 14 7 15 8 16 9 7 10 6 11 5 12
REMARK SMILES IDX 4 13 3 14 2 15 1 16
REMARK H PARENT
REMARK Flexibility Score: inf
ROOT
ATOM      1  C   UNL     1      59.543  28.313  49.018  1.00  0.00     0.000 C 
ENDROOT
BRANCH   1   2
ATOM      2  C   UNL     1      58.968  29.659  49.481  1.00  0.00     0.000 C 
BRANCH   2   3
ATOM      3  C   UNL     1      57.872  29.456  50.534  1.00  0.00     0.000 C 
BRANCH   3   4
ATOM      4  C   UNL     1      56.976  28.263  50.174  1.00  0.00     0.000 C 
BRANCH   4   5
ATOM      5  C   UNL     1      55.631  28.286  50.916  1.00  0.00     0.006 C 
BRANCH   5   6
ATOM      6  C   UNL     1      54.952  26.910  50.950  1.00  0.00     0.053 C 
BRANCH   6   7
ATOM      7  C   UNL     1      54.087  26.727  49.743  1.00  0.00     0.041 C 
ATOM      8  O   UNL     1      54.269  25.746  48.976  1.00  0.00    -0.550 OA
ATOM      9  O   UNL     1      53.109  27.665  49.439  1.00  0.00    -0.550 OA
ENDBRANCH   6   7
ENDBRANCH   5   6
ENDBRANCH   4   5
ENDBRANCH   3   4
ENDBRANCH   2   3
ENDBRANCH   1   2
BRANCH   1  10
ATOM     10  C   UNL     1      60.834  27.924  49.761  1.00  0.00     0.000 C 
BRANCH  10  11
ATOM     11  C   UNL     1      60.924  26.443  50.176  1.00  0.00    -0.000 C 
BRANCH  11  12
ATOM     12  C   UNL     1      59.665  25.640  49.806  1.00  0.00    -0.000 C 
BRANCH  12  13
ATOM     13  C   UNL     1      58.802  25.306  51.042  1.00  0.00    -0.000 C 
BRANCH  13  14
ATOM     14  C   UNL     1      59.461  25.694  52.379  1.00  0.00    -0.000 C 
BRANCH  14  15
ATOM     15  C   UNL     1      58.751  26.827  53.138  1.00  0.00    -0.003 C 
ATOM     16  C   UNL     1      59.657  28.034  53.383  1.00  0.00     0.004 C 
ENDBRANCH  14  15
ENDBRANCH  13  14
ENDBRANCH  12  13
ENDBRANCH  11  12
ENDBRANCH  10  11
ENDBRANCH   1  10
TORSDOF 12
ENDMDL
MODEL 3
REMARK VINA RESULT:    -2.987      1.231      2.473
REMARK INTER + INTRA:          -6.993
REMARK INTER:                  -5.505
REMARK INTRA:                  -1.487
REMARK UNBOUND:                -1.910
REMARK SMILES CCCCCCCCCCCCCC(=O)[O-]
REMARK SMILES IDX 8 1 9 2 10 3 11 4 12 5 13 6 14 7 15 8 16 9 7 10 6 11 5 12
REMARK SMILES IDX 4 13 3 14 2 15 1 16
REMARK H PARENT
REMARK Flexibility Score: inf
ROOT
ATOM      1  C   UNL     1      57.267  29.323  52.611  1.00  0.00     0.000 C 
ENDROOT
BRANCH   1   2
ATOM      2  C   UNL     1      58.177  29.868  51.502  1.00  0.00     0.000 C 
BRANCH   2   3
ATOM      3  C   UNL     1      57.768  29.314  50.132  1.00  0.00     0.000 C 
BRANCH   3   4
ATOM      4  C   UNL     1      58.986  29.181  49.206  1.00  0.00     0.000 C 
BRANCH   4   5
ATOM      5  C   UNL     1      59.748  27.863  49.416  1.00  0.00     0.006 C 
BRANCH   5   6
ATOM      6  C   UNL     1      58.815  26.649  49.502  1.00  0.00     0.053 C 
BRANCH   6   7
ATOM      7  C   UNL     1      59.169  25.802  50.683  1.00  0.00     0.041 C 
ATOM      8  O   UNL     1      59.481  24.593  50.525  1.00  0.00    -0.550 OA
ATOM      9  O   UNL     1      59.109  26.334  51.964  1.00  0.00    -0.550 OA
ENDBRANCH   6   7
ENDBRANCH   5   6
ENDBRANCH   4   5
ENDBRANCH   3   4
ENDBRANCH   2   3
ENDBRANCH   1   2
BRANCH   1  10
ATOM     10  C   UNL     1      56.154  30.308  53.012  1.00  0.00     0.000 C 
BRANCH  10  11
ATOM     11  C   UNL     1      54.720  29.770  52.850  1.00  0.00    -0.000 C 
BRANCH  11  12
ATOM     12  C   UNL     1      54.022  30.294  51.584  1.00  0.00    -0.000 C 
BRANCH  12  13
ATOM     13  C   UNL     1      54.198  29.340  50.382  1.00  0.00    -0.000 C 
BRANCH  13  14
ATOM     14  C   UNL     1      54.129  27.849  50.763  1.00  0.00    -0.000 C 
BRANCH  14  15
ATOM     15  C   UNL     1      54.916  26.914  49.830  1.00  0.00    -0.003 C 
ATOM     16  C   UNL     1      54.046  25.811  49.225  1.00  0.00     0.004 C 
ENDBRANCH  14  15
ENDBRANCH  13  14
ENDBRANCH  12  13
ENDBRANCH  11  12
ENDBRANCH  10  11
ENDBRANCH   1  10
TORSDOF 12
ENDMDL
MODEL 4
REMARK VINA RESULT:    -2.972     11.708     13.325
REMARK INTER + INTRA:          -6.967
REMARK INTER:                  -5.513
REMARK INTRA:                  -1.453
REMARK UNBOUND:                -1.910
REMARK SMILES CCCCCCCCCCCCCC(=O)[O-]
REMARK SMILES IDX 8 1 9 2 10 3 11 4 12 5 13 6 14 7 15 8 16 9 7 10 6 11 5 12
REMARK SMILES IDX 4 13 3 14 2 15 1 16
REMARK H PARENT
REMARK Flexibility Score: inf
ROOT
ATOM      1  C   UNL     1      61.475  32.683  60.726  1.00  0.00     0.000 C 
ENDROOT
BRANCH   1   2
ATOM      2  C   UNL     1      60.979  33.163  59.355  1.00  0.00     0.000 C 
BRANCH   2   3
ATOM      3  C   UNL     1      61.055  34.691  59.247  1.00  0.00     0.000 C 
BRANCH   3   4
ATOM      4  C   UNL     1      61.140  35.338  60.636  1.00  0.00     0.000 C 
BRANCH   4   5
ATOM      5  C   UNL     1      61.839  36.706  60.611  1.00  0.00     0.006 C 
BRANCH   5   6
ATOM      6  C   UNL     1      63.141  36.718  61.422  1.00  0.00     0.053 C 
BRANCH   6   7
ATOM      7  C   UNL     1      64.096  35.696  60.889  1.00  0.00     0.041 C 
ATOM      8  O   UNL     1      64.578  35.822  59.733  1.00  0.00    -0.550 OA
ATOM      9  O   UNL     1      64.416  34.580  61.650  1.00  0.00    -0.550 OA
ENDBRANCH   6   7
ENDBRANCH   5   6
ENDBRANCH   4   5
ENDBRANCH   3   4
ENDBRANCH   2   3
ENDBRANCH   1   2
BRANCH   1  10
ATOM     10  C   UNL     1      60.686  31.474  61.261  1.00  0.00     0.000 C 
BRANCH  10  11
ATOM     11  C   UNL     1      61.527  30.438  62.030  1.00  0.00    -0.000 C 
BRANCH  11  12
ATOM     12  C   UNL     1      61.739  29.134  61.243  1.00  0.00    -0.000 C 
BRANCH  12  13
ATOM     13  C   UNL     1      63.103  29.103  60.520  1.00  0.00    -0.000 C 
BRANCH  13  14
ATOM     14  C   UNL     1      64.182  29.965  61.202  1.00  0.00    -0.000 C 
BRANCH  14  15
ATOM     15  C   UNL     1      64.856  30.995  60.279  1.00  0.00    -0.003 C 
ATOM     16  C   UNL     1      64.236  31.034  58.883  1.00  0.00     0.004 C 
ENDBRANCH  14  15
ENDBRANCH  13  14
ENDBRANCH  12  13
ENDBRANCH  11  12
ENDBRANCH  10  11
ENDBRANCH   1  10
TORSDOF 12
ENDMDL
MODEL 5
REMARK VINA RESULT:    -2.962     10.653     12.810
REMARK INTER + INTRA:          -6.950
REMARK INTER:                  -5.345
REMARK INTRA:                  -1.605
REMARK UNBOUND:                -1.910
REMARK SMILES CCCCCCCCCCCCCC(=O)[O-]
REMARK SMILES IDX 8 1 9 2 10 3 11 4 12 5 13 6 14 7 15 8 16 9 7 10 6 11 5 12
REMARK SMILES IDX 4 13 3 14 2 15 1 16
REMARK H PARENT
REMARK Flexibility Score: inf
ROOT
ATOM      1  C   UNL     1      61.935  33.262  58.554  1.00  0.00     0.000 C 
ENDROOT
BRANCH   1   2
ATOM      2  C   UNL     1      61.681  31.750  58.621  1.00  0.00     0.000 C 
BRANCH   2   3
ATOM      3  C   UNL     1      60.522  31.428  59.572  1.00  0.00     0.000 C 
BRANCH   3   4
ATOM      4  C   UNL     1      60.884  31.784  61.021  1.00  0.00     0.000 C 
BRANCH   4   5
ATOM      5  C   UNL     1      61.470  30.594  61.796  1.00  0.00     0.006 C 
BRANCH   5   6
ATOM      6  C   UNL     1      62.998  30.514  61.686  1.00  0.00     0.053 C 
BRANCH   6   7
ATOM      7  C   UNL     1      63.407  29.234  61.028  1.00  0.00     0.041 C 
ATOM      8  O   UNL     1      62.535  28.445  60.580  1.00  0.00    -0.550 OA
ATOM      9  O   UNL     1      64.751  28.889  60.952  1.00  0.00    -0.550 OA
ENDBRANCH   6   7
ENDBRANCH   5   6
ENDBRANCH   4   5
ENDBRANCH   3   4
ENDBRANCH   2   3
ENDBRANCH   1   2
BRANCH   1  10
ATOM     10  C   UNL     1      63.431  33.618  58.480  1.00  0.00     0.000 C 
BRANCH  10  11
ATOM     11  C   UNL     1      64.186  33.533  59.820  1.00  0.00    -0.000 C 
BRANCH  11  12
ATOM     12  C   UNL     1      63.401  34.151  60.989  1.00  0.00    -0.000 C 
BRANCH  12  13
ATOM     13  C   UNL     1      63.663  35.667  61.131  1.00  0.00    -0.000 C 
BRANCH  13  14
ATOM     14  C   UNL     1      62.381  36.520  61.104  1.00  0.00    -0.000 C 
BRANCH  14  15
ATOM     15  C   UNL     1      61.102  35.742  60.753  1.00  0.00    -0.003 C 
ATOM     16  C   UNL     1      60.186  36.508  59.798  1.00  0.00     0.004 C 
ENDBRANCH  14  15
ENDBRANCH  13  14
ENDBRANCH  12  13
ENDBRANCH  11  12
ENDBRANCH  10  11
ENDBRANCH   1  10
TORSDOF 12
ENDMDL
MODEL 6
REMARK VINA RESULT:    -2.959      1.473      2.969
REMARK INTER + INTRA:          -6.946
REMARK INTER:                  -5.147
REMARK INTRA:                  -1.799
REMARK UNBOUND:                -1.910
REMARK SMILES CCCCCCCCCCCCCC(=O)[O-]
REMARK SMILES IDX 8 1 9 2 10 3 11 4 12 5 13 6 14 7 15 8 16 9 7 10 6 11 5 12
REMARK SMILES IDX 4 13 3 14 2 15 1 16
REMARK H PARENT
REMARK Flexibility Score: inf
ROOT
ATOM      1  C   UNL     1      55.345  27.042  50.058  1.00  0.00     0.000 C 
ENDROOT
BRANCH   1   2
ATOM      2  C   UNL     1      56.307  27.765  51.011  1.00  0.00     0.000 C 
BRANCH   2   3
ATOM      3  C   UNL     1      56.678  29.152  50.471  1.00  0.00     0.000 C 
BRANCH   3   4
ATOM      4  C   UNL     1      57.774  29.800  51.328  1.00  0.00     0.000 C 
BRANCH   4   5
ATOM      5  C   UNL     1      59.117  29.911  50.588  1.00  0.00     0.006 C 
BRANCH   5   6
ATOM      6  C   UNL     1      59.097  29.211  49.223  1.00  0.00     0.053 C 
BRANCH   6   7
ATOM      7  C   UNL     1      59.880  27.938  49.279  1.00  0.00     0.041 C 
ATOM      8  O   UNL     1      61.139  27.966  49.261  1.00  0.00    -0.550 OA
ATOM      9  O   UNL     1      59.220  26.716  49.302  1.00  0.00    -0.550 OA
ENDBRANCH   6   7
ENDBRANCH   5   6
ENDBRANCH   4   5
ENDBRANCH   3   4
ENDBRANCH   2   3
ENDBRANCH   1   2
BRANCH   1  10
ATOM     10  C   UNL     1      53.882  27.082  50.538  1.00  0.00     0.000 C 
BRANCH  10  11
ATOM     11  C   UNL     1      52.948  27.972  49.698  1.00  0.00    -0.000 C 
BRANCH  11  12
ATOM     12  C   UNL     1      53.001  29.454  50.110  1.00  0.00    -0.000 C 
BRANCH  12  13
ATOM     13  C   UNL     1      52.924  29.637  51.641  1.00  0.00    -0.000 C 
BRANCH  13  14
ATOM     14  C   UNL     1      53.879  30.718  52.182  1.00  0.00    -0.000 C 
BRANCH  14  15
ATOM     15  C   UNL     1      54.663  30.308  53.440  1.00  0.00    -0.003 C 
ATOM     16  C   UNL     1      54.332  28.891  53.909  1.00  0.00     0.004 C 
ENDBRANCH  14  15
ENDBRANCH  13  14
ENDBRANCH  12  13
ENDBRANCH  11  12
ENDBRANCH  10  11
ENDBRANCH   1  10
TORSDOF 12
ENDMDL
MODEL 7
REMARK VINA RESULT:    -2.883     10.595     12.814
REMARK INTER + INTRA:          -6.816
REMARK INTER:                  -5.062
REMARK INTRA:                  -1.754
REMARK UNBOUND:                -1.910
REMARK SMILES CCCCCCCCCCCCCC(=O)[O-]
REMARK SMILES IDX 8 1 9 2 10 3 11 4 12 5 13 6 14 7 15 8 16 9 7 10 6 11 5 12
REMARK SMILES IDX 4 13 3 14 2 15 1 16
REMARK H PARENT
REMARK Flexibility Score: inf
ROOT
ATOM      1  C   UNL     1      62.066  32.965  58.270  1.00  0.00     0.000 C 
ENDROOT
BRANCH   1   2
ATOM      2  C   UNL     1      63.201  32.391  59.129  1.00  0.00     0.000 C 
BRANCH   2   3
ATOM      3  C   UNL     1      62.795  32.326  60.606  1.00  0.00     0.000 C 
BRANCH   3   4
ATOM      4  C   UNL     1      63.427  31.110  61.298  1.00  0.00     0.000 C 
BRANCH   4   5
ATOM      5  C   UNL     1      62.390  30.044  61.688  1.00  0.00     0.006 C 
BRANCH   5   6
ATOM      6  C   UNL     1      60.950  30.565  61.607  1.00  0.00     0.053 C 
BRANCH   6   7
ATOM      7  C   UNL     1      60.161  29.765  60.618  1.00  0.00     0.041 C 
ATOM      8  O   UNL     1      59.211  29.036  61.007  1.00  0.00    -0.550 OA
ATOM      9  O   UNL     1      60.506  29.786  59.273  1.00  0.00    -0.550 OA
ENDBRANCH   6   7
ENDBRANCH   5   6
ENDBRANCH   4   5
ENDBRANCH   3   4
ENDBRANCH   2   3
ENDBRANCH   1   2
BRANCH   1  10
ATOM     10  C   UNL     1      60.847  33.404  59.101  1.00  0.00     0.000 C 
BRANCH  10  11
ATOM     11  C   UNL     1      60.134  34.670  58.591  1.00  0.00    -0.000 C 
BRANCH  11  12
ATOM     12  C   UNL     1      60.460  35.920  59.427  1.00  0.00    -0.000 C 
BRANCH  12  13
ATOM     13  C   UNL     1      61.181  35.568  60.746  1.00  0.00    -0.000 C 
BRANCH  13  14
ATOM     14  C   UNL     1      62.390  36.473  61.049  1.00  0.00    -0.000 C 
BRANCH  14  15
ATOM     15  C   UNL     1      63.746  35.901  60.603  1.00  0.00    -0.003 C 
ATOM     16  C   UNL     1      64.593  35.404  61.774  1.00  0.00     0.004 C 
ENDBRANCH  14  15
ENDBRANCH  13  14
ENDBRANCH  12  13
ENDBRANCH  11  12
ENDBRANCH  10  11
ENDBRANCH   1  10
TORSDOF 12
ENDMDL
MODEL 8
REMARK VINA RESULT:    -2.880      1.484      2.521
REMARK INTER + INTRA:          -6.811
REMARK INTER:                  -5.846
REMARK INTRA:                  -0.964
REMARK UNBOUND:                -1.910
REMARK SMILES CCCCCCCCCCCCCC(=O)[O-]
REMARK SMILES IDX 8 1 9 2 10 3 11 4 12 5 13 6 14 7 15 8 16 9 7 10 6 11 5 12
REMARK SMILES IDX 4 13 3 14 2 15 1 16
REMARK H PARENT
REMARK Flexibility Score: inf
ROOT
ATOM      1  C   UNL     1      57.804  29.330  50.737  1.00  0.00     0.000 C 
ENDROOT
BRANCH   1   2
ATOM      2  C   UNL     1      58.510  29.602  49.402  1.00  0.00     0.000 C 
BRANCH   2   3
ATOM      3  C   UNL     1      59.469  28.460  49.043  1.00  0.00     0.000 C 
BRANCH   3   4
ATOM      4  C   UNL     1      60.624  28.375  50.051  1.00  0.00     0.000 C 
BRANCH   4   5
ATOM      5  C   UNL     1      60.926  26.932  50.486  1.00  0.00     0.006 C 
BRANCH   5   6
ATOM      6  C   UNL     1      60.004  25.908  49.811  1.00  0.00     0.053 C 
BRANCH   6   7
ATOM      7  C   UNL     1      60.107  24.583  50.498  1.00  0.00     0.041 C 
ATOM      8  O   UNL     1      60.020  24.510  51.752  1.00  0.00    -0.550 OA
ATOM      9  O   UNL     1      60.346  23.432  49.758  1.00  0.00    -0.550 OA
ENDBRANCH   6   7
ENDBRANCH   5   6
ENDBRANCH   4   5
ENDBRANCH   3   4
ENDBRANCH   2   3
ENDBRANCH   1   2
BRANCH   1  10
ATOM     10  C   UNL     1      56.554  28.443  50.585  1.00  0.00     0.000 C 
BRANCH  10  11
ATOM     11  C   UNL     1      55.214  29.200  50.609  1.00  0.00    -0.000 C 
BRANCH  11  12
ATOM     12  C   UNL     1      54.058  28.392  49.994  1.00  0.00    -0.000 C 
BRANCH  12  13
ATOM     13  C   UNL     1      54.456  26.928  49.710  1.00  0.00    -0.000 C 
BRANCH  13  14
ATOM     14  C   UNL     1      53.260  25.957  49.683  1.00  0.00    -0.000 C 
BRANCH  14  15
ATOM     15  C   UNL     1      53.139  25.056  50.923  1.00  0.00    -0.003 C 
ATOM     16  C   UNL     1      54.108  25.450  52.038  1.00  0.00     0.004 C 
ENDBRANCH  14  15
ENDBRANCH  13  14
ENDBRANCH  12  13
ENDBRANCH  11  12
ENDBRANCH  10  11
ENDBRANCH   1  10
TORSDOF 12
ENDMDL
MODEL 9
REMARK VINA RESULT:    -2.872     10.471     12.796
REMARK INTER + INTRA:          -6.798
REMARK INTER:                  -4.908
REMARK INTRA:                  -1.890
REMARK UNBOUND:                -1.910
REMARK SMILES CCCCCCCCCCCCCC(=O)[O-]
REMARK SMILES IDX 8 1 9 2 10 3 11 4 12 5 13 6 14 7 15 8 16 9 7 10 6 11 5 12
REMARK SMILES IDX 4 13 3 14 2 15 1 16
REMARK H PARENT
REMARK Flexibility Score: inf
ROOT
ATOM      1  C   UNL     1      60.926  34.127  57.583  1.00  0.00     0.000 C 
ENDROOT
BRANCH   1   2
ATOM      2  C   UNL     1      59.629  33.481  58.089  1.00  0.00     0.000 C 
BRANCH   2   3
ATOM      3  C   UNL     1      59.917  32.158  58.809  1.00  0.00     0.000 C 
BRANCH   3   4
ATOM      4  C   UNL     1      61.288  32.194  59.498  1.00  0.00     0.000 C 
BRANCH   4   5
ATOM      5  C   UNL     1      61.183  32.378  61.020  1.00  0.00     0.006 C 
BRANCH   5   6
ATOM      6  C   UNL     1      60.752  31.094  61.741  1.00  0.00     0.053 C 
BRANCH   6   7
ATOM      7  C   UNL     1      61.734  29.996  61.481  1.00  0.00     0.041 C 
ATOM      8  O   UNL     1      61.349  28.905  60.984  1.00  0.00    -0.550 OA
ATOM      9  O   UNL     1      63.068  30.158  61.832  1.00  0.00    -0.550 OA
ENDBRANCH   6   7
ENDBRANCH   5   6
ENDBRANCH   4   5
ENDBRANCH   3   4
ENDBRANCH   2   3
ENDBRANCH   1   2
BRANCH   1  10
ATOM     10  C   UNL     1      61.148  35.545  58.141  1.00  0.00     0.000 C 
BRANCH  10  11
ATOM     11  C   UNL     1      60.179  35.961  59.262  1.00  0.00    -0.000 C 
BRANCH  11  12
ATOM     12  C   UNL     1      60.828  35.936  60.657  1.00  0.00    -0.000 C 
BRANCH  12  13
ATOM     13  C   UNL     1      62.284  36.449  60.632  1.00  0.00    -0.000 C 
BRANCH  13  14
ATOM     14  C   UNL     1      63.294  35.471  61.259  1.00  0.00    -0.000 C 
BRANCH  14  15
ATOM     15  C   UNL     1      64.077  34.621  60.243  1.00  0.00    -0.003 C 
ATOM     16  C   UNL     1      64.698  35.459  59.125  1.00  0.00     0.004 C 
ENDBRANCH  14  15
ENDBRANCH  13  14
ENDBRANCH  12  13
ENDBRANCH  11  12
ENDBRANCH  10  11
ENDBRANCH   1  10
TORSDOF 12
ENDMDL
