MODEL 1
REMARK VINA RESULT:    -4.090      0.000      0.000
REMARK INTER + INTRA:          -9.562
REMARK INTER:                  -7.437
REMARK INTRA:                  -2.125
REMARK UNBOUND:                -2.125
REMARK SMILES CCCCCCCCCCCCCC[C@@H](C)C(=O)[O-]
REMARK SMILES IDX 9 1 10 2 11 3 12 4 13 5 14 6 15 7 16 8 17 9 18 10 19 11 8 12
REMARK SMILES IDX 7 13 6 14 5 15 4 16 3 17 2 18 1 19
REMARK H PARENT
REMARK Flexibility Score: inf
ROOT
ATOM      1  C   UNL     1      74.562  79.561  77.074  1.00  0.00     0.000 C 
ENDROOT
BRANCH   1   2
ATOM      2  C   UNL     1      73.186  80.014  76.550  1.00  0.00     0.000 C 
BRANCH   2   3
ATOM      3  C   UNL     1      72.904  81.519  76.770  1.00  0.00     0.000 C 
BRANCH   3   4
ATOM      4  C   UNL     1      72.632  82.293  75.466  1.00  0.00     0.000 C 
BRANCH   4   5
ATOM      5  C   UNL     1      73.780  83.210  75.011  1.00  0.00     0.001 C 
BRANCH   5   6
ATOM      6  C   UNL     1      74.969  83.333  75.992  1.00  0.00     0.009 C 
BRANCH   6   7
ATOM      7  C   UNL     1      76.359  82.882  75.472  1.00  0.00     0.032 C 
ATOM      8  C   UNL     1      76.280  81.709  74.484  1.00  0.00     0.014 C 
BRANCH   7   9
ATOM      9  C   UNL     1      77.173  84.033  74.931  1.00  0.00     0.044 C 
ATOM     10  O   UNL     1      76.639  85.164  74.790  1.00  0.00    -0.550 OA
ATOM     11  O   UNL     1      78.516  83.874  74.607  1.00  0.00    -0.550 OA
ENDBRANCH   7   9
ENDBRANCH   6   7
ENDBRANCH   5   6
ENDBRANCH   4   5
ENDBRANCH   3   4
ENDBRANCH   2   3
ENDBRANCH   1   2
BRANCH   1  12
ATOM     12  C   UNL     1      74.757  79.794  78.584  1.00  0.00     0.000 C 
BRANCH  12  13
ATOM     13  C   UNL     1      75.688  80.984  78.880  1.00  0.00    -0.000 C 
BRANCH  13  14
ATOM     14  C   UNL     1      77.172  80.584  78.868  1.00  0.00    -0.000 C 
BRANCH  14  15
ATOM     15  C   UNL     1      78.102  81.771  78.559  1.00  0.00    -0.000 C 
BRANCH  15  16
ATOM     16  C   UNL     1      79.099  81.446  77.426  1.00  0.00    -0.000 C 
BRANCH  16  17
ATOM     17  C   UNL     1      79.737  80.051  77.549  1.00  0.00    -0.000 C 
BRANCH  17  18
ATOM     18  C   UNL     1      80.906  80.014  78.541  1.00  0.00    -0.003 C 
ATOM     19  C   UNL     1      80.771  78.840  79.507  1.00  0.00     0.004 C 
ENDBRANCH  17  18
ENDBRANCH  16  17
ENDBRANCH  15  16
ENDBRANCH  14  15
ENDBRANCH  13  14
ENDBRANCH  12  13
ENDBRANCH   1  12
TORSDOF 14
ENDMDL
MODEL 2
REMARK VINA RESULT:    -4.060      1.930      4.892
REMARK INTER + INTRA:          -9.509
REMARK INTER:                  -7.411
REMARK INTRA:                  -2.097
REMARK UNBOUND:                -2.125
REMARK SMILES CCCCCCCCCCCCCC[C@@H](C)C(=O)[O-]
REMARK SMILES IDX 9 1 10 2 11 3 12 4 13 5 14 6 15 7 16 8 17 9 18 10 19 11 8 12
REMARK SMILES IDX 7 13 6 14 5 15 4 16 3 17 2 18 1 19
REMARK H PARENT
REMARK Flexibility Score: inf
ROOT
ATOM      1  C   UNL     1      79.654  79.699  78.454  1.00  0.00     0.000 C 
ENDROOT
BRANCH   1   2
ATOM      2  C   UNL     1      80.710  80.821  78.468  1.00  0.00     0.000 C 
BRANCH   2   3
ATOM      3  C   UNL     1      81.456  80.985  77.123  1.00  0.00     0.000 C 
BRANCH   3   4
ATOM      4  C   UNL     1      81.117  82.294  76.385  1.00  0.00     0.000 C 
BRANCH   4   5
ATOM      5  C   UNL     1      80.150  82.134  75.200  1.00  0.00     0.001 C 
BRANCH   5   6
ATOM      6  C   UNL     1      79.152  83.295  74.986  1.00  0.00     0.009 C 
BRANCH   6   7
ATOM      7  C   UNL     1      77.749  82.924  74.439  1.00  0.00     0.032 C 
ATOM      8  C   UNL     1      77.418  81.432  74.592  1.00  0.00     0.014 C 
BRANCH   7   9
ATOM      9  C   UNL     1      76.662  83.813  74.993  1.00  0.00     0.044 C 
ATOM     10  O   UNL     1      75.692  83.302  75.613  1.00  0.00    -0.550 OA
ATOM     11  O   UNL     1      76.723  85.196  74.853  1.00  0.00    -0.550 OA
ENDBRANCH   7   9
ENDBRANCH   6   7
ENDBRANCH   5   6
ENDBRANCH   4   5
ENDBRANCH   3   4
ENDBRANCH   2   3
ENDBRANCH   1   2
BRANCH   1  12
ATOM     12  C   UNL     1      78.306  80.123  77.839  1.00  0.00     0.000 C 
BRANCH  12  13
ATOM     13  C   UNL     1      77.914  81.562  78.222  1.00  0.00    -0.000 C 
BRANCH  13  14
ATOM     14  C   UNL     1      76.421  81.690  78.567  1.00  0.00    -0.000 C 
BRANCH  14  15
ATOM     15  C   UNL     1      75.594  80.494  78.063  1.00  0.00    -0.000 C 
BRANCH  15  16
ATOM     16  C   UNL     1      74.797  79.820  79.200  1.00  0.00    -0.000 C 
BRANCH  16  17
ATOM     17  C   UNL     1      75.516  79.856  80.560  1.00  0.00    -0.000 C 
BRANCH  17  18
ATOM     18  C   UNL     1      76.271  78.558  80.872  1.00  0.00    -0.003 C 
ATOM     19  C   UNL     1      75.374  77.561  81.601  1.00  0.00     0.004 C 
ENDBRANCH  17  18
ENDBRANCH  16  17
ENDBRANCH  15  16
ENDBRANCH  14  15
ENDBRANCH  13  14
ENDBRANCH  12  13
ENDBRANCH   1  12
TORSDOF 14
ENDMDL
MODEL 3
REMARK VINA RESULT:    -4.046      2.053      3.756
REMARK INTER + INTRA:          -9.484
REMARK INTER:                  -6.964
REMARK INTRA:                  -2.520
REMARK UNBOUND:                -2.125
REMARK SMILES CCCCCCCCCCCCCC[C@@H](C)C(=O)[O-]
REMARK SMILES IDX 9 1 10 2 11 3 12 4 13 5 14 6 15 7 16 8 17 9 18 10 19 11 8 12
REMARK SMILES IDX 7 13 6 14 5 15 4 16 3 17 2 18 1 19
REMARK H PARENT
REMARK Flexibility Score: inf
ROOT
ATOM      1  C   UNL     1      77.832  78.957  77.353  1.00  0.00     0.000 C 
ENDROOT
BRANCH   1   2
ATOM      2  C   UNL     1      77.435  79.188  78.823  1.00  0.00     0.000 C 
BRANCH   2   3
ATOM      3  C   UNL     1      75.915  79.389  79.029  1.00  0.00     0.000 C 
BRANCH   3   4
ATOM      4  C   UNL     1      75.504  80.863  79.198  1.00  0.00     0.000 C 
BRANCH   4   5
ATOM      5  C   UNL     1      75.139  81.583  77.888  1.00  0.00     0.001 C 
BRANCH   5   6
ATOM      6  C   UNL     1      76.119  82.690  77.436  1.00  0.00     0.009 C 
BRANCH   6   7
ATOM      7  C   UNL     1      76.527  82.700  75.940  1.00  0.00     0.032 C 
ATOM      8  C   UNL     1      76.242  81.369  75.230  1.00  0.00     0.014 C 
BRANCH   7   9
ATOM      9  C   UNL     1      75.956  83.882  75.195  1.00  0.00     0.044 C 
ATOM     10  O   UNL     1      74.770  83.843  74.775  1.00  0.00    -0.550 OA
ATOM     11  O   UNL     1      76.711  85.032  74.983  1.00  0.00    -0.550 OA
ENDBRANCH   7   9
ENDBRANCH   6   7
ENDBRANCH   5   6
ENDBRANCH   4   5
ENDBRANCH   3   4
ENDBRANCH   2   3
ENDBRANCH   1   2
BRANCH   1  12
ATOM     12  C   UNL     1      79.098  79.722  76.924  1.00  0.00     0.000 C 
BRANCH  12  13
ATOM     13  C   UNL     1      79.318  81.003  77.749  1.00  0.00    -0.000 C 
BRANCH  13  14
ATOM     14  C   UNL     1      80.796  81.424  77.794  1.00  0.00    -0.000 C 
BRANCH  14  15
ATOM     15  C   UNL     1      81.378  81.687  76.393  1.00  0.00    -0.000 C 
BRANCH  15  16
ATOM     16  C   UNL     1      80.804  82.972  75.759  1.00  0.00    -0.000 C 
BRANCH  16  17
ATOM     17  C   UNL     1      79.880  82.706  74.558  1.00  0.00    -0.000 C 
BRANCH  17  18
ATOM     18  C   UNL     1      80.494  81.744  73.533  1.00  0.00    -0.003 C 
ATOM     19  C   UNL     1      79.613  80.514  73.336  1.00  0.00     0.004 C 
ENDBRANCH  17  18
ENDBRANCH  16  17
ENDBRANCH  15  16
ENDBRANCH  14  15
ENDBRANCH  13  14
ENDBRANCH  12  13
ENDBRANCH   1  12
TORSDOF 14
ENDMDL
MODEL 4
REMARK VINA RESULT:    -3.944      1.259      5.341
REMARK INTER + INTRA:          -9.298
REMARK INTER:                  -7.461
REMARK INTRA:                  -1.838
REMARK UNBOUND:                -2.125
REMARK SMILES CCCCCCCCCCCCCC[C@@H](C)C(=O)[O-]
REMARK SMILES IDX 9 1 10 2 11 3 12 4 13 5 14 6 15 7 16 8 17 9 18 10 19 11 8 12
REMARK SMILES IDX 7 13 6 14 5 15 4 16 3 17 2 18 1 19
REMARK H PARENT
REMARK Flexibility Score: inf
ROOT
ATOM      1  C   UNL     1      78.901  79.526  78.571  1.00  0.00     0.000 C 
ENDROOT
BRANCH   1   2
ATOM      2  C   UNL     1      79.842  80.740  78.689  1.00  0.00     0.000 C 
BRANCH   2   3
ATOM      3  C   UNL     1      80.675  81.004  77.413  1.00  0.00     0.000 C 
BRANCH   3   4
ATOM      4  C   UNL     1      80.184  82.213  76.595  1.00  0.00     0.000 C 
BRANCH   4   5
ATOM      5  C   UNL     1      79.318  81.856  75.374  1.00  0.00     0.001 C 
BRANCH   5   6
ATOM      6  C   UNL     1      78.608  83.043  74.684  1.00  0.00     0.009 C 
BRANCH   6   7
ATOM      7  C   UNL     1      77.069  82.947  74.527  1.00  0.00     0.032 C 
ATOM      8  C   UNL     1      76.493  81.620  75.044  1.00  0.00     0.014 C 
BRANCH   7   9
ATOM      9  C   UNL     1      76.355  84.145  75.104  1.00  0.00     0.044 C 
ATOM     10  O   UNL     1      76.789  85.304  74.870  1.00  0.00    -0.550 OA
ATOM     11  O   UNL     1      75.205  83.996  75.872  1.00  0.00    -0.550 OA
ENDBRANCH   7   9
ENDBRANCH   6   7
ENDBRANCH   5   6
ENDBRANCH   4   5
ENDBRANCH   3   4
ENDBRANCH   2   3
ENDBRANCH   1   2
BRANCH   1  12
ATOM     12  C   UNL     1      77.439  79.835  78.947  1.00  0.00     0.000 C 
BRANCH  12  13
ATOM     13  C   UNL     1      77.011  81.251  78.521  1.00  0.00    -0.000 C 
BRANCH  13  14
ATOM     14  C   UNL     1      75.488  81.450  78.599  1.00  0.00    -0.000 C 
BRANCH  14  15
ATOM     15  C   UNL     1      74.716  80.119  78.571  1.00  0.00    -0.000 C 
BRANCH  15  16
ATOM     16  C   UNL     1      73.826  79.992  77.316  1.00  0.00    -0.000 C 
BRANCH  16  17
ATOM     17  C   UNL     1      73.130  81.306  76.920  1.00  0.00    -0.000 C 
BRANCH  17  18
ATOM     18  C   UNL     1      72.861  81.409  75.413  1.00  0.00    -0.003 C 
ATOM     19  C   UNL     1      72.042  82.654  75.084  1.00  0.00     0.004 C 
ENDBRANCH  17  18
ENDBRANCH  16  17
ENDBRANCH  15  16
ENDBRANCH  14  15
ENDBRANCH  13  14
ENDBRANCH  12  13
ENDBRANCH   1  12
TORSDOF 14
ENDMDL
MODEL 5
REMARK VINA RESULT:    -3.903      1.220      2.032
REMARK INTER + INTRA:          -9.223
REMARK INTER:                  -7.343
REMARK INTRA:                  -1.879
REMARK UNBOUND:                -2.125
REMARK SMILES CCCCCCCCCCCCCC[C@@H](C)C(=O)[O-]
REMARK SMILES IDX 9 1 10 2 11 3 12 4 13 5 14 6 15 7 16 8 17 9 18 10 19 11 8 12
REMARK SMILES IDX 7 13 6 14 5 15 4 16 3 17 2 18 1 19
REMARK H PARENT
REMARK Flexibility Score: inf
ROOT
ATOM      1  C   UNL     1      75.651  80.282  79.569  1.00  0.00     0.000 C 
ENDROOT
BRANCH   1   2
ATOM      2  C   UNL     1      75.126  81.087  78.365  1.00  0.00     0.000 C 
BRANCH   2   3
ATOM      3  C   UNL     1      73.945  80.407  77.635  1.00  0.00     0.000 C 
BRANCH   3   4
ATOM      4  C   UNL     1      73.440  81.194  76.411  1.00  0.00     0.000 C 
BRANCH   4   5
ATOM      5  C   UNL     1      73.884  82.667  76.366  1.00  0.00     0.001 C 
BRANCH   5   6
ATOM      6  C   UNL     1      74.799  83.056  75.182  1.00  0.00     0.009 C 
BRANCH   6   7
ATOM      7  C   UNL     1      76.322  82.836  75.368  1.00  0.00     0.032 C 
ATOM      8  C   UNL     1      76.812  81.499  74.792  1.00  0.00     0.014 C 
BRANCH   7   9
ATOM      9  C   UNL     1      77.137  84.007  74.874  1.00  0.00     0.044 C 
ATOM     10  O   UNL     1      76.628  85.158  74.849  1.00  0.00    -0.550 OA
ATOM     11  O   UNL     1      78.458  83.842  74.468  1.00  0.00    -0.550 OA
ENDBRANCH   7   9
ENDBRANCH   6   7
ENDBRANCH   5   6
ENDBRANCH   4   5
ENDBRANCH   3   4
ENDBRANCH   2   3
ENDBRANCH   1   2
BRANCH   1  12
ATOM     12  C   UNL     1      76.677  79.196  79.190  1.00  0.00     0.000 C 
BRANCH  12  13
ATOM     13  C   UNL     1      77.041  79.229  77.695  1.00  0.00    -0.000 C 
BRANCH  13  14
ATOM     14  C   UNL     1      78.559  79.166  77.460  1.00  0.00    -0.000 C 
BRANCH  14  15
ATOM     15  C   UNL     1      79.367  79.540  78.716  1.00  0.00    -0.000 C 
BRANCH  15  16
ATOM     16  C   UNL     1      80.070  80.906  78.567  1.00  0.00    -0.000 C 
BRANCH  16  17
ATOM     17  C   UNL     1      79.605  81.707  77.339  1.00  0.00    -0.000 C 
BRANCH  17  18
ATOM     18  C   UNL     1      80.757  82.080  76.398  1.00  0.00    -0.003 C 
ATOM     19  C   UNL     1      82.084  81.519  76.903  1.00  0.00     0.004 C 
ENDBRANCH  17  18
ENDBRANCH  16  17
ENDBRANCH  15  16
ENDBRANCH  14  15
ENDBRANCH  13  14
ENDBRANCH  12  13
ENDBRANCH   1  12
TORSDOF 14
ENDMDL
MODEL 6
REMARK VINA RESULT:    -3.897      1.374      2.202
REMARK INTER + INTRA:          -9.212
REMARK INTER:                  -7.322
REMARK INTRA:                  -1.891
REMARK UNBOUND:                -2.125
REMARK SMILES CCCCCCCCCCCCCC[C@@H](C)C(=O)[O-]
REMARK SMILES IDX 9 1 10 2 11 3 12 4 13 5 14 6 15 7 16 8 17 9 18 10 19 11 8 12
REMARK SMILES IDX 7 13 6 14 5 15 4 16 3 17 2 18 1 19
REMARK H PARENT
REMARK Flexibility Score: inf
ROOT
ATOM      1  C   UNL     1      75.604  81.322  79.071  1.00  0.00     0.000 C 
ENDROOT
BRANCH   1   2
ATOM      2  C   UNL     1      74.743  81.774  77.877  1.00  0.00     0.000 C 
BRANCH   2   3
ATOM      3  C   UNL     1      74.030  80.609  77.152  1.00  0.00     0.000 C 
BRANCH   3   4
ATOM      4  C   UNL     1      74.296  80.570  75.636  1.00  0.00     0.000 C 
BRANCH   4   5
ATOM      5  C   UNL     1      75.774  80.396  75.246  1.00  0.00     0.001 C 
BRANCH   5   6
ATOM      6  C   UNL     1      76.367  81.508  74.350  1.00  0.00     0.009 C 
BRANCH   6   7
ATOM      7  C   UNL     1      77.008  82.723  75.068  1.00  0.00     0.032 C 
ATOM      8  C   UNL     1      78.471  82.956  74.666  1.00  0.00     0.014 C 
BRANCH   7   9
ATOM      9  C   UNL     1      76.172  83.974  74.941  1.00  0.00     0.044 C 
ATOM     10  O   UNL     1      74.916  83.888  74.929  1.00  0.00    -0.550 OA
ATOM     11  O   UNL     1      76.765  85.230  74.861  1.00  0.00    -0.550 OA
ENDBRANCH   7   9
ENDBRANCH   6   7
ENDBRANCH   5   6
ENDBRANCH   4   5
ENDBRANCH   3   4
ENDBRANCH   2   3
ENDBRANCH   1   2
BRANCH   1  12
ATOM     12  C   UNL     1      76.241  79.932  78.886  1.00  0.00     0.000 C 
BRANCH  12  13
ATOM     13  C   UNL     1      77.777  79.997  78.795  1.00  0.00    -0.000 C 
BRANCH  13  14
ATOM     14  C   UNL     1      78.282  81.402  78.427  1.00  0.00    -0.000 C 
BRANCH  14  15
ATOM     15  C   UNL     1      79.689  81.380  77.803  1.00  0.00    -0.000 C 
BRANCH  15  16
ATOM     16  C   UNL     1      80.777  81.028  78.838  1.00  0.00    -0.000 C 
BRANCH  16  17
ATOM     17  C   UNL     1      82.193  80.949  78.241  1.00  0.00    -0.000 C 
BRANCH  17  18
ATOM     18  C   UNL     1      82.570  79.535  77.782  1.00  0.00    -0.003 C 
ATOM     19  C   UNL     1      82.004  78.480  78.730  1.00  0.00     0.004 C 
ENDBRANCH  17  18
ENDBRANCH  16  17
ENDBRANCH  15  16
ENDBRANCH  14  15
ENDBRANCH  13  14
ENDBRANCH  12  13
ENDBRANCH   1  12
TORSDOF 14
ENDMDL
MODEL 7
REMARK VINA RESULT:    -3.896      1.698      5.377
REMARK INTER + INTRA:          -9.210
REMARK INTER:                  -7.331
REMARK INTRA:                  -1.879
REMARK UNBOUND:                -2.125
REMARK SMILES CCCCCCCCCCCCCC[C@@H](C)C(=O)[O-]
REMARK SMILES IDX 9 1 10 2 11 3 12 4 13 5 14 6 15 7 16 8 17 9 18 10 19 11 8 12
REMARK SMILES IDX 7 13 6 14 5 15 4 16 3 17 2 18 1 19
REMARK H PARENT
REMARK Flexibility Score: inf
ROOT
ATOM      1  C   UNL     1      76.557  79.932  79.459  1.00  0.00     0.000 C 
ENDROOT
BRANCH   1   2
ATOM      2  C   UNL     1      77.491  79.147  78.519  1.00  0.00     0.000 C 
BRANCH   2   3
ATOM      3  C   UNL     1      78.984  79.516  78.682  1.00  0.00     0.000 C 
BRANCH   3   4
ATOM      4  C   UNL     1      79.301  80.981  78.326  1.00  0.00     0.000 C 
BRANCH   4   5
ATOM      5  C   UNL     1      79.240  81.305  76.823  1.00  0.00     0.001 C 
BRANCH   5   6
ATOM      6  C   UNL     1      80.036  82.552  76.373  1.00  0.00     0.009 C 
BRANCH   6   7
ATOM      7  C   UNL     1      79.924  82.957  74.880  1.00  0.00     0.032 C 
ATOM      8  C   UNL     1      80.504  81.903  73.926  1.00  0.00     0.014 C 
BRANCH   7   9
ATOM      9  C   UNL     1      78.522  83.366  74.499  1.00  0.00     0.044 C 
ATOM     10  O   UNL     1      77.801  82.580  73.829  1.00  0.00    -0.550 OA
ATOM     11  O   UNL     1      77.997  84.592  74.896  1.00  0.00    -0.550 OA
ENDBRANCH   7   9
ENDBRANCH   6   7
ENDBRANCH   5   6
ENDBRANCH   4   5
ENDBRANCH   3   4
ENDBRANCH   2   3
ENDBRANCH   1   2
BRANCH   1  12
ATOM     12  C   UNL     1      75.424  80.677  78.727  1.00  0.00     0.000 C 
BRANCH  12  13
ATOM     13  C   UNL     1      75.752  82.164  78.498  1.00  0.00    -0.000 C 
BRANCH  13  14
ATOM     14  C   UNL     1      75.936  82.500  77.009  1.00  0.00    -0.000 C 
BRANCH  14  15
ATOM     15  C   UNL     1      75.182  81.527  76.085  1.00  0.00    -0.000 C 
BRANCH  15  16
ATOM     16  C   UNL     1      74.259  82.266  75.094  1.00  0.00    -0.000 C 
BRANCH  16  17
ATOM     17  C   UNL     1      73.092  83.005  75.772  1.00  0.00    -0.000 C 
BRANCH  17  18
ATOM     18  C   UNL     1      72.361  82.142  76.809  1.00  0.00    -0.003 C 
ATOM     19  C   UNL     1      70.857  82.403  76.779  1.00  0.00     0.004 C 
ENDBRANCH  17  18
ENDBRANCH  16  17
ENDBRANCH  15  16
ENDBRANCH  14  15
ENDBRANCH  13  14
ENDBRANCH  12  13
ENDBRANCH   1  12
TORSDOF 14
ENDMDL
MODEL 8
REMARK VINA RESULT:    -3.883      1.530      5.707
REMARK INTER + INTRA:          -9.186
REMARK INTER:                  -7.210
REMARK INTRA:                  -1.976
REMARK UNBOUND:                -2.125
REMARK SMILES CCCCCCCCCCCCCC[C@@H](C)C(=O)[O-]
REMARK SMILES IDX 9 1 10 2 11 3 12 4 13 5 14 6 15 7 16 8 17 9 18 10 19 11 8 12
REMARK SMILES IDX 7 13 6 14 5 15 4 16 3 17 2 18 1 19
REMARK H PARENT
REMARK Flexibility Score: inf
ROOT
ATOM      1  C   UNL     1      75.413  80.326  79.311  1.00  0.00     0.000 C 
ENDROOT
BRANCH   1   2
ATOM      2  C   UNL     1      76.947  80.399  79.185  1.00  0.00     0.000 C 
BRANCH   2   3
ATOM      3  C   UNL     1      77.448  81.677  78.473  1.00  0.00     0.000 C 
BRANCH   3   4
ATOM      4  C   UNL     1      78.748  81.469  77.673  1.00  0.00     0.000 C 
BRANCH   4   5
ATOM      5  C   UNL     1      78.543  81.215  76.169  1.00  0.00     0.001 C 
BRANCH   5   6
ATOM      6  C   UNL     1      77.075  81.067  75.707  1.00  0.00     0.009 C 
BRANCH   6   7
ATOM      7  C   UNL     1      76.587  82.031  74.596  1.00  0.00     0.032 C 
ATOM      8  C   UNL     1      75.170  81.708  74.098  1.00  0.00     0.014 C 
BRANCH   7   9
ATOM      9  C   UNL     1      76.742  83.482  74.983  1.00  0.00     0.044 C 
ATOM     10  O   UNL     1      77.700  84.154  74.520  1.00  0.00    -0.550 OA
ATOM     11  O   UNL     1      75.826  84.101  75.829  1.00  0.00    -0.550 OA
ENDBRANCH   7   9
ENDBRANCH   6   7
ENDBRANCH   5   6
ENDBRANCH   4   5
ENDBRANCH   3   4
ENDBRANCH   2   3
ENDBRANCH   1   2
BRANCH   1  12
ATOM     12  C   UNL     1      74.741  79.469  78.221  1.00  0.00     0.000 C 
BRANCH  12  13
ATOM     13  C   UNL     1      73.751  80.280  77.364  1.00  0.00    -0.000 C 
BRANCH  13  14
ATOM     14  C   UNL     1      73.879  81.794  77.597  1.00  0.00    -0.000 C 
BRANCH  14  15
ATOM     15  C   UNL     1      72.921  82.612  76.712  1.00  0.00    -0.000 C 
BRANCH  15  16
ATOM     16  C   UNL     1      71.463  82.535  77.212  1.00  0.00    -0.000 C 
BRANCH  16  17
ATOM     17  C   UNL     1      70.486  81.958  76.174  1.00  0.00    -0.000 C 
BRANCH  17  18
ATOM     18  C   UNL     1      70.957  82.166  74.729  1.00  0.00    -0.003 C 
ATOM     19  C   UNL     1      70.142  81.318  73.756  1.00  0.00     0.004 C 
ENDBRANCH  17  18
ENDBRANCH  16  17
ENDBRANCH  15  16
ENDBRANCH  14  15
ENDBRANCH  13  14
ENDBRANCH  12  13
ENDBRANCH   1  12
TORSDOF 14
ENDMDL
MODEL 9
REMARK VINA RESULT:    -3.826      1.928      3.987
REMARK INTER + INTRA:          -9.083
REMARK INTER:                  -7.067
REMARK INTRA:                  -2.016
REMARK UNBOUND:                -2.125
REMARK SMILES CCCCCCCCCCCCCC[C@@H](C)C(=O)[O-]
REMARK SMILES IDX 9 1 10 2 11 3 12 4 13 5 14 6 15 7 16 8 17 9 18 10 19 11 8 12
REMARK SMILES IDX 7 13 6 14 5 15 4 16 3 17 2 18 1 19
REMARK H PARENT
REMARK Flexibility Score: inf
ROOT
ATOM      1  C   UNL     1      78.253  81.611  77.979  1.00  0.00     0.000 C 
ENDROOT
BRANCH   1   2
ATOM      2  C   UNL     1      76.997  81.141  78.737  1.00  0.00     0.000 C 
BRANCH   2   3
ATOM      3  C   UNL     1      75.896  80.567  77.815  1.00  0.00     0.000 C 
BRANCH   3   4
ATOM      4  C   UNL     1      76.429  80.051  76.465  1.00  0.00     0.000 C 
BRANCH   4   5
ATOM      5  C   UNL     1      75.604  80.483  75.241  1.00  0.00     0.001 C 
BRANCH   5   6
ATOM      6  C   UNL     1      76.297  81.478  74.282  1.00  0.00     0.009 C 
BRANCH   6   7
ATOM      7  C   UNL     1      77.075  82.652  74.930  1.00  0.00     0.032 C 
ATOM      8  C   UNL     1      78.484  82.834  74.346  1.00  0.00     0.014 C 
BRANCH   7   9
ATOM      9  C   UNL     1      76.284  83.937  74.930  1.00  0.00     0.044 C 
ATOM     10  O   UNL     1      76.886  85.042  74.886  1.00  0.00    -0.550 OA
ATOM     11  O   UNL     1      74.893  83.925  74.954  1.00  0.00    -0.550 OA
ENDBRANCH   7   9
ENDBRANCH   6   7
ENDBRANCH   5   6
ENDBRANCH   4   5
ENDBRANCH   3   4
ENDBRANCH   2   3
ENDBRANCH   1   2
BRANCH   1  12
ATOM     12  C   UNL     1      79.574  81.117  78.600  1.00  0.00     0.000 C 
BRANCH  12  13
ATOM     13  C   UNL     1      80.067  79.805  77.963  1.00  0.00    -0.000 C 
BRANCH  13  14
ATOM     14  C   UNL     1      79.952  78.609  78.923  1.00  0.00    -0.000 C 
BRANCH  14  15
ATOM     15  C   UNL     1      78.593  77.894  78.816  1.00  0.00    -0.000 C 
BRANCH  15  16
ATOM     16  C   UNL     1      77.989  77.587  80.203  1.00  0.00    -0.000 C 
BRANCH  16  17
ATOM     17  C   UNL     1      76.481  77.878  80.297  1.00  0.00    -0.000 C 
BRANCH  17  18
ATOM     18  C   UNL     1      76.039  78.295  81.705  1.00  0.00    -0.003 C 
ATOM     19  C   UNL     1      75.368  79.665  81.688  1.00  0.00     0.004 C 
ENDBRANCH  17  18
ENDBRANCH  16  17
ENDBRANCH  15  16
ENDBRANCH  14  15
ENDBRANCH  13  14
ENDBRANCH  12  13
ENDBRANCH   1  12
TORSDOF 14
ENDMDL
