MODEL 1
REMARK VINA RESULT:    -4.381      0.000      0.000
REMARK INTER + INTRA:          -5.754
REMARK INTER:                  -5.662
REMARK INTRA:                  -0.093
REMARK UNBOUND:                -0.093
REMARK SMILES CCCCCCC(=O)[O-]
REMARK SMILES IDX 5 1 6 2 7 3 8 4 9 5 4 6 3 7 2 8 1 9
REMARK H PARENT
REMARK Flexibility Score: inf
ROOT
ATOM      1  C   UNL     1      11.342   1.587  -2.553  1.00  0.00     0.006 C 
ENDROOT
BRANCH   1   2
ATOM      2  C   UNL     1      11.500   2.576  -3.712  1.00  0.00     0.053 C 
BRANCH   2   3
ATOM      3  C   UNL     1      11.486   1.854  -5.022  1.00  0.00     0.041 C 
ATOM      4  O   UNL     1      11.355   2.496  -6.098  1.00  0.00    -0.550 OA
ATOM      5  O   UNL     1      11.569   0.468  -5.052  1.00  0.00    -0.550 OA
ENDBRANCH   2   3
ENDBRANCH   1   2
BRANCH   1   6
ATOM      6  C   UNL     1      12.294   1.930  -1.401  1.00  0.00     0.000 C 
BRANCH   6   7
ATOM      7  C   UNL     1      11.971   1.097  -0.153  1.00  0.00    -0.000 C 
BRANCH   7   8
ATOM      8  C   UNL     1      13.091   0.106   0.202  1.00  0.00    -0.003 C 
ATOM      9  C   UNL     1      12.909  -0.522   1.584  1.00  0.00     0.004 C 
ENDBRANCH   7   8
ENDBRANCH   6   7
ENDBRANCH   1   6
TORSDOF 5
ENDMDL
MODEL 2
REMARK VINA RESULT:    -4.258      1.637      2.250
REMARK INTER + INTRA:          -5.595
REMARK INTER:                  -5.444
REMARK INTRA:                  -0.151
REMARK UNBOUND:                -0.093
REMARK SMILES CCCCCCC(=O)[O-]
REMARK SMILES IDX 5 1 6 2 7 3 8 4 9 5 4 6 3 7 2 8 1 9
REMARK H PARENT
REMARK Flexibility Score: inf
ROOT
ATOM      1  C   UNL     1      11.830   2.391  -2.987  1.00  0.00     0.006 C 
ENDROOT
BRANCH   1   2
ATOM      2  C   UNL     1      11.176   1.207  -3.705  1.00  0.00     0.053 C 
BRANCH   2   3
ATOM      3  C   UNL     1      11.546   1.204  -5.155  1.00  0.00     0.041 C 
ATOM      4  O   UNL     1      11.452   2.259  -5.835  1.00  0.00    -0.550 OA
ATOM      5  O   UNL     1      11.948   0.023  -5.766  1.00  0.00    -0.550 OA
ENDBRANCH   2   3
ENDBRANCH   1   2
BRANCH   1   6
ATOM      6  C   UNL     1      12.337   1.982  -1.599  1.00  0.00     0.000 C 
BRANCH   6   7
ATOM      7  C   UNL     1      11.166   1.657  -0.660  1.00  0.00    -0.000 C 
BRANCH   7   8
ATOM      8  C   UNL     1      10.171   2.821  -0.530  1.00  0.00    -0.003 C 
ATOM      9  C   UNL     1       9.862   3.176   0.925  1.00  0.00     0.004 C 
ENDBRANCH   7   8
ENDBRANCH   6   7
ENDBRANCH   1   6
TORSDOF 5
ENDMDL
MODEL 3
REMARK VINA RESULT:    -4.241      3.633      5.050
REMARK INTER + INTRA:          -5.573
REMARK INTER:                  -5.294
REMARK INTRA:                  -0.279
REMARK UNBOUND:                -0.093
REMARK SMILES CCCCCCC(=O)[O-]
REMARK SMILES IDX 5 1 6 2 7 3 8 4 9 5 4 6 3 7 2 8 1 9
REMARK H PARENT
REMARK Flexibility Score: inf
ROOT
ATOM      1  C   UNL     1      11.369   1.747  -0.527  1.00  0.00     0.006 C 
ENDROOT
BRANCH   1   2
ATOM      2  C   UNL     1       9.906   2.119  -0.783  1.00  0.00     0.053 C 
BRANCH   2   3
ATOM      3  C   UNL     1       9.433   3.115   0.229  1.00  0.00     0.041 C 
ATOM      4  O   UNL     1      10.086   3.298   1.291  1.00  0.00    -0.550 OA
ATOM      5  O   UNL     1       8.246   3.806   0.022  1.00  0.00    -0.550 OA
ENDBRANCH   2   3
ENDBRANCH   1   2
BRANCH   1   6
ATOM      6  C   UNL     1      12.225   1.982  -1.777  1.00  0.00     0.000 C 
BRANCH   6   7
ATOM      7  C   UNL     1      11.526   2.942  -2.750  1.00  0.00    -0.000 C 
BRANCH   7   8
ATOM      8  C   UNL     1      11.511   2.413  -4.193  1.00  0.00    -0.003 C 
ATOM      9  C   UNL     1      11.456   0.887  -4.263  1.00  0.00     0.004 C 
ENDBRANCH   7   8
ENDBRANCH   6   7
ENDBRANCH   1   6
TORSDOF 5
ENDMDL
MODEL 4
REMARK VINA RESULT:    -4.161      2.996      5.366
REMARK INTER + INTRA:          -5.471
REMARK INTER:                  -5.367
REMARK INTRA:                  -0.104
REMARK UNBOUND:                -0.093
REMARK SMILES CCCCCCC(=O)[O-]
REMARK SMILES IDX 5 1 6 2 7 3 8 4 9 5 4 6 3 7 2 8 1 9
REMARK H PARENT
REMARK Flexibility Score: inf
ROOT
ATOM      1  C   UNL     1      12.236   1.629  -1.422  1.00  0.00     0.006 C 
ENDROOT
BRANCH   1   2
ATOM      2  C   UNL     1      11.810   1.163  -0.026  1.00  0.00     0.053 C 
BRANCH   2   3
ATOM      3  C   UNL     1      12.773   0.148   0.503  1.00  0.00     0.041 C 
ATOM      4  O   UNL     1      12.580  -0.382   1.629  1.00  0.00    -0.550 OA
ATOM      5  O   UNL     1      13.910  -0.177  -0.225  1.00  0.00    -0.550 OA
ENDBRANCH   2   3
ENDBRANCH   1   2
BRANCH   1   6
ATOM      6  C   UNL     1      11.015   1.911  -2.306  1.00  0.00     0.000 C 
BRANCH   6   7
ATOM      7  C   UNL     1      11.439   2.203  -3.752  1.00  0.00    -0.000 C 
BRANCH   7   8
ATOM      8  C   UNL     1      11.520   0.932  -4.613  1.00  0.00    -0.003 C 
ATOM      9  C   UNL     1      11.478   1.228  -6.112  1.00  0.00     0.004 C 
ENDBRANCH   7   8
ENDBRANCH   6   7
ENDBRANCH   1   6
TORSDOF 5
ENDMDL
MODEL 5
REMARK VINA RESULT:    -4.090      3.044      5.093
REMARK INTER + INTRA:          -5.379
REMARK INTER:                  -5.211
REMARK INTRA:                  -0.168
REMARK UNBOUND:                -0.093
REMARK SMILES CCCCCCC(=O)[O-]
REMARK SMILES IDX 5 1 6 2 7 3 8 4 9 5 4 6 3 7 2 8 1 9
REMARK H PARENT
REMARK Flexibility Score: inf
ROOT
ATOM      1  C   UNL     1      11.992   2.194  -1.959  1.00  0.00     0.006 C 
ENDROOT
BRANCH   1   2
ATOM      2  C   UNL     1      11.262   1.586  -0.759  1.00  0.00     0.053 C 
BRANCH   2   3
ATOM      3  C   UNL     1      10.223   2.530  -0.243  1.00  0.00     0.041 C 
ATOM      4  O   UNL     1      10.269   2.935   0.949  1.00  0.00    -0.550 OA
ATOM      5  O   UNL     1       9.176   2.927  -1.065  1.00  0.00    -0.550 OA
ENDBRANCH   2   3
ENDBRANCH   1   2
BRANCH   1   6
ATOM      6  C   UNL     1      11.701   1.405  -3.241  1.00  0.00     0.000 C 
BRANCH   6   7
ATOM      7  C   UNL     1      11.440   2.350  -4.422  1.00  0.00    -0.000 C 
BRANCH   7   8
ATOM      8  C   UNL     1      11.409   1.614  -5.771  1.00  0.00    -0.003 C 
ATOM      9  C   UNL     1      11.844   0.153  -5.658  1.00  0.00     0.004 C 
ENDBRANCH   7   8
ENDBRANCH   6   7
ENDBRANCH   1   6
TORSDOF 5
ENDMDL
MODEL 6
REMARK VINA RESULT:    -4.009      2.980      3.254
REMARK INTER + INTRA:          -5.273
REMARK INTER:                  -5.093
REMARK INTRA:                  -0.180
REMARK UNBOUND:                -0.093
REMARK SMILES CCCCCCC(=O)[O-]
REMARK SMILES IDX 5 1 6 2 7 3 8 4 9 5 4 6 3 7 2 8 1 9
REMARK H PARENT
REMARK Flexibility Score: inf
ROOT
ATOM      1  C   UNL     1      10.884   2.148  -2.441  1.00  0.00     0.006 C 
ENDROOT
BRANCH   1   2
ATOM      2  C   UNL     1       9.662   2.123  -1.519  1.00  0.00     0.053 C 
BRANCH   2   3
ATOM      3  C   UNL     1       8.973   3.450  -1.524  1.00  0.00     0.041 C 
ATOM      4  O   UNL     1       9.118   4.236  -2.498  1.00  0.00    -0.550 OA
ATOM      5  O   UNL     1       8.209   3.841  -0.432  1.00  0.00    -0.550 OA
ENDBRANCH   2   3
ENDBRANCH   1   2
BRANCH   1   6
ATOM      6  C   UNL     1      12.182   1.982  -1.642  1.00  0.00     0.000 C 
BRANCH   6   7
ATOM      7  C   UNL     1      11.924   1.246  -0.319  1.00  0.00    -0.000 C 
BRANCH   7   8
ATOM      8  C   UNL     1      12.983   0.172  -0.024  1.00  0.00    -0.003 C 
ATOM      9  C   UNL     1      12.891  -0.374   1.401  1.00  0.00     0.004 C 
ENDBRANCH   7   8
ENDBRANCH   6   7
ENDBRANCH   1   6
TORSDOF 5
ENDMDL
MODEL 7
REMARK VINA RESULT:    -3.670      3.956      4.812
REMARK INTER + INTRA:          -4.836
REMARK INTER:                  -4.702
REMARK INTRA:                  -0.134
REMARK UNBOUND:                -0.093
REMARK SMILES CCCCCCC(=O)[O-]
REMARK SMILES IDX 5 1 6 2 7 3 8 4 9 5 4 6 3 7 2 8 1 9
REMARK H PARENT
REMARK Flexibility Score: inf
ROOT
ATOM      1  C   UNL     1      10.075   3.238  -0.614  1.00  0.00     0.006 C 
ENDROOT
BRANCH   1   2
ATOM      2  C   UNL     1      10.409   1.799  -1.019  1.00  0.00     0.053 C 
BRANCH   2   3
ATOM      3  C   UNL     1      11.864   1.668  -1.338  1.00  0.00     0.041 C 
ATOM      4  O   UNL     1      12.608   0.947  -0.622  1.00  0.00    -0.550 OA
ATOM      5  O   UNL     1      12.410   2.382  -2.397  1.00  0.00    -0.550 OA
ENDBRANCH   2   3
ENDBRANCH   1   2
BRANCH   1   6
ATOM      6  C   UNL     1       9.458   3.288   0.789  1.00  0.00     0.000 C 
BRANCH   6   7
ATOM      7  C   UNL     1       8.872   4.677   1.083  1.00  0.00    -0.000 C 
BRANCH   7   8
ATOM      8  C   UNL     1       9.954   5.763   1.194  1.00  0.00    -0.003 C 
ATOM      9  C   UNL     1      10.363   6.046   2.639  1.00  0.00     0.004 C 
ENDBRANCH   7   8
ENDBRANCH   6   7
ENDBRANCH   1   6
TORSDOF 5
ENDMDL
MODEL 8
REMARK VINA RESULT:    -3.644      4.793      5.689
REMARK INTER + INTRA:          -4.802
REMARK INTER:                  -4.581
REMARK INTRA:                  -0.221
REMARK UNBOUND:                -0.093
REMARK SMILES CCCCCCC(=O)[O-]
REMARK SMILES IDX 5 1 6 2 7 3 8 4 9 5 4 6 3 7 2 8 1 9
REMARK H PARENT
REMARK Flexibility Score: inf
ROOT
ATOM      1  C   UNL     1       9.389   3.450  -0.495  1.00  0.00     0.006 C 
ENDROOT
BRANCH   1   2
ATOM      2  C   UNL     1       9.892   3.629   0.940  1.00  0.00     0.053 C 
BRANCH   2   3
ATOM      3  C   UNL     1       9.436   4.941   1.495  1.00  0.00     0.041 C 
ATOM      4  O   UNL     1      10.198   5.613   2.240  1.00  0.00    -0.550 OA
ATOM      5  O   UNL     1       8.152   5.399   1.230  1.00  0.00    -0.550 OA
ENDBRANCH   2   3
ENDBRANCH   1   2
BRANCH   1   6
ATOM      6  C   UNL     1       9.843   2.105  -1.075  1.00  0.00     0.000 C 
BRANCH   6   7
ATOM      7  C   UNL     1      11.213   1.698  -0.514  1.00  0.00    -0.000 C 
BRANCH   7   8
ATOM      8  C   UNL     1      12.328   1.766  -1.569  1.00  0.00    -0.003 C 
ATOM      9  C   UNL     1      11.793   2.016  -2.980  1.00  0.00     0.004 C 
ENDBRANCH   7   8
ENDBRANCH   6   7
ENDBRANCH   1   6
TORSDOF 5
ENDMDL
MODEL 9
REMARK VINA RESULT:    -3.620      3.432      4.308
REMARK INTER + INTRA:          -4.770
REMARK INTER:                  -4.403
REMARK INTRA:                  -0.368
REMARK UNBOUND:                -0.093
REMARK SMILES CCCCCCC(=O)[O-]
REMARK SMILES IDX 5 1 6 2 7 3 8 4 9 5 4 6 3 7 2 8 1 9
REMARK H PARENT
REMARK Flexibility Score: inf
ROOT
ATOM      1  C   UNL     1       9.850   3.254   0.289  1.00  0.00     0.006 C 
ENDROOT
BRANCH   1   2
ATOM      2  C   UNL     1       9.765   4.538  -0.541  1.00  0.00     0.053 C 
BRANCH   2   3
ATOM      3  C   UNL     1       8.747   4.393  -1.627  1.00  0.00     0.041 C 
ATOM      4  O   UNL     1       9.081   4.539  -2.833  1.00  0.00    -0.550 OA
ATOM      5  O   UNL     1       7.419   4.145  -1.306  1.00  0.00    -0.550 OA
ENDBRANCH   2   3
ENDBRANCH   1   2
BRANCH   1   6
ATOM      6  C   UNL     1      10.102   2.035  -0.605  1.00  0.00     0.000 C 
BRANCH   6   7
ATOM      7  C   UNL     1      11.601   1.715  -0.689  1.00  0.00    -0.000 C 
BRANCH   7   8
ATOM      8  C   UNL     1      12.236   2.203  -2.001  1.00  0.00    -0.003 C 
ATOM      9  C   UNL     1      11.458   1.754  -3.238  1.00  0.00     0.004 C 
ENDBRANCH   7   8
ENDBRANCH   6   7
ENDBRANCH   1   6
TORSDOF 5
ENDMDL
