MODEL 1
REMARK VINA RESULT:    -6.106      0.000      0.000
REMARK INTER + INTRA:          -7.636
REMARK INTER:                  -7.356
REMARK INTRA:                  -0.281
REMARK UNBOUND:                -0.281
REMARK SMILES CCCCc1oc(O)c2ccccc12
REMARK SMILES IDX 4 1 5 2 7 3 6 4 9 5 14 6 10 7 13 8 11 9 12 10 8 11 3 13 2 14
REMARK SMILES IDX 1 15
REMARK H PARENT 8 12
REMARK Flexibility Score: inf
ROOT
ATOM      1  C   UNL     1      13.876  75.293  25.507  1.00  0.00     0.076 C 
ENDROOT
BRANCH   1   2
ATOM      2  C   UNL     1      15.109  74.499  25.808  1.00  0.00     0.116 A 
ATOM      3  C   UNL     1      17.173  73.919  25.833  1.00  0.00     0.290 A 
ATOM      4  O   UNL     1      16.327  74.849  25.433  1.00  0.00    -0.430 OA
ATOM      5  C   UNL     1      16.491  72.921  26.489  1.00  0.00     0.066 A 
ATOM      6  C   UNL     1      15.172  73.287  26.474  1.00  0.00     0.027 A 
ATOM      7  C   UNL     1      16.924  71.737  27.083  1.00  0.00     0.016 A 
ATOM      8  C   UNL     1      14.184  72.490  27.053  1.00  0.00     0.012 A 
ATOM      9  C   UNL     1      15.951  70.913  27.678  1.00  0.00     0.001 A 
ATOM     10  C   UNL     1      14.588  71.288  27.663  1.00  0.00     0.001 A 
BRANCH   3  11
ATOM     11  O   UNL     1      18.545  73.958  25.613  1.00  0.00    -0.480 OA
ATOM     12  H   UNL     1      19.003  73.217  25.098  1.00  0.00     0.297 HD
ENDBRANCH   3  11
ENDBRANCH   1   2
BRANCH   1  13
ATOM     13  C   UNL     1      14.134  76.787  25.726  1.00  0.00     0.008 C 
BRANCH  13  14
ATOM     14  C   UNL     1      13.942  77.574  24.424  1.00  0.00    -0.003 C 
ATOM     15  C   UNL     1      15.272  77.780  23.703  1.00  0.00     0.004 C 
ENDBRANCH  13  14
ENDBRANCH   1  13
TORSDOF 4
ENDMDL
MODEL 2
REMARK VINA RESULT:    -6.062      1.077      4.784
REMARK INTER + INTRA:          -7.584
REMARK INTER:                  -7.377
REMARK INTRA:                  -0.206
REMARK UNBOUND:                -0.281
REMARK SMILES CCCCc1oc(O)c2ccccc12
REMARK SMILES IDX 4 1 5 2 7 3 6 4 9 5 14 6 10 7 13 8 11 9 12 10 8 11 3 13 2 14
REMARK SMILES IDX 1 15
REMARK H PARENT 8 12
REMARK Flexibility Score: inf
ROOT
ATOM      1  C   UNL     1      14.427  72.571  26.216  1.00  0.00     0.076 C 
ENDROOT
BRANCH   1   2
ATOM      2  C   UNL     1      15.381  73.708  26.013  1.00  0.00     0.116 A 
ATOM      3  C   UNL     1      17.208  74.829  26.031  1.00  0.00     0.290 A 
ATOM      4  O   UNL     1      16.668  73.656  26.304  1.00  0.00    -0.430 OA
ATOM      5  C   UNL     1      16.244  75.684  25.549  1.00  0.00     0.066 A 
ATOM      6  C   UNL     1      15.075  74.971  25.537  1.00  0.00     0.027 A 
ATOM      7  C   UNL     1      16.305  77.012  25.133  1.00  0.00     0.016 A 
ATOM      8  C   UNL     1      13.875  75.539  25.108  1.00  0.00     0.012 A 
ATOM      9  C   UNL     1      15.112  77.612  24.692  1.00  0.00     0.001 A 
ATOM     10  C   UNL     1      13.903  76.880  24.679  1.00  0.00     0.001 A 
BRANCH   3  11
ATOM     11  O   UNL     1      18.551  75.137  26.212  1.00  0.00    -0.480 OA
ATOM     12  H   UNL     1      18.862  76.100  26.197  1.00  0.00     0.297 HD
ENDBRANCH   3  11
ENDBRANCH   1   2
BRANCH   1  13
ATOM     13  C   UNL     1      14.460  72.099  27.672  1.00  0.00     0.008 C 
BRANCH  13  14
ATOM     14  C   UNL     1      14.988  70.663  27.772  1.00  0.00    -0.003 C 
ATOM     15  C   UNL     1      16.505  70.621  27.610  1.00  0.00     0.004 C 
ENDBRANCH  13  14
ENDBRANCH   1  13
TORSDOF 4
ENDMDL
MODEL 3
REMARK VINA RESULT:    -5.272      1.875      5.702
REMARK INTER + INTRA:          -6.631
REMARK INTER:                  -6.448
REMARK INTRA:                  -0.183
REMARK UNBOUND:                -0.281
REMARK SMILES CCCCc1oc(O)c2ccccc12
REMARK SMILES IDX 4 1 5 2 7 3 6 4 9 5 14 6 10 7 13 8 11 9 12 10 8 11 3 13 2 14
REMARK SMILES IDX 1 15
REMARK H PARENT 8 12
REMARK Flexibility Score: inf
ROOT
ATOM      1  C   UNL     1      14.726  74.997  25.463  1.00  0.00     0.076 C 
ENDROOT
BRANCH   1   2
ATOM      2  C   UNL     1      15.525  76.262  25.422  1.00  0.00     0.116 A 
ATOM      3  C   UNL     1      17.133  77.639  25.765  1.00  0.00     0.290 A 
ATOM      4  O   UNL     1      16.727  76.398  25.954  1.00  0.00    -0.430 OA
ATOM      5  C   UNL     1      16.165  78.347  25.090  1.00  0.00     0.066 A 
ATOM      6  C   UNL     1      15.136  77.471  24.870  1.00  0.00     0.027 A 
ATOM      7  C   UNL     1      16.112  79.673  24.666  1.00  0.00     0.016 A 
ATOM      8  C   UNL     1      13.972  77.860  24.208  1.00  0.00     0.012 A 
ATOM      9  C   UNL     1      14.951  80.095  23.993  1.00  0.00     0.001 A 
ATOM     10  C   UNL     1      13.886  79.194  23.765  1.00  0.00     0.001 A 
BRANCH   3  11
ATOM     11  O   UNL     1      18.357  78.140  26.193  1.00  0.00    -0.480 OA
ATOM     12  H   UNL     1      18.502  78.374  27.167  1.00  0.00     0.297 HD
ENDBRANCH   3  11
ENDBRANCH   1   2
BRANCH   1  13
ATOM     13  C   UNL     1      15.620  73.810  25.834  1.00  0.00     0.008 C 
BRANCH  13  14
ATOM     14  C   UNL     1      14.806  72.513  25.916  1.00  0.00    -0.003 C 
ATOM     15  C   UNL     1      13.921  72.496  27.160  1.00  0.00     0.004 C 
ENDBRANCH  13  14
ENDBRANCH   1  13
TORSDOF 4
ENDMDL
MODEL 4
REMARK VINA RESULT:    -4.936      2.868      6.246
REMARK INTER + INTRA:          -6.227
REMARK INTER:                  -5.984
REMARK INTRA:                  -0.243
REMARK UNBOUND:                -0.281
REMARK SMILES CCCCc1oc(O)c2ccccc12
REMARK SMILES IDX 4 1 5 2 7 3 6 4 9 5 14 6 10 7 13 8 11 9 12 10 8 11 3 13 2 14
REMARK SMILES IDX 1 15
REMARK H PARENT 8 12
REMARK Flexibility Score: inf
ROOT
ATOM      1  C   UNL     1      15.512  75.738  25.857  1.00  0.00     0.076 C 
ENDROOT
BRANCH   1   2
ATOM      2  C   UNL     1      15.552  77.075  25.182  1.00  0.00     0.116 A 
ATOM      3  C   UNL     1      15.024  78.677  23.860  1.00  0.00     0.290 A 
ATOM      4  O   UNL     1      14.687  77.468  24.263  1.00  0.00    -0.430 OA
ATOM      5  C   UNL     1      16.150  79.095  24.531  1.00  0.00     0.066 A 
ATOM      6  C   UNL     1      16.491  78.073  25.375  1.00  0.00     0.027 A 
ATOM      7  C   UNL     1      16.890  80.273  24.458  1.00  0.00     0.016 A 
ATOM      8  C   UNL     1      17.604  78.154  26.213  1.00  0.00     0.012 A 
ATOM      9  C   UNL     1      18.017  80.387  25.293  1.00  0.00     0.001 A 
ATOM     10  C   UNL     1      18.373  79.333  26.165  1.00  0.00     0.001 A 
BRANCH   3  11
ATOM     11  O   UNL     1      14.334  79.406  22.898  1.00  0.00    -0.480 OA
ATOM     12  H   UNL     1      13.323  79.450  22.916  1.00  0.00     0.297 HD
ENDBRANCH   3  11
ENDBRANCH   1   2
BRANCH   1  13
ATOM     13  C   UNL     1      16.528  74.786  25.219  1.00  0.00     0.008 C 
BRANCH  13  14
ATOM     14  C   UNL     1      16.473  73.403  25.878  1.00  0.00    -0.003 C 
ATOM     15  C   UNL     1      15.407  72.525  25.227  1.00  0.00     0.004 C 
ENDBRANCH  13  14
ENDBRANCH   1  13
TORSDOF 4
ENDMDL
MODEL 5
REMARK VINA RESULT:    -4.596      4.441      6.525
REMARK INTER + INTRA:          -5.817
REMARK INTER:                  -5.259
REMARK INTRA:                  -0.558
REMARK UNBOUND:                -0.281
REMARK SMILES CCCCc1oc(O)c2ccccc12
REMARK SMILES IDX 4 1 5 2 7 3 6 4 9 5 14 6 10 7 13 8 11 9 12 10 8 11 3 13 2 14
REMARK SMILES IDX 1 15
REMARK H PARENT 8 12
REMARK Flexibility Score: inf
ROOT
ATOM      1  C   UNL     1      17.992  81.451  25.509  1.00  0.00     0.076 C 
ENDROOT
BRANCH   1   2
ATOM      2  C   UNL     1      17.460  80.051  25.465  1.00  0.00     0.116 A 
ATOM      3  C   UNL     1      17.351  77.930  25.755  1.00  0.00     0.290 A 
ATOM      4  O   UNL     1      18.073  79.008  25.996  1.00  0.00    -0.430 OA
ATOM      5  C   UNL     1      16.228  78.272  25.038  1.00  0.00     0.066 A 
ATOM      6  C   UNL     1      16.295  79.627  24.850  1.00  0.00     0.027 A 
ATOM      7  C   UNL     1      15.176  77.507  24.542  1.00  0.00     0.016 A 
ATOM      8  C   UNL     1      15.309  80.317  24.145  1.00  0.00     0.012 A 
ATOM      9  C   UNL     1      14.163  78.175  23.829  1.00  0.00     0.001 A 
ATOM     10  C   UNL     1      14.229  79.574  23.631  1.00  0.00     0.001 A 
BRANCH   3  11
ATOM     11  O   UNL     1      17.692  76.648  26.170  1.00  0.00    -0.480 OA
ATOM     12  H   UNL     1      18.590  76.471  26.601  1.00  0.00     0.297 HD
ENDBRANCH   3  11
ENDBRANCH   1   2
BRANCH   1  13
ATOM     13  C   UNL     1      17.607  82.129  26.827  1.00  0.00     0.008 C 
BRANCH  13  14
ATOM     14  C   UNL     1      16.320  82.946  26.668  1.00  0.00    -0.003 C 
ATOM     15  C   UNL     1      15.151  82.279  27.389  1.00  0.00     0.004 C 
ENDBRANCH  13  14
ENDBRANCH   1  13
TORSDOF 4
ENDMDL
MODEL 6
REMARK VINA RESULT:    -4.308      3.943      6.171
REMARK INTER + INTRA:          -5.470
REMARK INTER:                  -5.099
REMARK INTRA:                  -0.372
REMARK UNBOUND:                -0.281
REMARK SMILES CCCCc1oc(O)c2ccccc12
REMARK SMILES IDX 4 1 5 2 7 3 6 4 9 5 14 6 10 7 13 8 11 9 12 10 8 11 3 13 2 14
REMARK SMILES IDX 1 15
REMARK H PARENT 8 12
REMARK Flexibility Score: inf
ROOT
ATOM      1  C   UNL     1      18.477  79.267  26.101  1.00  0.00     0.076 C 
ENDROOT
BRANCH   1   2
ATOM      2  C   UNL     1      17.193  79.249  25.329  1.00  0.00     0.116 A 
ATOM      3  C   UNL     1      15.585  79.925  24.083  1.00  0.00     0.290 A 
ATOM      4  O   UNL     1      16.750  80.260  24.603  1.00  0.00    -0.430 OA
ATOM      5  C   UNL     1      15.245  78.653  24.483  1.00  0.00     0.066 A 
ATOM      6  C   UNL     1      16.270  78.219  25.280  1.00  0.00     0.027 A 
ATOM      7  C   UNL     1      14.130  77.863  24.214  1.00  0.00     0.016 A 
ATOM      8  C   UNL     1      16.253  76.955  25.872  1.00  0.00     0.012 A 
ATOM      9  C   UNL     1      14.085  76.582  24.794  1.00  0.00     0.001 A 
ATOM     10  C   UNL     1      15.140  76.130  25.619  1.00  0.00     0.001 A 
BRANCH   3  11
ATOM     11  O   UNL     1      14.827  80.748  23.259  1.00  0.00    -0.480 OA
ATOM     12  H   UNL     1      14.481  81.636  23.599  1.00  0.00     0.297 HD
ENDBRANCH   3  11
ENDBRANCH   1   2
BRANCH   1  13
ATOM     13  C   UNL     1      18.780  80.681  26.604  1.00  0.00     0.008 C 
BRANCH  13  14
ATOM     14  C   UNL     1      17.869  81.053  27.780  1.00  0.00    -0.003 C 
ATOM     15  C   UNL     1      17.118  82.353  27.507  1.00  0.00     0.004 C 
ENDBRANCH  13  14
ENDBRANCH   1  13
TORSDOF 4
ENDMDL
MODEL 7
REMARK VINA RESULT:    -4.291      4.019      7.028
REMARK INTER + INTRA:          -5.449
REMARK INTER:                  -4.935
REMARK INTRA:                  -0.515
REMARK UNBOUND:                -0.281
REMARK SMILES CCCCc1oc(O)c2ccccc12
REMARK SMILES IDX 4 1 5 2 7 3 6 4 9 5 14 6 10 7 13 8 11 9 12 10 8 11 3 13 2 14
REMARK SMILES IDX 1 15
REMARK H PARENT 8 12
REMARK Flexibility Score: inf
ROOT
ATOM      1  C   UNL     1      15.528  77.701  23.936  1.00  0.00     0.076 C 
ENDROOT
BRANCH   1   2
ATOM      2  C   UNL     1      15.667  79.096  24.464  1.00  0.00     0.116 A 
ATOM      3  C   UNL     1      15.257  81.175  24.788  1.00  0.00     0.290 A 
ATOM      4  O   UNL     1      14.830  80.080  24.189  1.00  0.00    -0.430 OA
ATOM      5  C   UNL     1      16.417  80.906  25.477  1.00  0.00     0.066 A 
ATOM      6  C   UNL     1      16.683  79.579  25.271  1.00  0.00     0.027 A 
ATOM      7  C   UNL     1      17.246  81.716  26.250  1.00  0.00     0.016 A 
ATOM      8  C   UNL     1      17.805  78.962  25.825  1.00  0.00     0.012 A 
ATOM      9  C   UNL     1      18.384  81.122  26.825  1.00  0.00     0.001 A 
ATOM     10  C   UNL     1      18.663  79.752  26.614  1.00  0.00     0.001 A 
BRANCH   3  11
ATOM     11  O   UNL     1      14.619  82.408  24.720  1.00  0.00    -0.480 OA
ATOM     12  H   UNL     1      13.667  82.475  24.384  1.00  0.00     0.297 HD
ENDBRANCH   3  11
ENDBRANCH   1   2
BRANCH   1  13
ATOM     13  C   UNL     1      14.427  76.951  24.690  1.00  0.00     0.008 C 
BRANCH  13  14
ATOM     14  C   UNL     1      15.006  76.167  25.873  1.00  0.00    -0.003 C 
ATOM     15  C   UNL     1      16.341  75.522  25.506  1.00  0.00     0.004 C 
ENDBRANCH  13  14
ENDBRANCH   1  13
TORSDOF 4
ENDMDL
MODEL 8
REMARK VINA RESULT:    -4.148      3.391      5.234
REMARK INTER + INTRA:          -5.277
REMARK INTER:                  -4.849
REMARK INTRA:                  -0.428
REMARK UNBOUND:                -0.281
REMARK SMILES CCCCc1oc(O)c2ccccc12
REMARK SMILES IDX 4 1 5 2 7 3 6 4 9 5 14 6 10 7 13 8 11 9 12 10 8 11 3 13 2 14
REMARK SMILES IDX 1 15
REMARK H PARENT 8 12
REMARK Flexibility Score: inf
ROOT
ATOM      1  C   UNL     1      14.851  80.918  24.301  1.00  0.00     0.076 C 
ENDROOT
BRANCH   1   2
ATOM      2  C   UNL     1      15.694  79.794  24.820  1.00  0.00     0.116 A 
ATOM      3  C   UNL     1      17.406  78.740  25.564  1.00  0.00     0.290 A 
ATOM      4  O   UNL     1      16.957  79.922  25.186  1.00  0.00    -0.430 OA
ATOM      5  C   UNL     1      16.408  77.801  25.439  1.00  0.00     0.066 A 
ATOM      6  C   UNL     1      15.313  78.471  24.963  1.00  0.00     0.027 A 
ATOM      7  C   UNL     1      16.384  76.433  25.699  1.00  0.00     0.016 A 
ATOM      8  C   UNL     1      14.108  77.816  24.708  1.00  0.00     0.012 A 
ATOM      9  C   UNL     1      15.181  75.745  25.454  1.00  0.00     0.001 A 
ATOM     10  C   UNL     1      14.049  76.433  24.962  1.00  0.00     0.001 A 
BRANCH   3  11
ATOM     11  O   UNL     1      18.698  78.498  26.016  1.00  0.00    -0.480 OA
ATOM     12  H   UNL     1      19.467  79.078  25.704  1.00  0.00     0.297 HD
ENDBRANCH   3  11
ENDBRANCH   1   2
BRANCH   1  13
ATOM     13  C   UNL     1      13.875  81.398  25.379  1.00  0.00     0.008 C 
BRANCH  13  14
ATOM     14  C   UNL     1      14.628  81.917  26.610  1.00  0.00    -0.003 C 
ATOM     15  C   UNL     1      14.301  81.084  27.847  1.00  0.00     0.004 C 
ENDBRANCH  13  14
ENDBRANCH   1  13
TORSDOF 4
ENDMDL
MODEL 9
REMARK VINA RESULT:    -4.072      4.262      6.349
REMARK INTER + INTRA:          -5.186
REMARK INTER:                  -5.069
REMARK INTRA:                  -0.117
REMARK UNBOUND:                -0.281
REMARK SMILES CCCCc1oc(O)c2ccccc12
REMARK SMILES IDX 4 1 5 2 7 3 6 4 9 5 14 6 10 7 13 8 11 9 12 10 8 11 3 13 2 14
REMARK SMILES IDX 1 15
REMARK H PARENT 8 12
REMARK Flexibility Score: inf
ROOT
ATOM      1  C   UNL     1      17.321  79.925  27.437  1.00  0.00     0.076 C 
ENDROOT
BRANCH   1   2
ATOM      2  C   UNL     1      16.810  79.001  26.374  1.00  0.00     0.116 A 
ATOM      3  C   UNL     1      16.659  77.274  25.113  1.00  0.00     0.290 A 
ATOM      4  O   UNL     1      17.320  77.808  26.122  1.00  0.00    -0.430 OA
ATOM      5  C   UNL     1      15.685  78.144  24.682  1.00  0.00     0.066 A 
ATOM      6  C   UNL     1      15.780  79.249  25.485  1.00  0.00     0.027 A 
ATOM      7  C   UNL     1      14.744  78.051  23.659  1.00  0.00     0.016 A 
ATOM      8  C   UNL     1      14.937  80.349  25.320  1.00  0.00     0.012 A 
ATOM      9  C   UNL     1      13.877  79.143  23.470  1.00  0.00     0.001 A 
ATOM     10  C   UNL     1      13.973  80.286  24.296  1.00  0.00     0.001 A 
BRANCH   3  11
ATOM     11  O   UNL     1      16.922  76.018  24.577  1.00  0.00    -0.480 OA
ATOM     12  H   UNL     1      17.446  75.334  25.108  1.00  0.00     0.297 HD
ENDBRANCH   3  11
ENDBRANCH   1   2
BRANCH   1  13
ATOM     13  C   UNL     1      18.006  81.140  26.805  1.00  0.00     0.008 C 
BRANCH  13  14
ATOM     14  C   UNL     1      18.689  80.762  25.486  1.00  0.00    -0.003 C 
ATOM     15  C   UNL     1      20.058  80.133  25.734  1.00  0.00     0.004 C 
ENDBRANCH  13  14
ENDBRANCH   1  13
TORSDOF 4
ENDMDL
