MODEL 1
REMARK VINA RESULT:    -1.592      0.000      0.000
REMARK INTER + INTRA:          -4.843
REMARK INTER:                  -2.708
REMARK INTRA:                  -2.134
REMARK UNBOUND:                -2.134
REMARK SMILES CCCCCCCCCCCCCC(=O)[O-]
REMARK SMILES IDX 8 1 9 2 10 3 11 4 12 5 13 6 14 7 15 8 16 9 7 10 6 11 5 12
REMARK SMILES IDX 4 13 3 14 2 15 1 16
REMARK H PARENT
REMARK Flexibility Score: inf
ROOT
ATOM      1  C   UNL     1      22.198  27.058  18.129  1.00  0.00     0.000 C 
ENDROOT
BRANCH   1   2
ATOM      2  C   UNL     1      22.185  28.585  17.994  1.00  0.00     0.000 C 
BRANCH   2   3
ATOM      3  C   UNL     1      22.502  29.012  16.553  1.00  0.00     0.000 C 
BRANCH   3   4
ATOM      4  C   UNL     1      22.165  27.921  15.524  1.00  0.00     0.000 C 
BRANCH   4   5
ATOM      5  C   UNL     1      23.008  28.037  14.243  1.00  0.00     0.006 C 
BRANCH   5   6
ATOM      6  C   UNL     1      23.821  29.338  14.200  1.00  0.00     0.053 C 
BRANCH   6   7
ATOM      7  C   UNL     1      24.633  29.445  12.946  1.00  0.00     0.041 C 
ATOM      8  O   UNL     1      24.182  30.069  11.949  1.00  0.00    -0.550 OA
ATOM      9  O   UNL     1      25.877  28.832  12.867  1.00  0.00    -0.550 OA
ENDBRANCH   6   7
ENDBRANCH   5   6
ENDBRANCH   4   5
ENDBRANCH   3   4
ENDBRANCH   2   3
ENDBRANCH   1   2
BRANCH   1  10
ATOM     10  C   UNL     1      23.147  26.610  19.246  1.00  0.00     0.000 C 
BRANCH  10  11
ATOM     11  C   UNL     1      24.147  27.718  19.599  1.00  0.00    -0.000 C 
BRANCH  11  12
ATOM     12  C   UNL     1      25.539  27.403  19.033  1.00  0.00    -0.000 C 
BRANCH  12  13
ATOM     13  C   UNL     1      25.926  28.318  17.858  1.00  0.00    -0.000 C 
BRANCH  13  14
ATOM     14  C   UNL     1      25.995  27.563  16.520  1.00  0.00    -0.000 C 
BRANCH  14  15
ATOM     15  C   UNL     1      25.819  26.046  16.692  1.00  0.00    -0.003 C 
ATOM     16  C   UNL     1      25.050  25.402  15.538  1.00  0.00     0.004 C 
ENDBRANCH  14  15
ENDBRANCH  13  14
ENDBRANCH  12  13
ENDBRANCH  11  12
ENDBRANCH  10  11
ENDBRANCH   1  10
TORSDOF 12
ENDMDL
MODEL 2
REMARK VINA RESULT:    -1.550      3.548      5.712
REMARK INTER + INTRA:          -4.772
REMARK INTER:                  -2.729
REMARK INTRA:                  -2.044
REMARK UNBOUND:                -2.134
REMARK SMILES CCCCCCCCCCCCCC(=O)[O-]
REMARK SMILES IDX 8 1 9 2 10 3 11 4 12 5 13 6 14 7 15 8 16 9 7 10 6 11 5 12
REMARK SMILES IDX 4 13 3 14 2 15 1 16
REMARK H PARENT
REMARK Flexibility Score: inf
ROOT
ATOM      1  C   UNL     1      24.256  28.188  15.470  1.00  0.00     0.000 C 
ENDROOT
BRANCH   1   2
ATOM      2  C   UNL     1      25.615  27.487  15.358  1.00  0.00     0.000 C 
BRANCH   2   3
ATOM      3  C   UNL     1      25.478  25.979  15.617  1.00  0.00     0.000 C 
BRANCH   3   4
ATOM      4  C   UNL     1      24.031  25.559  15.921  1.00  0.00     0.000 C 
BRANCH   4   5
ATOM      5  C   UNL     1      23.660  24.211  15.280  1.00  0.00     0.006 C 
BRANCH   5   6
ATOM      6  C   UNL     1      24.560  23.871  14.084  1.00  0.00     0.053 C 
BRANCH   6   7
ATOM      7  C   UNL     1      24.099  22.634  13.376  1.00  0.00     0.041 C 
ATOM      8  O   UNL     1      22.879  22.325  13.367  1.00  0.00    -0.550 OA
ATOM      9  O   UNL     1      25.022  21.806  12.750  1.00  0.00    -0.550 OA
ENDBRANCH   6   7
ENDBRANCH   5   6
ENDBRANCH   4   5
ENDBRANCH   3   4
ENDBRANCH   2   3
ENDBRANCH   1   2
BRANCH   1  10
ATOM     10  C   UNL     1      24.019  29.126  14.281  1.00  0.00     0.000 C 
BRANCH  10  11
ATOM     11  C   UNL     1      25.132  28.983  13.235  1.00  0.00    -0.000 C 
BRANCH  11  12
ATOM     12  C   UNL     1      24.557  28.561  11.875  1.00  0.00    -0.000 C 
BRANCH  12  13
ATOM     13  C   UNL     1      23.133  27.992  11.982  1.00  0.00    -0.000 C 
BRANCH  13  14
ATOM     14  C   UNL     1      23.108  26.454  11.949  1.00  0.00    -0.000 C 
BRANCH  14  15
ATOM     15  C   UNL     1      21.804  25.875  12.523  1.00  0.00    -0.003 C 
ATOM     16  C   UNL     1      21.259  26.689  13.697  1.00  0.00     0.004 C 
ENDBRANCH  14  15
ENDBRANCH  13  14
ENDBRANCH  12  13
ENDBRANCH  11  12
ENDBRANCH  10  11
ENDBRANCH   1  10
TORSDOF 12
ENDMDL
MODEL 3
REMARK VINA RESULT:    -1.549      1.970      2.951
REMARK INTER + INTRA:          -4.770
REMARK INTER:                  -2.676
REMARK INTRA:                  -2.094
REMARK UNBOUND:                -2.134
REMARK SMILES CCCCCCCCCCCCCC(=O)[O-]
REMARK SMILES IDX 8 1 9 2 10 3 11 4 12 5 13 6 14 7 15 8 16 9 7 10 6 11 5 12
REMARK SMILES IDX 4 13 3 14 2 15 1 16
REMARK H PARENT
REMARK Flexibility Score: inf
ROOT
ATOM      1  C   UNL     1      22.204  25.618  16.586  1.00  0.00     0.000 C 
ENDROOT
BRANCH   1   2
ATOM      2  C   UNL     1      21.448  25.217  15.313  1.00  0.00     0.000 C 
BRANCH   2   3
ATOM      3  C   UNL     1      21.546  26.319  14.247  1.00  0.00     0.000 C 
BRANCH   3   4
ATOM      4  C   UNL     1      22.301  25.861  12.989  1.00  0.00     0.000 C 
BRANCH   4   5
ATOM      5  C   UNL     1      23.340  26.891  12.515  1.00  0.00     0.006 C 
BRANCH   5   6
ATOM      6  C   UNL     1      22.951  28.325  12.901  1.00  0.00     0.053 C 
BRANCH   6   7
ATOM      7  C   UNL     1      24.125  29.100  13.415  1.00  0.00     0.041 C 
ATOM      8  O   UNL     1      24.035  29.749  14.490  1.00  0.00    -0.550 OA
ATOM      9  O   UNL     1      25.311  29.129  12.693  1.00  0.00    -0.550 OA
ENDBRANCH   6   7
ENDBRANCH   5   6
ENDBRANCH   4   5
ENDBRANCH   3   4
ENDBRANCH   2   3
ENDBRANCH   1   2
BRANCH   1  10
ATOM     10  C   UNL     1      22.792  27.028  16.458  1.00  0.00     0.000 C 
BRANCH  10  11
ATOM     11  C   UNL     1      24.291  27.032  16.780  1.00  0.00    -0.000 C 
BRANCH  11  12
ATOM     12  C   UNL     1      25.094  26.339  15.670  1.00  0.00    -0.000 C 
BRANCH  12  13
ATOM     13  C   UNL     1      26.125  25.337  16.217  1.00  0.00    -0.000 C 
BRANCH  13  14
ATOM     14  C   UNL     1      25.824  23.889  15.793  1.00  0.00    -0.000 C 
BRANCH  14  15
ATOM     15  C   UNL     1      24.821  23.814  14.631  1.00  0.00    -0.003 C 
ATOM     16  C   UNL     1      25.065  22.616  13.713  1.00  0.00     0.004 C 
ENDBRANCH  14  15
ENDBRANCH  13  14
ENDBRANCH  12  13
ENDBRANCH  11  12
ENDBRANCH  10  11
ENDBRANCH   1  10
TORSDOF 12
ENDMDL
MODEL 4
REMARK VINA RESULT:    -1.442      2.888      5.019
REMARK INTER + INTRA:          -4.587
REMARK INTER:                  -2.411
REMARK INTRA:                  -2.176
REMARK UNBOUND:                -2.134
REMARK SMILES CCCCCCCCCCCCCC(=O)[O-]
REMARK SMILES IDX 8 1 9 2 10 3 11 4 12 5 13 6 14 7 15 8 16 9 7 10 6 11 5 12
REMARK SMILES IDX 4 13 3 14 2 15 1 16
REMARK H PARENT
REMARK Flexibility Score: inf
ROOT
ATOM      1  C   UNL     1      22.480  28.220  12.556  1.00  0.00     0.000 C 
ENDROOT
BRANCH   1   2
ATOM      2  C   UNL     1      21.820  26.886  12.924  1.00  0.00     0.000 C 
BRANCH   2   3
ATOM      3  C   UNL     1      21.473  26.838  14.420  1.00  0.00     0.000 C 
BRANCH   3   4
ATOM      4  C   UNL     1      22.086  25.622  15.133  1.00  0.00     0.000 C 
BRANCH   4   5
ATOM      5  C   UNL     1      23.212  24.965  14.318  1.00  0.00     0.006 C 
BRANCH   5   6
ATOM      6  C   UNL     1      24.601  25.289  14.885  1.00  0.00     0.053 C 
BRANCH   6   7
ATOM      7  C   UNL     1      25.183  24.126  15.629  1.00  0.00     0.041 C 
ATOM      8  O   UNL     1      26.033  23.379  15.075  1.00  0.00    -0.550 OA
ATOM      9  O   UNL     1      24.765  23.849  16.924  1.00  0.00    -0.550 OA
ENDBRANCH   6   7
ENDBRANCH   5   6
ENDBRANCH   4   5
ENDBRANCH   3   4
ENDBRANCH   2   3
ENDBRANCH   1   2
BRANCH   1  10
ATOM     10  C   UNL     1      24.002  28.073  12.453  1.00  0.00     0.000 C 
BRANCH  10  11
ATOM     11  C   UNL     1      24.710  28.875  13.551  1.00  0.00    -0.000 C 
BRANCH  11  12
ATOM     12  C   UNL     1      23.738  29.847  14.236  1.00  0.00    -0.000 C 
BRANCH  12  13
ATOM     13  C   UNL     1      23.917  29.891  15.762  1.00  0.00    -0.000 C 
BRANCH  13  14
ATOM     14  C   UNL     1      24.625  28.640  16.310  1.00  0.00    -0.000 C 
BRANCH  14  15
ATOM     15  C   UNL     1      23.800  27.923  17.390  1.00  0.00    -0.003 C 
ATOM     16  C   UNL     1      22.433  28.569  17.620  1.00  0.00     0.004 C 
ENDBRANCH  14  15
ENDBRANCH  13  14
ENDBRANCH  12  13
ENDBRANCH  11  12
ENDBRANCH  10  11
ENDBRANCH   1  10
TORSDOF 12
ENDMDL
MODEL 5
REMARK VINA RESULT:    -1.433      3.060      5.301
REMARK INTER + INTRA:          -4.573
REMARK INTER:                  -2.455
REMARK INTRA:                  -2.119
REMARK UNBOUND:                -2.134
REMARK SMILES CCCCCCCCCCCCCC(=O)[O-]
REMARK SMILES IDX 8 1 9 2 10 3 11 4 12 5 13 6 14 7 15 8 16 9 7 10 6 11 5 12
REMARK SMILES IDX 4 13 3 14 2 15 1 16
REMARK H PARENT
REMARK Flexibility Score: inf
ROOT
ATOM      1  C   UNL     1      24.061  28.117  11.875  1.00  0.00     0.000 C 
ENDROOT
BRANCH   1   2
ATOM      2  C   UNL     1      22.569  28.115  12.231  1.00  0.00     0.000 C 
BRANCH   2   3
ATOM      3  C   UNL     1      22.048  26.680  12.405  1.00  0.00     0.000 C 
BRANCH   3   4
ATOM      4  C   UNL     1      23.129  25.715  12.919  1.00  0.00     0.000 C 
BRANCH   4   5
ATOM      5  C   UNL     1      23.172  25.638  14.454  1.00  0.00     0.006 C 
BRANCH   5   6
ATOM      6  C   UNL     1      24.600  25.769  15.001  1.00  0.00     0.053 C 
BRANCH   6   7
ATOM      7  C   UNL     1      24.694  25.311  16.424  1.00  0.00     0.041 C 
ATOM      8  O   UNL     1      25.614  25.742  17.169  1.00  0.00    -0.550 OA
ATOM      9  O   UNL     1      23.784  24.387  16.920  1.00  0.00    -0.550 OA
ENDBRANCH   6   7
ENDBRANCH   5   6
ENDBRANCH   4   5
ENDBRANCH   3   4
ENDBRANCH   2   3
ENDBRANCH   1   2
BRANCH   1  10
ATOM     10  C   UNL     1      24.863  28.969  12.865  1.00  0.00     0.000 C 
BRANCH  10  11
ATOM     11  C   UNL     1      23.933  29.762  13.791  1.00  0.00    -0.000 C 
BRANCH  11  12
ATOM     12  C   UNL     1      24.140  29.354  15.258  1.00  0.00    -0.000 C 
BRANCH  12  13
ATOM     13  C   UNL     1      22.924  29.675  16.142  1.00  0.00    -0.000 C 
BRANCH  13  14
ATOM     14  C   UNL     1      22.022  28.450  16.373  1.00  0.00    -0.000 C 
BRANCH  14  15
ATOM     15  C   UNL     1      20.768  28.469  15.485  1.00  0.00    -0.003 C 
ATOM     16  C   UNL     1      19.975  27.163  15.549  1.00  0.00     0.004 C 
ENDBRANCH  14  15
ENDBRANCH  13  14
ENDBRANCH  12  13
ENDBRANCH  11  12
ENDBRANCH  10  11
ENDBRANCH   1  10
TORSDOF 12
ENDMDL
MODEL 6
REMARK VINA RESULT:    -1.427      2.350      4.380
REMARK INTER + INTRA:          -4.563
REMARK INTER:                  -2.547
REMARK INTRA:                  -2.016
REMARK UNBOUND:                -2.134
REMARK SMILES CCCCCCCCCCCCCC(=O)[O-]
REMARK SMILES IDX 8 1 9 2 10 3 11 4 12 5 13 6 14 7 15 8 16 9 7 10 6 11 5 12
REMARK SMILES IDX 4 13 3 14 2 15 1 16
REMARK H PARENT
REMARK Flexibility Score: inf
ROOT
ATOM      1  C   UNL     1      21.905  27.149  12.554  1.00  0.00     0.000 C 
ENDROOT
BRANCH   1   2
ATOM      2  C   UNL     1      22.709  28.295  11.928  1.00  0.00     0.000 C 
BRANCH   2   3
ATOM      3  C   UNL     1      24.219  28.046  12.066  1.00  0.00     0.000 C 
BRANCH   3   4
ATOM      4  C   UNL     1      24.886  28.993  13.076  1.00  0.00     0.000 C 
BRANCH   4   5
ATOM      5  C   UNL     1      23.880  29.937  13.756  1.00  0.00     0.006 C 
BRANCH   5   6
ATOM      6  C   UNL     1      23.848  29.749  15.278  1.00  0.00     0.053 C 
BRANCH   6   7
ATOM      7  C   UNL     1      22.459  29.494  15.778  1.00  0.00     0.041 C 
ATOM      8  O   UNL     1      22.275  29.024  16.932  1.00  0.00    -0.550 OA
ATOM      9  O   UNL     1      21.367  29.747  14.958  1.00  0.00    -0.550 OA
ENDBRANCH   6   7
ENDBRANCH   5   6
ENDBRANCH   4   5
ENDBRANCH   3   4
ENDBRANCH   2   3
ENDBRANCH   1   2
BRANCH   1  10
ATOM     10  C   UNL     1      22.806  25.950  12.867  1.00  0.00     0.000 C 
BRANCH  10  11
ATOM     11  C   UNL     1      22.482  25.361  14.246  1.00  0.00    -0.000 C 
BRANCH  11  12
ATOM     12  C   UNL     1      23.374  25.980  15.332  1.00  0.00    -0.000 C 
BRANCH  12  13
ATOM     13  C   UNL     1      24.874  25.788  15.051  1.00  0.00    -0.000 C 
BRANCH  13  14
ATOM     14  C   UNL     1      25.760  26.663  15.954  1.00  0.00    -0.000 C 
BRANCH  14  15
ATOM     15  C   UNL     1      25.123  26.923  17.328  1.00  0.00    -0.003 C 
ATOM     16  C   UNL     1      25.760  26.095  18.445  1.00  0.00     0.004 C 
ENDBRANCH  14  15
ENDBRANCH  13  14
ENDBRANCH  12  13
ENDBRANCH  11  12
ENDBRANCH  10  11
ENDBRANCH   1  10
TORSDOF 12
ENDMDL
MODEL 7
REMARK VINA RESULT:    -1.426      1.291      3.105
REMARK INTER + INTRA:          -4.561
REMARK INTER:                  -2.609
REMARK INTRA:                  -1.952
REMARK UNBOUND:                -2.134
REMARK SMILES CCCCCCCCCCCCCC(=O)[O-]
REMARK SMILES IDX 8 1 9 2 10 3 11 4 12 5 13 6 14 7 15 8 16 9 7 10 6 11 5 12
REMARK SMILES IDX 4 13 3 14 2 15 1 16
REMARK H PARENT
REMARK Flexibility Score: inf
ROOT
ATOM      1  C   UNL     1      24.705  26.340  17.892  1.00  0.00     0.000 C 
ENDROOT
BRANCH   1   2
ATOM      2  C   UNL     1      25.949  26.306  16.996  1.00  0.00     0.000 C 
BRANCH   2   3
ATOM      3  C   UNL     1      25.589  26.653  15.543  1.00  0.00     0.000 C 
BRANCH   3   4
ATOM      4  C   UNL     1      24.309  27.496  15.435  1.00  0.00     0.000 C 
BRANCH   4   5
ATOM      5  C   UNL     1      24.601  29.000  15.299  1.00  0.00     0.006 C 
BRANCH   5   6
ATOM      6  C   UNL     1      23.857  29.630  14.114  1.00  0.00     0.053 C 
BRANCH   6   7
ATOM      7  C   UNL     1      24.375  29.126  12.801  1.00  0.00     0.041 C 
ATOM      8  O   UNL     1      23.575  28.827  11.876  1.00  0.00    -0.550 OA
ATOM      9  O   UNL     1      25.740  28.960  12.609  1.00  0.00    -0.550 OA
ENDBRANCH   6   7
ENDBRANCH   5   6
ENDBRANCH   4   5
ENDBRANCH   3   4
ENDBRANCH   2   3
ENDBRANCH   1   2
BRANCH   1  10
ATOM     10  C   UNL     1      24.932  27.231  19.118  1.00  0.00     0.000 C 
BRANCH  10  11
ATOM     11  C   UNL     1      25.993  28.301  18.834  1.00  0.00    -0.000 C 
BRANCH  11  12
ATOM     12  C   UNL     1      25.377  29.708  18.866  1.00  0.00    -0.000 C 
BRANCH  12  13
ATOM     13  C   UNL     1      23.917  29.707  19.350  1.00  0.00    -0.000 C 
BRANCH  13  14
ATOM     14  C   UNL     1      22.928  30.113  18.244  1.00  0.00    -0.000 C 
BRANCH  14  15
ATOM     15  C   UNL     1      21.683  29.213  18.210  1.00  0.00    -0.003 C 
ATOM     16  C   UNL     1      21.159  28.976  16.794  1.00  0.00     0.004 C 
ENDBRANCH  14  15
ENDBRANCH  13  14
ENDBRANCH  12  13
ENDBRANCH  11  12
ENDBRANCH  10  11
ENDBRANCH   1  10
TORSDOF 12
ENDMDL
MODEL 8
REMARK VINA RESULT:    -1.369      3.377      5.388
REMARK INTER + INTRA:          -4.463
REMARK INTER:                  -2.559
REMARK INTRA:                  -1.904
REMARK UNBOUND:                -2.134
REMARK SMILES CCCCCCCCCCCCCC(=O)[O-]
REMARK SMILES IDX 8 1 9 2 10 3 11 4 12 5 13 6 14 7 15 8 16 9 7 10 6 11 5 12
REMARK SMILES IDX 4 13 3 14 2 15 1 16
REMARK H PARENT
REMARK Flexibility Score: inf
ROOT
ATOM      1  C   UNL     1      20.468  26.972  14.017  1.00  0.00     0.000 C 
ENDROOT
BRANCH   1   2
ATOM      2  C   UNL     1      21.167  26.807  15.373  1.00  0.00     0.000 C 
BRANCH   2   3
ATOM      3  C   UNL     1      22.393  25.890  15.251  1.00  0.00     0.000 C 
BRANCH   3   4
ATOM      4  C   UNL     1      22.214  24.800  14.180  1.00  0.00     0.000 C 
BRANCH   4   5
ATOM      5  C   UNL     1      23.479  24.592  13.331  1.00  0.00     0.006 C 
BRANCH   5   6
ATOM      6  C   UNL     1      23.923  23.124  13.305  1.00  0.00     0.053 C 
BRANCH   6   7
ATOM      7  C   UNL     1      25.205  22.917  14.053  1.00  0.00     0.041 C 
ATOM      8  O   UNL     1      25.479  23.633  15.052  1.00  0.00    -0.550 OA
ATOM      9  O   UNL     1      26.111  21.953  13.629  1.00  0.00    -0.550 OA
ENDBRANCH   6   7
ENDBRANCH   5   6
ENDBRANCH   4   5
ENDBRANCH   3   4
ENDBRANCH   2   3
ENDBRANCH   1   2
BRANCH   1  10
ATOM     10  C   UNL     1      20.989  28.207  13.275  1.00  0.00     0.000 C 
BRANCH  10  11
ATOM     11  C   UNL     1      21.647  27.816  11.946  1.00  0.00    -0.000 C 
BRANCH  11  12
ATOM     12  C   UNL     1      23.165  28.042  11.996  1.00  0.00    -0.000 C 
BRANCH  12  13
ATOM     13  C   UNL     1      23.592  28.961  13.153  1.00  0.00    -0.000 C 
BRANCH  13  14
ATOM     14  C   UNL     1      24.992  28.620  13.691  1.00  0.00    -0.000 C 
BRANCH  14  15
ATOM     15  C   UNL     1      24.984  28.320  15.199  1.00  0.00    -0.003 C 
ATOM     16  C   UNL     1      25.895  27.152  15.577  1.00  0.00     0.004 C 
ENDBRANCH  14  15
ENDBRANCH  13  14
ENDBRANCH  12  13
ENDBRANCH  11  12
ENDBRANCH  10  11
ENDBRANCH   1  10
TORSDOF 12
ENDMDL
