MODEL 1
REMARK VINA RESULT:    -0.032      0.000      0.000
REMARK INTER + INTRA:          -0.356
REMARK INTER:                  -0.037
REMARK INTRA:                  -0.318
REMARK UNBOUND:                -0.318
REMARK SMILES O=c1cc(-c2ccc(O)c(O)c2)oc2cc(O)cc(O)c12
REMARK SMILES IDX 4 1 3 2 2 3 1 4 21 5 19 6 18 7 16 8 15 9 14 10 13 11 5 12
REMARK SMILES IDX 6 13 7 14 8 15 12 16 10 17 9 18 11 20 20 22 17 24
REMARK H PARENT 9 19 11 21 20 23 17 25
REMARK Flexibility Score: inf
ROOT
ATOM      1  C   UNL     1       9.620  68.246  -0.160  1.00  0.00     0.138 A 
ATOM      2  C   UNL     1      10.125  68.857  -1.320  1.00  0.00     0.100 A 
ATOM      3  C   UNL     1      10.302  70.240  -1.345  1.00  0.00     0.197 A 
ATOM      4  O   UNL     1      10.755  70.779  -2.391  1.00  0.00    -0.289 OA
ATOM      5  C   UNL     1       9.969  71.006  -0.210  1.00  0.00     0.107 A 
ATOM      6  C   UNL     1      10.119  72.411  -0.152  1.00  0.00     0.134 A 
ATOM      7  C   UNL     1       9.758  73.102   1.014  1.00  0.00     0.093 A 
ATOM      8  C   UNL     1       9.251  72.416   2.120  1.00  0.00     0.123 A 
ATOM      9  C   UNL     1       9.100  71.026   2.069  1.00  0.00     0.094 A 
ATOM     10  C   UNL     1       9.455  70.320   0.916  1.00  0.00     0.146 A 
ATOM     11  O   UNL     1       9.305  68.999   0.893  1.00  0.00    -0.456 OA
ENDROOT
BRANCH   1  12
ATOM     12  C   UNL     1       9.409  66.778  -0.075  1.00  0.00     0.021 A 
ATOM     13  C   UNL     1       9.751  65.967  -1.169  1.00  0.00     0.016 A 
ATOM     14  C   UNL     1       9.556  64.584  -1.117  1.00  0.00     0.051 A 
ATOM     15  C   UNL     1       9.005  63.991   0.025  1.00  0.00     0.157 A 
ATOM     16  C   UNL     1       8.843  66.177   1.067  1.00  0.00     0.062 A 
ATOM     17  C   UNL     1       8.645  64.790   1.118  1.00  0.00     0.158 A 
BRANCH  15  18
ATOM     18  O   UNL     1       8.809  62.612   0.081  1.00  0.00    -0.504 OA
ATOM     19  H   UNL     1       8.791  62.045  -0.758  1.00  0.00     0.293 HD
ENDBRANCH  15  18
BRANCH  17  20
ATOM     20  O   UNL     1       8.087  64.197   2.250  1.00  0.00    -0.504 OA
ATOM     21  H   UNL     1       7.817  64.746   3.057  1.00  0.00     0.293 HD
ENDBRANCH  17  20
ENDBRANCH   1  12
BRANCH   6  22
ATOM     22  O   UNL     1      10.621  73.125  -1.242  1.00  0.00    -0.507 OA
ATOM     23  H   UNL     1      11.616  73.195  -1.420  1.00  0.00     0.293 HD
ENDBRANCH   6  22
BRANCH   8  24
ATOM     24  O   UNL     1       8.900  73.125   3.266  1.00  0.00    -0.508 OA
ATOM     25  H   UNL     1       9.564  73.285   4.015  1.00  0.00     0.293 HD
ENDBRANCH   8  24
TORSDOF 5
ENDMDL
MODEL 2
REMARK VINA RESULT:     0.670      1.043      2.639
REMARK INTER + INTRA:           0.469
REMARK INTER:                   0.766
REMARK INTRA:                  -0.297
REMARK UNBOUND:                -0.318
REMARK SMILES O=c1cc(-c2ccc(O)c(O)c2)oc2cc(O)cc(O)c12
REMARK SMILES IDX 4 1 3 2 2 3 1 4 21 5 19 6 18 7 16 8 15 9 14 10 13 11 5 12
REMARK SMILES IDX 6 13 7 14 8 15 12 16 10 17 9 18 11 20 20 22 17 24
REMARK H PARENT 9 19 11 21 20 23 17 25
REMARK Flexibility Score: inf
ROOT
ATOM      1  C   UNL     1       9.504  68.286   0.686  1.00  0.00     0.138 A 
ATOM      2  C   UNL     1       9.183  68.890   1.913  1.00  0.00     0.100 A 
ATOM      3  C   UNL     1       9.377  70.262   2.074  1.00  0.00     0.197 A 
ATOM      4  O   UNL     1       9.086  70.795   3.179  1.00  0.00    -0.289 OA
ATOM      5  C   UNL     1       9.893  71.021   1.006  1.00  0.00     0.107 A 
ATOM      6  C   UNL     1      10.118  72.416   1.085  1.00  0.00     0.134 A 
ATOM      7  C   UNL     1      10.642  73.100  -0.022  1.00  0.00     0.093 A 
ATOM      8  C   UNL     1      10.946  72.418  -1.202  1.00  0.00     0.123 A 
ATOM      9  C   UNL     1      10.725  71.039  -1.287  1.00  0.00     0.094 A 
ATOM     10  C   UNL     1      10.203  70.340  -0.195  1.00  0.00     0.146 A 
ATOM     11  O   UNL     1      10.000  69.030  -0.300  1.00  0.00    -0.456 OA
ENDROOT
BRANCH   1  12
ATOM     12  C   UNL     1       9.321  66.829   0.457  1.00  0.00     0.021 A 
ATOM     13  C   UNL     1       9.678  66.275  -0.784  1.00  0.00     0.016 A 
ATOM     14  C   UNL     1       9.508  64.910  -1.027  1.00  0.00     0.051 A 
ATOM     15  C   UNL     1       8.971  64.078  -0.038  1.00  0.00     0.157 A 
ATOM     16  C   UNL     1       8.768  65.989   1.443  1.00  0.00     0.062 A 
ATOM     17  C   UNL     1       8.597  64.619   1.198  1.00  0.00     0.158 A 
BRANCH  15  18
ATOM     18  O   UNL     1       8.801  62.714  -0.276  1.00  0.00    -0.504 OA
ATOM     19  H   UNL     1       8.226  62.378  -1.039  1.00  0.00     0.293 HD
ENDBRANCH  15  18
BRANCH  17  20
ATOM     20  O   UNL     1       8.052  63.789   2.177  1.00  0.00    -0.504 OA
ATOM     21  H   UNL     1       8.605  63.456   2.958  1.00  0.00     0.293 HD
ENDBRANCH  17  20
ENDBRANCH   1  12
BRANCH   6  22
ATOM     22  O   UNL     1       9.827  73.125   2.252  1.00  0.00    -0.507 OA
ATOM     23  H   UNL     1       9.953  72.715   3.170  1.00  0.00     0.293 HD
ENDBRANCH   6  22
BRANCH   8  24
ATOM     24  O   UNL     1      11.465  73.120  -2.287  1.00  0.00    -0.508 OA
ATOM     25  H   UNL     1      12.462  73.170  -2.459  1.00  0.00     0.293 HD
ENDBRANCH   8  24
TORSDOF 5
ENDMDL
MODEL 3
REMARK VINA RESULT:     0.697      1.398      3.029
REMARK INTER + INTRA:           0.501
REMARK INTER:                   0.798
REMARK INTRA:                  -0.297
REMARK UNBOUND:                -0.318
REMARK SMILES O=c1cc(-c2ccc(O)c(O)c2)oc2cc(O)cc(O)c12
REMARK SMILES IDX 4 1 3 2 2 3 1 4 21 5 19 6 18 7 16 8 15 9 14 10 13 11 5 12
REMARK SMILES IDX 6 13 7 14 8 15 12 16 10 17 9 18 11 20 20 22 17 24
REMARK H PARENT 9 19 11 21 20 23 17 25
REMARK Flexibility Score: inf
ROOT
ATOM      1  C   UNL     1       9.760  68.084  -0.325  1.00  0.00     0.138 A 
ATOM      2  C   UNL     1       9.493  69.017   0.692  1.00  0.00     0.100 A 
ATOM      3  C   UNL     1       9.798  70.362   0.485  1.00  0.00     0.197 A 
ATOM      4  O   UNL     1       9.554  71.192   1.404  1.00  0.00    -0.289 OA
ATOM      5  C   UNL     1      10.371  70.767  -0.736  1.00  0.00     0.107 A 
ATOM      6  C   UNL     1      10.708  72.110  -1.026  1.00  0.00     0.134 A 
ATOM      7  C   UNL     1      11.283  72.430  -2.266  1.00  0.00     0.093 A 
ATOM      8  C   UNL     1      11.526  71.437  -3.216  1.00  0.00     0.123 A 
ATOM      9  C   UNL     1      11.194  70.107  -2.935  1.00  0.00     0.094 A 
ATOM     10  C   UNL     1      10.621  69.767  -1.707  1.00  0.00     0.146 A 
ATOM     11  O   UNL     1      10.312  68.497  -1.464  1.00  0.00    -0.456 OA
ENDROOT
BRANCH   1  12
ATOM     12  C   UNL     1       9.459  66.639  -0.162  1.00  0.00     0.021 A 
ATOM     13  C   UNL     1       9.739  65.752  -1.214  1.00  0.00     0.016 A 
ATOM     14  C   UNL     1       9.458  64.389  -1.089  1.00  0.00     0.051 A 
ATOM     15  C   UNL     1       8.884  63.892   0.087  1.00  0.00     0.157 A 
ATOM     16  C   UNL     1       8.869  66.134   1.014  1.00  0.00     0.062 A 
ATOM     17  C   UNL     1       8.586  64.766   1.139  1.00  0.00     0.158 A 
BRANCH  15  18
ATOM     18  O   UNL     1       8.603  62.532   0.217  1.00  0.00    -0.504 OA
ATOM     19  H   UNL     1       9.066  61.839  -0.359  1.00  0.00     0.293 HD
ENDBRANCH  15  18
BRANCH  17  20
ATOM     20  O   UNL     1       8.005  64.269   2.304  1.00  0.00    -0.504 OA
ATOM     21  H   UNL     1       8.462  63.558   2.864  1.00  0.00     0.293 HD
ENDBRANCH  17  20
ENDBRANCH   1  12
BRANCH   6  22
ATOM     22  O   UNL     1      10.479  73.125  -0.096  1.00  0.00    -0.507 OA
ATOM     23  H   UNL     1       9.793  73.852  -0.260  1.00  0.00     0.293 HD
ENDBRANCH   6  22
BRANCH   8  24
ATOM     24  O   UNL     1      12.097  71.781  -4.439  1.00  0.00    -0.508 OA
ATOM     25  H   UNL     1      12.860  71.246  -4.838  1.00  0.00     0.293 HD
ENDBRANCH   8  24
TORSDOF 5
ENDMDL
MODEL 4
REMARK VINA RESULT:     0.800      2.825      6.342
REMARK INTER + INTRA:           0.622
REMARK INTER:                   0.924
REMARK INTRA:                  -0.302
REMARK UNBOUND:                -0.318
REMARK SMILES O=c1cc(-c2ccc(O)c(O)c2)oc2cc(O)cc(O)c12
REMARK SMILES IDX 4 1 3 2 2 3 1 4 21 5 19 6 18 7 16 8 15 9 14 10 13 11 5 12
REMARK SMILES IDX 6 13 7 14 8 15 12 16 10 17 9 18 11 20 20 22 17 24
REMARK H PARENT 9 19 11 21 20 23 17 25
REMARK Flexibility Score: inf
ROOT
ATOM      1  C   UNL     1      10.484  71.424  -0.251  1.00  0.00     0.138 A 
ATOM      2  C   UNL     1       9.984  72.469   0.543  1.00  0.00     0.100 A 
ATOM      3  C   UNL     1       9.446  72.180   1.797  1.00  0.00     0.197 A 
ATOM      4  O   UNL     1       8.999  73.125   2.503  1.00  0.00    -0.289 OA
ATOM      5  C   UNL     1       9.409  70.846   2.248  1.00  0.00     0.107 A 
ATOM      6  C   UNL     1       8.882  70.468   3.506  1.00  0.00     0.134 A 
ATOM      7  C   UNL     1       8.876  69.115   3.878  1.00  0.00     0.093 A 
ATOM      8  C   UNL     1       9.383  68.138   3.020  1.00  0.00     0.123 A 
ATOM      9  C   UNL     1       9.905  68.505   1.775  1.00  0.00     0.094 A 
ATOM     10  C   UNL     1       9.921  69.847   1.386  1.00  0.00     0.146 A 
ATOM     11  O   UNL     1      10.425  70.173   0.199  1.00  0.00    -0.456 OA
ENDROOT
BRANCH   1  12
ATOM     12  C   UNL     1      11.066  71.671  -1.596  1.00  0.00     0.021 A 
ATOM     13  C   UNL     1      11.778  72.859  -1.833  1.00  0.00     0.016 A 
ATOM     14  C   UNL     1      12.329  73.118  -3.090  1.00  0.00     0.051 A 
ATOM     15  C   UNL     1      12.170  72.199  -4.134  1.00  0.00     0.157 A 
ATOM     16  C   UNL     1      10.898  70.756  -2.654  1.00  0.00     0.062 A 
ATOM     17  C   UNL     1      11.450  71.018  -3.917  1.00  0.00     0.158 A 
BRANCH  15  18
ATOM     18  O   UNL     1      12.719  72.454  -5.390  1.00  0.00    -0.504 OA
ATOM     19  H   UNL     1      12.619  71.797  -6.154  1.00  0.00     0.293 HD
ENDBRANCH  15  18
BRANCH  17  20
ATOM     20  O   UNL     1      11.285  70.110  -4.961  1.00  0.00    -0.504 OA
ATOM     21  H   UNL     1      11.979  70.011  -5.693  1.00  0.00     0.293 HD
ENDBRANCH  17  20
ENDBRANCH   1  12
BRANCH   6  22
ATOM     22  O   UNL     1       8.367  71.422   4.384  1.00  0.00    -0.507 OA
ATOM     23  H   UNL     1       7.419  71.769   4.297  1.00  0.00     0.293 HD
ENDBRANCH   6  22
BRANCH   8  24
ATOM     24  O   UNL     1       9.365  66.802   3.414  1.00  0.00    -0.508 OA
ATOM     25  H   UNL     1       9.918  66.472   4.196  1.00  0.00     0.293 HD
ENDBRANCH   8  24
TORSDOF 5
ENDMDL
MODEL 5
REMARK VINA RESULT:     0.968      2.029      6.786
REMARK INTER + INTRA:           0.820
REMARK INTER:                   1.138
REMARK INTRA:                  -0.318
REMARK UNBOUND:                -0.318
REMARK SMILES O=c1cc(-c2ccc(O)c(O)c2)oc2cc(O)cc(O)c12
REMARK SMILES IDX 4 1 3 2 2 3 1 4 21 5 19 6 18 7 16 8 15 9 14 10 13 11 5 12
REMARK SMILES IDX 6 13 7 14 8 15 12 16 10 17 9 18 11 20 20 22 17 24
REMARK H PARENT 9 19 11 21 20 23 17 25
REMARK Flexibility Score: inf
ROOT
ATOM      1  C   UNL     1      10.331  69.763  -0.121  1.00  0.00     0.138 A 
ATOM      2  C   UNL     1      10.119  70.267   1.173  1.00  0.00     0.100 A 
ATOM      3  C   UNL     1       9.647  69.416   2.173  1.00  0.00     0.197 A 
ATOM      4  O   UNL     1       9.459  69.879   3.331  1.00  0.00    -0.289 OA
ATOM      5  C   UNL     1       9.386  68.065   1.870  1.00  0.00     0.107 A 
ATOM      6  C   UNL     1       8.907  67.137   2.824  1.00  0.00     0.134 A 
ATOM      7  C   UNL     1       8.666  65.809   2.441  1.00  0.00     0.093 A 
ATOM      8  C   UNL     1       8.892  65.394   1.128  1.00  0.00     0.123 A 
ATOM      9  C   UNL     1       9.366  66.307   0.180  1.00  0.00     0.094 A 
ATOM     10  C   UNL     1       9.613  67.634   0.541  1.00  0.00     0.146 A 
ATOM     11  O   UNL     1      10.065  68.484  -0.377  1.00  0.00    -0.456 OA
ENDROOT
BRANCH   1  12
ATOM     12  C   UNL     1      10.831  70.621  -1.225  1.00  0.00     0.021 A 
ATOM     13  C   UNL     1      11.139  71.968  -0.968  1.00  0.00     0.016 A 
ATOM     14  C   UNL     1      11.604  72.798  -1.991  1.00  0.00     0.051 A 
ATOM     15  C   UNL     1      11.759  72.299  -3.290  1.00  0.00     0.157 A 
ATOM     16  C   UNL     1      10.977  70.129  -2.537  1.00  0.00     0.062 A 
ATOM     17  C   UNL     1      11.442  70.964  -3.564  1.00  0.00     0.158 A 
BRANCH  15  18
ATOM     18  O   UNL     1      12.224  73.125  -4.313  1.00  0.00    -0.504 OA
ATOM     19  H   UNL     1      13.212  73.213  -4.514  1.00  0.00     0.293 HD
ENDBRANCH  15  18
BRANCH  17  20
ATOM     20  O   UNL     1      11.588  70.473  -4.860  1.00  0.00    -0.504 OA
ATOM     21  H   UNL     1      11.289  71.009  -5.667  1.00  0.00     0.293 HD
ENDBRANCH  17  20
ENDBRANCH   1  12
BRANCH   6  22
ATOM     22  O   UNL     1       8.669  67.522   4.144  1.00  0.00    -0.507 OA
ATOM     23  H   UNL     1       8.410  66.850   4.857  1.00  0.00     0.293 HD
ENDBRANCH   6  22
BRANCH   8  24
ATOM     24  O   UNL     1       8.645  64.069   0.773  1.00  0.00    -0.508 OA
ATOM     25  H   UNL     1       8.971  63.686  -0.106  1.00  0.00     0.293 HD
ENDBRANCH   8  24
TORSDOF 5
ENDMDL
MODEL 6
REMARK VINA RESULT:     1.514      2.662      5.833
REMARK INTER + INTRA:           1.461
REMARK INTER:                   1.756
REMARK INTRA:                  -0.295
REMARK UNBOUND:                -0.318
REMARK SMILES O=c1cc(-c2ccc(O)c(O)c2)oc2cc(O)cc(O)c12
REMARK SMILES IDX 4 1 3 2 2 3 1 4 21 5 19 6 18 7 16 8 15 9 14 10 13 11 5 12
REMARK SMILES IDX 6 13 7 14 8 15 12 16 10 17 9 18 11 20 20 22 17 24
REMARK H PARENT 9 19 11 21 20 23 17 25
REMARK Flexibility Score: inf
ROOT
ATOM      1  C   UNL     1      10.343  70.080  -0.545  1.00  0.00     0.138 A 
ATOM      2  C   UNL     1      10.363  68.734  -0.143  1.00  0.00     0.100 A 
ATOM      3  C   UNL     1       9.938  68.397   1.142  1.00  0.00     0.197 A 
ATOM      4  O   UNL     1       9.960  67.186   1.495  1.00  0.00    -0.289 OA
ATOM      5  C   UNL     1       9.498  69.408   2.018  1.00  0.00     0.107 A 
ATOM      6  C   UNL     1       9.050  69.152   3.335  1.00  0.00     0.134 A 
ATOM      7  C   UNL     1       8.633  70.217   4.148  1.00  0.00     0.093 A 
ATOM      8  C   UNL     1       8.657  71.529   3.671  1.00  0.00     0.123 A 
ATOM      9  C   UNL     1       9.099  71.789   2.369  1.00  0.00     0.094 A 
ATOM     10  C   UNL     1       9.517  70.742   1.544  1.00  0.00     0.146 A 
ATOM     11  O   UNL     1       9.931  71.014   0.310  1.00  0.00    -0.456 OA
ENDROOT
BRANCH   1  12
ATOM     12  C   UNL     1      10.785  70.500  -1.900  1.00  0.00     0.021 A 
ATOM     13  C   UNL     1      10.410  69.735  -3.017  1.00  0.00     0.016 A 
ATOM     14  C   UNL     1      10.819  70.104  -4.301  1.00  0.00     0.051 A 
ATOM     15  C   UNL     1      11.617  71.238  -4.489  1.00  0.00     0.157 A 
ATOM     16  C   UNL     1      11.600  71.632  -2.095  1.00  0.00     0.062 A 
ATOM     17  C   UNL     1      12.012  72.001  -3.384  1.00  0.00     0.158 A 
BRANCH  15  18
ATOM     18  O   UNL     1      12.027  71.610  -5.769  1.00  0.00    -0.504 OA
ATOM     19  H   UNL     1      12.931  72.035  -5.932  1.00  0.00     0.293 HD
ENDBRANCH  15  18
BRANCH  17  20
ATOM     20  O   UNL     1      12.816  73.124  -3.573  1.00  0.00    -0.504 OA
ATOM     21  H   UNL     1      13.267  73.591  -2.795  1.00  0.00     0.293 HD
ENDBRANCH  17  20
ENDBRANCH   1  12
BRANCH   6  22
ATOM     22  O   UNL     1       9.016  67.852   3.841  1.00  0.00    -0.507 OA
ATOM     23  H   UNL     1       9.682  67.147   3.545  1.00  0.00     0.293 HD
ENDBRANCH   6  22
BRANCH   8  24
ATOM     24  O   UNL     1       8.238  72.568   4.498  1.00  0.00    -0.508 OA
ATOM     25  H   UNL     1       8.138  72.443   5.498  1.00  0.00     0.293 HD
ENDBRANCH   8  24
TORSDOF 5
ENDMDL
