MODEL 1
REMARK VINA RESULT:    -5.703      0.000      0.000
REMARK INTER + INTRA:          -5.703
REMARK INTER:                  -5.703
REMARK INTRA:                   0.000
REMARK UNBOUND:                 0.000
REMARK SMILES CC(C)=C1CC[C@@H](C)CC1=O
REMARK SMILES IDX 8 1 7 2 6 3 5 4 4 5 2 6 1 7 3 8 10 9 11 10 9 11
REMARK H PARENT
REMARK Flexibility Score: inf
ROOT
ATOM      1  C   UNL     1     125.897 176.150 124.087  1.00  0.00     0.008 C 
ATOM      2  C   UNL     1     124.412 176.497 123.938  1.00  0.00    -0.006 C 
ATOM      3  C   UNL     1     124.160 177.245 122.619  1.00  0.00     0.008 C 
ATOM      4  C   UNL     1     122.664 177.510 122.404  1.00  0.00     0.039 C 
ATOM      5  C   UNL     1     122.015 178.196 123.599  1.00  0.00    -0.006 C 
ATOM      6  C   UNL     1     120.973 179.063 123.439  1.00  0.00    -0.070 C 
ATOM      7  C   UNL     1     120.358 179.794 124.611  1.00  0.00     0.039 C 
ATOM      8  C   UNL     1     120.408 179.366 122.069  1.00  0.00     0.039 C 
ATOM      9  C   UNL     1     122.507 177.773 124.944  1.00  0.00     0.159 C 
ATOM     10  O   UNL     1     121.742 177.760 125.946  1.00  0.00    -0.295 OA
ATOM     11  C   UNL     1     123.935 177.349 125.123  1.00  0.00     0.084 C 
ENDROOT
TORSDOF 0
ENDMDL
MODEL 2
REMARK VINA RESULT:    -5.669      1.938      3.590
REMARK INTER + INTRA:          -5.669
REMARK INTER:                  -5.669
REMARK INTRA:                   0.000
REMARK UNBOUND:                 0.000
REMARK SMILES CC(C)=C1CC[C@@H](C)CC1=O
REMARK SMILES IDX 8 1 7 2 6 3 5 4 4 5 2 6 1 7 3 8 10 9 11 10 9 11
REMARK H PARENT
REMARK Flexibility Score: inf
ROOT
ATOM      1  C   UNL     1     121.823 178.890 128.697  1.00  0.00     0.008 C 
ATOM      2  C   UNL     1     121.544 178.400 127.272  1.00  0.00    -0.006 C 
ATOM      3  C   UNL     1     122.859 178.176 126.509  1.00  0.00     0.008 C 
ATOM      4  C   UNL     1     122.602 177.588 125.114  1.00  0.00     0.039 C 
ATOM      5  C   UNL     1     121.593 178.402 124.315  1.00  0.00    -0.006 C 
ATOM      6  C   UNL     1     121.672 178.490 122.955  1.00  0.00    -0.070 C 
ATOM      7  C   UNL     1     120.711 179.340 122.155  1.00  0.00     0.039 C 
ATOM      8  C   UNL     1     122.755 177.771 122.183  1.00  0.00     0.039 C 
ATOM      9  C   UNL     1     120.460 178.988 125.092  1.00  0.00     0.159 C 
ATOM     10  O   UNL     1     119.320 179.135 124.576  1.00  0.00    -0.295 OA
ATOM     11  C   UNL     1     120.665 179.409 126.518  1.00  0.00     0.084 C 
ENDROOT
TORSDOF 0
ENDMDL
MODEL 3
REMARK VINA RESULT:    -5.605      2.297      3.896
REMARK INTER + INTRA:          -5.605
REMARK INTER:                  -5.605
REMARK INTRA:                   0.000
REMARK UNBOUND:                 0.000
REMARK SMILES CC(C)=C1CC[C@@H](C)CC1=O
REMARK SMILES IDX 8 1 7 2 6 3 5 4 4 5 2 6 1 7 3 8 10 9 11 10 9 11
REMARK H PARENT
REMARK Flexibility Score: inf
ROOT
ATOM      1  C   UNL     1     121.890 178.618 129.495  1.00  0.00     0.008 C 
ATOM      2  C   UNL     1     122.093 178.970 128.018  1.00  0.00    -0.006 C 
ATOM      3  C   UNL     1     120.739 179.159 127.315  1.00  0.00     0.008 C 
ATOM      4  C   UNL     1     120.924 179.612 125.860  1.00  0.00     0.039 C 
ATOM      5  C   UNL     1     121.866 178.704 125.081  1.00  0.00    -0.006 C 
ATOM      6  C   UNL     1     121.703 178.495 123.741  1.00  0.00    -0.070 C 
ATOM      7  C   UNL     1     122.596 177.552 122.968  1.00  0.00     0.039 C 
ATOM      8  C   UNL     1     120.590 179.170 122.972  1.00  0.00     0.039 C 
ATOM      9  C   UNL     1     123.031 178.160 125.842  1.00  0.00     0.159 C 
ATOM     10  O   UNL     1     124.135 177.937 125.276  1.00  0.00    -0.295 OA
ATOM     11  C   UNL     1     122.903 177.874 127.309  1.00  0.00     0.084 C 
ENDROOT
TORSDOF 0
ENDMDL
MODEL 4
REMARK VINA RESULT:    -5.488      1.272      4.307
REMARK INTER + INTRA:          -5.488
REMARK INTER:                  -5.488
REMARK INTRA:                   0.000
REMARK UNBOUND:                 0.000
REMARK SMILES CC(C)=C1CC[C@@H](C)CC1=O
REMARK SMILES IDX 8 1 7 2 6 3 5 4 4 5 2 6 1 7 3 8 10 9 11 10 9 11
REMARK H PARENT
REMARK Flexibility Score: inf
ROOT
ATOM      1  C   UNL     1     118.250 180.124 125.758  1.00  0.00     0.008 C 
ATOM      2  C   UNL     1     119.654 179.857 125.206  1.00  0.00    -0.006 C 
ATOM      3  C   UNL     1     119.575 179.193 123.821  1.00  0.00     0.008 C 
ATOM      4  C   UNL     1     120.970 179.011 123.209  1.00  0.00     0.039 C 
ATOM      5  C   UNL     1     121.931 178.293 124.147  1.00  0.00    -0.006 C 
ATOM      6  C   UNL     1     122.922 177.487 123.666  1.00  0.00    -0.070 C 
ATOM      7  C   UNL     1     123.846 176.724 124.589  1.00  0.00     0.039 C 
ATOM      8  C   UNL     1     123.117 177.284 122.181  1.00  0.00     0.039 C 
ATOM      9  C   UNL     1     121.796 178.620 125.599  1.00  0.00     0.159 C 
ATOM     10  O   UNL     1     122.796 178.616 126.366  1.00  0.00    -0.295 OA
ATOM     11  C   UNL     1     120.452 178.966 126.169  1.00  0.00     0.084 C 
ENDROOT
TORSDOF 0
ENDMDL
MODEL 5
REMARK VINA RESULT:    -5.481      2.705      4.091
REMARK INTER + INTRA:          -5.481
REMARK INTER:                  -5.481
REMARK INTRA:                   0.000
REMARK UNBOUND:                 0.000
REMARK SMILES CC(C)=C1CC[C@@H](C)CC1=O
REMARK SMILES IDX 8 1 7 2 6 3 5 4 4 5 2 6 1 7 3 8 10 9 11 10 9 11
REMARK H PARENT
REMARK Flexibility Score: inf
ROOT
ATOM      1  C   UNL     1     123.393 178.652 126.938  1.00  0.00     0.008 C 
ATOM      2  C   UNL     1     122.145 179.261 126.291  1.00  0.00    -0.006 C 
ATOM      3  C   UNL     1     120.927 179.114 127.217  1.00  0.00     0.008 C 
ATOM      4  C   UNL     1     119.691 179.808 126.630  1.00  0.00     0.039 C 
ATOM      5  C   UNL     1     119.397 179.367 125.203  1.00  0.00    -0.006 C 
ATOM      6  C   UNL     1     118.118 179.316 124.726  1.00  0.00    -0.070 C 
ATOM      7  C   UNL     1     117.809 178.826 123.330  1.00  0.00     0.039 C 
ATOM      8  C   UNL     1     116.942 179.710 125.590  1.00  0.00     0.039 C 
ATOM      9  C   UNL     1     120.587 179.115 124.336  1.00  0.00     0.159 C 
ATOM     10  O   UNL     1     120.551 179.336 123.096  1.00  0.00    -0.295 OA
ATOM     11  C   UNL     1     121.858 178.593 124.938  1.00  0.00     0.084 C 
ENDROOT
TORSDOF 0
ENDMDL
MODEL 6
REMARK VINA RESULT:    -5.465      2.516      3.589
REMARK INTER + INTRA:          -5.465
REMARK INTER:                  -5.465
REMARK INTRA:                   0.000
REMARK UNBOUND:                 0.000
REMARK SMILES CC(C)=C1CC[C@@H](C)CC1=O
REMARK SMILES IDX 8 1 7 2 6 3 5 4 4 5 2 6 1 7 3 8 10 9 11 10 9 11
REMARK H PARENT
REMARK Flexibility Score: inf
ROOT
ATOM      1  C   UNL     1     123.673 179.049 129.103  1.00  0.00     0.008 C 
ATOM      2  C   UNL     1     122.767 178.625 127.942  1.00  0.00    -0.006 C 
ATOM      3  C   UNL     1     123.287 179.195 126.613  1.00  0.00     0.008 C 
ATOM      4  C   UNL     1     122.451 178.697 125.426  1.00  0.00     0.039 C 
ATOM      5  C   UNL     1     120.960 178.936 125.622  1.00  0.00    -0.006 C 
ATOM      6  C   UNL     1     120.136 179.183 124.561  1.00  0.00    -0.070 C 
ATOM      7  C   UNL     1     118.665 179.478 124.747  1.00  0.00     0.039 C 
ATOM      8  C   UNL     1     120.667 179.213 123.146  1.00  0.00     0.039 C 
ATOM      9  C   UNL     1     120.445 178.766 127.014  1.00  0.00     0.159 C 
ATOM     10  O   UNL     1     119.278 178.345 127.233  1.00  0.00    -0.295 OA
ATOM     11  C   UNL     1     121.324 179.094 128.185  1.00  0.00     0.084 C 
ENDROOT
TORSDOF 0
ENDMDL
MODEL 7
REMARK VINA RESULT:    -5.419      2.947      5.422
REMARK INTER + INTRA:          -5.419
REMARK INTER:                  -5.419
REMARK INTRA:                   0.000
REMARK UNBOUND:                 0.000
REMARK SMILES CC(C)=C1CC[C@@H](C)CC1=O
REMARK SMILES IDX 8 1 7 2 6 3 5 4 4 5 2 6 1 7 3 8 10 9 11 10 9 11
REMARK H PARENT
REMARK Flexibility Score: inf
ROOT
ATOM      1  C   UNL     1     117.320 179.288 123.837  1.00  0.00     0.008 C 
ATOM      2  C   UNL     1     118.475 178.772 124.702  1.00  0.00    -0.006 C 
ATOM      3  C   UNL     1     118.330 179.266 126.150  1.00  0.00     0.008 C 
ATOM      4  C   UNL     1     119.421 178.676 127.054  1.00  0.00     0.039 C 
ATOM      5  C   UNL     1     120.821 178.898 126.498  1.00  0.00    -0.006 C 
ATOM      6  C   UNL     1     121.895 179.059 127.325  1.00  0.00    -0.070 C 
ATOM      7  C   UNL     1     123.281 179.336 126.787  1.00  0.00     0.039 C 
ATOM      8  C   UNL     1     121.742 179.010 128.828  1.00  0.00     0.039 C 
ATOM      9  C   UNL     1     120.959 178.807 125.013  1.00  0.00     0.159 C 
ATOM     10  O   UNL     1     122.017 178.378 124.479  1.00  0.00    -0.295 OA
ATOM     11  C   UNL     1     119.824 179.226 124.126  1.00  0.00     0.084 C 
ENDROOT
TORSDOF 0
ENDMDL
MODEL 8
REMARK VINA RESULT:    -5.411      4.510      6.104
REMARK INTER + INTRA:          -5.411
REMARK INTER:                  -5.411
REMARK INTRA:                   0.000
REMARK UNBOUND:                 0.000
REMARK SMILES CC(C)=C1CC[C@@H](C)CC1=O
REMARK SMILES IDX 8 1 7 2 6 3 5 4 4 5 2 6 1 7 3 8 10 9 11 10 9 11
REMARK H PARENT
REMARK Flexibility Score: inf
ROOT
ATOM      1  C   UNL     1     118.189 175.563 129.591  1.00  0.00     0.008 C 
ATOM      2  C   UNL     1     119.129 176.744 129.328  1.00  0.00    -0.006 C 
ATOM      3  C   UNL     1     119.328 176.953 127.818  1.00  0.00     0.008 C 
ATOM      4  C   UNL     1     120.185 178.194 127.534  1.00  0.00     0.039 C 
ATOM      5  C   UNL     1     121.500 178.184 128.301  1.00  0.00    -0.006 C 
ATOM      6  C   UNL     1     122.626 178.759 127.786  1.00  0.00    -0.070 C 
ATOM      7  C   UNL     1     123.951 178.705 128.512  1.00  0.00     0.039 C 
ATOM      8  C   UNL     1     122.611 179.443 126.438  1.00  0.00     0.039 C 
ATOM      9  C   UNL     1     121.448 177.620 129.684  1.00  0.00     0.159 C 
ATOM     10  O   UNL     1     122.198 178.058 130.597  1.00  0.00    -0.295 OA
ATOM     11  C   UNL     1     120.487 176.515 130.009  1.00  0.00     0.084 C 
ENDROOT
TORSDOF 0
ENDMDL
MODEL 9
REMARK VINA RESULT:    -5.282      4.191      5.963
REMARK INTER + INTRA:          -5.282
REMARK INTER:                  -5.282
REMARK INTRA:                   0.000
REMARK UNBOUND:                 0.000
REMARK SMILES CC(C)=C1CC[C@@H](C)CC1=O
REMARK SMILES IDX 8 1 7 2 6 3 5 4 4 5 2 6 1 7 3 8 10 9 11 10 9 11
REMARK H PARENT
REMARK Flexibility Score: inf
ROOT
ATOM      1  C   UNL     1     120.373 180.068 125.184  1.00  0.00     0.008 C 
ATOM      2  C   UNL     1     120.353 178.800 126.045  1.00  0.00    -0.006 C 
ATOM      3  C   UNL     1     118.911 178.424 126.420  1.00  0.00     0.008 C 
ATOM      4  C   UNL     1     118.863 177.100 127.196  1.00  0.00     0.039 C 
ATOM      5  C   UNL     1     119.801 177.093 128.395  1.00  0.00    -0.006 C 
ATOM      6  C   UNL     1     119.501 176.387 129.525  1.00  0.00    -0.070 C 
ATOM      7  C   UNL     1     120.396 176.417 130.743  1.00  0.00     0.039 C 
ATOM      8  C   UNL     1     118.233 175.571 129.627  1.00  0.00     0.039 C 
ATOM      9  C   UNL     1     121.105 177.798 128.213  1.00  0.00     0.159 C 
ATOM     10  O   UNL     1     122.150 177.403 128.796  1.00  0.00    -0.295 OA
ATOM     11  C   UNL     1     121.191 178.998 127.316  1.00  0.00     0.084 C 
ENDROOT
TORSDOF 0
ENDMDL
