MODEL 1
REMARK VINA RESULT:    -5.845      0.000      0.000
REMARK INTER + INTRA:          -6.612
REMARK INTER:                  -8.238
REMARK INTRA:                   1.626
REMARK UNBOUND:                 1.626
REMARK SMILES C[C@H](CO)CCC(=O)[C@H](C)[C@H]1C(=O)C[C@@H]2[C@H]3CC=C4C[C@@H](O)CC[C@]4(C)[C@H]3CC[C@@]21C
REMARK SMILES IDX 6 1 5 2 2 3 1 4 3 5 4 6 7 8 8 9 9 10 10 11 11 12 12 13 30 14
REMARK SMILES IDX 13 15 14 16 15 17 29 18 31 19 16 20 28 21 27 22 17 23 25 24
REMARK SMILES IDX 18 25 19 26 24 27 26 28 20 29 23 30 21 31 22 32
REMARK H PARENT 4 7 22 33
REMARK Flexibility Score: inf
ROOT
ATOM      1  C   UNL     1      14.048  12.923  32.634  1.00  0.00     0.076 C 
ENDROOT
BRANCH   1   2
ATOM      2  C   UNL     1      14.565  12.474  34.019  1.00  0.00     0.013 C 
BRANCH   2   3
ATOM      3  C   UNL     1      14.153  13.416  35.180  1.00  0.00     0.012 C 
ATOM      4  C   UNL     1      13.135  12.760  36.125  1.00  0.00     0.010 C 
BRANCH   3   5
ATOM      5  C   UNL     1      13.571  14.733  34.624  1.00  0.00     0.159 C 
BRANCH   5   6
ATOM      6  O   UNL     1      14.169  15.844  35.236  1.00  0.00    -0.396 OA
ATOM      7  H   UNL     1      13.514  16.589  35.175  1.00  0.00     0.210 HD
ENDBRANCH   5   6
ENDBRANCH   3   5
ENDBRANCH   2   3
ENDBRANCH   1   2
BRANCH   1   8
ATOM      8  C   UNL     1      12.769  12.238  32.186  1.00  0.00     0.136 C 
ATOM      9  O   UNL     1      11.875  12.013  32.988  1.00  0.00    -0.299 OA
BRANCH   8  10
ATOM     10  C   UNL     1      12.563  11.819  30.742  1.00  0.00     0.064 C 
ATOM     11  C   UNL     1      13.734  10.951  30.231  1.00  0.00     0.017 C 
BRANCH  10  12
ATOM     12  C   UNL     1      12.205  13.084  29.854  1.00  0.00     0.072 C 
ATOM     13  C   UNL     1      12.549  14.364  30.548  1.00  0.00     0.137 C 
ATOM     14  C   UNL     1      12.971  13.243  28.489  1.00  0.00    -0.019 C 
ATOM     15  O   UNL     1      11.878  14.840  31.450  1.00  0.00    -0.299 OA
ATOM     16  C   UNL     1      13.768  15.022  30.015  1.00  0.00     0.080 C 
ATOM     17  C   UNL     1      14.228  14.087  28.880  1.00  0.00     0.007 C 
ATOM     18  C   UNL     1      12.070  14.049  27.499  1.00  0.00     0.008 C 
ATOM     19  C   UNL     1      13.312  11.877  27.831  1.00  0.00     0.012 C 
ATOM     20  C   UNL     1      14.933  14.863  27.727  1.00  0.00     0.001 C 
ATOM     21  C   UNL     1      12.834  14.666  26.315  1.00  0.00     0.005 C 
ATOM     22  C   UNL     1      13.948  15.628  26.805  1.00  0.00     0.003 C 
ATOM     23  C   UNL     1      15.845  13.939  26.905  1.00  0.00     0.031 C 
ATOM     24  C   UNL     1      14.713  16.441  25.669  1.00  0.00    -0.008 C 
ATOM     25  C   UNL     1      16.523  14.667  25.793  1.00  0.00    -0.027 C 
ATOM     26  C   UNL     1      15.999  15.751  25.186  1.00  0.00    -0.065 C 
ATOM     27  C   UNL     1      15.142  17.826  26.255  1.00  0.00     0.014 C 
ATOM     28  C   UNL     1      13.777  16.691  24.453  1.00  0.00     0.016 C 
ATOM     29  C   UNL     1      16.875  16.513  24.214  1.00  0.00     0.063 C 
ATOM     30  C   UNL     1      16.052  18.655  25.321  1.00  0.00     0.033 C 
ATOM     31  C   UNL     1      17.282  17.853  24.852  1.00  0.00     0.118 C 
BRANCH  31  32
ATOM     32  O   UNL     1      18.057  18.614  23.961  1.00  0.00    -0.393 OA
ATOM     33  H   UNL     1      18.803  18.042  23.645  1.00  0.00     0.210 HD
ENDBRANCH  31  32
ENDBRANCH  10  12
ENDBRANCH   8  10
ENDBRANCH   1   8
TORSDOF 8
ENDMDL
MODEL 2
REMARK VINA RESULT:    -5.235      1.731      2.849
REMARK INTER + INTRA:          -5.751
REMARK INTER:                  -4.934
REMARK INTRA:                  -0.817
REMARK UNBOUND:                 1.626
REMARK SMILES C[C@H](CO)CCC(=O)[C@H](C)[C@H]1C(=O)C[C@@H]2[C@H]3CC=C4C[C@@H](O)CC[C@]4(C)[C@H]3CC[C@@]21C
REMARK SMILES IDX 6 1 5 2 2 3 1 4 3 5 4 6 7 8 8 9 9 10 10 11 11 12 12 13 30 14
REMARK SMILES IDX 13 15 14 16 15 17 29 18 31 19 16 20 28 21 27 22 17 23 25 24
REMARK SMILES IDX 18 25 19 26 24 27 26 28 20 29 23 30 21 31 22 32
REMARK H PARENT 4 7 22 33
REMARK Flexibility Score: inf
ROOT
ATOM      1  C   UNL     1      12.677  13.267  33.013  1.00  0.00     0.076 C 
ENDROOT
BRANCH   1   2
ATOM      2  C   UNL     1      12.352  13.006  34.501  1.00  0.00     0.013 C 
BRANCH   2   3
ATOM      3  C   UNL     1      13.515  13.345  35.468  1.00  0.00     0.012 C 
ATOM      4  C   UNL     1      14.505  14.347  34.856  1.00  0.00     0.010 C 
BRANCH   3   5
ATOM      5  C   UNL     1      14.266  12.061  35.880  1.00  0.00     0.159 C 
BRANCH   5   6
ATOM      6  O   UNL     1      13.468  10.926  35.676  1.00  0.00    -0.396 OA
ATOM      7  H   UNL     1      14.085  10.186  35.430  1.00  0.00     0.210 HD
ENDBRANCH   5   6
ENDBRANCH   3   5
ENDBRANCH   2   3
ENDBRANCH   1   2
BRANCH   1   8
ATOM      8  C   UNL     1      12.480  12.067  32.104  1.00  0.00     0.136 C 
ATOM      9  O   UNL     1      12.369  10.946  32.576  1.00  0.00    -0.299 OA
BRANCH   8  10
ATOM     10  C   UNL     1      12.414  12.224  30.596  1.00  0.00     0.064 C 
ATOM     11  C   UNL     1      11.907  10.934  29.914  1.00  0.00     0.017 C 
BRANCH  10  12
ATOM     12  C   UNL     1      13.787  12.798  30.047  1.00  0.00     0.072 C 
ATOM     13  C   UNL     1      14.351  11.941  28.958  1.00  0.00     0.137 C 
ATOM     14  C   UNL     1      13.749  14.211  29.356  1.00  0.00    -0.019 C 
ATOM     15  O   UNL     1      14.909  10.875  29.164  1.00  0.00    -0.299 OA
ATOM     16  C   UNL     1      14.198  12.524  27.602  1.00  0.00     0.080 C 
ATOM     17  C   UNL     1      13.489  13.869  27.854  1.00  0.00     0.007 C 
ATOM     18  C   UNL     1      15.149  14.887  29.519  1.00  0.00     0.008 C 
ATOM     19  C   UNL     1      12.683  15.154  29.979  1.00  0.00     0.012 C 
ATOM     20  C   UNL     1      13.895  14.953  26.811  1.00  0.00     0.001 C 
ATOM     21  C   UNL     1      15.408  16.039  28.534  1.00  0.00     0.005 C 
ATOM     22  C   UNL     1      15.301  15.557  27.063  1.00  0.00     0.003 C 
ATOM     23  C   UNL     1      12.835  16.060  26.712  1.00  0.00     0.031 C 
ATOM     24  C   UNL     1      15.693  16.626  25.950  1.00  0.00    -0.008 C 
ATOM     25  C   UNL     1      13.213  17.110  25.720  1.00  0.00    -0.027 C 
ATOM     26  C   UNL     1      14.490  17.419  25.416  1.00  0.00    -0.065 C 
ATOM     27  C   UNL     1      16.307  15.868  24.728  1.00  0.00     0.014 C 
ATOM     28  C   UNL     1      16.758  17.618  26.499  1.00  0.00     0.016 C 
ATOM     29  C   UNL     1      14.734  18.357  24.252  1.00  0.00     0.063 C 
ATOM     30  C   UNL     1      16.571  16.761  23.495  1.00  0.00     0.033 C 
ATOM     31  C   UNL     1      15.316  17.552  23.077  1.00  0.00     0.118 C 
BRANCH  31  32
ATOM     32  O   UNL     1      15.605  18.396  21.990  1.00  0.00    -0.393 OA
ATOM     33  H   UNL     1      15.225  19.289  22.193  1.00  0.00     0.210 HD
ENDBRANCH  31  32
ENDBRANCH  10  12
ENDBRANCH   8  10
ENDBRANCH   1   8
TORSDOF 8
ENDMDL
MODEL 3
REMARK VINA RESULT:    -4.058      1.602      2.892
REMARK INTER + INTRA:          -4.093
REMARK INTER:                  -7.221
REMARK INTRA:                   3.128
REMARK UNBOUND:                 1.626
REMARK SMILES C[C@H](CO)CCC(=O)[C@H](C)[C@H]1C(=O)C[C@@H]2[C@H]3CC=C4C[C@@H](O)CC[C@]4(C)[C@H]3CC[C@@]21C
REMARK SMILES IDX 6 1 5 2 2 3 1 4 3 5 4 6 7 8 8 9 9 10 10 11 11 12 12 13 30 14
REMARK SMILES IDX 13 15 14 16 15 17 29 18 31 19 16 20 28 21 27 22 17 23 25 24
REMARK SMILES IDX 18 25 19 26 24 27 26 28 20 29 23 30 21 31 22 32
REMARK H PARENT 4 7 22 33
REMARK Flexibility Score: inf
ROOT
ATOM      1  C   UNL     1      13.083  13.681  32.913  1.00  0.00     0.076 C 
ENDROOT
BRANCH   1   2
ATOM      2  C   UNL     1      12.177  13.665  34.164  1.00  0.00     0.013 C 
BRANCH   2   3
ATOM      3  C   UNL     1      12.854  13.065  35.424  1.00  0.00     0.012 C 
ATOM      4  C   UNL     1      14.252  13.654  35.668  1.00  0.00     0.010 C 
BRANCH   3   5
ATOM      5  C   UNL     1      12.953  11.530  35.303  1.00  0.00     0.159 C 
BRANCH   5   6
ATOM      6  O   UNL     1      11.936  10.902  36.036  1.00  0.00    -0.396 OA
ATOM      7  H   UNL     1      11.080  11.314  35.744  1.00  0.00     0.210 HD
ENDBRANCH   5   6
ENDBRANCH   3   5
ENDBRANCH   2   3
ENDBRANCH   1   2
BRANCH   1   8
ATOM      8  C   UNL     1      12.335  13.660  31.592  1.00  0.00     0.136 C 
ATOM      9  O   UNL     1      11.875  14.690  31.125  1.00  0.00    -0.299 OA
BRANCH   8  10
ATOM     10  C   UNL     1      12.140  12.369  30.818  1.00  0.00     0.064 C 
ATOM     11  C   UNL     1      11.929  11.167  31.764  1.00  0.00     0.017 C 
BRANCH  10  12
ATOM     12  C   UNL     1      13.291  12.201  29.739  1.00  0.00     0.072 C 
ATOM     13  C   UNL     1      12.736  11.952  28.372  1.00  0.00     0.137 C 
ATOM     14  C   UNL     1      14.224  13.442  29.485  1.00  0.00    -0.019 C 
ATOM     15  O   UNL     1      12.283  10.875  28.017  1.00  0.00    -0.299 OA
ATOM     16  C   UNL     1      12.820  13.129  27.471  1.00  0.00     0.080 C 
ATOM     17  C   UNL     1      13.494  14.211  28.337  1.00  0.00     0.007 C 
ATOM     18  C   UNL     1      15.615  12.931  28.990  1.00  0.00     0.008 C 
ATOM     19  C   UNL     1      14.450  14.292  30.766  1.00  0.00     0.012 C 
ATOM     20  C   UNL     1      14.364  15.186  27.488  1.00  0.00     0.001 C 
ATOM     21  C   UNL     1      16.462  14.001  28.283  1.00  0.00     0.005 C 
ATOM     22  C   UNL     1      15.722  14.579  27.048  1.00  0.00     0.003 C 
ATOM     23  C   UNL     1      14.573  16.525  28.212  1.00  0.00     0.031 C 
ATOM     24  C   UNL     1      16.557  15.593  26.147  1.00  0.00    -0.008 C 
ATOM     25  C   UNL     1      15.410  17.468  27.413  1.00  0.00    -0.027 C 
ATOM     26  C   UNL     1      16.347  17.066  26.531  1.00  0.00    -0.065 C 
ATOM     27  C   UNL     1      16.082  15.445  24.664  1.00  0.00     0.014 C 
ATOM     28  C   UNL     1      18.074  15.256  26.213  1.00  0.00     0.016 C 
ATOM     29  C   UNL     1      16.982  18.115  25.643  1.00  0.00     0.063 C 
ATOM     30  C   UNL     1      16.679  16.494  23.700  1.00  0.00     0.033 C 
ATOM     31  C   UNL     1      16.461  17.934  24.206  1.00  0.00     0.118 C 
BRANCH  31  32
ATOM     32  O   UNL     1      17.065  18.858  23.337  1.00  0.00    -0.393 OA
ATOM     33  H   UNL     1      17.945  18.488  23.067  1.00  0.00     0.210 HD
ENDBRANCH  31  32
ENDBRANCH  10  12
ENDBRANCH   8  10
ENDBRANCH   1   8
TORSDOF 8
ENDMDL
MODEL 4
REMARK VINA RESULT:    -2.928      1.943      8.052
REMARK INTER + INTRA:          -2.501
REMARK INTER:                  -5.030
REMARK INTRA:                   2.529
REMARK UNBOUND:                 1.626
REMARK SMILES C[C@H](CO)CCC(=O)[C@H](C)[C@H]1C(=O)C[C@@H]2[C@H]3CC=C4C[C@@H](O)CC[C@]4(C)[C@H]3CC[C@@]21C
REMARK SMILES IDX 6 1 5 2 2 3 1 4 3 5 4 6 7 8 8 9 9 10 10 11 11 12 12 13 30 14
REMARK SMILES IDX 13 15 14 16 15 17 29 18 31 19 16 20 28 21 27 22 17 23 25 24
REMARK SMILES IDX 18 25 19 26 24 27 26 28 20 29 23 30 21 31 22 32
REMARK H PARENT 4 7 22 33
REMARK Flexibility Score: inf
ROOT
ATOM      1  C   UNL     1      16.326  17.801  25.320  1.00  0.00     0.076 C 
ENDROOT
BRANCH   1   2
ATOM      2  C   UNL     1      15.232  18.783  24.845  1.00  0.00     0.013 C 
BRANCH   2   3
ATOM      3  C   UNL     1      14.421  19.427  26.000  1.00  0.00     0.012 C 
ATOM      4  C   UNL     1      14.472  18.586  27.284  1.00  0.00     0.010 C 
BRANCH   3   5
ATOM      5  C   UNL     1      12.952  19.636  25.575  1.00  0.00     0.159 C 
BRANCH   5   6
ATOM      6  O   UNL     1      12.210  18.457  25.736  1.00  0.00    -0.396 OA
ATOM      7  H   UNL     1      11.259  18.696  25.578  1.00  0.00     0.210 HD
ENDBRANCH   5   6
ENDBRANCH   3   5
ENDBRANCH   2   3
ENDBRANCH   1   2
BRANCH   1   8
ATOM      8  C   UNL     1      16.250  16.420  24.694  1.00  0.00     0.136 C 
ATOM      9  O   UNL     1      17.140  16.025  23.957  1.00  0.00    -0.299 OA
BRANCH   8  10
ATOM     10  C   UNL     1      15.076  15.497  24.963  1.00  0.00     0.064 C 
ATOM     11  C   UNL     1      13.784  16.292  25.255  1.00  0.00     0.017 C 
BRANCH  10  12
ATOM     12  C   UNL     1      15.475  14.411  26.048  1.00  0.00     0.072 C 
ATOM     13  C   UNL     1      16.542  14.913  26.969  1.00  0.00     0.137 C 
ATOM     14  C   UNL     1      14.359  13.966  27.064  1.00  0.00    -0.019 C 
ATOM     15  O   UNL     1      17.719  14.992  26.653  1.00  0.00    -0.299 OA
ATOM     16  C   UNL     1      16.043  15.276  28.318  1.00  0.00     0.080 C 
ATOM     17  C   UNL     1      14.534  14.967  28.251  1.00  0.00     0.007 C 
ATOM     18  C   UNL     1      14.665  12.509  27.540  1.00  0.00     0.008 C 
ATOM     19  C   UNL     1      12.938  13.980  26.435  1.00  0.00     0.012 C 
ATOM     20  C   UNL     1      13.963  14.521  29.630  1.00  0.00     0.001 C 
ATOM     21  C   UNL     1      13.949  12.110  28.840  1.00  0.00     0.005 C 
ATOM     22  C   UNL     1      14.326  13.061  30.006  1.00  0.00     0.003 C 
ATOM     23  C   UNL     1      12.445  14.743  29.706  1.00  0.00     0.031 C 
ATOM     24  C   UNL     1      13.761  12.662  31.441  1.00  0.00    -0.008 C 
ATOM     25  C   UNL     1      11.882  14.314  31.020  1.00  0.00    -0.027 C 
ATOM     26  C   UNL     1      12.423  13.340  31.779  1.00  0.00    -0.065 C 
ATOM     27  C   UNL     1      14.786  13.130  32.525  1.00  0.00     0.014 C 
ATOM     28  C   UNL     1      13.597  11.120  31.552  1.00  0.00     0.016 C 
ATOM     29  C   UNL     1      11.875  13.141  33.177  1.00  0.00     0.063 C 
ATOM     30  C   UNL     1      14.287  12.970  33.979  1.00  0.00     0.033 C 
ATOM     31  C   UNL     1      12.915  13.638  34.196  1.00  0.00     0.118 C 
BRANCH  31  32
ATOM     32  O   UNL     1      12.465  13.425  35.510  1.00  0.00    -0.393 OA
ATOM     33  H   UNL     1      12.896  12.597  35.846  1.00  0.00     0.210 HD
ENDBRANCH  31  32
ENDBRANCH  10  12
ENDBRANCH   8  10
ENDBRANCH   1   8
TORSDOF 8
ENDMDL
