MODEL 1
REMARK VINA RESULT:    -5.342      0.000      0.000
REMARK INTER + INTRA:          -7.376
REMARK INTER:                  -6.903
REMARK INTRA:                  -0.473
REMARK UNBOUND:                -0.473
REMARK SMILES CCO[C@@H]1O[C@@H](CO)[C@@H](O)[C@@H](O)[C@@H]1O
REMARK SMILES IDX 4 1 13 2 11 3 9 4 6 5 5 6 3 7 2 8 1 9 14 10 12 12 7 14 8 15
REMARK SMILES IDX 10 17
REMARK H PARENT 14 11 12 13 8 16 10 18
REMARK Flexibility Score: inf
ROOT
ATOM      1  C   UNL     1      29.476  10.058  29.645  1.00  0.00     0.281 C 
ATOM      2  C   UNL     1      29.977  10.182  28.188  1.00  0.00     0.202 C 
ATOM      3  C   UNL     1      31.313   9.437  28.011  1.00  0.00     0.179 C 
ATOM      4  C   UNL     1      31.197   8.006  28.556  1.00  0.00     0.177 C 
ATOM      5  C   UNL     1      30.657   8.059  30.002  1.00  0.00     0.178 C 
ATOM      6  O   UNL     1      29.388   8.693  30.040  1.00  0.00    -0.341 OA
ENDROOT
BRANCH   1   7
ATOM      7  O   UNL     1      30.317  10.799  30.515  1.00  0.00    -0.350 OA
BRANCH   7   8
ATOM      8  C   UNL     1      29.561  11.348  31.575  1.00  0.00     0.160 C 
ATOM      9  C   UNL     1      28.293  11.970  31.011  1.00  0.00     0.035 C 
ENDBRANCH   7   8
ENDBRANCH   1   7
BRANCH   2  10
ATOM     10  O   UNL     1      30.143  11.533  27.848  1.00  0.00    -0.385 OA
ATOM     11  H   UNL     1      29.438  11.751  27.185  1.00  0.00     0.211 HD
ENDBRANCH   2  10
BRANCH   3  12
ATOM     12  O   UNL     1      31.670   9.394  26.654  1.00  0.00    -0.387 OA
ATOM     13  H   UNL     1      32.595   9.749  26.588  1.00  0.00     0.211 HD
ENDBRANCH   3  12
BRANCH   5  14
ATOM     14  C   UNL     1      30.527   6.651  30.601  1.00  0.00     0.191 C 
BRANCH  14  15
ATOM     15  O   UNL     1      29.242   6.138  30.371  1.00  0.00    -0.394 OA
ATOM     16  H   UNL     1      29.105   6.143  29.388  1.00  0.00     0.210 HD
ENDBRANCH  14  15
ENDBRANCH   5  14
BRANCH   4  17
ATOM     17  O   UNL     1      30.331   7.259  27.734  1.00  0.00    -0.387 OA
ATOM     18  H   UNL     1      30.476   6.302  27.950  1.00  0.00     0.211 HD
ENDBRANCH   4  17
TORSDOF 7
ENDMDL
MODEL 2
REMARK VINA RESULT:    -5.126      1.939      3.761
REMARK INTER + INTRA:          -7.097
REMARK INTER:                  -6.625
REMARK INTRA:                  -0.472
REMARK UNBOUND:                -0.473
REMARK SMILES CCO[C@@H]1O[C@@H](CO)[C@@H](O)[C@@H](O)[C@@H]1O
REMARK SMILES IDX 4 1 13 2 11 3 9 4 6 5 5 6 3 7 2 8 1 9 14 10 12 12 7 14 8 15
REMARK SMILES IDX 10 17
REMARK H PARENT 14 11 12 13 8 16 10 18
REMARK Flexibility Score: inf
ROOT
ATOM      1  C   UNL     1      32.270   9.125  30.295  1.00  0.00     0.281 C 
ATOM      2  C   UNL     1      32.661   9.261  28.806  1.00  0.00     0.202 C 
ATOM      3  C   UNL     1      31.431   9.059  27.904  1.00  0.00     0.179 C 
ATOM      4  C   UNL     1      30.277   9.957  28.373  1.00  0.00     0.177 C 
ATOM      5  C   UNL     1      30.036   9.721  29.880  1.00  0.00     0.178 C 
ATOM      6  O   UNL     1      31.207  10.012  30.626  1.00  0.00    -0.341 OA
ENDROOT
BRANCH   1   7
ATOM      7  O   UNL     1      31.936   7.777  30.590  1.00  0.00    -0.350 OA
BRANCH   7   8
ATOM      8  C   UNL     1      32.327   7.454  31.909  1.00  0.00     0.160 C 
ATOM      9  C   UNL     1      33.828   7.660  32.046  1.00  0.00     0.035 C 
ENDBRANCH   7   8
ENDBRANCH   1   7
BRANCH   2  10
ATOM     10  O   UNL     1      33.646   8.317  28.478  1.00  0.00    -0.385 OA
ATOM     11  H   UNL     1      33.266   7.742  27.764  1.00  0.00     0.211 HD
ENDBRANCH   2  10
BRANCH   3  12
ATOM     12  O   UNL     1      31.749   9.365  26.571  1.00  0.00    -0.387 OA
ATOM     13  H   UNL     1      31.187   8.780  25.998  1.00  0.00     0.211 HD
ENDBRANCH   3  12
BRANCH   5  14
ATOM     14  C   UNL     1      28.884  10.590  30.404  1.00  0.00     0.191 C 
BRANCH  14  15
ATOM     15  O   UNL     1      27.921  10.781  29.402  1.00  0.00    -0.394 OA
ATOM     16  H   UNL     1      27.074  10.392  29.743  1.00  0.00     0.210 HD
ENDBRANCH  14  15
ENDBRANCH   5  14
BRANCH   4  17
ATOM     17  O   UNL     1      30.602  11.305  28.131  1.00  0.00    -0.387 OA
ATOM     18  H   UNL     1      30.212  11.837  28.873  1.00  0.00     0.211 HD
ENDBRANCH   4  17
TORSDOF 7
ENDMDL
MODEL 3
REMARK VINA RESULT:    -4.559      1.935      2.610
REMARK INTER + INTRA:          -6.365
REMARK INTER:                  -5.909
REMARK INTRA:                  -0.456
REMARK UNBOUND:                -0.473
REMARK SMILES CCO[C@@H]1O[C@@H](CO)[C@@H](O)[C@@H](O)[C@@H]1O
REMARK SMILES IDX 4 1 13 2 11 3 9 4 6 5 5 6 3 7 2 8 1 9 14 10 12 12 7 14 8 15
REMARK SMILES IDX 10 17
REMARK H PARENT 14 11 12 13 8 16 10 18
REMARK Flexibility Score: inf
ROOT
ATOM      1  C   UNL     1      29.766  10.478  30.345  1.00  0.00     0.281 C 
ATOM      2  C   UNL     1      28.679  10.718  29.273  1.00  0.00     0.202 C 
ATOM      3  C   UNL     1      29.324  10.999  27.903  1.00  0.00     0.179 C 
ATOM      4  C   UNL     1      30.356   9.911  27.572  1.00  0.00     0.177 C 
ATOM      5  C   UNL     1      31.344   9.777  28.752  1.00  0.00     0.178 C 
ATOM      6  O   UNL     1      30.655   9.440  29.946  1.00  0.00    -0.341 OA
ENDROOT
BRANCH   1   7
ATOM      7  O   UNL     1      30.461  11.685  30.615  1.00  0.00    -0.350 OA
BRANCH   7   8
ATOM      8  C   UNL     1      30.856  11.730  31.970  1.00  0.00     0.160 C 
ATOM      9  C   UNL     1      29.731  11.178  32.833  1.00  0.00     0.035 C 
ENDBRANCH   7   8
ENDBRANCH   1   7
BRANCH   2  10
ATOM     10  O   UNL     1      27.868  11.803  29.642  1.00  0.00    -0.385 OA
ATOM     11  H   UNL     1      28.158  12.578  29.093  1.00  0.00     0.211 HD
ENDBRANCH   2  10
BRANCH   3  12
ATOM     12  O   UNL     1      28.342  11.032  26.900  1.00  0.00    -0.387 OA
ATOM     13  H   UNL     1      27.475  10.825  27.337  1.00  0.00     0.211 HD
ENDBRANCH   3  12
BRANCH   5  14
ATOM     14  C   UNL     1      32.407   8.705  28.472  1.00  0.00     0.191 C 
BRANCH  14  15
ATOM     15  O   UNL     1      32.494   8.452  27.095  1.00  0.00    -0.394 OA
ATOM     16  H   UNL     1      33.011   9.201  26.700  1.00  0.00     0.210 HD
ENDBRANCH  14  15
ENDBRANCH   5  14
BRANCH   4  17
ATOM     17  O   UNL     1      29.694   8.689  27.343  1.00  0.00    -0.387 OA
ATOM     18  H   UNL     1      28.840   8.901  26.885  1.00  0.00     0.211 HD
ENDBRANCH   4  17
TORSDOF 7
ENDMDL
MODEL 4
REMARK VINA RESULT:    -4.481      2.073      3.038
REMARK INTER + INTRA:          -6.264
REMARK INTER:                  -5.837
REMARK INTRA:                  -0.428
REMARK UNBOUND:                -0.473
REMARK SMILES CCO[C@@H]1O[C@@H](CO)[C@@H](O)[C@@H](O)[C@@H]1O
REMARK SMILES IDX 4 1 13 2 11 3 9 4 6 5 5 6 3 7 2 8 1 9 14 10 12 12 7 14 8 15
REMARK SMILES IDX 10 17
REMARK H PARENT 14 11 12 13 8 16 10 18
REMARK Flexibility Score: inf
ROOT
ATOM      1  C   UNL     1      30.447   9.089  28.502  1.00  0.00     0.281 C 
ATOM      2  C   UNL     1      31.821   8.473  28.155  1.00  0.00     0.202 C 
ATOM      3  C   UNL     1      32.927   9.097  29.025  1.00  0.00     0.179 C 
ATOM      4  C   UNL     1      32.528   9.043  30.507  1.00  0.00     0.177 C 
ATOM      5  C   UNL     1      31.126   9.667  30.675  1.00  0.00     0.178 C 
ATOM      6  O   UNL     1      30.170   8.969  29.893  1.00  0.00    -0.341 OA
ENDROOT
BRANCH   1   7
ATOM      7  O   UNL     1      30.397  10.442  28.075  1.00  0.00    -0.350 OA
BRANCH   7   8
ATOM      8  C   UNL     1      29.099  10.763  27.619  1.00  0.00     0.160 C 
ATOM      9  C   UNL     1      28.429  11.677  28.633  1.00  0.00     0.035 C 
ENDBRANCH   7   8
ENDBRANCH   1   7
BRANCH   2  10
ATOM     10  O   UNL     1      32.115   8.681  26.799  1.00  0.00    -0.385 OA
ATOM     11  H   UNL     1      31.283   8.494  26.292  1.00  0.00     0.211 HD
ENDBRANCH   2  10
BRANCH   3  12
ATOM     12  O   UNL     1      34.137   8.409  28.842  1.00  0.00    -0.387 OA
ATOM     13  H   UNL     1      34.861   9.089  28.855  1.00  0.00     0.211 HD
ENDBRANCH   3  12
BRANCH   5  14
ATOM     14  C   UNL     1      30.677   9.647  32.143  1.00  0.00     0.191 C 
BRANCH  14  15
ATOM     15  O   UNL     1      31.792   9.637  32.994  1.00  0.00    -0.394 OA
ATOM     16  H   UNL     1      31.477   9.957  33.880  1.00  0.00     0.210 HD
ENDBRANCH  14  15
ENDBRANCH   5  14
BRANCH   4  17
ATOM     17  O   UNL     1      32.527   7.705  30.945  1.00  0.00    -0.387 OA
ATOM     18  H   UNL     1      32.914   7.157  30.214  1.00  0.00     0.211 HD
ENDBRANCH   4  17
TORSDOF 7
ENDMDL
MODEL 5
REMARK VINA RESULT:    -4.469      1.097      3.965
REMARK INTER + INTRA:          -6.248
REMARK INTER:                  -5.853
REMARK INTRA:                  -0.396
REMARK UNBOUND:                -0.473
REMARK SMILES CCO[C@@H]1O[C@@H](CO)[C@@H](O)[C@@H](O)[C@@H]1O
REMARK SMILES IDX 4 1 13 2 11 3 9 4 6 5 5 6 3 7 2 8 1 9 14 10 12 12 7 14 8 15
REMARK SMILES IDX 10 17
REMARK H PARENT 14 11 12 13 8 16 10 18
REMARK Flexibility Score: inf
ROOT
ATOM      1  C   UNL     1      30.944   8.713  29.853  1.00  0.00     0.281 C 
ATOM      2  C   UNL     1      31.203   9.078  28.374  1.00  0.00     0.202 C 
ATOM      3  C   UNL     1      30.000   9.837  27.786  1.00  0.00     0.179 C 
ATOM      4  C   UNL     1      29.613  11.007  28.703  1.00  0.00     0.177 C 
ATOM      5  C   UNL     1      29.421  10.478  30.141  1.00  0.00     0.178 C 
ATOM      6  O   UNL     1      30.613   9.869  30.614  1.00  0.00    -0.341 OA
ENDROOT
BRANCH   1   7
ATOM      7  O   UNL     1      29.931   7.723  29.941  1.00  0.00    -0.350 OA
BRANCH   7   8
ATOM      8  C   UNL     1      30.416   6.588  30.628  1.00  0.00     0.160 C 
ATOM      9  C   UNL     1      29.752   5.342  30.060  1.00  0.00     0.035 C 
ENDBRANCH   7   8
ENDBRANCH   1   7
BRANCH   2  10
ATOM     10  O   UNL     1      31.439   7.916  27.624  1.00  0.00    -0.385 OA
ATOM     11  H   UNL     1      32.004   7.323  28.183  1.00  0.00     0.211 HD
ENDBRANCH   2  10
BRANCH   3  12
ATOM     12  O   UNL     1      30.310  10.328  26.508  1.00  0.00    -0.387 OA
ATOM     13  H   UNL     1      29.510  10.819  26.185  1.00  0.00     0.211 HD
ENDBRANCH   3  12
BRANCH   5  14
ATOM     14  C   UNL     1      29.024  11.607  31.103  1.00  0.00     0.191 C 
BRANCH  14  15
ATOM     15  O   UNL     1      30.163  12.294  31.548  1.00  0.00    -0.394 OA
ATOM     16  H   UNL     1      30.262  12.086  32.513  1.00  0.00     0.210 HD
ENDBRANCH  14  15
ENDBRANCH   5  14
BRANCH   4  17
ATOM     17  O   UNL     1      30.624  11.986  28.668  1.00  0.00    -0.387 OA
ATOM     18  H   UNL     1      31.446  11.570  29.038  1.00  0.00     0.211 HD
ENDBRANCH   4  17
TORSDOF 7
ENDMDL
MODEL 6
REMARK VINA RESULT:    -4.354      2.475      4.034
REMARK INTER + INTRA:          -6.099
REMARK INTER:                  -5.648
REMARK INTRA:                  -0.451
REMARK UNBOUND:                -0.473
REMARK SMILES CCO[C@@H]1O[C@@H](CO)[C@@H](O)[C@@H](O)[C@@H]1O
REMARK SMILES IDX 4 1 13 2 11 3 9 4 6 5 5 6 3 7 2 8 1 9 14 10 12 12 7 14 8 15
REMARK SMILES IDX 10 17
REMARK H PARENT 14 11 12 13 8 16 10 18
REMARK Flexibility Score: inf
ROOT
ATOM      1  C   UNL     1      30.850  11.385  30.744  1.00  0.00     0.281 C 
ATOM      2  C   UNL     1      30.842  10.880  29.283  1.00  0.00     0.202 C 
ATOM      3  C   UNL     1      29.514  10.171  28.964  1.00  0.00     0.179 C 
ATOM      4  C   UNL     1      28.329  11.061  29.368  1.00  0.00     0.177 C 
ATOM      5  C   UNL     1      28.506  11.501  30.837  1.00  0.00     0.178 C 
ATOM      6  O   UNL     1      29.722  12.213  31.004  1.00  0.00    -0.341 OA
ENDROOT
BRANCH   1   7
ATOM      7  O   UNL     1      30.908  10.286  31.640  1.00  0.00    -0.350 OA
BRANCH   7   8
ATOM      8  C   UNL     1      31.731  10.598  32.744  1.00  0.00     0.160 C 
ATOM      9  C   UNL     1      33.181  10.318  32.379  1.00  0.00     0.035 C 
ENDBRANCH   7   8
ENDBRANCH   1   7
BRANCH   2  10
ATOM     10  O   UNL     1      31.911   9.995  29.072  1.00  0.00    -0.385 OA
ATOM     11  H   UNL     1      32.560  10.463  28.487  1.00  0.00     0.211 HD
ENDBRANCH   2  10
BRANCH   3  12
ATOM     12  O   UNL     1      29.434   9.879  27.593  1.00  0.00    -0.387 OA
ATOM     13  H   UNL     1      30.348   9.630  27.297  1.00  0.00     0.211 HD
ENDBRANCH   3  12
BRANCH   5  14
ATOM     14  C   UNL     1      27.342  12.389  31.298  1.00  0.00     0.191 C 
BRANCH  14  15
ATOM     15  O   UNL     1      26.157  12.021  30.644  1.00  0.00    -0.394 OA
ATOM     16  H   UNL     1      25.424  12.118  31.306  1.00  0.00     0.210 HD
ENDBRANCH  14  15
ENDBRANCH   5  14
BRANCH   4  17
ATOM     17  O   UNL     1      28.275  12.184  28.520  1.00  0.00    -0.387 OA
ATOM     18  H   UNL     1      28.920  12.850  28.876  1.00  0.00     0.211 HD
ENDBRANCH   4  17
TORSDOF 7
ENDMDL
MODEL 7
REMARK VINA RESULT:    -4.298     10.423     11.442
REMARK INTER + INTRA:          -6.027
REMARK INTER:                  -5.604
REMARK INTRA:                  -0.422
REMARK UNBOUND:                -0.473
REMARK SMILES CCO[C@@H]1O[C@@H](CO)[C@@H](O)[C@@H](O)[C@@H]1O
REMARK SMILES IDX 4 1 13 2 11 3 9 4 6 5 5 6 3 7 2 8 1 9 14 10 12 12 7 14 8 15
REMARK SMILES IDX 10 17
REMARK H PARENT 14 11 12 13 8 16 10 18
REMARK Flexibility Score: inf
ROOT
ATOM      1  C   UNL     1      22.120   2.771  26.294  1.00  0.00     0.281 C 
ATOM      2  C   UNL     1      21.975   4.091  25.504  1.00  0.00     0.202 C 
ATOM      3  C   UNL     1      22.456   3.907  24.053  1.00  0.00     0.179 C 
ATOM      4  C   UNL     1      21.785   2.678  23.424  1.00  0.00     0.177 C 
ATOM      5  C   UNL     1      21.997   1.459  24.349  1.00  0.00     0.178 C 
ATOM      6  O   UNL     1      21.447   1.704  25.634  1.00  0.00    -0.341 OA
ENDROOT
BRANCH   1   7
ATOM      7  O   UNL     1      23.492   2.474  26.500  1.00  0.00    -0.350 OA
BRANCH   7   8
ATOM      8  C   UNL     1      23.717   2.114  27.848  1.00  0.00     0.160 C 
ATOM      9  C   UNL     1      24.545   3.199  28.519  1.00  0.00     0.035 C 
ENDBRANCH   7   8
ENDBRANCH   1   7
BRANCH   2  10
ATOM     10  O   UNL     1      22.719   5.108  26.122  1.00  0.00    -0.385 OA
ATOM     11  H   UNL     1      23.598   4.715  26.361  1.00  0.00     0.211 HD
ENDBRANCH   2  10
BRANCH   3  12
ATOM     12  O   UNL     1      22.153   5.047  23.291  1.00  0.00    -0.387 OA
ATOM     13  H   UNL     1      22.318   4.812  22.341  1.00  0.00     0.211 HD
ENDBRANCH   3  12
BRANCH   5  14
ATOM     14  C   UNL     1      21.351   0.195  23.764  1.00  0.00     0.191 C 
BRANCH  14  15
ATOM     15  O   UNL     1      21.062   0.379  22.404  1.00  0.00    -0.394 OA
ATOM     16  H   UNL     1      20.510  -0.397  22.123  1.00  0.00     0.210 HD
ENDBRANCH  14  15
ENDBRANCH   5  14
BRANCH   4  17
ATOM     17  O   UNL     1      20.411   2.931  23.249  1.00  0.00    -0.387 OA
ATOM     18  H   UNL     1      19.956   2.666  24.091  1.00  0.00     0.211 HD
ENDBRANCH   4  17
TORSDOF 7
ENDMDL
MODEL 8
REMARK VINA RESULT:    -4.266      1.972      3.155
REMARK INTER + INTRA:          -5.986
REMARK INTER:                  -5.776
REMARK INTRA:                  -0.210
REMARK UNBOUND:                -0.473
REMARK SMILES CCO[C@@H]1O[C@@H](CO)[C@@H](O)[C@@H](O)[C@@H]1O
REMARK SMILES IDX 4 1 13 2 11 3 9 4 6 5 5 6 3 7 2 8 1 9 14 10 12 12 7 14 8 15
REMARK SMILES IDX 10 17
REMARK H PARENT 14 11 12 13 8 16 10 18
REMARK Flexibility Score: inf
ROOT
ATOM      1  C   UNL     1      31.619  10.479  30.018  1.00  0.00     0.281 C 
ATOM      2  C   UNL     1      32.288   9.483  29.044  1.00  0.00     0.202 C 
ATOM      3  C   UNL     1      31.232   8.571  28.394  1.00  0.00     0.179 C 
ATOM      4  C   UNL     1      30.094   9.416  27.804  1.00  0.00     0.177 C 
ATOM      5  C   UNL     1      29.560  10.373  28.892  1.00  0.00     0.178 C 
ATOM      6  O   UNL     1      30.595  11.221  29.365  1.00  0.00    -0.341 OA
ENDROOT
BRANCH   1   7
ATOM      7  O   UNL     1      31.121   9.790  31.154  1.00  0.00    -0.350 OA
BRANCH   7   8
ATOM      8  C   UNL     1      31.222  10.605  32.303  1.00  0.00     0.160 C 
ATOM      9  C   UNL     1      29.824  10.971  32.777  1.00  0.00     0.035 C 
ENDBRANCH   7   8
ENDBRANCH   1   7
BRANCH   2  10
ATOM     10  O   UNL     1      33.231   8.699  29.727  1.00  0.00    -0.385 OA
ATOM     11  H   UNL     1      33.413   7.907  29.157  1.00  0.00     0.211 HD
ENDBRANCH   2  10
BRANCH   3  12
ATOM     12  O   UNL     1      31.815   7.797  27.378  1.00  0.00    -0.387 OA
ATOM     13  H   UNL     1      31.702   8.301  26.530  1.00  0.00     0.211 HD
ENDBRANCH   3  12
BRANCH   5  14
ATOM     14  C   UNL     1      28.411  11.240  28.359  1.00  0.00     0.191 C 
BRANCH  14  15
ATOM     15  O   UNL     1      27.315  11.192  29.233  1.00  0.00    -0.394 OA
ATOM     16  H   UNL     1      27.686  11.200  30.154  1.00  0.00     0.210 HD
ENDBRANCH  14  15
ENDBRANCH   5  14
BRANCH   4  17
ATOM     17  O   UNL     1      30.574  10.145  26.699  1.00  0.00    -0.387 OA
ATOM     18  H   UNL     1      31.478  10.478  26.939  1.00  0.00     0.211 HD
ENDBRANCH   4  17
TORSDOF 7
ENDMDL
MODEL 9
REMARK VINA RESULT:    -4.197      2.090      4.478
REMARK INTER + INTRA:          -5.896
REMARK INTER:                  -5.477
REMARK INTRA:                  -0.419
REMARK UNBOUND:                -0.473
REMARK SMILES CCO[C@@H]1O[C@@H](CO)[C@@H](O)[C@@H](O)[C@@H]1O
REMARK SMILES IDX 4 1 13 2 11 3 9 4 6 5 5 6 3 7 2 8 1 9 14 10 12 12 7 14 8 15
REMARK SMILES IDX 10 17
REMARK H PARENT 14 11 12 13 8 16 10 18
REMARK Flexibility Score: inf
ROOT
ATOM      1  C   UNL     1      30.898  10.651  28.848  1.00  0.00     0.281 C 
ATOM      2  C   UNL     1      29.453  11.064  28.488  1.00  0.00     0.202 C 
ATOM      3  C   UNL     1      28.491  10.723  29.641  1.00  0.00     0.179 C 
ATOM      4  C   UNL     1      29.033  11.283  30.964  1.00  0.00     0.177 C 
ATOM      5  C   UNL     1      30.488  10.804  31.156  1.00  0.00     0.178 C 
ATOM      6  O   UNL     1      31.304  11.239  30.079  1.00  0.00    -0.341 OA
ENDROOT
BRANCH   1   7
ATOM      7  O   UNL     1      31.007   9.237  28.883  1.00  0.00    -0.350 OA
BRANCH   7   8
ATOM      8  C   UNL     1      32.073   8.809  28.060  1.00  0.00     0.160 C 
ATOM      9  C   UNL     1      33.296   8.549  28.927  1.00  0.00     0.035 C 
ENDBRANCH   7   8
ENDBRANCH   1   7
BRANCH   2  10
ATOM     10  O   UNL     1      29.039  10.404  27.320  1.00  0.00    -0.385 OA
ATOM     11  H   UNL     1      29.160   9.432  27.481  1.00  0.00     0.211 HD
ENDBRANCH   2  10
BRANCH   3  12
ATOM     12  O   UNL     1      27.219  11.263  29.390  1.00  0.00    -0.387 OA
ATOM     13  H   UNL     1      26.780  10.672  28.724  1.00  0.00     0.211 HD
ENDBRANCH   3  12
BRANCH   5  14
ATOM     14  C   UNL     1      31.080  11.329  32.471  1.00  0.00     0.191 C 
BRANCH  14  15
ATOM     15  O   UNL     1      31.468  12.670  32.332  1.00  0.00    -0.394 OA
ATOM     16  H   UNL     1      31.027  13.172  33.067  1.00  0.00     0.210 HD
ENDBRANCH  14  15
ENDBRANCH   5  14
BRANCH   4  17
ATOM     17  O   UNL     1      28.976  12.689  30.938  1.00  0.00    -0.387 OA
ATOM     18  H   UNL     1      28.154  12.939  30.440  1.00  0.00     0.211 HD
ENDBRANCH   4  17
TORSDOF 7
ENDMDL
