MODEL 1
REMARK VINA RESULT:    -3.929      0.000      0.000
REMARK INTER + INTRA:          -8.126
REMARK INTER:                  -6.685
REMARK INTRA:                  -1.441
REMARK UNBOUND:                -1.441
REMARK SMILES CCCCCCCCCCCCCC(=O)[O-]
REMARK SMILES IDX 8 1 9 2 10 3 11 4 12 5 13 6 14 7 15 8 16 9 7 10 6 11 5 12
REMARK SMILES IDX 4 13 3 14 2 15 1 16
REMARK H PARENT
REMARK Flexibility Score: inf
ROOT
ATOM      1  C   UNL     1      26.354 -18.831  25.249  1.00  0.00     0.000 C 
ENDROOT
BRANCH   1   2
ATOM      2  C   UNL     1      26.428 -17.498  24.487  1.00  0.00     0.000 C 
BRANCH   2   3
ATOM      3  C   UNL     1      26.571 -16.287  25.426  1.00  0.00     0.000 C 
BRANCH   3   4
ATOM      4  C   UNL     1      25.675 -16.395  26.670  1.00  0.00     0.000 C 
BRANCH   4   5
ATOM      5  C   UNL     1      24.495 -15.411  26.637  1.00  0.00     0.006 C 
BRANCH   5   6
ATOM      6  C   UNL     1      23.193 -16.129  26.273  1.00  0.00     0.053 C 
BRANCH   6   7
ATOM      7  C   UNL     1      22.361 -16.355  27.495  1.00  0.00     0.041 C 
ATOM      8  O   UNL     1      22.137 -17.526  27.902  1.00  0.00    -0.550 OA
ATOM      9  O   UNL     1      21.872 -15.272  28.215  1.00  0.00    -0.550 OA
ENDBRANCH   6   7
ENDBRANCH   5   6
ENDBRANCH   4   5
ENDBRANCH   3   4
ENDBRANCH   2   3
ENDBRANCH   1   2
BRANCH   1  10
ATOM     10  C   UNL     1      27.524 -19.768  24.914  1.00  0.00     0.000 C 
BRANCH  10  11
ATOM     11  C   UNL     1      28.646 -19.007  24.192  1.00  0.00    -0.000 C 
BRANCH  11  12
ATOM     12  C   UNL     1      29.864 -18.747  25.093  1.00  0.00    -0.000 C 
BRANCH  12  13
ATOM     13  C   UNL     1      29.802 -19.534  26.414  1.00  0.00    -0.000 C 
BRANCH  13  14
ATOM     14  C   UNL     1      29.842 -18.618  27.648  1.00  0.00    -0.000 C 
BRANCH  14  15
ATOM     15  C   UNL     1      28.451 -18.378  28.254  1.00  0.00    -0.003 C 
ATOM     16  C   UNL     1      28.546 -17.562  29.540  1.00  0.00     0.004 C 
ENDBRANCH  14  15
ENDBRANCH  13  14
ENDBRANCH  12  13
ENDBRANCH  11  12
ENDBRANCH  10  11
ENDBRANCH   1  10
TORSDOF 12
ENDMDL
MODEL 2
REMARK VINA RESULT:    -3.916      1.355      1.965
REMARK INTER + INTRA:          -8.105
REMARK INTER:                  -6.374
REMARK INTRA:                  -1.731
REMARK UNBOUND:                -1.441
REMARK SMILES CCCCCCCCCCCCCC(=O)[O-]
REMARK SMILES IDX 8 1 9 2 10 3 11 4 12 5 13 6 14 7 15 8 16 9 7 10 6 11 5 12
REMARK SMILES IDX 4 13 3 14 2 15 1 16
REMARK H PARENT
REMARK Flexibility Score: inf
ROOT
ATOM      1  C   UNL     1      27.838 -19.780  24.956  1.00  0.00     0.000 C 
ENDROOT
BRANCH   1   2
ATOM      2  C   UNL     1      26.530 -18.993  25.136  1.00  0.00     0.000 C 
BRANCH   2   3
ATOM      3  C   UNL     1      26.643 -17.538  24.652  1.00  0.00     0.000 C 
BRANCH   3   4
ATOM      4  C   UNL     1      25.994 -16.540  25.623  1.00  0.00     0.000 C 
BRANCH   4   5
ATOM      5  C   UNL     1      24.537 -16.900  25.955  1.00  0.00     0.006 C 
BRANCH   5   6
ATOM      6  C   UNL     1      23.978 -15.975  27.039  1.00  0.00     0.053 C 
BRANCH   6   7
ATOM      7  C   UNL     1      23.550 -14.670  26.446  1.00  0.00     0.041 C 
ATOM      8  O   UNL     1      22.462 -14.586  25.818  1.00  0.00    -0.550 OA
ATOM      9  O   UNL     1      24.329 -13.534  26.628  1.00  0.00    -0.550 OA
ENDBRANCH   6   7
ENDBRANCH   5   6
ENDBRANCH   4   5
ENDBRANCH   3   4
ENDBRANCH   2   3
ENDBRANCH   1   2
BRANCH   1  10
ATOM     10  C   UNL     1      28.941 -18.947  24.286  1.00  0.00     0.000 C 
BRANCH  10  11
ATOM     11  C   UNL     1      30.128 -18.741  25.240  1.00  0.00    -0.000 C 
BRANCH  11  12
ATOM     12  C   UNL     1      30.155 -19.766  26.385  1.00  0.00    -0.000 C 
BRANCH  12  13
ATOM     13  C   UNL     1      30.208 -19.103  27.772  1.00  0.00    -0.000 C 
BRANCH  13  14
ATOM     14  C   UNL     1      28.874 -19.213  28.529  1.00  0.00    -0.000 C 
BRANCH  14  15
ATOM     15  C   UNL     1      28.017 -17.944  28.406  1.00  0.00    -0.003 C 
ATOM     16  C   UNL     1      26.588 -18.199  28.878  1.00  0.00     0.004 C 
ENDBRANCH  14  15
ENDBRANCH  13  14
ENDBRANCH  12  13
ENDBRANCH  11  12
ENDBRANCH  10  11
ENDBRANCH   1  10
TORSDOF 12
ENDMDL
MODEL 3
REMARK VINA RESULT:    -3.740      2.524      5.418
REMARK INTER + INTRA:          -7.805
REMARK INTER:                  -6.373
REMARK INTRA:                  -1.433
REMARK UNBOUND:                -1.441
REMARK SMILES CCCCCCCCCCCCCC(=O)[O-]
REMARK SMILES IDX 8 1 9 2 10 3 11 4 12 5 13 6 14 7 15 8 16 9 7 10 6 11 5 12
REMARK SMILES IDX 4 13 3 14 2 15 1 16
REMARK H PARENT
REMARK Flexibility Score: inf
ROOT
ATOM      1  C   UNL     1      27.661 -19.776  24.808  1.00  0.00     0.000 C 
ENDROOT
BRANCH   1   2
ATOM      2  C   UNL     1      28.839 -19.009  24.188  1.00  0.00     0.000 C 
BRANCH   2   3
ATOM      3  C   UNL     1      29.965 -18.735  25.200  1.00  0.00     0.000 C 
BRANCH   3   4
ATOM      4  C   UNL     1      29.954 -19.722  26.379  1.00  0.00     0.000 C 
BRANCH   4   5
ATOM      5  C   UNL     1      30.036 -19.017  27.741  1.00  0.00     0.006 C 
BRANCH   5   6
ATOM      6  C   UNL     1      28.723 -18.303  28.069  1.00  0.00     0.053 C 
BRANCH   6   7
ATOM      7  C   UNL     1      28.770 -17.726  29.448  1.00  0.00     0.041 C 
ATOM      8  O   UNL     1      29.557 -18.204  30.309  1.00  0.00    -0.550 OA
ATOM      9  O   UNL     1      27.983 -16.628  29.771  1.00  0.00    -0.550 OA
ENDBRANCH   6   7
ENDBRANCH   5   6
ENDBRANCH   4   5
ENDBRANCH   3   4
ENDBRANCH   2   3
ENDBRANCH   1   2
BRANCH   1  10
ATOM     10  C   UNL     1      26.486 -18.858  25.176  1.00  0.00     0.000 C 
BRANCH  10  11
ATOM     11  C   UNL     1      26.583 -17.518  24.430  1.00  0.00    -0.000 C 
BRANCH  11  12
ATOM     12  C   UNL     1      26.591 -16.308  25.379  1.00  0.00    -0.000 C 
BRANCH  12  13
ATOM     13  C   UNL     1      25.531 -16.420  26.488  1.00  0.00    -0.000 C 
BRANCH  13  14
ATOM     14  C   UNL     1      24.530 -15.252  26.468  1.00  0.00    -0.000 C 
BRANCH  14  15
ATOM     15  C   UNL     1      23.069 -15.724  26.441  1.00  0.00    -0.003 C 
ATOM     16  C   UNL     1      22.956 -17.127  25.851  1.00  0.00     0.004 C 
ENDBRANCH  14  15
ENDBRANCH  13  14
ENDBRANCH  12  13
ENDBRANCH  11  12
ENDBRANCH  10  11
ENDBRANCH   1  10
TORSDOF 12
ENDMDL
MODEL 4
REMARK VINA RESULT:    -3.725      1.552      2.355
REMARK INTER + INTRA:          -7.780
REMARK INTER:                  -6.224
REMARK INTRA:                  -1.557
REMARK UNBOUND:                -1.441
REMARK SMILES CCCCCCCCCCCCCC(=O)[O-]
REMARK SMILES IDX 8 1 9 2 10 3 11 4 12 5 13 6 14 7 15 8 16 9 7 10 6 11 5 12
REMARK SMILES IDX 4 13 3 14 2 15 1 16
REMARK H PARENT
REMARK Flexibility Score: inf
ROOT
ATOM      1  C   UNL     1      26.243 -16.644  26.078  1.00  0.00     0.000 C 
ENDROOT
BRANCH   1   2
ATOM      2  C   UNL     1      26.014 -17.514  27.324  1.00  0.00     0.000 C 
BRANCH   2   3
ATOM      3  C   UNL     1      24.557 -17.988  27.456  1.00  0.00     0.000 C 
BRANCH   3   4
ATOM      4  C   UNL     1      23.819 -18.012  26.107  1.00  0.00     0.000 C 
BRANCH   4   5
ATOM      5  C   UNL     1      22.483 -17.255  26.151  1.00  0.00     0.006 C 
BRANCH   5   6
ATOM      6  C   UNL     1      22.539 -16.100  27.154  1.00  0.00     0.053 C 
BRANCH   6   7
ATOM      7  C   UNL     1      22.858 -14.816  26.458  1.00  0.00     0.041 C 
ATOM      8  O   UNL     1      22.124 -14.405  25.519  1.00  0.00    -0.550 OA
ATOM      9  O   UNL     1      23.936 -14.046  26.876  1.00  0.00    -0.550 OA
ENDBRANCH   6   7
ENDBRANCH   5   6
ENDBRANCH   4   5
ENDBRANCH   3   4
ENDBRANCH   2   3
ENDBRANCH   1   2
BRANCH   1  10
ATOM     10  C   UNL     1      27.367 -17.183  25.180  1.00  0.00     0.000 C 
BRANCH  10  11
ATOM     11  C   UNL     1      27.175 -18.682  24.903  1.00  0.00    -0.000 C 
BRANCH  11  12
ATOM     12  C   UNL     1      28.442 -19.506  25.184  1.00  0.00    -0.000 C 
BRANCH  12  13
ATOM     13  C   UNL     1      29.728 -18.668  25.076  1.00  0.00    -0.000 C 
BRANCH  13  14
ATOM     14  C   UNL     1      30.554 -18.687  26.373  1.00  0.00    -0.000 C 
BRANCH  14  15
ATOM     15  C   UNL     1      29.777 -19.272  27.562  1.00  0.00    -0.003 C 
ATOM     16  C   UNL     1      29.485 -18.199  28.608  1.00  0.00     0.004 C 
ENDBRANCH  14  15
ENDBRANCH  13  14
ENDBRANCH  12  13
ENDBRANCH  11  12
ENDBRANCH  10  11
ENDBRANCH   1  10
TORSDOF 12
ENDMDL
MODEL 5
REMARK VINA RESULT:    -3.715      1.890      3.437
REMARK INTER + INTRA:          -7.762
REMARK INTER:                  -7.104
REMARK INTRA:                  -0.659
REMARK UNBOUND:                -1.441
REMARK SMILES CCCCCCCCCCCCCC(=O)[O-]
REMARK SMILES IDX 8 1 9 2 10 3 11 4 12 5 13 6 14 7 15 8 16 9 7 10 6 11 5 12
REMARK SMILES IDX 4 13 3 14 2 15 1 16
REMARK H PARENT
REMARK Flexibility Score: inf
ROOT
ATOM      1  C   UNL     1      25.337 -16.391  26.237  1.00  0.00     0.000 C 
ENDROOT
BRANCH   1   2
ATOM      2  C   UNL     1      24.553 -15.108  26.555  1.00  0.00     0.000 C 
BRANCH   2   3
ATOM      3  C   UNL     1      23.046 -15.362  26.730  1.00  0.00     0.000 C 
BRANCH   3   4
ATOM      4  C   UNL     1      22.729 -16.830  27.058  1.00  0.00     0.000 C 
BRANCH   4   5
ATOM      5  C   UNL     1      21.827 -16.978  28.294  1.00  0.00     0.006 C 
BRANCH   5   6
ATOM      6  C   UNL     1      21.383 -15.609  28.815  1.00  0.00     0.053 C 
BRANCH   6   7
ATOM      7  C   UNL     1      20.236 -15.757  29.764  1.00  0.00     0.041 C 
ATOM      8  O   UNL     1      19.766 -14.747  30.353  1.00  0.00    -0.550 OA
ATOM      9  O   UNL     1      19.651 -17.002  29.961  1.00  0.00    -0.550 OA
ENDBRANCH   6   7
ENDBRANCH   5   6
ENDBRANCH   4   5
ENDBRANCH   3   4
ENDBRANCH   2   3
ENDBRANCH   1   2
BRANCH   1  10
ATOM     10  C   UNL     1      26.518 -16.142  25.288  1.00  0.00     0.000 C 
BRANCH  10  11
ATOM     11  C   UNL     1      26.616 -17.254  24.232  1.00  0.00    -0.000 C 
BRANCH  11  12
ATOM     12  C   UNL     1      26.924 -18.630  24.845  1.00  0.00    -0.000 C 
BRANCH  12  13
ATOM     13  C   UNL     1      28.376 -19.076  24.599  1.00  0.00    -0.000 C 
BRANCH  13  14
ATOM     14  C   UNL     1      29.014 -19.717  25.842  1.00  0.00    -0.000 C 
BRANCH  14  15
ATOM     15  C   UNL     1      30.539 -19.541  25.883  1.00  0.00    -0.003 C 
ATOM     16  C   UNL     1      30.998 -18.492  24.875  1.00  0.00     0.004 C 
ENDBRANCH  14  15
ENDBRANCH  13  14
ENDBRANCH  12  13
ENDBRANCH  11  12
ENDBRANCH  10  11
ENDBRANCH   1  10
TORSDOF 12
ENDMDL
MODEL 6
REMARK VINA RESULT:    -3.638      1.725      3.250
REMARK INTER + INTRA:          -7.632
REMARK INTER:                  -5.565
REMARK INTRA:                  -2.067
REMARK UNBOUND:                -1.441
REMARK SMILES CCCCCCCCCCCCCC(=O)[O-]
REMARK SMILES IDX 8 1 9 2 10 3 11 4 12 5 13 6 14 7 15 8 16 9 7 10 6 11 5 12
REMARK SMILES IDX 4 13 3 14 2 15 1 16
REMARK H PARENT
REMARK Flexibility Score: inf
ROOT
ATOM      1  C   UNL     1      29.354 -18.358  25.583  1.00  0.00     0.000 C 
ENDROOT
BRANCH   1   2
ATOM      2  C   UNL     1      28.239 -19.035  24.770  1.00  0.00     0.000 C 
BRANCH   2   3
ATOM      3  C   UNL     1      27.066 -18.087  24.469  1.00  0.00     0.000 C 
BRANCH   3   4
ATOM      4  C   UNL     1      27.003 -16.898  25.441  1.00  0.00     0.000 C 
BRANCH   4   5
ATOM      5  C   UNL     1      25.585 -16.327  25.586  1.00  0.00     0.006 C 
BRANCH   5   6
ATOM      6  C   UNL     1      25.446 -15.527  26.884  1.00  0.00     0.053 C 
BRANCH   6   7
ATOM      7  C   UNL     1      24.435 -14.437  26.723  1.00  0.00     0.041 C 
ATOM      8  O   UNL     1      24.796 -13.286  26.360  1.00  0.00    -0.550 OA
ATOM      9  O   UNL     1      23.086 -14.703  26.925  1.00  0.00    -0.550 OA
ENDBRANCH   6   7
ENDBRANCH   5   6
ENDBRANCH   4   5
ENDBRANCH   3   4
ENDBRANCH   2   3
ENDBRANCH   1   2
BRANCH   1  10
ATOM     10  C   UNL     1      30.104 -19.344  26.492  1.00  0.00     0.000 C 
BRANCH  10  11
ATOM     11  C   UNL     1      29.328 -19.586  27.795  1.00  0.00    -0.000 C 
BRANCH  11  12
ATOM     12  C   UNL     1      28.979 -18.281  28.530  1.00  0.00    -0.000 C 
BRANCH  12  13
ATOM     13  C   UNL     1      27.469 -18.134  28.790  1.00  0.00    -0.000 C 
BRANCH  13  14
ATOM     14  C   UNL     1      26.689 -19.421  28.473  1.00  0.00    -0.000 C 
BRANCH  14  15
ATOM     15  C   UNL     1      25.209 -19.155  28.163  1.00  0.00    -0.003 C 
ATOM     16  C   UNL     1      24.810 -19.767  26.824  1.00  0.00     0.004 C 
ENDBRANCH  14  15
ENDBRANCH  13  14
ENDBRANCH  12  13
ENDBRANCH  11  12
ENDBRANCH  10  11
ENDBRANCH   1  10
TORSDOF 12
ENDMDL
MODEL 7
REMARK VINA RESULT:    -3.635      1.279      2.601
REMARK INTER + INTRA:          -7.626
REMARK INTER:                  -6.059
REMARK INTRA:                  -1.568
REMARK UNBOUND:                -1.441
REMARK SMILES CCCCCCCCCCCCCC(=O)[O-]
REMARK SMILES IDX 8 1 9 2 10 3 11 4 12 5 13 6 14 7 15 8 16 9 7 10 6 11 5 12
REMARK SMILES IDX 4 13 3 14 2 15 1 16
REMARK H PARENT
REMARK Flexibility Score: inf
ROOT
ATOM      1  C   UNL     1      29.124 -18.554  25.145  1.00  0.00     0.000 C 
ENDROOT
BRANCH   1   2
ATOM      2  C   UNL     1      27.817 -19.096  24.544  1.00  0.00     0.000 C 
BRANCH   2   3
ATOM      3  C   UNL     1      26.591 -18.254  24.936  1.00  0.00     0.000 C 
BRANCH   3   4
ATOM      4  C   UNL     1      26.966 -16.823  25.355  1.00  0.00     0.000 C 
BRANCH   4   5
ATOM      5  C   UNL     1      25.804 -16.083  26.035  1.00  0.00     0.006 C 
BRANCH   5   6
ATOM      6  C   UNL     1      24.702 -17.059  26.454  1.00  0.00     0.053 C 
BRANCH   6   7
ATOM      7  C   UNL     1      23.355 -16.506  26.115  1.00  0.00     0.041 C 
ATOM      8  O   UNL     1      23.105 -15.286  26.304  1.00  0.00    -0.550 OA
ATOM      9  O   UNL     1      22.390 -17.325  25.543  1.00  0.00    -0.550 OA
ENDBRANCH   6   7
ENDBRANCH   5   6
ENDBRANCH   4   5
ENDBRANCH   3   4
ENDBRANCH   2   3
ENDBRANCH   1   2
BRANCH   1  10
ATOM     10  C   UNL     1      29.959 -19.648  25.827  1.00  0.00     0.000 C 
BRANCH  10  11
ATOM     11  C   UNL     1      29.520 -19.842  27.286  1.00  0.00    -0.000 C 
BRANCH  11  12
ATOM     12  C   UNL     1      29.170 -18.517  27.984  1.00  0.00    -0.000 C 
BRANCH  12  13
ATOM     13  C   UNL     1      27.753 -18.520  28.583  1.00  0.00    -0.000 C 
BRANCH  13  14
ATOM     14  C   UNL     1      27.407 -17.196  29.284  1.00  0.00    -0.000 C 
BRANCH  14  15
ATOM     15  C   UNL     1      28.579 -16.634  30.102  1.00  0.00    -0.003 C 
ATOM     16  C   UNL     1      28.127 -16.231  31.503  1.00  0.00     0.004 C 
ENDBRANCH  14  15
ENDBRANCH  13  14
ENDBRANCH  12  13
ENDBRANCH  11  12
ENDBRANCH  10  11
ENDBRANCH   1  10
TORSDOF 12
ENDMDL
MODEL 8
REMARK VINA RESULT:    -3.588      2.608      4.522
REMARK INTER + INTRA:          -7.547
REMARK INTER:                  -6.588
REMARK INTRA:                  -0.959
REMARK UNBOUND:                -1.441
REMARK SMILES CCCCCCCCCCCCCC(=O)[O-]
REMARK SMILES IDX 8 1 9 2 10 3 11 4 12 5 13 6 14 7 15 8 16 9 7 10 6 11 5 12
REMARK SMILES IDX 4 13 3 14 2 15 1 16
REMARK H PARENT
REMARK Flexibility Score: inf
ROOT
ATOM      1  C   UNL     1      27.705 -18.870  28.283  1.00  0.00     0.000 C 
ENDROOT
BRANCH   1   2
ATOM      2  C   UNL     1      28.208 -19.262  26.885  1.00  0.00     0.000 C 
BRANCH   2   3
ATOM      3  C   UNL     1      28.349 -18.052  25.945  1.00  0.00     0.000 C 
BRANCH   3   4
ATOM      4  C   UNL     1      27.081 -17.798  25.114  1.00  0.00     0.000 C 
BRANCH   4   5
ATOM      5  C   UNL     1      26.553 -16.364  25.265  1.00  0.00     0.006 C 
BRANCH   5   6
ATOM      6  C   UNL     1      25.830 -16.183  26.602  1.00  0.00     0.053 C 
BRANCH   6   7
ATOM      7  C   UNL     1      24.754 -15.151  26.482  1.00  0.00     0.041 C 
ATOM      8  O   UNL     1      23.593 -15.485  26.126  1.00  0.00    -0.550 OA
ATOM      9  O   UNL     1      25.019 -13.828  26.810  1.00  0.00    -0.550 OA
ENDBRANCH   6   7
ENDBRANCH   5   6
ENDBRANCH   4   5
ENDBRANCH   3   4
ENDBRANCH   2   3
ENDBRANCH   1   2
BRANCH   1  10
ATOM     10  C   UNL     1      28.689 -17.958  29.031  1.00  0.00     0.000 C 
BRANCH  10  11
ATOM     11  C   UNL     1      27.960 -16.757  29.653  1.00  0.00    -0.000 C 
BRANCH  11  12
ATOM     12  C   UNL     1      27.908 -16.824  31.188  1.00  0.00    -0.000 C 
BRANCH  12  13
ATOM     13  C   UNL     1      28.576 -15.609  31.856  1.00  0.00    -0.000 C 
BRANCH  13  14
ATOM     14  C   UNL     1      28.494 -14.341  30.989  1.00  0.00    -0.000 C 
BRANCH  14  15
ATOM     15  C   UNL     1      29.692 -13.403  31.196  1.00  0.00    -0.003 C 
ATOM     16  C   UNL     1      29.954 -13.168  32.681  1.00  0.00     0.004 C 
ENDBRANCH  14  15
ENDBRANCH  13  14
ENDBRANCH  12  13
ENDBRANCH  11  12
ENDBRANCH  10  11
ENDBRANCH   1  10
TORSDOF 12
ENDMDL
MODEL 9
REMARK VINA RESULT:    -3.556      2.889      5.139
REMARK INTER + INTRA:          -7.491
REMARK INTER:                  -5.976
REMARK INTRA:                  -1.515
REMARK UNBOUND:                -1.441
REMARK SMILES CCCCCCCCCCCCCC(=O)[O-]
REMARK SMILES IDX 8 1 9 2 10 3 11 4 12 5 13 6 14 7 15 8 16 9 7 10 6 11 5 12
REMARK SMILES IDX 4 13 3 14 2 15 1 16
REMARK H PARENT
REMARK Flexibility Score: inf
ROOT
ATOM      1  C   UNL     1      30.269 -18.578  26.757  1.00  0.00     0.000 C 
ENDROOT
BRANCH   1   2
ATOM      2  C   UNL     1      29.991 -19.664  27.808  1.00  0.00     0.000 C 
BRANCH   2   3
ATOM      3  C   UNL     1      29.166 -19.141  28.997  1.00  0.00     0.000 C 
BRANCH   3   4
ATOM      4  C   UNL     1      27.991 -18.253  28.555  1.00  0.00     0.000 C 
BRANCH   4   5
ATOM      5  C   UNL     1      27.750 -17.074  29.510  1.00  0.00     0.006 C 
BRANCH   5   6
ATOM      6  C   UNL     1      29.017 -16.744  30.304  1.00  0.00     0.053 C 
BRANCH   6   7
ATOM      7  C   UNL     1      28.846 -15.461  31.054  1.00  0.00     0.041 C 
ATOM      8  O   UNL     1      28.301 -14.471  30.500  1.00  0.00    -0.550 OA
ATOM      9  O   UNL     1      29.244 -15.373  32.383  1.00  0.00    -0.550 OA
ENDBRANCH   6   7
ENDBRANCH   5   6
ENDBRANCH   4   5
ENDBRANCH   3   4
ENDBRANCH   2   3
ENDBRANCH   1   2
BRANCH   1  10
ATOM     10  C   UNL     1      30.374 -19.146  25.334  1.00  0.00     0.000 C 
BRANCH  10  11
ATOM     11  C   UNL     1      29.139 -18.771  24.501  1.00  0.00    -0.000 C 
BRANCH  11  12
ATOM     12  C   UNL     1      27.929 -19.673  24.791  1.00  0.00    -0.000 C 
BRANCH  12  13
ATOM     13  C   UNL     1      26.663 -18.871  25.139  1.00  0.00    -0.000 C 
BRANCH  13  14
ATOM     14  C   UNL     1      26.652 -17.477  24.491  1.00  0.00    -0.000 C 
BRANCH  14  15
ATOM     15  C   UNL     1      26.501 -16.346  25.518  1.00  0.00    -0.003 C 
ATOM     16  C   UNL     1      25.348 -16.626  26.478  1.00  0.00     0.004 C 
ENDBRANCH  14  15
ENDBRANCH  13  14
ENDBRANCH  12  13
ENDBRANCH  11  12
ENDBRANCH  10  11
ENDBRANCH   1  10
TORSDOF 12
ENDMDL
