MODEL 1
REMARK VINA RESULT:    -4.544      0.000      0.000
REMARK INTER + INTRA:          -7.359
REMARK INTER:                  -6.935
REMARK INTRA:                  -0.424
REMARK UNBOUND:                -0.424
REMARK SMILES CCCCCCCCCCC(=O)[O-]
REMARK SMILES IDX 7 1 8 2 9 3 10 4 11 5 12 6 13 7 6 8 5 9 4 10 3 11 2 12 1 13
REMARK H PARENT
REMARK Flexibility Score: inf
ROOT
ATOM      1  C   UNL     1     -10.570 -34.749  44.609  1.00  0.00     0.000 C 
ENDROOT
BRANCH   1   2
ATOM      2  C   UNL     1     -10.530 -33.741  43.447  1.00  0.00     0.000 C 
BRANCH   2   3
ATOM      3  C   UNL     1      -9.850 -34.307  42.188  1.00  0.00     0.006 C 
BRANCH   3   4
ATOM      4  C   UNL     1      -9.621 -33.230  41.119  1.00  0.00     0.053 C 
BRANCH   4   5
ATOM      5  C   UNL     1      -8.236 -32.663  41.186  1.00  0.00     0.041 C 
ATOM      6  O   UNL     1      -8.065 -31.417  41.259  1.00  0.00    -0.550 OA
ATOM      7  O   UNL     1      -7.135 -33.508  41.138  1.00  0.00    -0.550 OA
ENDBRANCH   4   5
ENDBRANCH   3   4
ENDBRANCH   2   3
ENDBRANCH   1   2
BRANCH   1   8
ATOM      8  C   UNL     1     -10.586 -36.233  44.190  1.00  0.00     0.000 C 
BRANCH   8   9
ATOM      9  C   UNL     1     -10.882 -37.230  45.325  1.00  0.00    -0.000 C 
BRANCH   9  10
ATOM     10  C   UNL     1     -11.534 -38.526  44.825  1.00  0.00    -0.000 C 
BRANCH  10  11
ATOM     11  C   UNL     1     -11.800 -38.462  43.317  1.00  0.00    -0.000 C 
BRANCH  11  12
ATOM     12  C   UNL     1     -13.090 -39.205  42.953  1.00  0.00    -0.003 C 
ATOM     13  C   UNL     1     -13.378 -39.112  41.457  1.00  0.00     0.004 C 
ENDBRANCH  11  12
ENDBRANCH  10  11
ENDBRANCH   9  10
ENDBRANCH   8   9
ENDBRANCH   1   8
TORSDOF 9
ENDMDL
MODEL 2
REMARK VINA RESULT:    -4.536      3.501      5.458
REMARK INTER + INTRA:          -7.347
REMARK INTER:                  -6.758
REMARK INTRA:                  -0.588
REMARK UNBOUND:                -0.424
REMARK SMILES CCCCCCCCCCC(=O)[O-]
REMARK SMILES IDX 7 1 8 2 9 3 10 4 11 5 12 6 13 7 6 8 5 9 4 10 3 11 2 12 1 13
REMARK H PARENT
REMARK Flexibility Score: inf
ROOT
ATOM      1  C   UNL     1      -7.674 -32.019  41.931  1.00  0.00     0.000 C 
ENDROOT
BRANCH   1   2
ATOM      2  C   UNL     1      -7.249 -32.288  43.385  1.00  0.00     0.000 C 
BRANCH   2   3
ATOM      3  C   UNL     1      -6.730 -31.029  44.100  1.00  0.00     0.006 C 
BRANCH   3   4
ATOM      4  C   UNL     1      -5.650 -31.356  45.140  1.00  0.00     0.053 C 
BRANCH   4   5
ATOM      5  C   UNL     1      -4.955 -30.123  45.631  1.00  0.00     0.041 C 
ATOM      6  O   UNL     1      -4.867 -29.108  44.889  1.00  0.00    -0.550 OA
ATOM      7  O   UNL     1      -4.380 -30.103  46.895  1.00  0.00    -0.550 OA
ENDBRANCH   4   5
ENDBRANCH   3   4
ENDBRANCH   2   3
ENDBRANCH   1   2
BRANCH   1   8
ATOM      8  C   UNL     1      -8.171 -33.254  41.154  1.00  0.00     0.000 C 
BRANCH   8   9
ATOM      9  C   UNL     1      -9.690 -33.494  41.209  1.00  0.00    -0.000 C 
BRANCH   9  10
ATOM     10  C   UNL     1     -10.103 -34.446  42.340  1.00  0.00    -0.000 C 
BRANCH  10  11
ATOM     11  C   UNL     1     -10.614 -33.665  43.556  1.00  0.00    -0.000 C 
BRANCH  11  12
ATOM     12  C   UNL     1     -10.121 -34.297  44.863  1.00  0.00    -0.003 C 
ATOM     13  C   UNL     1     -10.519 -35.768  44.949  1.00  0.00     0.004 C 
ENDBRANCH  11  12
ENDBRANCH  10  11
ENDBRANCH   9  10
ENDBRANCH   8   9
ENDBRANCH   1   8
TORSDOF 9
ENDMDL
MODEL 3
REMARK VINA RESULT:    -4.417      9.769     11.392
REMARK INTER + INTRA:          -7.164
REMARK INTER:                  -6.505
REMARK INTRA:                  -0.659
REMARK UNBOUND:                -0.424
REMARK SMILES CCCCCCCCCCC(=O)[O-]
REMARK SMILES IDX 7 1 8 2 9 3 10 4 11 5 12 6 13 7 6 8 5 9 4 10 3 11 2 12 1 13
REMARK H PARENT
REMARK Flexibility Score: inf
ROOT
ATOM      1  C   UNL     1      -4.631 -33.174  52.364  1.00  0.00     0.000 C 
ENDROOT
BRANCH   1   2
ATOM      2  C   UNL     1      -5.374 -32.044  51.629  1.00  0.00     0.000 C 
BRANCH   2   3
ATOM      3  C   UNL     1      -6.526 -32.559  50.749  1.00  0.00     0.006 C 
BRANCH   3   4
ATOM      4  C   UNL     1      -6.581 -31.845  49.391  1.00  0.00     0.053 C 
BRANCH   4   5
ATOM      5  C   UNL     1      -5.930 -32.650  48.309  1.00  0.00     0.041 C 
ATOM      6  O   UNL     1      -5.802 -32.170  47.152  1.00  0.00    -0.550 OA
ATOM      7  O   UNL     1      -5.491 -33.941  48.571  1.00  0.00    -0.550 OA
ENDBRANCH   4   5
ENDBRANCH   3   4
ENDBRANCH   2   3
ENDBRANCH   1   2
BRANCH   1   8
ATOM      8  C   UNL     1      -5.168 -34.594  52.094  1.00  0.00     0.000 C 
BRANCH   8   9
ATOM      9  C   UNL     1      -4.677 -35.675  53.074  1.00  0.00    -0.000 C 
BRANCH   9  10
ATOM     10  C   UNL     1      -5.085 -35.394  54.527  1.00  0.00    -0.000 C 
BRANCH  10  11
ATOM     11  C   UNL     1      -3.872 -35.463  55.461  1.00  0.00    -0.000 C 
BRANCH  11  12
ATOM     12  C   UNL     1      -2.570 -35.205  54.693  1.00  0.00    -0.003 C 
ATOM     13  C   UNL     1      -1.396 -35.939  55.335  1.00  0.00     0.004 C 
ENDBRANCH  11  12
ENDBRANCH  10  11
ENDBRANCH   9  10
ENDBRANCH   8   9
ENDBRANCH   1   8
TORSDOF 9
ENDMDL
MODEL 4
REMARK VINA RESULT:    -4.401      2.066      2.770
REMARK INTER + INTRA:          -7.140
REMARK INTER:                  -6.231
REMARK INTRA:                  -0.909
REMARK UNBOUND:                -0.424
REMARK SMILES CCCCCCCCCCC(=O)[O-]
REMARK SMILES IDX 7 1 8 2 9 3 10 4 11 5 12 6 13 7 6 8 5 9 4 10 3 11 2 12 1 13
REMARK H PARENT
REMARK Flexibility Score: inf
ROOT
ATOM      1  C   UNL     1     -10.546 -33.951  43.870  1.00  0.00     0.000 C 
ENDROOT
BRANCH   1   2
ATOM      2  C   UNL     1     -10.009 -34.571  42.568  1.00  0.00     0.000 C 
BRANCH   2   3
ATOM      3  C   UNL     1      -9.877 -33.546  41.428  1.00  0.00     0.006 C 
BRANCH   3   4
ATOM      4  C   UNL     1      -8.412 -33.274  41.060  1.00  0.00     0.053 C 
BRANCH   4   5
ATOM      5  C   UNL     1      -7.871 -32.073  41.773  1.00  0.00     0.041 C 
ATOM      6  O   UNL     1      -7.311 -32.202  42.894  1.00  0.00    -0.550 OA
ATOM      7  O   UNL     1      -8.010 -30.810  41.214  1.00  0.00    -0.550 OA
ENDBRANCH   4   5
ENDBRANCH   3   4
ENDBRANCH   2   3
ENDBRANCH   1   2
BRANCH   1   8
ATOM      8  C   UNL     1      -9.536 -33.893  45.034  1.00  0.00     0.000 C 
BRANCH   8   9
ATOM      9  C   UNL     1      -9.828 -34.851  46.202  1.00  0.00    -0.000 C 
BRANCH   9  10
ATOM     10  C   UNL     1     -10.980 -35.821  45.905  1.00  0.00    -0.000 C 
BRANCH  10  11
ATOM     11  C   UNL     1     -10.500 -37.276  45.954  1.00  0.00    -0.000 C 
BRANCH  11  12
ATOM     12  C   UNL     1     -10.046 -37.753  44.569  1.00  0.00    -0.003 C 
ATOM     13  C   UNL     1      -8.565 -38.121  44.571  1.00  0.00     0.004 C 
ENDBRANCH  11  12
ENDBRANCH  10  11
ENDBRANCH   9  10
ENDBRANCH   8   9
ENDBRANCH   1   8
TORSDOF 9
ENDMDL
MODEL 5
REMARK VINA RESULT:    -4.398      3.601      6.898
REMARK INTER + INTRA:          -7.135
REMARK INTER:                  -6.397
REMARK INTRA:                  -0.738
REMARK UNBOUND:                -0.424
REMARK SMILES CCCCCCCCCCC(=O)[O-]
REMARK SMILES IDX 7 1 8 2 9 3 10 4 11 5 12 6 13 7 6 8 5 9 4 10 3 11 2 12 1 13
REMARK H PARENT
REMARK Flexibility Score: inf
ROOT
ATOM      1  C   UNL     1     -10.095 -33.632  41.536  1.00  0.00     0.000 C 
ENDROOT
BRANCH   1   2
ATOM      2  C   UNL     1      -9.924 -34.582  42.734  1.00  0.00     0.000 C 
BRANCH   2   3
ATOM      3  C   UNL     1     -10.556 -34.034  44.026  1.00  0.00     0.006 C 
BRANCH   3   4
ATOM      4  C   UNL     1      -9.862 -34.572  45.284  1.00  0.00     0.053 C 
BRANCH   4   5
ATOM      5  C   UNL     1     -10.226 -35.999  45.557  1.00  0.00     0.041 C 
ATOM      6  O   UNL     1      -9.522 -36.933  45.089  1.00  0.00    -0.550 OA
ATOM      7  O   UNL     1     -11.359 -36.299  46.302  1.00  0.00    -0.550 OA
ENDBRANCH   4   5
ENDBRANCH   3   4
ENDBRANCH   2   3
ENDBRANCH   1   2
BRANCH   1   8
ATOM      8  C   UNL     1      -8.781 -33.089  40.938  1.00  0.00     0.000 C 
BRANCH   8   9
ATOM      9  C   UNL     1      -7.570 -33.115  41.888  1.00  0.00    -0.000 C 
BRANCH   9  10
ATOM     10  C   UNL     1      -7.425 -31.824  42.706  1.00  0.00    -0.000 C 
BRANCH  10  11
ATOM     11  C   UNL     1      -7.318 -32.132  44.204  1.00  0.00    -0.000 C 
BRANCH  11  12
ATOM     12  C   UNL     1      -5.998 -31.607  44.781  1.00  0.00    -0.003 C 
ATOM     13  C   UNL     1      -5.836 -30.112  44.516  1.00  0.00     0.004 C 
ENDBRANCH  11  12
ENDBRANCH  10  11
ENDBRANCH   9  10
ENDBRANCH   8   9
ENDBRANCH   1   8
TORSDOF 9
ENDMDL
MODEL 6
REMARK VINA RESULT:    -4.390      4.140      6.275
REMARK INTER + INTRA:          -7.123
REMARK INTER:                  -6.432
REMARK INTRA:                  -0.691
REMARK UNBOUND:                -0.424
REMARK SMILES CCCCCCCCCCC(=O)[O-]
REMARK SMILES IDX 7 1 8 2 9 3 10 4 11 5 12 6 13 7 6 8 5 9 4 10 3 11 2 12 1 13
REMARK H PARENT
REMARK Flexibility Score: inf
ROOT
ATOM      1  C   UNL     1      -7.148 -32.262  43.597  1.00  0.00     0.000 C 
ENDROOT
BRANCH   1   2
ATOM      2  C   UNL     1      -6.706 -31.312  44.725  1.00  0.00     0.000 C 
BRANCH   2   3
ATOM      3  C   UNL     1      -6.387 -29.894  44.222  1.00  0.00     0.006 C 
BRANCH   3   4
ATOM      4  C   UNL     1      -4.932 -29.494  44.501  1.00  0.00     0.053 C 
BRANCH   4   5
ATOM      5  C   UNL     1      -4.842 -28.349  45.464  1.00  0.00     0.041 C 
ATOM      6  O   UNL     1      -3.717 -27.929  45.845  1.00  0.00    -0.550 OA
ATOM      7  O   UNL     1      -6.000 -27.765  45.961  1.00  0.00    -0.550 OA
ENDBRANCH   4   5
ENDBRANCH   3   4
ENDBRANCH   2   3
ENDBRANCH   1   2
BRANCH   1   8
ATOM      8  C   UNL     1      -7.489 -31.575  42.259  1.00  0.00     0.000 C 
BRANCH   8   9
ATOM      9  C   UNL     1      -7.854 -32.530  41.109  1.00  0.00    -0.000 C 
BRANCH   9  10
ATOM     10  C   UNL     1      -8.564 -33.803  41.592  1.00  0.00    -0.000 C 
BRANCH  10  11
ATOM     11  C   UNL     1     -10.075 -33.576  41.717  1.00  0.00    -0.000 C 
BRANCH  11  12
ATOM     12  C   UNL     1     -10.522 -33.645  43.182  1.00  0.00    -0.003 C 
ATOM     13  C   UNL     1      -9.838 -34.796  43.915  1.00  0.00     0.004 C 
ENDBRANCH  11  12
ENDBRANCH  10  11
ENDBRANCH   9  10
ENDBRANCH   8   9
ENDBRANCH   1   8
TORSDOF 9
ENDMDL
MODEL 7
REMARK VINA RESULT:    -4.336      3.551      5.614
REMARK INTER + INTRA:          -7.041
REMARK INTER:                  -6.363
REMARK INTRA:                  -0.677
REMARK UNBOUND:                -0.424
REMARK SMILES CCCCCCCCCCC(=O)[O-]
REMARK SMILES IDX 7 1 8 2 9 3 10 4 11 5 12 6 13 7 6 8 5 9 4 10 3 11 2 12 1 13
REMARK H PARENT
REMARK Flexibility Score: inf
ROOT
ATOM      1  C   UNL     1      -8.364 -32.801  44.780  1.00  0.00     0.000 C 
ENDROOT
BRANCH   1   2
ATOM      2  C   UNL     1      -7.883 -32.153  46.091  1.00  0.00     0.000 C 
BRANCH   2   3
ATOM      3  C   UNL     1      -6.375 -31.849  46.089  1.00  0.00     0.006 C 
BRANCH   3   4
ATOM      4  C   UNL     1      -6.088 -30.342  46.076  1.00  0.00     0.053 C 
BRANCH   4   5
ATOM      5  C   UNL     1      -5.560 -29.885  44.751  1.00  0.00     0.041 C 
ATOM      6  O   UNL     1      -4.330 -29.653  44.605  1.00  0.00    -0.550 OA
ATOM      7  O   UNL     1      -6.428 -29.688  43.686  1.00  0.00    -0.550 OA
ENDBRANCH   4   5
ENDBRANCH   3   4
ENDBRANCH   2   3
ENDBRANCH   1   2
BRANCH   1   8
ATOM      8  C   UNL     1      -9.507 -33.825  44.937  1.00  0.00     0.000 C 
BRANCH   8   9
ATOM      9  C   UNL     1     -10.063 -34.391  43.618  1.00  0.00    -0.000 C 
BRANCH   9  10
ATOM     10  C   UNL     1     -10.307 -33.307  42.559  1.00  0.00    -0.000 C 
BRANCH  10  11
ATOM     11  C   UNL     1      -9.698 -33.708  41.211  1.00  0.00    -0.000 C 
BRANCH  11  12
ATOM     12  C   UNL     1      -8.225 -33.294  41.128  1.00  0.00    -0.003 C 
ATOM     13  C   UNL     1      -8.063 -31.789  41.324  1.00  0.00     0.004 C 
ENDBRANCH  11  12
ENDBRANCH  10  11
ENDBRANCH   9  10
ENDBRANCH   8   9
ENDBRANCH   1   8
TORSDOF 9
ENDMDL
MODEL 8
REMARK VINA RESULT:    -4.299      1.479      2.473
REMARK INTER + INTRA:          -6.985
REMARK INTER:                  -6.544
REMARK INTRA:                  -0.441
REMARK UNBOUND:                -0.424
REMARK SMILES CCCCCCCCCCC(=O)[O-]
REMARK SMILES IDX 7 1 8 2 9 3 10 4 11 5 12 6 13 7 6 8 5 9 4 10 3 11 2 12 1 13
REMARK H PARENT
REMARK Flexibility Score: inf
ROOT
ATOM      1  C   UNL     1     -10.614 -34.730  44.626  1.00  0.00     0.000 C 
ENDROOT
BRANCH   1   2
ATOM      2  C   UNL     1     -10.226 -33.698  43.552  1.00  0.00     0.000 C 
BRANCH   2   3
ATOM      3  C   UNL     1      -9.898 -34.343  42.194  1.00  0.00     0.006 C 
BRANCH   3   4
ATOM      4  C   UNL     1      -9.618 -33.296  41.108  1.00  0.00     0.053 C 
BRANCH   4   5
ATOM      5  C   UNL     1      -8.235 -32.733  41.218  1.00  0.00     0.041 C 
ATOM      6  O   UNL     1      -7.234 -33.496  41.168  1.00  0.00    -0.550 OA
ATOM      7  O   UNL     1      -8.051 -31.369  41.405  1.00  0.00    -0.550 OA
ENDBRANCH   4   5
ENDBRANCH   3   4
ENDBRANCH   2   3
ENDBRANCH   1   2
BRANCH   1   8
ATOM      8  C   UNL     1     -10.016 -36.138  44.429  1.00  0.00     0.000 C 
BRANCH   8   9
ATOM      9  C   UNL     1     -11.037 -37.243  44.109  1.00  0.00    -0.000 C 
BRANCH   9  10
ATOM     10  C   UNL     1     -10.873 -38.483  45.000  1.00  0.00    -0.000 C 
BRANCH  10  11
ATOM     11  C   UNL     1     -12.233 -38.991  45.491  1.00  0.00    -0.000 C 
BRANCH  11  12
ATOM     12  C   UNL     1     -12.580 -38.396  46.861  1.00  0.00    -0.003 C 
ATOM     13  C   UNL     1     -11.687 -38.973  47.956  1.00  0.00     0.004 C 
ENDBRANCH  11  12
ENDBRANCH  10  11
ENDBRANCH   9  10
ENDBRANCH   8   9
ENDBRANCH   1   8
TORSDOF 9
ENDMDL
MODEL 9
REMARK VINA RESULT:    -4.273      2.407      3.713
REMARK INTER + INTRA:          -6.945
REMARK INTER:                  -6.514
REMARK INTRA:                  -0.431
REMARK UNBOUND:                -0.424
REMARK SMILES CCCCCCCCCCC(=O)[O-]
REMARK SMILES IDX 7 1 8 2 9 3 10 4 11 5 12 6 13 7 6 8 5 9 4 10 3 11 2 12 1 13
REMARK H PARENT
REMARK Flexibility Score: inf
ROOT
ATOM      1  C   UNL     1     -10.637 -36.804  44.286  1.00  0.00     0.000 C 
ENDROOT
BRANCH   1   2
ATOM      2  C   UNL     1     -10.568 -35.295  44.581  1.00  0.00     0.000 C 
BRANCH   2   3
ATOM      3  C   UNL     1      -9.538 -34.561  43.705  1.00  0.00     0.006 C 
BRANCH   3   4
ATOM      4  C   UNL     1     -10.206 -33.703  42.622  1.00  0.00     0.053 C 
BRANCH   4   5
ATOM      5  C   UNL     1      -9.331 -33.545  41.416  1.00  0.00     0.041 C 
ATOM      6  O   UNL     1      -9.836 -33.242  40.302  1.00  0.00    -0.550 OA
ATOM      7  O   UNL     1      -7.962 -33.759  41.516  1.00  0.00    -0.550 OA
ENDBRANCH   4   5
ENDBRANCH   3   4
ENDBRANCH   2   3
ENDBRANCH   1   2
BRANCH   1   8
ATOM      8  C   UNL     1     -10.608 -37.717  45.528  1.00  0.00     0.000 C 
BRANCH   8   9
ATOM      9  C   UNL     1     -11.135 -37.075  46.824  1.00  0.00    -0.000 C 
BRANCH   9  10
ATOM     10  C   UNL     1     -10.495 -37.668  48.087  1.00  0.00    -0.000 C 
BRANCH  10  11
ATOM     11  C   UNL     1     -11.412 -38.715  48.729  1.00  0.00    -0.000 C 
BRANCH  11  12
ATOM     12  C   UNL     1     -10.805 -40.119  48.622  1.00  0.00    -0.003 C 
ATOM     13  C   UNL     1      -9.280 -40.061  48.625  1.00  0.00     0.004 C 
ENDBRANCH  11  12
ENDBRANCH  10  11
ENDBRANCH   9  10
ENDBRANCH   8   9
ENDBRANCH   1   8
TORSDOF 9
ENDMDL
