MODEL 1
REMARK VINA RESULT:    -6.355      0.000      0.000
REMARK INTER + INTRA:          -8.195
REMARK INTER:                  -7.841
REMARK INTRA:                  -0.354
REMARK UNBOUND:                -0.354
REMARK SMILES O=c1c(O)c(-c2cc(O)c(O)c(O)c2)oc2cc(O)cc(O)c12
REMARK SMILES IDX 5 1 3 2 2 3 1 4 23 5 21 6 20 7 18 8 17 9 16 10 15 11 6 12
REMARK SMILES IDX 7 13 8 14 14 15 10 16 12 17 9 18 11 20 13 22 4 24 22 26
REMARK SMILES IDX 19 28
REMARK H PARENT 9 19 11 21 13 23 4 25 22 27 19 29
REMARK Flexibility Score: inf
ROOT
ATOM      1  C   UNL     1      -6.536 -23.572  34.959  1.00  0.00     0.180 A 
ATOM      2  C   UNL     1      -7.008 -22.522  34.153  1.00  0.00     0.208 A 
ATOM      3  C   UNL     1      -6.243 -21.349  34.046  1.00  0.00     0.238 A 
ATOM      4  O   UNL     1      -6.696 -20.392  33.367  1.00  0.00    -0.285 OA
ATOM      5  C   UNL     1      -5.010 -21.248  34.733  1.00  0.00     0.111 A 
ATOM      6  C   UNL     1      -4.134 -20.122  34.666  1.00  0.00     0.134 A 
ATOM      7  C   UNL     1      -3.003 -20.076  35.490  1.00  0.00     0.093 A 
ATOM      8  C   UNL     1      -2.680 -21.141  36.330  1.00  0.00     0.123 A 
ATOM      9  C   UNL     1      -3.498 -22.273  36.361  1.00  0.00     0.094 A 
ATOM     10  C   UNL     1      -4.653 -22.332  35.577  1.00  0.00     0.146 A 
ATOM     11  O   UNL     1      -5.408 -23.421  35.643  1.00  0.00    -0.452 OA
ENDROOT
BRANCH   1  12
ATOM     12  C   UNL     1      -7.274 -24.849  35.101  1.00  0.00     0.029 A 
ATOM     13  C   UNL     1      -7.000 -25.907  34.223  1.00  0.00     0.062 A 
ATOM     14  C   UNL     1      -7.693 -27.119  34.315  1.00  0.00     0.162 A 
ATOM     15  C   UNL     1      -8.286 -25.004  36.061  1.00  0.00     0.062 A 
ATOM     16  C   UNL     1      -8.697 -27.276  35.300  1.00  0.00     0.200 A 
ATOM     17  C   UNL     1      -8.989 -26.211  36.164  1.00  0.00     0.162 A 
BRANCH  14  18
ATOM     18  O   UNL     1      -7.356 -28.131  33.414  1.00  0.00    -0.504 OA
ATOM     19  H   UNL     1      -7.518 -29.113  33.579  1.00  0.00     0.293 HD
ENDBRANCH  14  18
BRANCH  16  20
ATOM     20  O   UNL     1      -9.422 -28.461  35.451  1.00  0.00    -0.502 OA
ATOM     21  H   UNL     1      -9.795 -28.998  34.682  1.00  0.00     0.293 HD
ENDBRANCH  16  20
BRANCH  17  22
ATOM     22  O   UNL     1      -9.988 -26.360  37.125  1.00  0.00    -0.504 OA
ATOM     23  H   UNL     1     -10.407 -25.559  37.583  1.00  0.00     0.293 HD
ENDBRANCH  17  22
ENDBRANCH   1  12
BRANCH   2  24
ATOM     24  O   UNL     1      -8.239 -22.635  33.500  1.00  0.00    -0.502 OA
ATOM     25  H   UNL     1      -8.313 -22.753  32.496  1.00  0.00     0.293 HD
ENDBRANCH   2  24
BRANCH   6  26
ATOM     26  O   UNL     1      -4.314 -19.045  33.792  1.00  0.00    -0.507 OA
ATOM     27  H   UNL     1      -3.585 -18.407  33.509  1.00  0.00     0.293 HD
ENDBRANCH   6  26
BRANCH   8  28
ATOM     28  O   UNL     1      -1.539 -21.068  37.125  1.00  0.00    -0.508 OA
ATOM     29  H   UNL     1      -1.064 -20.189  37.292  1.00  0.00     0.293 HD
ENDBRANCH   8  28
TORSDOF 7
ENDMDL
MODEL 2
REMARK VINA RESULT:    -6.171      2.377      3.121
REMARK INTER + INTRA:          -7.968
REMARK INTER:                  -7.645
REMARK INTRA:                  -0.322
REMARK UNBOUND:                -0.354
REMARK SMILES O=c1c(O)c(-c2cc(O)c(O)c(O)c2)oc2cc(O)cc(O)c12
REMARK SMILES IDX 5 1 3 2 2 3 1 4 23 5 21 6 20 7 18 8 17 9 16 10 15 11 6 12
REMARK SMILES IDX 7 13 8 14 14 15 10 16 12 17 9 18 11 20 13 22 4 24 22 26
REMARK SMILES IDX 19 28
REMARK H PARENT 9 19 11 21 13 23 4 25 22 27 19 29
REMARK Flexibility Score: inf
ROOT
ATOM      1  C   UNL     1      -5.862 -22.073  34.782  1.00  0.00     0.180 A 
ATOM      2  C   UNL     1      -6.737 -21.173  35.414  1.00  0.00     0.208 A 
ATOM      3  C   UNL     1      -6.468 -19.797  35.341  1.00  0.00     0.238 A 
ATOM      4  O   UNL     1      -7.224 -19.000  35.955  1.00  0.00    -0.285 OA
ATOM      5  C   UNL     1      -5.336 -19.338  34.625  1.00  0.00     0.111 A 
ATOM      6  C   UNL     1      -4.989 -17.963  34.453  1.00  0.00     0.134 A 
ATOM      7  C   UNL     1      -3.777 -17.630  33.837  1.00  0.00     0.093 A 
ATOM      8  C   UNL     1      -2.932 -18.615  33.329  1.00  0.00     0.123 A 
ATOM      9  C   UNL     1      -3.289 -19.960  33.439  1.00  0.00     0.094 A 
ATOM     10  C   UNL     1      -4.475 -20.326  34.082  1.00  0.00     0.146 A 
ATOM     11  O   UNL     1      -4.774 -21.616  34.174  1.00  0.00    -0.452 OA
ENDROOT
BRANCH   1  12
ATOM     12  C   UNL     1      -6.093 -23.536  34.794  1.00  0.00     0.029 A 
ATOM     13  C   UNL     1      -5.732 -24.284  35.923  1.00  0.00     0.062 A 
ATOM     14  C   UNL     1      -5.917 -25.670  35.960  1.00  0.00     0.162 A 
ATOM     15  C   UNL     1      -6.615 -24.201  33.674  1.00  0.00     0.062 A 
ATOM     16  C   UNL     1      -6.464 -26.332  34.835  1.00  0.00     0.200 A 
ATOM     17  C   UNL     1      -6.804 -25.589  33.696  1.00  0.00     0.162 A 
BRANCH  14  18
ATOM     18  O   UNL     1      -5.544 -26.346  37.125  1.00  0.00    -0.504 OA
ATOM     19  H   UNL     1      -4.753 -26.970  37.188  1.00  0.00     0.293 HD
ENDBRANCH  14  18
BRANCH  16  20
ATOM     20  O   UNL     1      -6.681 -27.712  34.807  1.00  0.00    -0.502 OA
ATOM     21  H   UNL     1      -6.158 -28.378  35.356  1.00  0.00     0.293 HD
ENDBRANCH  16  20
BRANCH  17  22
ATOM     22  O   UNL     1      -7.330 -26.241  32.582  1.00  0.00    -0.504 OA
ATOM     23  H   UNL     1      -8.075 -26.923  32.668  1.00  0.00     0.293 HD
ENDBRANCH  17  22
ENDBRANCH   1  12
BRANCH   2  24
ATOM     24  O   UNL     1      -7.836 -21.649  36.134  1.00  0.00    -0.502 OA
ATOM     25  H   UNL     1      -8.134 -22.617  36.095  1.00  0.00     0.293 HD
ENDBRANCH   2  24
BRANCH   6  26
ATOM     26  O   UNL     1      -5.806 -16.897  34.842  1.00  0.00    -0.507 OA
ATOM     27  H   UNL     1      -6.202 -16.783  35.763  1.00  0.00     0.293 HD
ENDBRANCH   6  26
BRANCH   8  28
ATOM     28  O   UNL     1      -1.740 -18.246  32.709  1.00  0.00    -0.508 OA
ATOM     29  H   UNL     1      -1.503 -17.274  32.549  1.00  0.00     0.293 HD
ENDBRANCH   8  28
TORSDOF 7
ENDMDL
MODEL 3
REMARK VINA RESULT:    -6.076      1.084      3.265
REMARK INTER + INTRA:          -7.851
REMARK INTER:                  -7.497
REMARK INTRA:                  -0.354
REMARK UNBOUND:                -0.354
REMARK SMILES O=c1c(O)c(-c2cc(O)c(O)c(O)c2)oc2cc(O)cc(O)c12
REMARK SMILES IDX 5 1 3 2 2 3 1 4 23 5 21 6 20 7 18 8 17 9 16 10 15 11 6 12
REMARK SMILES IDX 7 13 8 14 14 15 10 16 12 17 9 18 11 20 13 22 4 24 22 26
REMARK SMILES IDX 19 28
REMARK H PARENT 9 19 11 21 13 23 4 25 22 27 19 29
REMARK Flexibility Score: inf
ROOT
ATOM      1  C   UNL     1      -6.089 -23.893  35.446  1.00  0.00     0.180 A 
ATOM      2  C   UNL     1      -4.993 -23.941  36.324  1.00  0.00     0.208 A 
ATOM      3  C   UNL     1      -4.115 -22.846  36.378  1.00  0.00     0.238 A 
ATOM      4  O   UNL     1      -3.105 -22.917  37.125  1.00  0.00    -0.285 OA
ATOM      5  C   UNL     1      -4.353 -21.712  35.565  1.00  0.00     0.111 A 
ATOM      6  C   UNL     1      -3.552 -20.530  35.567  1.00  0.00     0.134 A 
ATOM      7  C   UNL     1      -3.804 -19.523  34.628  1.00  0.00     0.093 A 
ATOM      8  C   UNL     1      -4.868 -19.623  33.732  1.00  0.00     0.123 A 
ATOM      9  C   UNL     1      -5.695 -20.748  33.761  1.00  0.00     0.094 A 
ATOM     10  C   UNL     1      -5.445 -21.786  34.662  1.00  0.00     0.146 A 
ATOM     11  O   UNL     1      -6.249 -22.842  34.650  1.00  0.00    -0.452 OA
ENDROOT
BRANCH   1  12
ATOM     12  C   UNL     1      -7.072 -24.997  35.352  1.00  0.00     0.029 A 
ATOM     13  C   UNL     1      -8.149 -25.042  36.248  1.00  0.00     0.062 A 
ATOM     14  C   UNL     1      -9.084 -26.082  36.202  1.00  0.00     0.162 A 
ATOM     15  C   UNL     1      -6.917 -26.035  34.420  1.00  0.00     0.062 A 
ATOM     16  C   UNL     1      -8.934 -27.113  35.244  1.00  0.00     0.200 A 
ATOM     17  C   UNL     1      -7.844 -27.083  34.363  1.00  0.00     0.162 A 
BRANCH  14  18
ATOM     18  O   UNL     1     -10.137 -26.052  37.119  1.00  0.00    -0.504 OA
ATOM     19  H   UNL     1     -10.875 -25.363  37.111  1.00  0.00     0.293 HD
ENDBRANCH  14  18
BRANCH  16  20
ATOM     20  O   UNL     1      -9.833 -28.177  35.139  1.00  0.00    -0.502 OA
ATOM     21  H   UNL     1     -10.586 -28.348  35.790  1.00  0.00     0.293 HD
ENDBRANCH  16  20
BRANCH  17  22
ATOM     22  O   UNL     1      -7.687 -28.106  33.429  1.00  0.00    -0.504 OA
ATOM     23  H   UNL     1      -7.076 -28.895  33.604  1.00  0.00     0.293 HD
ENDBRANCH  17  22
ENDBRANCH   1  12
BRANCH   2  24
ATOM     24  O   UNL     1      -4.764 -25.080  37.101  1.00  0.00    -0.502 OA
ATOM     25  H   UNL     1      -5.020 -26.010  36.792  1.00  0.00     0.293 HD
ENDBRANCH   2  24
BRANCH   6  26
ATOM     26  O   UNL     1      -2.521 -20.288  36.481  1.00  0.00    -0.507 OA
ATOM     27  H   UNL     1      -1.744 -20.909  36.648  1.00  0.00     0.293 HD
ENDBRANCH   6  26
BRANCH   8  28
ATOM     28  O   UNL     1      -5.099 -18.595  32.822  1.00  0.00    -0.508 OA
ATOM     29  H   UNL     1      -4.959 -18.725  31.827  1.00  0.00     0.293 HD
ENDBRANCH   8  28
TORSDOF 7
ENDMDL
MODEL 4
REMARK VINA RESULT:    -6.015      2.457      6.623
REMARK INTER + INTRA:          -7.776
REMARK INTER:                  -7.505
REMARK INTRA:                  -0.271
REMARK UNBOUND:                -0.354
REMARK SMILES O=c1c(O)c(-c2cc(O)c(O)c(O)c2)oc2cc(O)cc(O)c12
REMARK SMILES IDX 5 1 3 2 2 3 1 4 23 5 21 6 20 7 18 8 17 9 16 10 15 11 6 12
REMARK SMILES IDX 7 13 8 14 14 15 10 16 12 17 9 18 11 20 13 22 4 24 22 26
REMARK SMILES IDX 19 28
REMARK H PARENT 9 19 11 21 13 23 4 25 22 27 19 29
REMARK Flexibility Score: inf
ROOT
ATOM      1  C   UNL     1      -6.461 -22.440  34.165  1.00  0.00     0.180 A 
ATOM      2  C   UNL     1      -7.003 -22.948  32.972  1.00  0.00     0.208 A 
ATOM      3  C   UNL     1      -7.191 -24.334  32.845  1.00  0.00     0.238 A 
ATOM      4  O   UNL     1      -7.625 -24.787  31.754  1.00  0.00    -0.285 OA
ATOM      5  C   UNL     1      -6.851 -25.192  33.918  1.00  0.00     0.111 A 
ATOM      6  C   UNL     1      -7.036 -26.608  33.914  1.00  0.00     0.134 A 
ATOM      7  C   UNL     1      -6.544 -27.372  34.978  1.00  0.00     0.093 A 
ATOM      8  C   UNL     1      -5.932 -26.768  36.076  1.00  0.00     0.123 A 
ATOM      9  C   UNL     1      -5.798 -25.379  36.118  1.00  0.00     0.094 A 
ATOM     10  C   UNL     1      -6.247 -24.593  35.054  1.00  0.00     0.146 A 
ATOM     11  O   UNL     1      -6.092 -23.277  35.128  1.00  0.00    -0.452 OA
ENDROOT
BRANCH   1  12
ATOM     12  C   UNL     1      -6.257 -20.990  34.383  1.00  0.00     0.029 A 
ATOM     13  C   UNL     1      -5.202 -20.335  33.730  1.00  0.00     0.062 A 
ATOM     14  C   UNL     1      -4.967 -18.970  33.929  1.00  0.00     0.162 A 
ATOM     15  C   UNL     1      -7.061 -20.265  35.275  1.00  0.00     0.062 A 
ATOM     16  C   UNL     1      -5.796 -18.240  34.814  1.00  0.00     0.200 A 
ATOM     17  C   UNL     1      -6.836 -18.898  35.485  1.00  0.00     0.162 A 
BRANCH  14  18
ATOM     18  O   UNL     1      -3.906 -18.385  33.234  1.00  0.00    -0.504 OA
ATOM     19  H   UNL     1      -3.932 -17.457  32.838  1.00  0.00     0.293 HD
ENDBRANCH  14  18
BRANCH  16  20
ATOM     20  O   UNL     1      -5.621 -16.875  35.053  1.00  0.00    -0.502 OA
ATOM     21  H   UNL     1      -5.307 -16.214  34.357  1.00  0.00     0.293 HD
ENDBRANCH  16  20
BRANCH  17  22
ATOM     22  O   UNL     1      -7.644 -18.183  36.368  1.00  0.00    -0.504 OA
ATOM     23  H   UNL     1      -7.564 -18.297  37.372  1.00  0.00     0.293 HD
ENDBRANCH  17  22
ENDBRANCH   1  12
BRANCH   2  24
ATOM     24  O   UNL     1      -7.311 -22.085  31.917  1.00  0.00    -0.502 OA
ATOM     25  H   UNL     1      -6.857 -21.187  31.798  1.00  0.00     0.293 HD
ENDBRANCH   2  24
BRANCH   6  26
ATOM     26  O   UNL     1      -7.717 -27.303  32.909  1.00  0.00    -0.507 OA
ATOM     27  H   UNL     1      -8.254 -28.144  33.056  1.00  0.00     0.293 HD
ENDBRANCH   6  26
BRANCH   8  28
ATOM     28  O   UNL     1      -5.467 -27.557  37.125  1.00  0.00    -0.508 OA
ATOM     29  H   UNL     1      -4.559 -27.399  37.546  1.00  0.00     0.293 HD
ENDBRANCH   8  28
TORSDOF 7
ENDMDL
MODEL 5
REMARK VINA RESULT:    -5.923      2.021      7.434
REMARK INTER + INTRA:          -7.662
REMARK INTER:                  -7.311
REMARK INTRA:                  -0.352
REMARK UNBOUND:                -0.354
REMARK SMILES O=c1c(O)c(-c2cc(O)c(O)c(O)c2)oc2cc(O)cc(O)c12
REMARK SMILES IDX 5 1 3 2 2 3 1 4 23 5 21 6 20 7 18 8 17 9 16 10 15 11 6 12
REMARK SMILES IDX 7 13 8 14 14 15 10 16 12 17 9 18 11 20 13 22 4 24 22 26
REMARK SMILES IDX 19 28
REMARK H PARENT 9 19 11 21 13 23 4 25 22 27 19 29
REMARK Flexibility Score: inf
ROOT
ATOM      1  C   UNL     1      -4.929 -21.054  34.985  1.00  0.00     0.180 A 
ATOM      2  C   UNL     1      -6.281 -20.681  34.900  1.00  0.00     0.208 A 
ATOM      3  C   UNL     1      -7.270 -21.666  35.050  1.00  0.00     0.238 A 
ATOM      4  O   UNL     1      -8.477 -21.336  34.918  1.00  0.00    -0.285 OA
ATOM      5  C   UNL     1      -6.895 -23.008  35.300  1.00  0.00     0.111 A 
ATOM      6  C   UNL     1      -7.813 -24.081  35.508  1.00  0.00     0.134 A 
ATOM      7  C   UNL     1      -7.331 -25.391  35.617  1.00  0.00     0.093 A 
ATOM      8  C   UNL     1      -5.964 -25.660  35.592  1.00  0.00     0.123 A 
ATOM      9  C   UNL     1      -5.053 -24.612  35.447  1.00  0.00     0.094 A 
ATOM     10  C   UNL     1      -5.506 -23.298  35.299  1.00  0.00     0.146 A 
ATOM     11  O   UNL     1      -4.608 -22.331  35.155  1.00  0.00    -0.452 OA
ENDROOT
BRANCH   1  12
ATOM     12  C   UNL     1      -3.830 -20.068  34.862  1.00  0.00     0.029 A 
ATOM     13  C   UNL     1      -3.323 -19.451  36.014  1.00  0.00     0.062 A 
ATOM     14  C   UNL     1      -2.301 -18.499  35.933  1.00  0.00     0.162 A 
ATOM     15  C   UNL     1      -3.323 -19.693  33.608  1.00  0.00     0.062 A 
ATOM     16  C   UNL     1      -1.779 -18.142  34.666  1.00  0.00     0.200 A 
ATOM     17  C   UNL     1      -2.301 -18.741  33.511  1.00  0.00     0.162 A 
BRANCH  14  18
ATOM     18  O   UNL     1      -1.839 -17.937  37.125  1.00  0.00    -0.504 OA
ATOM     19  H   UNL     1      -1.118 -17.232  37.176  1.00  0.00     0.293 HD
ENDBRANCH  14  18
BRANCH  16  20
ATOM     20  O   UNL     1      -0.754 -17.205  34.514  1.00  0.00    -0.502 OA
ATOM     21  H   UNL     1      -0.010 -17.284  33.836  1.00  0.00     0.293 HD
ENDBRANCH  16  20
BRANCH  17  22
ATOM     22  O   UNL     1      -1.797 -18.379  32.263  1.00  0.00    -0.504 OA
ATOM     23  H   UNL     1      -1.766 -19.036  31.492  1.00  0.00     0.293 HD
ENDBRANCH  17  22
ENDBRANCH   1  12
BRANCH   2  24
ATOM     24  O   UNL     1      -6.629 -19.354  34.631  1.00  0.00    -0.502 OA
ATOM     25  H   UNL     1      -7.377 -19.107  33.994  1.00  0.00     0.293 HD
ENDBRANCH   2  24
BRANCH   6  26
ATOM     26  O   UNL     1      -9.195 -23.912  35.642  1.00  0.00    -0.507 OA
ATOM     27  H   UNL     1      -9.887 -24.342  35.047  1.00  0.00     0.293 HD
ENDBRANCH   6  26
BRANCH   8  28
ATOM     28  O   UNL     1      -5.519 -26.974  35.718  1.00  0.00    -0.508 OA
ATOM     29  H   UNL     1      -6.036 -27.661  36.253  1.00  0.00     0.293 HD
ENDBRANCH   8  28
TORSDOF 7
ENDMDL
MODEL 6
REMARK VINA RESULT:    -5.808      2.019      7.267
REMARK INTER + INTRA:          -7.521
REMARK INTER:                  -7.169
REMARK INTRA:                  -0.352
REMARK UNBOUND:                -0.354
REMARK SMILES O=c1c(O)c(-c2cc(O)c(O)c(O)c2)oc2cc(O)cc(O)c12
REMARK SMILES IDX 5 1 3 2 2 3 1 4 23 5 21 6 20 7 18 8 17 9 16 10 15 11 6 12
REMARK SMILES IDX 7 13 8 14 14 15 10 16 12 17 9 18 11 20 13 22 4 24 22 26
REMARK SMILES IDX 19 28
REMARK H PARENT 9 19 11 21 13 23 4 25 22 27 19 29
REMARK Flexibility Score: inf
ROOT
ATOM      1  C   UNL     1      -4.938 -21.030  35.040  1.00  0.00     0.180 A 
ATOM      2  C   UNL     1      -6.291 -20.661  34.950  1.00  0.00     0.208 A 
ATOM      3  C   UNL     1      -7.277 -21.653  35.075  1.00  0.00     0.238 A 
ATOM      4  O   UNL     1      -8.485 -21.327  34.939  1.00  0.00    -0.285 OA
ATOM      5  C   UNL     1      -6.898 -22.998  35.305  1.00  0.00     0.111 A 
ATOM      6  C   UNL     1      -7.813 -24.079  35.486  1.00  0.00     0.134 A 
ATOM      7  C   UNL     1      -7.326 -25.388  35.576  1.00  0.00     0.093 A 
ATOM      8  C   UNL     1      -5.957 -25.651  35.558  1.00  0.00     0.123 A 
ATOM      9  C   UNL     1      -5.050 -24.596  35.439  1.00  0.00     0.094 A 
ATOM     10  C   UNL     1      -5.507 -23.282  35.311  1.00  0.00     0.146 A 
ATOM     11  O   UNL     1      -4.613 -22.308  35.191  1.00  0.00    -0.452 OA
ENDROOT
BRANCH   1  12
ATOM     12  C   UNL     1      -3.843 -20.037  34.944  1.00  0.00     0.029 A 
ATOM     13  C   UNL     1      -3.337 -19.687  33.684  1.00  0.00     0.062 A 
ATOM     14  C   UNL     1      -2.289 -18.769  33.557  1.00  0.00     0.162 A 
ATOM     15  C   UNL     1      -3.260 -19.479  36.091  1.00  0.00     0.062 A 
ATOM     16  C   UNL     1      -1.720 -18.193  34.718  1.00  0.00     0.200 A 
ATOM     17  C   UNL     1      -2.210 -18.559  35.980  1.00  0.00     0.162 A 
BRANCH  14  18
ATOM     18  O   UNL     1      -1.847 -18.460  32.268  1.00  0.00    -0.504 OA
ATOM     19  H   UNL     1      -0.930 -18.094  32.057  1.00  0.00     0.293 HD
ENDBRANCH  14  18
BRANCH  16  20
ATOM     20  O   UNL     1      -0.677 -17.266  34.662  1.00  0.00    -0.502 OA
ATOM     21  H   UNL     1      -0.024 -17.194  33.896  1.00  0.00     0.293 HD
ENDBRANCH  16  20
BRANCH  17  22
ATOM     22  O   UNL     1      -1.640 -18.005  37.125  1.00  0.00    -0.504 OA
ATOM     23  H   UNL     1      -1.260 -17.065  37.127  1.00  0.00     0.293 HD
ENDBRANCH  17  22
ENDBRANCH   1  12
BRANCH   2  24
ATOM     24  O   UNL     1      -6.643 -19.331  34.702  1.00  0.00    -0.502 OA
ATOM     25  H   UNL     1      -6.242 -18.557  35.218  1.00  0.00     0.293 HD
ENDBRANCH   2  24
BRANCH   6  26
ATOM     26  O   UNL     1      -9.196 -23.917  35.612  1.00  0.00    -0.507 OA
ATOM     27  H   UNL     1      -9.664 -23.599  36.447  1.00  0.00     0.293 HD
ENDBRANCH   6  26
BRANCH   8  28
ATOM     28  O   UNL     1      -5.507 -26.964  35.665  1.00  0.00    -0.508 OA
ATOM     29  H   UNL     1      -5.793 -27.679  35.005  1.00  0.00     0.293 HD
ENDBRANCH   8  28
TORSDOF 7
ENDMDL
MODEL 7
REMARK VINA RESULT:    -5.634      1.680      3.108
REMARK INTER + INTRA:          -7.305
REMARK INTER:                  -7.676
REMARK INTRA:                   0.371
REMARK UNBOUND:                -0.354
REMARK SMILES O=c1c(O)c(-c2cc(O)c(O)c(O)c2)oc2cc(O)cc(O)c12
REMARK SMILES IDX 5 1 3 2 2 3 1 4 23 5 21 6 20 7 18 8 17 9 16 10 15 11 6 12
REMARK SMILES IDX 7 13 8 14 14 15 10 16 12 17 9 18 11 20 13 22 4 24 22 26
REMARK SMILES IDX 19 28
REMARK H PARENT 9 19 11 21 13 23 4 25 22 27 19 29
REMARK Flexibility Score: inf
ROOT
ATOM      1  C   UNL     1      -6.734 -23.442  34.870  1.00  0.00     0.180 A 
ATOM      2  C   UNL     1      -5.488 -23.307  34.234  1.00  0.00     0.208 A 
ATOM      3  C   UNL     1      -4.884 -22.040  34.180  1.00  0.00     0.238 A 
ATOM      4  O   UNL     1      -3.795 -21.916  33.563  1.00  0.00    -0.285 OA
ATOM      5  C   UNL     1      -5.526 -20.929  34.776  1.00  0.00     0.111 A 
ATOM      6  C   UNL     1      -4.988 -19.607  34.817  1.00  0.00     0.134 A 
ATOM      7  C   UNL     1      -5.768 -18.558  35.317  1.00  0.00     0.093 A 
ATOM      8  C   UNL     1      -7.040 -18.791  35.839  1.00  0.00     0.123 A 
ATOM      9  C   UNL     1      -7.554 -20.090  35.859  1.00  0.00     0.094 A 
ATOM     10  C   UNL     1      -6.813 -21.151  35.332  1.00  0.00     0.146 A 
ATOM     11  O   UNL     1      -7.341 -22.368  35.361  1.00  0.00    -0.452 OA
ENDROOT
BRANCH   1  12
ATOM     12  C   UNL     1      -7.421 -24.749  34.988  1.00  0.00     0.029 A 
ATOM     13  C   UNL     1      -8.400 -24.928  35.974  1.00  0.00     0.062 A 
ATOM     14  C   UNL     1      -9.054 -26.155  36.128  1.00  0.00     0.162 A 
ATOM     15  C   UNL     1      -7.070 -25.834  34.170  1.00  0.00     0.062 A 
ATOM     16  C   UNL     1      -8.711 -27.239  35.285  1.00  0.00     0.200 A 
ATOM     17  C   UNL     1      -7.715 -27.069  34.313  1.00  0.00     0.162 A 
BRANCH  14  18
ATOM     18  O   UNL     1     -10.028 -26.254  37.125  1.00  0.00    -0.504 OA
ATOM     19  H   UNL     1     -10.567 -25.473  37.468  1.00  0.00     0.293 HD
ENDBRANCH  14  18
BRANCH  16  20
ATOM     20  O   UNL     1      -9.329 -28.489  35.380  1.00  0.00    -0.502 OA
ATOM     21  H   UNL     1      -9.623 -28.910  36.249  1.00  0.00     0.293 HD
ENDBRANCH  16  20
BRANCH  17  22
ATOM     22  O   UNL     1      -7.366 -28.140  33.492  1.00  0.00    -0.504 OA
ATOM     23  H   UNL     1      -7.350 -28.052  32.483  1.00  0.00     0.293 HD
ENDBRANCH  17  22
ENDBRANCH   1  12
BRANCH   2  24
ATOM     24  O   UNL     1      -4.882 -24.414  33.633  1.00  0.00    -0.502 OA
ATOM     25  H   UNL     1      -5.178 -25.365  33.820  1.00  0.00     0.293 HD
ENDBRANCH   2  24
BRANCH   6  26
ATOM     26  O   UNL     1      -3.692 -19.279  34.406  1.00  0.00    -0.507 OA
ATOM     27  H   UNL     1      -3.359 -19.336  33.455  1.00  0.00     0.293 HD
ENDBRANCH   6  26
BRANCH   8  28
ATOM     28  O   UNL     1      -7.783 -17.727  36.342  1.00  0.00    -0.508 OA
ATOM     29  H   UNL     1      -8.315 -17.115  35.734  1.00  0.00     0.293 HD
ENDBRANCH   8  28
TORSDOF 7
ENDMDL
MODEL 8
REMARK VINA RESULT:    -3.791      2.183      6.840
REMARK INTER + INTRA:          -5.031
REMARK INTER:                  -4.675
REMARK INTRA:                  -0.356
REMARK UNBOUND:                -0.354
REMARK SMILES O=c1c(O)c(-c2cc(O)c(O)c(O)c2)oc2cc(O)cc(O)c12
REMARK SMILES IDX 5 1 3 2 2 3 1 4 23 5 21 6 20 7 18 8 17 9 16 10 15 11 6 12
REMARK SMILES IDX 7 13 8 14 14 15 10 16 12 17 9 18 11 20 13 22 4 24 22 26
REMARK SMILES IDX 19 28
REMARK H PARENT 9 19 11 21 13 23 4 25 22 27 19 29
REMARK Flexibility Score: inf
ROOT
ATOM      1  C   UNL     1      -6.214 -22.347  34.514  1.00  0.00     0.180 A 
ATOM      2  C   UNL     1      -6.742 -22.736  33.271  1.00  0.00     0.208 A 
ATOM      3  C   UNL     1      -7.005 -24.095  33.038  1.00  0.00     0.238 A 
ATOM      4  O   UNL     1      -7.426 -24.444  31.905  1.00  0.00    -0.285 OA
ATOM      5  C   UNL     1      -6.752 -25.046  34.057  1.00  0.00     0.111 A 
ATOM      6  C   UNL     1      -7.019 -26.444  33.944  1.00  0.00     0.134 A 
ATOM      7  C   UNL     1      -6.608 -27.309  34.966  1.00  0.00     0.093 A 
ATOM      8  C   UNL     1      -6.002 -26.822  36.122  1.00  0.00     0.123 A 
ATOM      9  C   UNL     1      -5.789 -25.450  36.269  1.00  0.00     0.094 A 
ATOM     10  C   UNL     1      -6.155 -24.565  35.251  1.00  0.00     0.146 A 
ATOM     11  O   UNL     1      -5.927 -23.269  35.425  1.00  0.00    -0.452 OA
ENDROOT
BRANCH   1  12
ATOM     12  C   UNL     1      -5.934 -20.930  34.842  1.00  0.00     0.029 A 
ATOM     13  C   UNL     1      -6.936 -20.146  35.430  1.00  0.00     0.062 A 
ATOM     14  C   UNL     1      -6.713 -18.798  35.734  1.00  0.00     0.162 A 
ATOM     15  C   UNL     1      -4.703 -20.336  34.524  1.00  0.00     0.062 A 
ATOM     16  C   UNL     1      -5.461 -18.212  35.431  1.00  0.00     0.200 A 
ATOM     17  C   UNL     1      -4.466 -18.988  34.821  1.00  0.00     0.162 A 
BRANCH  14  18
ATOM     18  O   UNL     1      -7.756 -18.085  36.331  1.00  0.00    -0.504 OA
ATOM     19  H   UNL     1      -7.666 -17.145  36.688  1.00  0.00     0.293 HD
ENDBRANCH  14  18
BRANCH  16  20
ATOM     20  O   UNL     1      -5.170 -16.875  35.713  1.00  0.00    -0.502 OA
ATOM     21  H   UNL     1      -4.771 -16.554  36.583  1.00  0.00     0.293 HD
ENDBRANCH  16  20
BRANCH  17  22
ATOM     22  O   UNL     1      -3.238 -18.408  34.508  1.00  0.00    -0.504 OA
ATOM     23  H   UNL     1      -3.161 -17.427  34.263  1.00  0.00     0.293 HD
ENDBRANCH  17  22
ENDBRANCH   1  12
BRANCH   2  24
ATOM     24  O   UNL     1      -6.963 -21.784  32.272  1.00  0.00    -0.502 OA
ATOM     25  H   UNL     1      -6.797 -21.976  31.291  1.00  0.00     0.293 HD
ENDBRANCH   2  24
BRANCH   6  26
ATOM     26  O   UNL     1      -7.703 -27.025  32.872  1.00  0.00    -0.507 OA
ATOM     27  H   UNL     1      -7.813 -28.018  32.731  1.00  0.00     0.293 HD
ENDBRANCH   6  26
BRANCH   8  28
ATOM     28  O   UNL     1      -5.620 -27.710  37.125  1.00  0.00    -0.508 OA
ATOM     29  H   UNL     1      -4.922 -27.461  37.817  1.00  0.00     0.293 HD
ENDBRANCH   8  28
TORSDOF 7
ENDMDL
