MODEL 1
REMARK VINA RESULT:    -3.911      0.000      0.000
REMARK INTER + INTRA:          -6.956
REMARK INTER:                  -5.969
REMARK INTRA:                  -0.987
REMARK UNBOUND:                -0.987
REMARK SMILES CCCCCCCCCCC(=O)[O-]
REMARK SMILES IDX 7 1 8 2 9 3 10 4 11 5 12 6 13 7 6 8 5 9 4 10 3 11 2 12 1 13
REMARK H PARENT
REMARK Flexibility Score: inf
ROOT
ATOM      1  C   UNL     1      15.031  25.911  33.195  1.00  0.00     0.000 C 
ENDROOT
BRANCH   1   2
ATOM      2  C   UNL     1      14.041  26.804  33.957  1.00  0.00     0.000 C 
BRANCH   2   3
ATOM      3  C   UNL     1      12.636  26.185  33.964  1.00  0.00     0.006 C 
BRANCH   3   4
ATOM      4  C   UNL     1      11.533  27.247  34.074  1.00  0.00     0.053 C 
BRANCH   4   5
ATOM      5  C   UNL     1      11.514  27.888  35.428  1.00  0.00     0.041 C 
ATOM      6  O   UNL     1      11.299  29.123  35.542  1.00  0.00    -0.550 OA
ATOM      7  O   UNL     1      11.702  27.114  36.566  1.00  0.00    -0.550 OA
ENDBRANCH   4   5
ENDBRANCH   3   4
ENDBRANCH   2   3
ENDBRANCH   1   2
BRANCH   1   8
ATOM      8  C   UNL     1      14.492  24.488  32.975  1.00  0.00     0.000 C 
BRANCH   8   9
ATOM      9  C   UNL     1      15.475  23.403  33.446  1.00  0.00    -0.000 C 
BRANCH   9  10
ATOM     10  C   UNL     1      16.655  23.995  34.244  1.00  0.00    -0.000 C 
BRANCH  10  11
ATOM     11  C   UNL     1      16.474  23.905  35.769  1.00  0.00    -0.000 C 
BRANCH  11  12
ATOM     12  C   UNL     1      15.137  23.269  36.176  1.00  0.00    -0.003 C 
ATOM     13  C   UNL     1      14.222  24.293  36.841  1.00  0.00     0.004 C 
ENDBRANCH  11  12
ENDBRANCH  10  11
ENDBRANCH   9  10
ENDBRANCH   8   9
ENDBRANCH   1   8
TORSDOF 9
ENDMDL
MODEL 2
REMARK VINA RESULT:    -3.907      1.223      1.566
REMARK INTER + INTRA:          -6.950
REMARK INTER:                  -6.009
REMARK INTRA:                  -0.940
REMARK UNBOUND:                -0.987
REMARK SMILES CCCCCCCCCCC(=O)[O-]
REMARK SMILES IDX 7 1 8 2 9 3 10 4 11 5 12 6 13 7 6 8 5 9 4 10 3 11 2 12 1 13
REMARK H PARENT
REMARK Flexibility Score: inf
ROOT
ATOM      1  C   UNL     1      13.703  25.329  33.064  1.00  0.00     0.000 C 
ENDROOT
BRANCH   1   2
ATOM      2  C   UNL     1      12.524  25.828  33.913  1.00  0.00     0.000 C 
BRANCH   2   3
ATOM      3  C   UNL     1      13.019  26.641  35.118  1.00  0.00     0.006 C 
BRANCH   3   4
ATOM      4  C   UNL     1      11.865  27.123  36.007  1.00  0.00     0.053 C 
BRANCH   4   5
ATOM      5  C   UNL     1      11.553  28.569  35.773  1.00  0.00     0.041 C 
ATOM      6  O   UNL     1      10.802  28.910  34.822  1.00  0.00    -0.550 OA
ATOM      7  O   UNL     1      12.065  29.539  36.626  1.00  0.00    -0.550 OA
ENDBRANCH   4   5
ENDBRANCH   3   4
ENDBRANCH   2   3
ENDBRANCH   1   2
BRANCH   1   8
ATOM      8  C   UNL     1      15.000  26.106  33.344  1.00  0.00     0.000 C 
BRANCH   8   9
ATOM      9  C   UNL     1      16.243  25.200  33.349  1.00  0.00    -0.000 C 
BRANCH   9  10
ATOM     10  C   UNL     1      15.872  23.703  33.304  1.00  0.00    -0.000 C 
BRANCH  10  11
ATOM     11  C   UNL     1      16.457  22.889  34.471  1.00  0.00    -0.000 C 
BRANCH  11  12
ATOM     12  C   UNL     1      15.390  22.434  35.477  1.00  0.00    -0.003 C 
ATOM     13  C   UNL     1      14.870  23.613  36.295  1.00  0.00     0.004 C 
ENDBRANCH  11  12
ENDBRANCH  10  11
ENDBRANCH   9  10
ENDBRANCH   8   9
ENDBRANCH   1   8
TORSDOF 9
ENDMDL
MODEL 3
REMARK VINA RESULT:    -3.880      1.650      2.552
REMARK INTER + INTRA:          -6.908
REMARK INTER:                  -5.942
REMARK INTRA:                  -0.966
REMARK UNBOUND:                -0.987
REMARK SMILES CCCCCCCCCCC(=O)[O-]
REMARK SMILES IDX 7 1 8 2 9 3 10 4 11 5 12 6 13 7 6 8 5 9 4 10 3 11 2 12 1 13
REMARK H PARENT
REMARK Flexibility Score: inf
ROOT
ATOM      1  C   UNL     1      14.099  25.259  32.863  1.00  0.00     0.000 C 
ENDROOT
BRANCH   1   2
ATOM      2  C   UNL     1      12.728  25.290  33.556  1.00  0.00     0.000 C 
BRANCH   2   3
ATOM      3  C   UNL     1      12.351  26.721  33.965  1.00  0.00     0.006 C 
BRANCH   3   4
ATOM      4  C   UNL     1      12.362  26.913  35.487  1.00  0.00     0.053 C 
BRANCH   4   5
ATOM      5  C   UNL     1      11.684  28.187  35.890  1.00  0.00     0.041 C 
ATOM      6  O   UNL     1      11.907  28.694  37.020  1.00  0.00    -0.550 OA
ATOM      7  O   UNL     1      10.830  28.830  35.003  1.00  0.00    -0.550 OA
ENDBRANCH   4   5
ENDBRANCH   3   4
ENDBRANCH   2   3
ENDBRANCH   1   2
BRANCH   1   8
ATOM      8  C   UNL     1      14.871  23.960  33.143  1.00  0.00     0.000 C 
BRANCH   8   9
ATOM      9  C   UNL     1      16.263  24.217  33.746  1.00  0.00    -0.000 C 
BRANCH   9  10
ATOM     10  C   UNL     1      16.652  25.709  33.696  1.00  0.00    -0.000 C 
BRANCH  10  11
ATOM     11  C   UNL     1      16.494  26.432  35.045  1.00  0.00    -0.000 C 
BRANCH  11  12
ATOM     12  C   UNL     1      16.070  27.899  34.891  1.00  0.00    -0.003 C 
ATOM     13  C   UNL     1      15.979  28.293  33.420  1.00  0.00     0.004 C 
ENDBRANCH  11  12
ENDBRANCH  10  11
ENDBRANCH   9  10
ENDBRANCH   8   9
ENDBRANCH   1   8
TORSDOF 9
ENDMDL
MODEL 4
REMARK VINA RESULT:    -3.873      1.727      2.432
REMARK INTER + INTRA:          -6.898
REMARK INTER:                  -6.441
REMARK INTRA:                  -0.457
REMARK UNBOUND:                -0.987
REMARK SMILES CCCCCCCCCCC(=O)[O-]
REMARK SMILES IDX 7 1 8 2 9 3 10 4 11 5 12 6 13 7 6 8 5 9 4 10 3 11 2 12 1 13
REMARK H PARENT
REMARK Flexibility Score: inf
ROOT
ATOM      1  C   UNL     1      14.041  24.956  33.103  1.00  0.00     0.000 C 
ENDROOT
BRANCH   1   2
ATOM      2  C   UNL     1      14.666  26.349  33.281  1.00  0.00     0.000 C 
BRANCH   2   3
ATOM      3  C   UNL     1      13.886  27.173  34.316  1.00  0.00     0.006 C 
BRANCH   3   4
ATOM      4  C   UNL     1      12.375  26.913  34.247  1.00  0.00     0.053 C 
BRANCH   4   5
ATOM      5  C   UNL     1      11.646  27.581  35.372  1.00  0.00     0.041 C 
ATOM      6  O   UNL     1      11.676  27.086  36.529  1.00  0.00    -0.550 OA
ATOM      7  O   UNL     1      10.961  28.769  35.149  1.00  0.00    -0.550 OA
ENDBRANCH   4   5
ENDBRANCH   3   4
ENDBRANCH   2   3
ENDBRANCH   1   2
BRANCH   1   8
ATOM      8  C   UNL     1      15.098  23.856  32.922  1.00  0.00     0.000 C 
BRANCH   8   9
ATOM      9  C   UNL     1      16.339  24.076  33.804  1.00  0.00    -0.000 C 
BRANCH   9  10
ATOM     10  C   UNL     1      16.996  22.746  34.227  1.00  0.00    -0.000 C 
BRANCH  10  11
ATOM     11  C   UNL     1      16.343  21.508  33.590  1.00  0.00    -0.000 C 
BRANCH  11  12
ATOM     12  C   UNL     1      16.594  20.221  34.389  1.00  0.00    -0.003 C 
ATOM     13  C   UNL     1      15.324  19.381  34.492  1.00  0.00     0.004 C 
ENDBRANCH  11  12
ENDBRANCH  10  11
ENDBRANCH   9  10
ENDBRANCH   8   9
ENDBRANCH   1   8
TORSDOF 9
ENDMDL
MODEL 5
REMARK VINA RESULT:    -3.853      2.206      3.941
REMARK INTER + INTRA:          -6.867
REMARK INTER:                  -5.961
REMARK INTRA:                  -0.906
REMARK UNBOUND:                -0.987
REMARK SMILES CCCCCCCCCCC(=O)[O-]
REMARK SMILES IDX 7 1 8 2 9 3 10 4 11 5 12 6 13 7 6 8 5 9 4 10 3 11 2 12 1 13
REMARK H PARENT
REMARK Flexibility Score: inf
ROOT
ATOM      1  C   UNL     1      15.029  24.165  33.780  1.00  0.00     0.000 C 
ENDROOT
BRANCH   1   2
ATOM      2  C   UNL     1      14.070  24.938  32.860  1.00  0.00     0.000 C 
BRANCH   2   3
ATOM      3  C   UNL     1      12.768  25.288  33.595  1.00  0.00     0.006 C 
BRANCH   3   4
ATOM      4  C   UNL     1      12.689  26.777  33.958  1.00  0.00     0.053 C 
BRANCH   4   5
ATOM      5  C   UNL     1      12.588  26.981  35.439  1.00  0.00     0.041 C 
ATOM      6  O   UNL     1      11.522  27.415  35.948  1.00  0.00    -0.550 OA
ATOM      7  O   UNL     1      13.661  26.660  36.260  1.00  0.00    -0.550 OA
ENDBRANCH   4   5
ENDBRANCH   3   4
ENDBRANCH   2   3
ENDBRANCH   1   2
BRANCH   1   8
ATOM      8  C   UNL     1      16.194  25.034  34.279  1.00  0.00     0.000 C 
BRANCH   8   9
ATOM      9  C   UNL     1      16.573  26.144  33.285  1.00  0.00    -0.000 C 
BRANCH   9  10
ATOM     10  C   UNL     1      16.353  27.553  33.874  1.00  0.00    -0.000 C 
BRANCH  10  11
ATOM     11  C   UNL     1      16.440  28.678  32.829  1.00  0.00    -0.000 C 
BRANCH  11  12
ATOM     12  C   UNL     1      17.123  28.234  31.528  1.00  0.00    -0.003 C 
ATOM     13  C   UNL     1      17.027  29.320  30.460  1.00  0.00     0.004 C 
ENDBRANCH  11  12
ENDBRANCH  10  11
ENDBRANCH   9  10
ENDBRANCH   8   9
ENDBRANCH   1   8
TORSDOF 9
ENDMDL
MODEL 6
REMARK VINA RESULT:    -3.733      3.417      5.675
REMARK INTER + INTRA:          -6.685
REMARK INTER:                  -5.689
REMARK INTRA:                  -0.996
REMARK UNBOUND:                -0.987
REMARK SMILES CCCCCCCCCCC(=O)[O-]
REMARK SMILES IDX 7 1 8 2 9 3 10 4 11 5 12 6 13 7 6 8 5 9 4 10 3 11 2 12 1 13
REMARK H PARENT
REMARK Flexibility Score: inf
ROOT
ATOM      1  C   UNL     1      14.078  24.543  34.038  1.00  0.00     0.000 C 
ENDROOT
BRANCH   1   2
ATOM      2  C   UNL     1      15.199  24.224  33.036  1.00  0.00     0.000 C 
BRANCH   2   3
ATOM      3  C   UNL     1      16.352  23.477  33.721  1.00  0.00     0.006 C 
BRANCH   3   4
ATOM      4  C   UNL     1      16.405  21.997  33.320  1.00  0.00     0.053 C 
BRANCH   4   5
ATOM      5  C   UNL     1      15.791  21.117  34.366  1.00  0.00     0.041 C 
ATOM      6  O   UNL     1      15.583  19.899  34.128  1.00  0.00    -0.550 OA
ATOM      7  O   UNL     1      15.480  21.637  35.616  1.00  0.00    -0.550 OA
ENDBRANCH   4   5
ENDBRANCH   3   4
ENDBRANCH   2   3
ENDBRANCH   1   2
BRANCH   1   8
ATOM      8  C   UNL     1      12.892  25.268  33.383  1.00  0.00     0.000 C 
BRANCH   8   9
ATOM      9  C   UNL     1      12.646  26.663  33.984  1.00  0.00    -0.000 C 
BRANCH   9  10
ATOM     10  C   UNL     1      13.567  26.946  35.190  1.00  0.00    -0.000 C 
BRANCH  10  11
ATOM     11  C   UNL     1      14.509  28.144  34.977  1.00  0.00    -0.000 C 
BRANCH  11  12
ATOM     12  C   UNL     1      15.921  27.724  34.545  1.00  0.00    -0.003 C 
ATOM     13  C   UNL     1      16.080  27.807  33.030  1.00  0.00     0.004 C 
ENDBRANCH  11  12
ENDBRANCH  10  11
ENDBRANCH   9  10
ENDBRANCH   8   9
ENDBRANCH   1   8
TORSDOF 9
ENDMDL
MODEL 7
REMARK VINA RESULT:    -3.707      3.570      6.239
REMARK INTER + INTRA:          -6.645
REMARK INTER:                  -6.328
REMARK INTRA:                  -0.317
REMARK UNBOUND:                -0.987
REMARK SMILES CCCCCCCCCCC(=O)[O-]
REMARK SMILES IDX 7 1 8 2 9 3 10 4 11 5 12 6 13 7 6 8 5 9 4 10 3 11 2 12 1 13
REMARK H PARENT
REMARK Flexibility Score: inf
ROOT
ATOM      1  C   UNL     1      14.890  24.217  33.962  1.00  0.00     0.000 C 
ENDROOT
BRANCH   1   2
ATOM      2  C   UNL     1      15.808  23.282  33.158  1.00  0.00     0.000 C 
BRANCH   2   3
ATOM      3  C   UNL     1      16.765  22.521  34.087  1.00  0.00     0.006 C 
BRANCH   3   4
ATOM      4  C   UNL     1      16.752  21.010  33.822  1.00  0.00     0.053 C 
BRANCH   4   5
ATOM      5  C   UNL     1      15.729  20.309  34.663  1.00  0.00     0.041 C 
ATOM      6  O   UNL     1      15.231  19.219  34.278  1.00  0.00    -0.550 OA
ATOM      7  O   UNL     1      15.350  20.845  35.887  1.00  0.00    -0.550 OA
ENDBRANCH   4   5
ENDBRANCH   3   4
ENDBRANCH   2   3
ENDBRANCH   1   2
BRANCH   1   8
ATOM      8  C   UNL     1      14.135  25.213  33.067  1.00  0.00     0.000 C 
BRANCH   8   9
ATOM      9  C   UNL     1      12.695  25.465  33.546  1.00  0.00    -0.000 C 
BRANCH   9  10
ATOM     10  C   UNL     1      12.620  26.595  34.593  1.00  0.00    -0.000 C 
BRANCH  10  11
ATOM     11  C   UNL     1      11.464  27.581  34.353  1.00  0.00    -0.000 C 
BRANCH  11  12
ATOM     12  C   UNL     1      11.315  28.614  35.479  1.00  0.00    -0.003 C 
ATOM     13  C   UNL     1      12.678  29.044  36.014  1.00  0.00     0.004 C 
ENDBRANCH  11  12
ENDBRANCH  10  11
ENDBRANCH   9  10
ENDBRANCH   8   9
ENDBRANCH   1   8
TORSDOF 9
ENDMDL
MODEL 8
REMARK VINA RESULT:    -3.640      3.256      5.306
REMARK INTER + INTRA:          -6.543
REMARK INTER:                  -5.412
REMARK INTRA:                  -1.131
REMARK UNBOUND:                -0.987
REMARK SMILES CCCCCCCCCCC(=O)[O-]
REMARK SMILES IDX 7 1 8 2 9 3 10 4 11 5 12 6 13 7 6 8 5 9 4 10 3 11 2 12 1 13
REMARK H PARENT
REMARK Flexibility Score: inf
ROOT
ATOM      1  C   UNL     1      12.933  25.863  34.708  1.00  0.00     0.000 C 
ENDROOT
BRANCH   1   2
ATOM      2  C   UNL     1      13.053  25.190  33.331  1.00  0.00     0.000 C 
BRANCH   2   3
ATOM      3  C   UNL     1      14.451  24.585  33.136  1.00  0.00     0.006 C 
BRANCH   3   4
ATOM      4  C   UNL     1      15.080  24.136  34.462  1.00  0.00     0.053 C 
BRANCH   4   5
ATOM      5  C   UNL     1      15.638  22.749  34.368  1.00  0.00     0.041 C 
ATOM      6  O   UNL     1      15.471  21.933  35.311  1.00  0.00    -0.550 OA
ATOM      7  O   UNL     1      16.316  22.348  33.224  1.00  0.00    -0.550 OA
ENDBRANCH   4   5
ENDBRANCH   3   4
ENDBRANCH   2   3
ENDBRANCH   1   2
BRANCH   1   8
ATOM      8  C   UNL     1      12.384  27.295  34.617  1.00  0.00     0.000 C 
BRANCH   8   9
ATOM      9  C   UNL     1      12.969  28.222  35.696  1.00  0.00    -0.000 C 
BRANCH   9  10
ATOM     10  C   UNL     1      14.493  28.044  35.852  1.00  0.00    -0.000 C 
BRANCH  10  11
ATOM     11  C   UNL     1      15.304  28.620  34.679  1.00  0.00    -0.000 C 
BRANCH  11  12
ATOM     12  C   UNL     1      16.350  27.637  34.134  1.00  0.00    -0.003 C 
ATOM     13  C   UNL     1      16.465  27.742  32.616  1.00  0.00     0.004 C 
ENDBRANCH  11  12
ENDBRANCH  10  11
ENDBRANCH   9  10
ENDBRANCH   8   9
ENDBRANCH   1   8
TORSDOF 9
ENDMDL
MODEL 9
REMARK VINA RESULT:    -3.569      3.771      5.632
REMARK INTER + INTRA:          -6.435
REMARK INTER:                  -5.560
REMARK INTRA:                  -0.875
REMARK UNBOUND:                -0.987
REMARK SMILES CCCCCCCCCCC(=O)[O-]
REMARK SMILES IDX 7 1 8 2 9 3 10 4 11 5 12 6 13 7 6 8 5 9 4 10 3 11 2 12 1 13
REMARK H PARENT
REMARK Flexibility Score: inf
ROOT
ATOM      1  C   UNL     1      15.590  25.092  33.326  1.00  0.00     0.000 C 
ENDROOT
BRANCH   1   2
ATOM      2  C   UNL     1      14.945  23.698  33.366  1.00  0.00     0.000 C 
BRANCH   2   3
ATOM      3  C   UNL     1      15.595  22.823  34.447  1.00  0.00     0.006 C 
BRANCH   3   4
ATOM      4  C   UNL     1      16.138  21.505  33.879  1.00  0.00     0.053 C 
BRANCH   4   5
ATOM      5  C   UNL     1      15.779  20.337  34.746  1.00  0.00     0.041 C 
ATOM      6  O   UNL     1      15.200  19.335  34.253  1.00  0.00    -0.550 OA
ATOM      7  O   UNL     1      16.115  20.344  36.094  1.00  0.00    -0.550 OA
ENDBRANCH   4   5
ENDBRANCH   3   4
ENDBRANCH   2   3
ENDBRANCH   1   2
BRANCH   1   8
ATOM      8  C   UNL     1      14.550  26.221  33.251  1.00  0.00     0.000 C 
BRANCH   8   9
ATOM      9  C   UNL     1      13.142  25.756  33.660  1.00  0.00    -0.000 C 
BRANCH   9  10
ATOM     10  C   UNL     1      12.407  26.809  34.515  1.00  0.00    -0.000 C 
BRANCH  10  11
ATOM     11  C   UNL     1      12.535  26.570  36.029  1.00  0.00    -0.000 C 
BRANCH  11  12
ATOM     12  C   UNL     1      13.289  25.276  36.369  1.00  0.00    -0.003 C 
ATOM     13  C   UNL     1      14.634  25.580  37.021  1.00  0.00     0.004 C 
ENDBRANCH  11  12
ENDBRANCH  10  11
ENDBRANCH   9  10
ENDBRANCH   8   9
ENDBRANCH   1   8
TORSDOF 9
ENDMDL
