MODEL 1
REMARK VINA RESULT:    -4.677      0.000      0.000
REMARK INTER + INTRA:          -7.099
REMARK INTER:                  -6.864
REMARK INTRA:                  -0.235
REMARK UNBOUND:                -0.235
REMARK SMILES O=C([O-])CCCCCCCC(=O)[O-]
REMARK SMILES IDX 7 1 6 2 5 3 4 4 2 5 1 6 3 7 8 8 9 9 10 10 11 11 12 12 13 13
REMARK H PARENT
REMARK Flexibility Score: inf
ROOT
ATOM      1  C   UNL     1      43.136  49.818  11.450  1.00  0.00     0.000 C 
ENDROOT
BRANCH   1   2
ATOM      2  C   UNL     1      44.652  49.625  11.605  1.00  0.00     0.000 C 
BRANCH   2   3
ATOM      3  C   UNL     1      45.394  50.961  11.456  1.00  0.00     0.006 C 
BRANCH   3   4
ATOM      4  C   UNL     1      46.916  50.776  11.387  1.00  0.00     0.053 C 
BRANCH   4   5
ATOM      5  C   UNL     1      47.302  49.706  10.412  1.00  0.00     0.041 C 
ATOM      6  O   UNL     1      47.204  49.911   9.174  1.00  0.00    -0.550 OA
ATOM      7  O   UNL     1      47.802  48.493  10.871  1.00  0.00    -0.550 OA
ENDBRANCH   4   5
ENDBRANCH   3   4
ENDBRANCH   2   3
ENDBRANCH   1   2
BRANCH   1   8
ATOM      8  C   UNL     1      42.335  49.141  12.573  1.00  0.00     0.000 C 
BRANCH   8   9
ATOM      9  C   UNL     1      41.696  50.155  13.539  1.00  0.00     0.006 C 
BRANCH   9  10
ATOM     10  C   UNL     1      40.232  50.446  13.186  1.00  0.00     0.053 C 
BRANCH  10  11
ATOM     11  C   UNL     1      39.574  51.309  14.220  1.00  0.00     0.041 C 
ATOM     12  O   UNL     1      38.593  52.035  13.908  1.00  0.00    -0.550 OA
ATOM     13  O   UNL     1      40.065  51.335  15.518  1.00  0.00    -0.550 OA
ENDBRANCH  10  11
ENDBRANCH   9  10
ENDBRANCH   8   9
ENDBRANCH   1   8
TORSDOF 8
ENDMDL
MODEL 2
REMARK VINA RESULT:    -4.650     13.340     14.861
REMARK INTER + INTRA:          -7.060
REMARK INTER:                  -6.467
REMARK INTRA:                  -0.592
REMARK UNBOUND:                -0.235
REMARK SMILES O=C([O-])CCCCCCCC(=O)[O-]
REMARK SMILES IDX 7 1 6 2 5 3 4 4 2 5 1 6 3 7 8 8 9 9 10 10 11 11 12 12 13 13
REMARK H PARENT
REMARK Flexibility Score: inf
ROOT
ATOM      1  C   UNL     1      45.218  38.434  20.677  1.00  0.00     0.000 C 
ENDROOT
BRANCH   1   2
ATOM      2  C   UNL     1      44.558  39.820  20.668  1.00  0.00     0.000 C 
BRANCH   2   3
ATOM      3  C   UNL     1      45.240  40.747  19.650  1.00  0.00     0.006 C 
BRANCH   3   4
ATOM      4  C   UNL     1      46.742  40.462  19.519  1.00  0.00     0.053 C 
BRANCH   4   5
ATOM      5  C   UNL     1      47.127  40.144  18.107  1.00  0.00     0.041 C 
ATOM      6  O   UNL     1      46.387  40.501  17.153  1.00  0.00    -0.550 OA
ATOM      7  O   UNL     1      48.320  39.482  17.842  1.00  0.00    -0.550 OA
ENDBRANCH   4   5
ENDBRANCH   3   4
ENDBRANCH   2   3
ENDBRANCH   1   2
BRANCH   1   8
ATOM      8  C   UNL     1      44.193  37.290  20.628  1.00  0.00     0.000 C 
BRANCH   8   9
ATOM      9  C   UNL     1      44.400  36.362  19.417  1.00  0.00     0.006 C 
BRANCH   9  10
ATOM     10  C   UNL     1      45.618  36.770  18.578  1.00  0.00     0.053 C 
BRANCH  10  11
ATOM     11  C   UNL     1      46.538  35.612  18.338  1.00  0.00     0.041 C 
ATOM     12  O   UNL     1      46.897  34.878  19.297  1.00  0.00    -0.550 OA
ATOM     13  O   UNL     1      47.026  35.365  17.062  1.00  0.00    -0.550 OA
ENDBRANCH  10  11
ENDBRANCH   9  10
ENDBRANCH   8   9
ENDBRANCH   1   8
TORSDOF 8
ENDMDL
MODEL 3
REMARK VINA RESULT:    -4.648      0.906      7.003
REMARK INTER + INTRA:          -7.056
REMARK INTER:                  -6.671
REMARK INTRA:                  -0.385
REMARK UNBOUND:                -0.235
REMARK SMILES O=C([O-])CCCCCCCC(=O)[O-]
REMARK SMILES IDX 7 1 6 2 5 3 4 4 2 5 1 6 3 7 8 8 9 9 10 10 11 11 12 12 13 13
REMARK H PARENT
REMARK Flexibility Score: inf
ROOT
ATOM      1  C   UNL     1      42.884  49.113  11.680  1.00  0.00     0.000 C 
ENDROOT
BRANCH   1   2
ATOM      2  C   UNL     1      42.809  48.868  13.195  1.00  0.00     0.000 C 
BRANCH   2   3
ATOM      3  C   UNL     1      42.053  50.005  13.899  1.00  0.00     0.006 C 
BRANCH   3   4
ATOM      4  C   UNL     1      40.713  50.319  13.220  1.00  0.00     0.053 C 
BRANCH   4   5
ATOM      5  C   UNL     1      39.818  51.131  14.105  1.00  0.00     0.041 C 
ATOM      6  O   UNL     1      40.155  51.374  15.294  1.00  0.00    -0.550 OA
ATOM      7  O   UNL     1      38.629  51.649  13.608  1.00  0.00    -0.550 OA
ENDBRANCH   4   5
ENDBRANCH   3   4
ENDBRANCH   2   3
ENDBRANCH   1   2
BRANCH   1   8
ATOM      8  C   UNL     1      44.325  49.296  11.180  1.00  0.00     0.000 C 
BRANCH   8   9
ATOM      9  C   UNL     1      44.993  50.561  11.749  1.00  0.00     0.006 C 
BRANCH   9  10
ATOM     10  C   UNL     1      46.437  50.723  11.256  1.00  0.00     0.053 C 
BRANCH  10  11
ATOM     11  C   UNL     1      46.512  50.743   9.759  1.00  0.00     0.041 C 
ATOM     12  O   UNL     1      47.199  49.883   9.147  1.00  0.00    -0.550 OA
ATOM     13  O   UNL     1      45.850  51.732   9.043  1.00  0.00    -0.550 OA
ENDBRANCH  10  11
ENDBRANCH   9  10
ENDBRANCH   8   9
ENDBRANCH   1   8
TORSDOF 8
ENDMDL
MODEL 4
REMARK VINA RESULT:    -4.585      2.295      6.298
REMARK INTER + INTRA:          -6.964
REMARK INTER:                  -6.209
REMARK INTRA:                  -0.756
REMARK UNBOUND:                -0.235
REMARK SMILES O=C([O-])CCCCCCCC(=O)[O-]
REMARK SMILES IDX 7 1 6 2 5 3 4 4 2 5 1 6 3 7 8 8 9 9 10 10 11 11 12 12 13 13
REMARK H PARENT
REMARK Flexibility Score: inf
ROOT
ATOM      1  C   UNL     1      46.465  50.871  10.468  1.00  0.00     0.000 C 
ENDROOT
BRANCH   1   2
ATOM      2  C   UNL     1      45.717  50.521  11.763  1.00  0.00     0.000 C 
BRANCH   2   3
ATOM      3  C   UNL     1      44.202  50.453  11.522  1.00  0.00     0.006 C 
BRANCH   3   4
ATOM      4  C   UNL     1      43.545  49.288  12.274  1.00  0.00     0.053 C 
BRANCH   4   5
ATOM      5  C   UNL     1      42.366  49.740  13.080  1.00  0.00     0.041 C 
ATOM      6  O   UNL     1      41.199  49.431  12.723  1.00  0.00    -0.550 OA
ATOM      7  O   UNL     1      42.558  50.476  14.243  1.00  0.00    -0.550 OA
ENDBRANCH   4   5
ENDBRANCH   3   4
ENDBRANCH   2   3
ENDBRANCH   1   2
BRANCH   1   8
ATOM      8  C   UNL     1      47.631  49.912  10.180  1.00  0.00     0.000 C 
BRANCH   8   9
ATOM      9  C   UNL     1      47.350  48.478  10.662  1.00  0.00     0.006 C 
BRANCH   9  10
ATOM     10  C   UNL     1      46.843  47.576   9.529  1.00  0.00     0.053 C 
BRANCH  10  11
ATOM     11  C   UNL     1      45.352  47.428   9.564  1.00  0.00     0.041 C 
ATOM     12  O   UNL     1      44.627  48.139   8.820  1.00  0.00    -0.550 OA
ATOM     13  O   UNL     1      44.764  46.528  10.443  1.00  0.00    -0.550 OA
ENDBRANCH  10  11
ENDBRANCH   9  10
ENDBRANCH   8   9
ENDBRANCH   1   8
TORSDOF 8
ENDMDL
MODEL 5
REMARK VINA RESULT:    -4.581      2.850      3.941
REMARK INTER + INTRA:          -6.958
REMARK INTER:                  -6.422
REMARK INTRA:                  -0.536
REMARK UNBOUND:                -0.235
REMARK SMILES O=C([O-])CCCCCCCC(=O)[O-]
REMARK SMILES IDX 7 1 6 2 5 3 4 4 2 5 1 6 3 7 8 8 9 9 10 10 11 11 12 12 13 13
REMARK H PARENT
REMARK Flexibility Score: inf
ROOT
ATOM      1  C   UNL     1      46.208  50.470  10.390  1.00  0.00     0.000 C 
ENDROOT
BRANCH   1   2
ATOM      2  C   UNL     1      47.636  49.912  10.485  1.00  0.00     0.000 C 
BRANCH   2   3
ATOM      3  C   UNL     1      47.619  48.391  10.698  1.00  0.00     0.006 C 
BRANCH   3   4
ATOM      4  C   UNL     1      46.751  47.668   9.659  1.00  0.00     0.053 C 
BRANCH   4   5
ATOM      5  C   UNL     1      46.916  46.181   9.735  1.00  0.00     0.041 C 
ATOM      6  O   UNL     1      47.476  45.557   8.795  1.00  0.00    -0.550 OA
ATOM      7  O   UNL     1      46.482  45.488  10.858  1.00  0.00    -0.550 OA
ENDBRANCH   4   5
ENDBRANCH   3   4
ENDBRANCH   2   3
ENDBRANCH   1   2
BRANCH   1   8
ATOM      8  C   UNL     1      45.571  50.702  11.769  1.00  0.00     0.000 C 
BRANCH   8   9
ATOM      9  C   UNL     1      44.084  50.305  11.807  1.00  0.00     0.006 C 
BRANCH   9  10
ATOM     10  C   UNL     1      43.892  48.784  11.838  1.00  0.00     0.053 C 
BRANCH  10  11
ATOM     11  C   UNL     1      42.793  48.382  12.773  1.00  0.00     0.041 C 
ATOM     12  O   UNL     1      42.174  49.256  13.437  1.00  0.00    -0.550 OA
ATOM     13  O   UNL     1      42.474  47.041  12.937  1.00  0.00    -0.550 OA
ENDBRANCH  10  11
ENDBRANCH   9  10
ENDBRANCH   8   9
ENDBRANCH   1   8
TORSDOF 8
ENDMDL
MODEL 6
REMARK VINA RESULT:    -4.574      2.893      6.890
REMARK INTER + INTRA:          -6.948
REMARK INTER:                  -6.400
REMARK INTRA:                  -0.549
REMARK UNBOUND:                -0.235
REMARK SMILES O=C([O-])CCCCCCCC(=O)[O-]
REMARK SMILES IDX 7 1 6 2 5 3 4 4 2 5 1 6 3 7 8 8 9 9 10 10 11 11 12 12 13 13
REMARK H PARENT
REMARK Flexibility Score: inf
ROOT
ATOM      1  C   UNL     1      46.120  50.543  10.425  1.00  0.00     0.000 C 
ENDROOT
BRANCH   1   2
ATOM      2  C   UNL     1      45.390  50.602  11.774  1.00  0.00     0.000 C 
BRANCH   2   3
ATOM      3  C   UNL     1      43.904  50.246  11.612  1.00  0.00     0.006 C 
BRANCH   3   4
ATOM      4  C   UNL     1      43.658  48.733  11.679  1.00  0.00     0.053 C 
BRANCH   4   5
ATOM      5  C   UNL     1      42.865  48.353  12.892  1.00  0.00     0.041 C 
ATOM      6  O   UNL     1      42.508  49.234  13.717  1.00  0.00    -0.550 OA
ATOM      7  O   UNL     1      42.491  47.030  13.093  1.00  0.00    -0.550 OA
ENDBRANCH   4   5
ENDBRANCH   3   4
ENDBRANCH   2   3
ENDBRANCH   1   2
BRANCH   1   8
ATOM      8  C   UNL     1      47.554  50.004  10.550  1.00  0.00     0.000 C 
BRANCH   8   9
ATOM      9  C   UNL     1      47.599  48.475  10.718  1.00  0.00     0.006 C 
BRANCH   9  10
ATOM     10  C   UNL     1      46.773  47.752   9.646  1.00  0.00     0.053 C 
BRANCH  10  11
ATOM     11  C   UNL     1      46.837  46.263   9.808  1.00  0.00     0.041 C 
ATOM     12  O   UNL     1      46.424  45.722  10.868  1.00  0.00    -0.550 OA
ATOM     13  O   UNL     1      47.384  45.477   8.803  1.00  0.00    -0.550 OA
ENDBRANCH  10  11
ENDBRANCH   9  10
ENDBRANCH   8   9
ENDBRANCH   1   8
TORSDOF 8
ENDMDL
MODEL 7
REMARK VINA RESULT:    -4.566     14.893     16.245
REMARK INTER + INTRA:          -6.937
REMARK INTER:                  -6.579
REMARK INTRA:                  -0.358
REMARK UNBOUND:                -0.235
REMARK SMILES O=C([O-])CCCCCCCC(=O)[O-]
REMARK SMILES IDX 7 1 6 2 5 3 4 4 2 5 1 6 3 7 8 8 9 9 10 10 11 11 12 12 13 13
REMARK H PARENT
REMARK Flexibility Score: inf
ROOT
ATOM      1  C   UNL     1      44.704  37.167  19.980  1.00  0.00     0.000 C 
ENDROOT
BRANCH   1   2
ATOM      2  C   UNL     1      45.650  37.920  19.032  1.00  0.00     0.000 C 
BRANCH   2   3
ATOM      3  C   UNL     1      45.893  39.355  19.524  1.00  0.00     0.006 C 
BRANCH   3   4
ATOM      4  C   UNL     1      46.413  40.271  18.408  1.00  0.00     0.053 C 
BRANCH   4   5
ATOM      5  C   UNL     1      47.898  40.164  18.249  1.00  0.00     0.041 C 
ATOM      6  O   UNL     1      48.387  39.453  17.332  1.00  0.00    -0.550 OA
ATOM      7  O   UNL     1      48.743  40.877  19.091  1.00  0.00    -0.550 OA
ENDBRANCH   4   5
ENDBRANCH   3   4
ENDBRANCH   2   3
ENDBRANCH   1   2
BRANCH   1   8
ATOM      8  C   UNL     1      44.899  35.644  19.924  1.00  0.00     0.000 C 
BRANCH   8   9
ATOM      9  C   UNL     1      46.189  35.239  19.189  1.00  0.00     0.006 C 
BRANCH   9  10
ATOM     10  C   UNL     1      46.506  33.747  19.358  1.00  0.00     0.053 C 
BRANCH  10  11
ATOM     11  C   UNL     1      46.908  33.423  20.764  1.00  0.00     0.041 C 
ATOM     12  O   UNL     1      48.059  33.721  21.180  1.00  0.00    -0.550 OA
ATOM     13  O   UNL     1      46.023  32.761  21.605  1.00  0.00    -0.550 OA
ENDBRANCH  10  11
ENDBRANCH   9  10
ENDBRANCH   8   9
ENDBRANCH   1   8
TORSDOF 8
ENDMDL
MODEL 8
REMARK VINA RESULT:    -4.548      2.736      4.067
REMARK INTER + INTRA:          -6.910
REMARK INTER:                  -6.315
REMARK INTRA:                  -0.595
REMARK UNBOUND:                -0.235
REMARK SMILES O=C([O-])CCCCCCCC(=O)[O-]
REMARK SMILES IDX 7 1 6 2 5 3 4 4 2 5 1 6 3 7 8 8 9 9 10 10 11 11 12 12 13 13
REMARK H PARENT
REMARK Flexibility Score: inf
ROOT
ATOM      1  C   UNL     1      47.140  50.096  11.081  1.00  0.00     0.000 C 
ENDROOT
BRANCH   1   2
ATOM      2  C   UNL     1      47.461  48.650  10.673  1.00  0.00     0.000 C 
BRANCH   2   3
ATOM      3  C   UNL     1      46.700  48.257   9.398  1.00  0.00     0.006 C 
BRANCH   3   4
ATOM      4  C   UNL     1      46.592  46.735   9.231  1.00  0.00     0.053 C 
BRANCH   4   5
ATOM      5  C   UNL     1      45.996  46.085  10.442  1.00  0.00     0.041 C 
ATOM      6  O   UNL     1      44.802  46.321  10.765  1.00  0.00    -0.550 OA
ATOM      7  O   UNL     1      46.748  45.192  11.194  1.00  0.00    -0.550 OA
ENDBRANCH   4   5
ENDBRANCH   3   4
ENDBRANCH   2   3
ENDBRANCH   1   2
BRANCH   1   8
ATOM      8  C   UNL     1      45.687  50.490  10.771  1.00  0.00     0.000 C 
BRANCH   8   9
ATOM      9  C   UNL     1      44.757  50.322  11.985  1.00  0.00     0.006 C 
BRANCH   9  10
ATOM     10  C   UNL     1      43.551  49.428  11.669  1.00  0.00     0.053 C 
BRANCH  10  11
ATOM     11  C   UNL     1      42.868  48.958  12.918  1.00  0.00     0.041 C 
ATOM     12  O   UNL     1      42.348  49.789  13.708  1.00  0.00    -0.550 OA
ATOM     13  O   UNL     1      42.836  47.604  13.225  1.00  0.00    -0.550 OA
ENDBRANCH  10  11
ENDBRANCH   9  10
ENDBRANCH   8   9
ENDBRANCH   1   8
TORSDOF 8
ENDMDL
MODEL 9
REMARK VINA RESULT:    -4.532     13.404     14.551
REMARK INTER + INTRA:          -6.887
REMARK INTER:                  -6.493
REMARK INTRA:                  -0.394
REMARK UNBOUND:                -0.235
REMARK SMILES O=C([O-])CCCCCCCC(=O)[O-]
REMARK SMILES IDX 7 1 6 2 5 3 4 4 2 5 1 6 3 7 8 8 9 9 10 10 11 11 12 12 13 13
REMARK H PARENT
REMARK Flexibility Score: inf
ROOT
ATOM      1  C   UNL     1      47.431  40.030  18.444  1.00  0.00     0.000 C 
ENDROOT
BRANCH   1   2
ATOM      2  C   UNL     1      48.649  40.757  19.031  1.00  0.00     0.000 C 
BRANCH   2   3
ATOM      3  C   UNL     1      48.396  41.164  20.490  1.00  0.00     0.006 C 
BRANCH   3   4
ATOM      4  C   UNL     1      49.696  41.259  21.301  1.00  0.00     0.053 C 
BRANCH   4   5
ATOM      5  C   UNL     1      49.985  42.666  21.724  1.00  0.00     0.041 C 
ATOM      6  O   UNL     1      50.486  42.897  22.856  1.00  0.00    -0.550 OA
ATOM      7  O   UNL     1      49.733  43.720  20.856  1.00  0.00    -0.550 OA
ENDBRANCH   4   5
ENDBRANCH   3   4
ENDBRANCH   2   3
ENDBRANCH   1   2
BRANCH   1   8
ATOM      8  C   UNL     1      46.224  40.034  19.395  1.00  0.00     0.000 C 
BRANCH   8   9
ATOM      9  C   UNL     1      45.642  38.627  19.618  1.00  0.00     0.006 C 
BRANCH   9  10
ATOM     10  C   UNL     1      46.133  37.624  18.566  1.00  0.00     0.053 C 
BRANCH  10  11
ATOM     11  C   UNL     1      45.904  36.208  19.001  1.00  0.00     0.041 C 
ATOM     12  O   UNL     1      44.977  35.934  19.808  1.00  0.00    -0.550 OA
ATOM     13  O   UNL     1      46.737  35.197  18.540  1.00  0.00    -0.550 OA
ENDBRANCH  10  11
ENDBRANCH   9  10
ENDBRANCH   8   9
ENDBRANCH   1   8
TORSDOF 8
ENDMDL
