MODEL 1
REMARK VINA RESULT:    -4.623      0.000      0.000
REMARK INTER + INTRA:          -6.569
REMARK INTER:                  -6.109
REMARK INTRA:                  -0.460
REMARK UNBOUND:                -0.460
REMARK SMILES C=C[C@H](O)CCCCC
REMARK SMILES IDX 6 1 7 2 8 3 9 4 5 5 3 6 2 7 1 8 4 9
REMARK H PARENT 4 10
REMARK Flexibility Score: inf
ROOT
ATOM      1  C   UNL     1     138.224 119.294 139.254  1.00  0.00     0.003 C 
ENDROOT
BRANCH   1   2
ATOM      2  C   UNL     1     137.774 118.395 138.093  1.00  0.00    -0.000 C 
BRANCH   2   3
ATOM      3  C   UNL     1     136.527 118.938 137.377  1.00  0.00    -0.003 C 
ATOM      4  C   UNL     1     135.552 117.834 136.967  1.00  0.00     0.004 C 
ENDBRANCH   2   3
ENDBRANCH   1   2
BRANCH   1   5
ATOM      5  C   UNL     1     137.145 119.363 140.343  1.00  0.00     0.036 C 
BRANCH   5   6
ATOM      6  C   UNL     1     136.909 120.814 140.818  1.00  0.00     0.136 C 
BRANCH   6   7
ATOM      7  C   UNL     1     135.822 121.494 140.018  1.00  0.00    -0.004 C 
ATOM      8  C   UNL     1     134.562 121.045 139.981  1.00  0.00     0.007 C 
ENDBRANCH   6   7
BRANCH   6   9
ATOM      9  O   UNL     1     138.094 121.572 140.792  1.00  0.00    -0.389 OA
ATOM     10  H   UNL     1     138.796 121.029 140.347  1.00  0.00     0.211 HD
ENDBRANCH   6   9
ENDBRANCH   5   6
ENDBRANCH   1   5
TORSDOF 6
ENDMDL
MODEL 2
REMARK VINA RESULT:    -4.530      1.778      2.890
REMARK INTER + INTRA:          -6.446
REMARK INTER:                  -5.915
REMARK INTRA:                  -0.531
REMARK UNBOUND:                -0.460
REMARK SMILES C=C[C@H](O)CCCCC
REMARK SMILES IDX 6 1 7 2 8 3 9 4 5 5 3 6 2 7 1 8 4 9
REMARK H PARENT 4 10
REMARK Flexibility Score: inf
ROOT
ATOM      1  C   UNL     1     135.459 117.793 137.399  1.00  0.00     0.003 C 
ENDROOT
BRANCH   1   2
ATOM      2  C   UNL     1     136.485 118.732 136.746  1.00  0.00    -0.000 C 
BRANCH   2   3
ATOM      3  C   UNL     1     137.795 118.015 136.385  1.00  0.00    -0.003 C 
ATOM      4  C   UNL     1     138.017 116.741 137.199  1.00  0.00     0.004 C 
ENDBRANCH   2   3
ENDBRANCH   1   2
BRANCH   1   5
ATOM      5  C   UNL     1     135.232 118.169 138.870  1.00  0.00     0.036 C 
BRANCH   5   6
ATOM      6  C   UNL     1     135.884 119.524 139.218  1.00  0.00     0.136 C 
BRANCH   6   7
ATOM      7  C   UNL     1     136.948 119.377 140.281  1.00  0.00    -0.004 C 
ATOM      8  C   UNL     1     138.256 119.366 140.001  1.00  0.00     0.007 C 
ENDBRANCH   6   7
BRANCH   6   9
ATOM      9  O   UNL     1     134.927 120.482 139.600  1.00  0.00    -0.389 OA
ATOM     10  H   UNL     1     135.312 121.023 140.338  1.00  0.00     0.211 HD
ENDBRANCH   6   9
ENDBRANCH   5   6
ENDBRANCH   1   5
TORSDOF 6
ENDMDL
MODEL 3
REMARK VINA RESULT:    -4.397      1.036      1.299
REMARK INTER + INTRA:          -6.270
REMARK INTER:                  -5.819
REMARK INTRA:                  -0.451
REMARK UNBOUND:                -0.460
REMARK SMILES C=C[C@H](O)CCCCC
REMARK SMILES IDX 6 1 7 2 8 3 9 4 5 5 3 6 2 7 1 8 4 9
REMARK H PARENT 4 10
REMARK Flexibility Score: inf
ROOT
ATOM      1  C   UNL     1     136.463 118.411 139.536  1.00  0.00     0.003 C 
ENDROOT
BRANCH   1   2
ATOM      2  C   UNL     1     135.647 118.373 138.236  1.00  0.00    -0.000 C 
BRANCH   2   3
ATOM      3  C   UNL     1     136.327 119.139 137.090  1.00  0.00    -0.003 C 
ATOM      4  C   UNL     1     136.911 118.214 136.023  1.00  0.00     0.004 C 
ENDBRANCH   2   3
ENDBRANCH   1   2
BRANCH   1   5
ATOM      5  C   UNL     1     137.479 119.561 139.513  1.00  0.00     0.036 C 
BRANCH   5   6
ATOM      6  C   UNL     1     137.225 120.566 140.657  1.00  0.00     0.136 C 
BRANCH   6   7
ATOM      7  C   UNL     1     135.872 121.230 140.530  1.00  0.00    -0.004 C 
ATOM      8  C   UNL     1     135.567 122.064 139.529  1.00  0.00     0.007 C 
ENDBRANCH   6   7
BRANCH   6   9
ATOM      9  O   UNL     1     138.246 121.531 140.743  1.00  0.00    -0.389 OA
ATOM     10  H   UNL     1     137.933 122.351 140.279  1.00  0.00     0.211 HD
ENDBRANCH   6   9
ENDBRANCH   5   6
ENDBRANCH   1   5
TORSDOF 6
ENDMDL
MODEL 4
REMARK VINA RESULT:    -4.358      2.756      4.710
REMARK INTER + INTRA:          -6.219
REMARK INTER:                  -5.625
REMARK INTRA:                  -0.594
REMARK UNBOUND:                -0.460
REMARK SMILES C=C[C@H](O)CCCCC
REMARK SMILES IDX 6 1 7 2 8 3 9 4 5 5 3 6 2 7 1 8 4 9
REMARK H PARENT 4 10
REMARK Flexibility Score: inf
ROOT
ATOM      1  C   UNL     1     136.476 119.982 138.106  1.00  0.00     0.003 C 
ENDROOT
BRANCH   1   2
ATOM      2  C   UNL     1     135.864 119.170 139.258  1.00  0.00    -0.000 C 
BRANCH   2   3
ATOM      3  C   UNL     1     136.796 119.081 140.477  1.00  0.00    -0.003 C 
ATOM      4  C   UNL     1     138.246 119.427 140.140  1.00  0.00     0.004 C 
ENDBRANCH   2   3
ENDBRANCH   1   2
BRANCH   1   5
ATOM      5  C   UNL     1     136.479 119.169 136.804  1.00  0.00     0.036 C 
BRANCH   5   6
ATOM      6  C   UNL     1     136.094 117.695 137.054  1.00  0.00     0.136 C 
BRANCH   6   7
ATOM      7  C   UNL     1     137.248 116.760 136.775  1.00  0.00    -0.004 C 
ATOM      8  C   UNL     1     138.242 116.556 137.647  1.00  0.00     0.007 C 
ENDBRANCH   6   7
BRANCH   6   9
ATOM      9  O   UNL     1     134.958 117.318 136.313  1.00  0.00    -0.389 OA
ATOM     10  H   UNL     1     135.150 117.482 135.353  1.00  0.00     0.211 HD
ENDBRANCH   6   9
ENDBRANCH   5   6
ENDBRANCH   1   5
TORSDOF 6
ENDMDL
MODEL 5
REMARK VINA RESULT:    -4.342     11.265     12.090
REMARK INTER + INTRA:          -6.198
REMARK INTER:                  -5.612
REMARK INTRA:                  -0.586
REMARK UNBOUND:                -0.460
REMARK SMILES C=C[C@H](O)CCCCC
REMARK SMILES IDX 6 1 7 2 8 3 9 4 5 5 3 6 2 7 1 8 4 9
REMARK H PARENT 4 10
REMARK Flexibility Score: inf
ROOT
ATOM      1  C   UNL     1     133.614 127.003 147.850  1.00  0.00     0.003 C 
ENDROOT
BRANCH   1   2
ATOM      2  C   UNL     1     133.517 127.424 146.376  1.00  0.00    -0.000 C 
BRANCH   2   3
ATOM      3  C   UNL     1     133.093 128.891 146.208  1.00  0.00    -0.003 C 
ATOM      4  C   UNL     1     134.144 129.732 145.484  1.00  0.00     0.004 C 
ENDBRANCH   2   3
ENDBRANCH   1   2
BRANCH   1   5
ATOM      5  C   UNL     1     135.079 126.837 148.277  1.00  0.00     0.036 C 
BRANCH   5   6
ATOM      6  C   UNL     1     135.689 128.175 148.746  1.00  0.00     0.136 C 
BRANCH   6   7
ATOM      7  C   UNL     1     136.798 128.637 147.828  1.00  0.00    -0.004 C 
ATOM      8  C   UNL     1     137.204 127.927 146.770  1.00  0.00     0.007 C 
ENDBRANCH   6   7
BRANCH   6   9
ATOM      9  O   UNL     1     136.141 128.106 150.077  1.00  0.00    -0.389 OA
ATOM     10  H   UNL     1     137.122 128.261 150.076  1.00  0.00     0.211 HD
ENDBRANCH   6   9
ENDBRANCH   5   6
ENDBRANCH   1   5
TORSDOF 6
ENDMDL
MODEL 6
REMARK VINA RESULT:    -4.315      2.259      2.743
REMARK INTER + INTRA:          -6.162
REMARK INTER:                  -5.858
REMARK INTRA:                  -0.304
REMARK UNBOUND:                -0.460
REMARK SMILES C=C[C@H](O)CCCCC
REMARK SMILES IDX 6 1 7 2 8 3 9 4 5 5 3 6 2 7 1 8 4 9
REMARK H PARENT 4 10
REMARK Flexibility Score: inf
ROOT
ATOM      1  C   UNL     1     136.452 120.163 140.042  1.00  0.00     0.003 C 
ENDROOT
BRANCH   1   2
ATOM      2  C   UNL     1     136.289 120.414 138.536  1.00  0.00    -0.000 C 
BRANCH   2   3
ATOM      3  C   UNL     1     136.459 119.134 137.703  1.00  0.00    -0.003 C 
ATOM      4  C   UNL     1     135.468 118.037 138.093  1.00  0.00     0.004 C 
ENDBRANCH   2   3
ENDBRANCH   1   2
BRANCH   1   5
ATOM      5  C   UNL     1     135.430 120.976 140.847  1.00  0.00     0.036 C 
BRANCH   5   6
ATOM      6  C   UNL     1     134.110 121.161 140.068  1.00  0.00     0.136 C 
BRANCH   6   7
ATOM      7  C   UNL     1     133.671 122.607 140.044  1.00  0.00    -0.004 C 
ATOM      8  C   UNL     1     132.397 122.974 139.861  1.00  0.00     0.007 C 
ENDBRANCH   6   7
BRANCH   6   9
ATOM      9  O   UNL     1     133.085 120.338 140.571  1.00  0.00    -0.389 OA
ATOM     10  H   UNL     1     132.242 120.577 140.105  1.00  0.00     0.211 HD
ENDBRANCH   6   9
ENDBRANCH   5   6
ENDBRANCH   1   5
TORSDOF 6
ENDMDL
MODEL 7
REMARK VINA RESULT:    -4.218      1.720      3.911
REMARK INTER + INTRA:          -6.034
REMARK INTER:                  -5.730
REMARK INTRA:                  -0.304
REMARK UNBOUND:                -0.460
REMARK SMILES C=C[C@H](O)CCCCC
REMARK SMILES IDX 6 1 7 2 8 3 9 4 5 5 3 6 2 7 1 8 4 9
REMARK H PARENT 4 10
REMARK Flexibility Score: inf
ROOT
ATOM      1  C   UNL     1     136.079 120.789 139.475  1.00  0.00     0.003 C 
ENDROOT
BRANCH   1   2
ATOM      2  C   UNL     1     135.256 120.443 140.725  1.00  0.00    -0.000 C 
BRANCH   2   3
ATOM      3  C   UNL     1     133.746 120.627 140.507  1.00  0.00    -0.003 C 
ATOM      4  C   UNL     1     133.383 122.035 140.033  1.00  0.00     0.004 C 
ENDBRANCH   2   3
ENDBRANCH   1   2
BRANCH   1   5
ATOM      5  C   UNL     1     137.414 120.033 139.472  1.00  0.00     0.036 C 
BRANCH   5   6
ATOM      6  C   UNL     1     137.619 119.245 138.160  1.00  0.00     0.136 C 
BRANCH   6   7
ATOM      7  C   UNL     1     136.333 119.126 137.373  1.00  0.00    -0.004 C 
ATOM      8  C   UNL     1     135.679 117.969 137.226  1.00  0.00     0.007 C 
ENDBRANCH   6   7
BRANCH   6   9
ATOM      9  O   UNL     1     138.178 117.976 138.393  1.00  0.00    -0.389 OA
ATOM     10  H   UNL     1     138.852 117.803 137.685  1.00  0.00     0.211 HD
ENDBRANCH   6   9
ENDBRANCH   5   6
ENDBRANCH   1   5
TORSDOF 6
ENDMDL
MODEL 8
REMARK VINA RESULT:    -4.181      1.371      4.047
REMARK INTER + INTRA:          -5.985
REMARK INTER:                  -5.759
REMARK INTRA:                  -0.226
REMARK UNBOUND:                -0.460
REMARK SMILES C=C[C@H](O)CCCCC
REMARK SMILES IDX 6 1 7 2 8 3 9 4 5 5 3 6 2 7 1 8 4 9
REMARK H PARENT 4 10
REMARK Flexibility Score: inf
ROOT
ATOM      1  C   UNL     1     135.193 120.329 140.431  1.00  0.00     0.003 C 
ENDROOT
BRANCH   1   2
ATOM      2  C   UNL     1     133.790 120.952 140.377  1.00  0.00    -0.000 C 
BRANCH   2   3
ATOM      3  C   UNL     1     133.821 122.447 140.019  1.00  0.00    -0.003 C 
ATOM      4  C   UNL     1     132.425 123.051 139.876  1.00  0.00     0.004 C 
ENDBRANCH   2   3
ENDBRANCH   1   2
BRANCH   1   5
ATOM      5  C   UNL     1     136.162 121.079 139.508  1.00  0.00     0.036 C 
BRANCH   5   6
ATOM      6  C   UNL     1     137.625 120.650 139.750  1.00  0.00     0.136 C 
BRANCH   6   7
ATOM      7  C   UNL     1     137.785 119.147 139.690  1.00  0.00    -0.004 C 
ATOM      8  C   UNL     1     137.944 118.482 138.540  1.00  0.00     0.007 C 
ENDBRANCH   6   7
BRANCH   6   9
ATOM      9  O   UNL     1     138.124 121.154 140.965  1.00  0.00    -0.389 OA
ATOM     10  H   UNL     1     138.006 120.455 141.660  1.00  0.00     0.211 HD
ENDBRANCH   6   9
ENDBRANCH   5   6
ENDBRANCH   1   5
TORSDOF 6
ENDMDL
MODEL 9
REMARK VINA RESULT:    -4.137      2.122      4.420
REMARK INTER + INTRA:          -5.927
REMARK INTER:                  -5.638
REMARK INTRA:                  -0.288
REMARK UNBOUND:                -0.460
REMARK SMILES C=C[C@H](O)CCCCC
REMARK SMILES IDX 6 1 7 2 8 3 9 4 5 5 3 6 2 7 1 8 4 9
REMARK H PARENT 4 10
REMARK Flexibility Score: inf
ROOT
ATOM      1  C   UNL     1     136.411 118.899 139.961  1.00  0.00     0.003 C 
ENDROOT
BRANCH   1   2
ATOM      2  C   UNL     1     135.829 120.306 140.163  1.00  0.00    -0.000 C 
BRANCH   2   3
ATOM      3  C   UNL     1     134.295 120.304 140.244  1.00  0.00    -0.003 C 
ATOM      4  C   UNL     1     133.694 121.705 140.128  1.00  0.00     0.004 C 
ENDBRANCH   2   3
ENDBRANCH   1   2
BRANCH   1   5
ATOM      5  C   UNL     1     135.565 118.094 138.965  1.00  0.00     0.036 C 
BRANCH   5   6
ATOM      6  C   UNL     1     136.286 117.930 137.610  1.00  0.00     0.136 C 
BRANCH   6   7
ATOM      7  C   UNL     1     137.724 117.499 137.789  1.00  0.00    -0.004 C 
ATOM      8  C   UNL     1     138.143 116.254 137.535  1.00  0.00     0.007 C 
ENDBRANCH   6   7
BRANCH   6   9
ATOM      9  O   UNL     1     136.210 119.100 136.832  1.00  0.00    -0.389 OA
ATOM     10  H   UNL     1     135.739 119.793 137.365  1.00  0.00     0.211 HD
ENDBRANCH   6   9
ENDBRANCH   5   6
ENDBRANCH   1   5
TORSDOF 6
ENDMDL
