MODEL 1
REMARK VINA RESULT:    -3.373      0.000      0.000
REMARK INTER + INTRA:          -4.056
REMARK INTER:                  -3.965
REMARK INTRA:                  -0.091
REMARK UNBOUND:                -0.091
REMARK SMILES CCCCC(=O)[O-]
REMARK SMILES IDX 4 1 5 2 6 3 7 4 3 5 2 6 1 7
REMARK H PARENT
REMARK Flexibility Score: inf
ROOT
ATOM      1  C   UNL     1      32.079 143.551 107.791  1.00  0.00     0.053 C 
ENDROOT
BRANCH   1   2
ATOM      2  C   UNL     1      32.904 143.019 106.662  1.00  0.00     0.041 C 
ATOM      3  O   UNL     1      34.153 142.920 106.781  1.00  0.00    -0.550 OA
ATOM      4  O   UNL     1      32.297 142.677 105.460  1.00  0.00    -0.550 OA
ENDBRANCH   1   2
BRANCH   1   5
ATOM      5  C   UNL     1      32.626 144.904 108.263  1.00  0.00     0.006 C 
BRANCH   5   6
ATOM      6  C   UNL     1      33.150 144.858 109.707  1.00  0.00    -0.003 C 
ATOM      7  C   UNL     1      34.634 145.210 109.808  1.00  0.00     0.004 C 
ENDBRANCH   5   6
ENDBRANCH   1   5
TORSDOF 3
ENDMDL
MODEL 2
REMARK VINA RESULT:    -3.184      2.130      3.772
REMARK INTER + INTRA:          -3.833
REMARK INTER:                  -3.789
REMARK INTRA:                  -0.045
REMARK UNBOUND:                -0.091
REMARK SMILES CCCCC(=O)[O-]
REMARK SMILES IDX 4 1 5 2 6 3 7 4 3 5 2 6 1 7
REMARK H PARENT
REMARK Flexibility Score: inf
ROOT
ATOM      1  C   UNL     1      32.751 144.511 108.933  1.00  0.00     0.053 C 
ENDROOT
BRANCH   1   2
ATOM      2  C   UNL     1      34.151 144.638 109.443  1.00  0.00     0.041 C 
ATOM      3  O   UNL     1      34.411 145.425 110.389  1.00  0.00    -0.550 OA
ATOM      4  O   UNL     1      35.178 143.923 108.840  1.00  0.00    -0.550 OA
ENDBRANCH   1   2
BRANCH   1   5
ATOM      5  C   UNL     1      32.754 144.153 107.441  1.00  0.00     0.006 C 
BRANCH   5   6
ATOM      6  C   UNL     1      31.987 142.855 107.143  1.00  0.00    -0.003 C 
ATOM      7  C   UNL     1      32.107 142.420 105.683  1.00  0.00     0.004 C 
ENDBRANCH   5   6
ENDBRANCH   1   5
TORSDOF 3
ENDMDL
MODEL 3
REMARK VINA RESULT:    -2.838      2.294      3.719
REMARK INTER + INTRA:          -3.427
REMARK INTER:                  -3.369
REMARK INTRA:                  -0.058
REMARK UNBOUND:                -0.091
REMARK SMILES CCCCC(=O)[O-]
REMARK SMILES IDX 4 1 5 2 6 3 7 4 3 5 2 6 1 7
REMARK H PARENT
REMARK Flexibility Score: inf
ROOT
ATOM      1  C   UNL     1      32.867 144.349 107.528  1.00  0.00     0.053 C 
ENDROOT
BRANCH   1   2
ATOM      2  C   UNL     1      33.355 144.569 108.925  1.00  0.00     0.041 C 
ATOM      3  O   UNL     1      34.575 144.430 109.199  1.00  0.00    -0.550 OA
ATOM      4  O   UNL     1      32.453 144.881 109.935  1.00  0.00    -0.550 OA
ENDBRANCH   1   2
BRANCH   1   5
ATOM      5  C   UNL     1      33.554 143.127 106.907  1.00  0.00     0.006 C 
BRANCH   5   6
ATOM      6  C   UNL     1      32.557 142.152 106.262  1.00  0.00    -0.003 C 
ATOM      7  C   UNL     1      31.238 142.062 107.030  1.00  0.00     0.004 C 
ENDBRANCH   5   6
ENDBRANCH   1   5
TORSDOF 3
ENDMDL
MODEL 4
REMARK VINA RESULT:    -2.838     20.376     20.772
REMARK INTER + INTRA:          -3.427
REMARK INTER:                  -3.390
REMARK INTRA:                  -0.037
REMARK UNBOUND:                -0.091
REMARK SMILES CCCCC(=O)[O-]
REMARK SMILES IDX 4 1 5 2 6 3 7 4 3 5 2 6 1 7
REMARK H PARENT
REMARK Flexibility Score: inf
ROOT
ATOM      1  C   UNL     1      42.677 159.517 116.056  1.00  0.00     0.053 C 
ENDROOT
BRANCH   1   2
ATOM      2  C   UNL     1      41.769 160.647 116.428  1.00  0.00     0.041 C 
ATOM      3  O   UNL     1      40.944 160.514 117.369  1.00  0.00    -0.550 OA
ATOM      4  O   UNL     1      41.801 161.832 115.703  1.00  0.00    -0.550 OA
ENDBRANCH   1   2
BRANCH   1   5
ATOM      5  C   UNL     1      43.754 159.996 115.076  1.00  0.00     0.006 C 
BRANCH   5   6
ATOM      6  C   UNL     1      44.981 159.072 115.049  1.00  0.00    -0.003 C 
ATOM      7  C   UNL     1      44.825 157.856 115.961  1.00  0.00     0.004 C 
ENDBRANCH   5   6
ENDBRANCH   1   5
TORSDOF 3
ENDMDL
MODEL 5
REMARK VINA RESULT:    -2.779     18.023     18.845
REMARK INTER + INTRA:          -3.358
REMARK INTER:                  -3.278
REMARK INTRA:                  -0.080
REMARK UNBOUND:                -0.091
REMARK SMILES CCCCC(=O)[O-]
REMARK SMILES IDX 4 1 5 2 6 3 7 4 3 5 2 6 1 7
REMARK H PARENT
REMARK Flexibility Score: inf
ROOT
ATOM      1  C   UNL     1      26.094 158.326 119.105  1.00  0.00     0.053 C 
ENDROOT
BRANCH   1   2
ATOM      2  C   UNL     1      25.854 158.200 117.633  1.00  0.00     0.041 C 
ATOM      3  O   UNL     1      26.113 159.163 116.865  1.00  0.00    -0.550 OA
ATOM      4  O   UNL     1      25.297 157.037 117.117  1.00  0.00    -0.550 OA
ENDBRANCH   1   2
BRANCH   1   5
ATOM      5  C   UNL     1      25.385 157.196 119.861  1.00  0.00     0.006 C 
BRANCH   5   6
ATOM      6  C   UNL     1      26.357 156.107 120.343  1.00  0.00    -0.003 C 
ATOM      7  C   UNL     1      26.211 154.799 119.565  1.00  0.00     0.004 C 
ENDBRANCH   5   6
ENDBRANCH   1   5
TORSDOF 3
ENDMDL
MODEL 6
REMARK VINA RESULT:    -2.635     18.225     19.014
REMARK INTER + INTRA:          -3.188
REMARK INTER:                  -3.146
REMARK INTRA:                  -0.042
REMARK UNBOUND:                -0.091
REMARK SMILES CCCCC(=O)[O-]
REMARK SMILES IDX 4 1 5 2 6 3 7 4 3 5 2 6 1 7
REMARK H PARENT
REMARK Flexibility Score: inf
ROOT
ATOM      1  C   UNL     1      25.508 158.969 117.625  1.00  0.00     0.053 C 
ENDROOT
BRANCH   1   2
ATOM      2  C   UNL     1      26.768 159.483 117.003  1.00  0.00     0.041 C 
ATOM      3  O   UNL     1      26.814 159.719 115.767  1.00  0.00    -0.550 OA
ATOM      4  O   UNL     1      27.907 159.655 117.779  1.00  0.00    -0.550 OA
ENDBRANCH   1   2
BRANCH   1   5
ATOM      5  C   UNL     1      25.552 157.441 117.740  1.00  0.00     0.006 C 
BRANCH   5   6
ATOM      6  C   UNL     1      25.595 156.959 119.198  1.00  0.00    -0.003 C 
ATOM      7  C   UNL     1      26.003 155.491 119.323  1.00  0.00     0.004 C 
ENDBRANCH   5   6
ENDBRANCH   1   5
TORSDOF 3
ENDMDL
MODEL 7
REMARK VINA RESULT:    -2.568     18.132     19.004
REMARK INTER + INTRA:          -3.110
REMARK INTER:                  -3.072
REMARK INTRA:                  -0.038
REMARK UNBOUND:                -0.091
REMARK SMILES CCCCC(=O)[O-]
REMARK SMILES IDX 4 1 5 2 6 3 7 4 3 5 2 6 1 7
REMARK H PARENT
REMARK Flexibility Score: inf
ROOT
ATOM      1  C   UNL     1      25.656 156.923 119.207  1.00  0.00     0.053 C 
ENDROOT
BRANCH   1   2
ATOM      2  C   UNL     1      26.160 155.728 119.952  1.00  0.00     0.041 C 
ATOM      3  O   UNL     1      26.268 154.618 119.369  1.00  0.00    -0.550 OA
ATOM      4  O   UNL     1      26.464 155.829 121.303  1.00  0.00    -0.550 OA
ENDBRANCH   1   2
BRANCH   1   5
ATOM      5  C   UNL     1      26.425 158.181 119.630  1.00  0.00     0.006 C 
BRANCH   5   6
ATOM      6  C   UNL     1      26.728 159.114 118.447  1.00  0.00    -0.003 C 
ATOM      7  C   UNL     1      25.930 158.756 117.193  1.00  0.00     0.004 C 
ENDBRANCH   5   6
ENDBRANCH   1   5
TORSDOF 3
ENDMDL
MODEL 8
REMARK VINA RESULT:    -2.544     15.954     16.509
REMARK INTER + INTRA:          -3.081
REMARK INTER:                  -2.995
REMARK INTRA:                  -0.086
REMARK UNBOUND:                -0.091
REMARK SMILES CCCCC(=O)[O-]
REMARK SMILES IDX 4 1 5 2 6 3 7 4 3 5 2 6 1 7
REMARK H PARENT
REMARK Flexibility Score: inf
ROOT
ATOM      1  C   UNL     1      34.245 159.763 105.328  1.00  0.00     0.053 C 
ENDROOT
BRANCH   1   2
ATOM      2  C   UNL     1      34.274 161.236 105.587  1.00  0.00     0.041 C 
ATOM      3  O   UNL     1      34.598 161.673 106.721  1.00  0.00    -0.550 OA
ATOM      4  O   UNL     1      33.895 162.124 104.588  1.00  0.00    -0.550 OA
ENDBRANCH   1   2
BRANCH   1   5
ATOM      5  C   UNL     1      35.190 159.032 106.290  1.00  0.00     0.006 C 
BRANCH   5   6
ATOM      6  C   UNL     1      34.450 158.055 107.217  1.00  0.00    -0.003 C 
ATOM      7  C   UNL     1      34.688 158.350 108.697  1.00  0.00     0.004 C 
ENDBRANCH   5   6
ENDBRANCH   1   5
TORSDOF 3
ENDMDL
MODEL 9
REMARK VINA RESULT:    -2.452     19.119     19.342
REMARK INTER + INTRA:          -2.973
REMARK INTER:                  -2.955
REMARK INTRA:                  -0.018
REMARK UNBOUND:                -0.091
REMARK SMILES CCCCC(=O)[O-]
REMARK SMILES IDX 4 1 5 2 6 3 7 4 3 5 2 6 1 7
REMARK H PARENT
REMARK Flexibility Score: inf
ROOT
ATOM      1  C   UNL     1      27.602 159.819 118.034  1.00  0.00     0.053 C 
ENDROOT
BRANCH   1   2
ATOM      2  C   UNL     1      26.615 159.386 116.997  1.00  0.00     0.041 C 
ATOM      3  O   UNL     1      25.711 158.561 117.288  1.00  0.00    -0.550 OA
ATOM      4  O   UNL     1      26.724 159.857 115.694  1.00  0.00    -0.550 OA
ENDBRANCH   1   2
BRANCH   1   5
ATOM      5  C   UNL     1      28.932 160.211 117.378  1.00  0.00     0.006 C 
BRANCH   5   6
ATOM      6  C   UNL     1      30.060 160.409 118.403  1.00  0.00    -0.003 C 
ATOM      7  C   UNL     1      31.450 160.239 117.790  1.00  0.00     0.004 C 
ENDBRANCH   5   6
ENDBRANCH   1   5
TORSDOF 3
ENDMDL
