MODEL 1
REMARK VINA RESULT:    -1.239      0.000      0.000
REMARK INTER + INTRA:          -1.887
REMARK INTER:                  -1.493
REMARK INTRA:                  -0.394
REMARK UNBOUND:                -0.394
REMARK SMILES O=c1ccn([C@@H]2O[C@@H](CO)[C@@H](O)[C@@H]2O)c(=O)[nH]1
REMARK SMILES IDX 6 1 13 2 11 3 8 4 7 5 5 6 3 7 4 8 2 9 17 10 1 11 15 12 16 14
REMARK SMILES IDX 14 15 12 17 9 19 10 20
REMARK H PARENT 17 13 14 16 12 18 10 21
REMARK Flexibility Score: inf
ROOT
ATOM      1  C   UNL     1     173.448 177.143 175.599  1.00  0.00     0.255 C 
ATOM      2  C   UNL     1     173.846 178.253 176.577  1.00  0.00     0.196 C 
ATOM      3  C   UNL     1     174.178 177.470 177.827  1.00  0.00     0.179 C 
ATOM      4  C   UNL     1     173.283 176.233 177.688  1.00  0.00     0.178 C 
ATOM      5  O   UNL     1     173.027 176.000 176.319  1.00  0.00    -0.347 OA
ENDROOT
BRANCH   1   6
ATOM      6  N   UNL     1     172.417 177.586 174.633  1.00  0.00    -0.271 N 
ATOM      7  C   UNL     1     170.104 177.625 173.996  1.00  0.00     0.090 A 
ATOM      8  C   UNL     1     171.114 177.251 174.878  1.00  0.00     0.099 A 
ATOM      9  C   UNL     1     170.448 178.335 172.851  1.00  0.00     0.253 A 
ATOM     10  N   UNL     1     171.749 178.642 172.613  1.00  0.00    -0.274 N 
ATOM     11  O   UNL     1     169.554 178.687 172.036  1.00  0.00    -0.269 OA
ATOM     12  C   UNL     1     172.731 178.270 173.481  1.00  0.00     0.330 A 
ATOM     13  H   UNL     1     172.002 179.167 171.745  1.00  0.00     0.175 HD
ATOM     14  O   UNL     1     173.929 178.555 173.205  1.00  0.00    -0.248 OA
ENDBRANCH   1   6
BRANCH   2  15
ATOM     15  O   UNL     1     172.769 179.123 176.822  1.00  0.00    -0.386 OA
ATOM     16  H   UNL     1     172.600 179.097 177.800  1.00  0.00     0.211 HD
ENDBRANCH   2  15
BRANCH   3  17
ATOM     17  O   UNL     1     175.551 177.153 177.880  1.00  0.00    -0.387 OA
ATOM     18  H   UNL     1     175.713 176.591 178.683  1.00  0.00     0.211 HD
ENDBRANCH   3  17
BRANCH   4  19
ATOM     19  C   UNL     1     173.848 174.965 178.341  1.00  0.00     0.191 C 
BRANCH  19  20
ATOM     20  O   UNL     1     174.819 174.390 177.511  1.00  0.00    -0.394 OA
ATOM     21  H   UNL     1     174.935 173.457 177.829  1.00  0.00     0.210 HD
ENDBRANCH  19  20
ENDBRANCH   4  19
TORSDOF 5
ENDMDL
MODEL 2
REMARK VINA RESULT:    -1.174     12.558     16.458
REMARK INTER + INTRA:          -1.808
REMARK INTER:                  -1.418
REMARK INTRA:                  -0.390
REMARK UNBOUND:                -0.394
REMARK SMILES O=c1ccn([C@@H]2O[C@@H](CO)[C@@H](O)[C@@H]2O)c(=O)[nH]1
REMARK SMILES IDX 6 1 13 2 11 3 8 4 7 5 5 6 3 7 4 8 2 9 17 10 1 11 15 12 16 14
REMARK SMILES IDX 14 15 12 17 9 19 10 20
REMARK H PARENT 17 13 14 16 12 18 10 21
REMARK Flexibility Score: inf
ROOT
ATOM      1  C   UNL     1     164.013 177.127 161.979  1.00  0.00     0.255 C 
ATOM      2  C   UNL     1     163.386 178.183 161.064  1.00  0.00     0.196 C 
ATOM      3  C   UNL     1     162.921 177.352 159.891  1.00  0.00     0.179 C 
ATOM      4  C   UNL     1     163.917 176.185 159.900  1.00  0.00     0.178 C 
ATOM      5  O   UNL     1     164.401 176.002 161.214  1.00  0.00    -0.347 OA
ENDROOT
BRANCH   1   6
ATOM      6  N   UNL     1     165.147 177.664 162.766  1.00  0.00    -0.271 N 
ATOM      7  C   UNL     1     167.521 177.907 163.014  1.00  0.00     0.090 A 
ATOM      8  C   UNL     1     166.416 177.441 162.307  1.00  0.00     0.099 A 
ATOM      9  C   UNL     1     167.310 178.593 164.205  1.00  0.00     0.253 A 
ATOM     10  N   UNL     1     166.044 178.789 164.656  1.00  0.00    -0.274 N 
ATOM     11  O   UNL     1     168.291 179.027 164.865  1.00  0.00    -0.269 OA
ATOM     12  C   UNL     1     164.968 178.327 163.958  1.00  0.00     0.330 A 
ATOM     13  H   UNL     1     165.893 179.297 165.557  1.00  0.00     0.175 HD
ATOM     14  O   UNL     1     163.812 178.511 164.429  1.00  0.00    -0.248 OA
ENDBRANCH   1   6
BRANCH   2  15
ATOM     15  O   UNL     1     164.343 179.124 160.644  1.00  0.00    -0.386 OA
ATOM     16  H   UNL     1     164.902 178.672 159.959  1.00  0.00     0.211 HD
ENDBRANCH   2  15
BRANCH   3  17
ATOM     17  O   UNL     1     161.584 176.935 160.058  1.00  0.00    -0.387 OA
ATOM     18  H   UNL     1     161.257 177.271 160.934  1.00  0.00     0.211 HD
ENDBRANCH   3  17
BRANCH   4  19
ATOM     19  C   UNL     1     163.352 174.866 159.358  1.00  0.00     0.191 C 
BRANCH  19  20
ATOM     20  O   UNL     1     162.601 174.222 160.349  1.00  0.00    -0.394 OA
ATOM     21  H   UNL     1     163.150 173.454 160.655  1.00  0.00     0.210 HD
ENDBRANCH  19  20
ENDBRANCH   4  19
TORSDOF 5
ENDMDL
MODEL 3
REMARK VINA RESULT:    -1.155     12.240     13.946
REMARK INTER + INTRA:          -1.785
REMARK INTER:                  -1.395
REMARK INTRA:                  -0.390
REMARK UNBOUND:                -0.394
REMARK SMILES O=c1ccn([C@@H]2O[C@@H](CO)[C@@H](O)[C@@H]2O)c(=O)[nH]1
REMARK SMILES IDX 6 1 13 2 11 3 8 4 7 5 5 6 3 7 4 8 2 9 17 10 1 11 15 12 16 14
REMARK SMILES IDX 14 15 12 17 9 19 10 20
REMARK H PARENT 17 13 14 16 12 18 10 21
REMARK Flexibility Score: inf
ROOT
ATOM      1  C   UNL     1     177.382 163.939 175.616  1.00  0.00     0.255 C 
ATOM      2  C   UNL     1     178.398 163.715 176.740  1.00  0.00     0.196 C 
ATOM      3  C   UNL     1     177.506 163.374 177.912  1.00  0.00     0.179 C 
ATOM      4  C   UNL     1     176.214 164.127 177.571  1.00  0.00     0.178 C 
ATOM      5  O   UNL     1     176.125 164.279 176.170  1.00  0.00    -0.347 OA
ENDROOT
BRANCH   1   6
ATOM      6  N   UNL     1     177.836 164.954 174.639  1.00  0.00    -0.271 N 
ATOM      7  C   UNL     1     177.751 167.225 173.871  1.00  0.00     0.090 A 
ATOM      8  C   UNL     1     177.371 166.233 174.770  1.00  0.00     0.099 A 
ATOM      9  C   UNL     1     178.602 166.887 172.825  1.00  0.00     0.253 A 
ATOM     10  N   UNL     1     179.038 165.607 172.697  1.00  0.00    -0.274 N 
ATOM     11  O   UNL     1     178.962 167.764 171.996  1.00  0.00    -0.269 OA
ATOM     12  C   UNL     1     178.660 164.642 173.581  1.00  0.00     0.330 A 
ATOM     13  H   UNL     1     179.671 165.357 171.902  1.00  0.00     0.175 HD
ATOM     14  O   UNL     1     179.071 163.462 173.408  1.00  0.00    -0.248 OA
ENDBRANCH   1   6
BRANCH   2  15
ATOM     15  O   UNL     1     179.125 164.889 177.008  1.00  0.00    -0.386 OA
ATOM     16  H   UNL     1     179.961 164.831 176.476  1.00  0.00     0.211 HD
ENDBRANCH   2  15
BRANCH   3  17
ATOM     17  O   UNL     1     177.319 161.981 178.023  1.00  0.00    -0.387 OA
ATOM     18  H   UNL     1     178.197 161.535 177.897  1.00  0.00     0.211 HD
ENDBRANCH   3  17
BRANCH   4  19
ATOM     19  C   UNL     1     174.937 163.470 178.111  1.00  0.00     0.191 C 
BRANCH  19  20
ATOM     20  O   UNL     1     174.535 162.432 177.263  1.00  0.00    -0.394 OA
ATOM     21  H   UNL     1     173.576 162.272 177.459  1.00  0.00     0.210 HD
ENDBRANCH  19  20
ENDBRANCH   4  19
TORSDOF 5
ENDMDL
MODEL 4
REMARK VINA RESULT:    -1.144      2.364      6.018
REMARK INTER + INTRA:          -1.772
REMARK INTER:                  -1.381
REMARK INTRA:                  -0.390
REMARK UNBOUND:                -0.394
REMARK SMILES O=c1ccn([C@@H]2O[C@@H](CO)[C@@H](O)[C@@H]2O)c(=O)[nH]1
REMARK SMILES IDX 6 1 13 2 11 3 8 4 7 5 5 6 3 7 4 8 2 9 17 10 1 11 15 12 16 14
REMARK SMILES IDX 14 15 12 17 9 19 10 20
REMARK H PARENT 17 13 14 16 12 18 10 21
REMARK Flexibility Score: inf
ROOT
ATOM      1  C   UNL     1     171.376 177.059 172.641  1.00  0.00     0.255 C 
ATOM      2  C   UNL     1     170.023 177.777 172.605  1.00  0.00     0.196 C 
ATOM      3  C   UNL     1     169.651 177.678 171.144  1.00  0.00     0.179 C 
ATOM      4  C   UNL     1     171.021 177.628 170.458  1.00  0.00     0.178 C 
ATOM      5  O   UNL     1     171.968 177.090 171.357  1.00  0.00    -0.347 OA
ENDROOT
BRANCH   1   6
ATOM      6  N   UNL     1     172.283 177.617 173.670  1.00  0.00    -0.271 N 
ATOM      7  C   UNL     1     174.214 178.947 174.178  1.00  0.00     0.090 A 
ATOM      8  C   UNL     1     173.319 178.410 173.258  1.00  0.00     0.099 A 
ATOM      9  C   UNL     1     174.043 178.651 175.526  1.00  0.00     0.253 A 
ATOM     10  N   UNL     1     173.022 177.845 175.916  1.00  0.00    -0.274 N 
ATOM     11  O   UNL     1     174.838 179.125 176.381  1.00  0.00    -0.269 OA
ATOM     12  C   UNL     1     172.151 177.322 175.008  1.00  0.00     0.330 A 
ATOM     13  H   UNL     1     172.905 177.619 176.930  1.00  0.00     0.175 HD
ATOM     14  O   UNL     1     171.233 176.559 175.414  1.00  0.00    -0.248 OA
ENDBRANCH   1   6
BRANCH   2  15
ATOM     15  O   UNL     1     170.154 179.125 172.983  1.00  0.00    -0.386 OA
ATOM     16  H   UNL     1     170.192 179.652 172.143  1.00  0.00     0.211 HD
ENDBRANCH   2  15
BRANCH   3  17
ATOM     17  O   UNL     1     168.867 176.533 170.893  1.00  0.00    -0.387 OA
ATOM     18  H   UNL     1     169.475 175.762 170.746  1.00  0.00     0.211 HD
ENDBRANCH   3  17
BRANCH   4  19
ATOM     19  C   UNL     1     171.041 176.844 169.139  1.00  0.00     0.191 C 
BRANCH  19  20
ATOM     20  O   UNL     1     171.142 175.472 169.399  1.00  0.00    -0.394 OA
ATOM     21  H   UNL     1     172.103 175.242 169.299  1.00  0.00     0.210 HD
ENDBRANCH  19  20
ENDBRANCH   4  19
TORSDOF 5
ENDMDL
MODEL 5
REMARK VINA RESULT:    -1.135      2.421      5.747
REMARK INTER + INTRA:          -1.761
REMARK INTER:                  -1.363
REMARK INTRA:                  -0.398
REMARK UNBOUND:                -0.394
REMARK SMILES O=c1ccn([C@@H]2O[C@@H](CO)[C@@H](O)[C@@H]2O)c(=O)[nH]1
REMARK SMILES IDX 6 1 13 2 11 3 8 4 7 5 5 6 3 7 4 8 2 9 17 10 1 11 15 12 16 14
REMARK SMILES IDX 14 15 12 17 9 19 10 20
REMARK H PARENT 17 13 14 16 12 18 10 21
REMARK Flexibility Score: inf
ROOT
ATOM      1  C   UNL     1     170.694 176.831 173.522  1.00  0.00     0.255 C 
ATOM      2  C   UNL     1     169.606 177.819 173.092  1.00  0.00     0.196 C 
ATOM      3  C   UNL     1     169.221 177.294 171.729  1.00  0.00     0.179 C 
ATOM      4  C   UNL     1     170.519 176.630 171.253  1.00  0.00     0.178 C 
ATOM      5  O   UNL     1     171.270 176.228 172.379  1.00  0.00    -0.347 OA
ENDROOT
BRANCH   1   6
ATOM      6  N   UNL     1     171.723 177.462 174.379  1.00  0.00    -0.271 N 
ATOM      7  C   UNL     1     173.923 178.403 174.564  1.00  0.00     0.090 A 
ATOM      8  C   UNL     1     172.912 177.821 173.805  1.00  0.00     0.099 A 
ATOM      9  C   UNL     1     173.707 178.600 175.923  1.00  0.00     0.253 A 
ATOM     10  N   UNL     1     172.528 178.219 176.481  1.00  0.00    -0.274 N 
ATOM     11  O   UNL     1     174.604 179.125 176.635  1.00  0.00    -0.269 OA
ATOM     12  C   UNL     1     171.545 177.649 175.731  1.00  0.00     0.330 A 
ATOM     13  H   UNL     1     172.376 178.362 177.506  1.00  0.00     0.175 HD
ATOM     14  O   UNL     1     170.477 177.289 176.297  1.00  0.00    -0.248 OA
ENDBRANCH   1   6
BRANCH   2  15
ATOM     15  O   UNL     1     170.120 179.123 172.983  1.00  0.00    -0.386 OA
ATOM     16  H   UNL     1     170.531 179.191 172.082  1.00  0.00     0.211 HD
ENDBRANCH   2  15
BRANCH   3  17
ATOM     17  O   UNL     1     168.140 176.392 171.815  1.00  0.00    -0.387 OA
ATOM     18  H   UNL     1     168.501 175.467 171.796  1.00  0.00     0.211 HD
ENDBRANCH   3  17
BRANCH   4  19
ATOM     19  C   UNL     1     170.312 175.441 170.306  1.00  0.00     0.191 C 
BRANCH  19  20
ATOM     20  O   UNL     1     170.032 174.284 171.042  1.00  0.00    -0.394 OA
ATOM     21  H   UNL     1     170.485 174.398 171.918  1.00  0.00     0.210 HD
ENDBRANCH  19  20
ENDBRANCH   4  19
TORSDOF 5
ENDMDL
MODEL 6
REMARK VINA RESULT:    -1.087     11.340     13.790
REMARK INTER + INTRA:          -1.704
REMARK INTER:                  -1.318
REMARK INTRA:                  -0.386
REMARK UNBOUND:                -0.394
REMARK SMILES O=c1ccn([C@@H]2O[C@@H](CO)[C@@H](O)[C@@H]2O)c(=O)[nH]1
REMARK SMILES IDX 6 1 13 2 11 3 8 4 7 5 5 6 3 7 4 8 2 9 17 10 1 11 15 12 16 14
REMARK SMILES IDX 14 15 12 17 9 19 10 20
REMARK H PARENT 17 13 14 16 12 18 10 21
REMARK Flexibility Score: inf
ROOT
ATOM      1  C   UNL     1     166.011 176.950 164.016  1.00  0.00     0.255 C 
ATOM      2  C   UNL     1     167.281 177.737 164.355  1.00  0.00     0.196 C 
ATOM      3  C   UNL     1     167.390 177.537 165.849  1.00  0.00     0.179 C 
ATOM      4  C   UNL     1     165.925 177.351 166.263  1.00  0.00     0.178 C 
ATOM      5  O   UNL     1     165.197 176.839 165.168  1.00  0.00    -0.347 OA
ENDROOT
BRANCH   1   6
ATOM      6  N   UNL     1     165.267 177.540 162.881  1.00  0.00    -0.271 N 
ATOM      7  C   UNL     1     163.364 178.788 162.120  1.00  0.00     0.090 A 
ATOM      8  C   UNL     1     164.115 178.226 163.149  1.00  0.00     0.099 A 
ATOM      9  C   UNL     1     163.802 178.626 160.810  1.00  0.00     0.253 A 
ATOM     10  N   UNL     1     164.938 177.925 160.560  1.00  0.00    -0.274 N 
ATOM     11  O   UNL     1     163.143 179.124 159.859  1.00  0.00    -0.269 OA
ATOM     12  C   UNL     1     165.666 177.377 161.573  1.00  0.00     0.330 A 
ATOM     13  H   UNL     1     165.256 177.799 159.572  1.00  0.00     0.175 HD
ATOM     14  O   UNL     1     166.700 176.713 161.291  1.00  0.00    -0.248 OA
ENDBRANCH   1   6
BRANCH   2  15
ATOM     15  O   UNL     1     167.125 179.103 164.058  1.00  0.00    -0.386 OA
ATOM     16  H   UNL     1     167.314 179.598 164.897  1.00  0.00     0.211 HD
ENDBRANCH   2  15
BRANCH   3  17
ATOM     17  O   UNL     1     168.195 176.420 166.156  1.00  0.00    -0.387 OA
ATOM     18  H   UNL     1     168.316 175.882 165.331  1.00  0.00     0.211 HD
ENDBRANCH   3  17
BRANCH   4  19
ATOM     19  C   UNL     1     165.723 176.458 167.494  1.00  0.00     0.191 C 
BRANCH  19  20
ATOM     20  O   UNL     1     165.764 175.109 167.120  1.00  0.00    -0.394 OA
ATOM     21  H   UNL     1     164.920 174.706 167.451  1.00  0.00     0.210 HD
ENDBRANCH  19  20
ENDBRANCH   4  19
TORSDOF 5
ENDMDL
MODEL 7
REMARK VINA RESULT:    -1.068     11.671     13.930
REMARK INTER + INTRA:          -1.680
REMARK INTER:                  -1.282
REMARK INTRA:                  -0.398
REMARK UNBOUND:                -0.394
REMARK SMILES O=c1ccn([C@@H]2O[C@@H](CO)[C@@H](O)[C@@H]2O)c(=O)[nH]1
REMARK SMILES IDX 6 1 13 2 11 3 8 4 7 5 5 6 3 7 4 8 2 9 17 10 1 11 15 12 16 14
REMARK SMILES IDX 14 15 12 17 9 19 10 20
REMARK H PARENT 17 13 14 16 12 18 10 21
REMARK Flexibility Score: inf
ROOT
ATOM      1  C   UNL     1     167.392 176.931 163.038  1.00  0.00     0.255 C 
ATOM      2  C   UNL     1     168.064 178.020 163.878  1.00  0.00     0.196 C 
ATOM      3  C   UNL     1     168.286 177.313 165.196  1.00  0.00     0.179 C 
ATOM      4  C   UNL     1     167.142 176.291 165.217  1.00  0.00     0.178 C 
ATOM      5  O   UNL     1     166.775 175.984 163.888  1.00  0.00    -0.347 OA
ENDROOT
BRANCH   1   6
ATOM      6  N   UNL     1     166.431 177.487 162.058  1.00  0.00    -0.271 N 
ATOM      7  C   UNL     1     164.147 177.918 161.464  1.00  0.00     0.090 A 
ATOM      8  C   UNL     1     165.097 177.427 162.354  1.00  0.00     0.099 A 
ATOM      9  C   UNL     1     164.579 178.459 160.258  1.00  0.00     0.253 A 
ATOM     10  N   UNL     1     165.906 178.492 159.971  1.00  0.00    -0.274 N 
ATOM     11  O   UNL     1     163.741 178.911 159.433  1.00  0.00    -0.269 OA
ATOM     12  C   UNL     1     166.830 178.007 160.848  1.00  0.00     0.330 A 
ATOM     13  H   UNL     1     166.224 178.891 159.058  1.00  0.00     0.175 HD
ATOM     14  O   UNL     1     168.049 178.036 160.527  1.00  0.00    -0.248 OA
ENDBRANCH   1   6
BRANCH   2  15
ATOM     15  O   UNL     1     167.210 179.123 164.056  1.00  0.00    -0.386 OA
ATOM     16  H   UNL     1     166.898 179.388 163.152  1.00  0.00     0.211 HD
ENDBRANCH   2  15
BRANCH   3  17
ATOM     17  O   UNL     1     169.561 176.714 165.246  1.00  0.00    -0.387 OA
ATOM     18  H   UNL     1     169.518 175.842 164.773  1.00  0.00     0.211 HD
ENDBRANCH   3  17
BRANCH   4  19
ATOM     19  C   UNL     1     167.459 175.003 165.988  1.00  0.00     0.191 C 
BRANCH  19  20
ATOM     20  O   UNL     1     168.201 174.131 165.181  1.00  0.00    -0.394 OA
ATOM     21  H   UNL     1     167.623 173.339 165.028  1.00  0.00     0.210 HD
ENDBRANCH  19  20
ENDBRANCH   4  19
TORSDOF 5
ENDMDL
MODEL 8
REMARK VINA RESULT:    -1.026      2.528      4.220
REMARK INTER + INTRA:          -1.630
REMARK INTER:                  -1.233
REMARK INTRA:                  -0.397
REMARK UNBOUND:                -0.394
REMARK SMILES O=c1ccn([C@@H]2O[C@@H](CO)[C@@H](O)[C@@H]2O)c(=O)[nH]1
REMARK SMILES IDX 6 1 13 2 11 3 8 4 7 5 5 6 3 7 4 8 2 9 17 10 1 11 15 12 16 14
REMARK SMILES IDX 14 15 12 17 9 19 10 20
REMARK H PARENT 17 13 14 16 12 18 10 21
REMARK Flexibility Score: inf
ROOT
ATOM      1  C   UNL     1     171.415 178.076 173.135  1.00  0.00     0.255 C 
ATOM      2  C   UNL     1     170.260 177.436 173.912  1.00  0.00     0.196 C 
ATOM      3  C   UNL     1     170.839 177.318 175.302  1.00  0.00     0.179 C 
ATOM      4  C   UNL     1     172.341 177.182 175.023  1.00  0.00     0.178 C 
ATOM      5  O   UNL     1     172.639 177.806 173.791  1.00  0.00    -0.347 OA
ENDROOT
BRANCH   1   6
ATOM      6  N   UNL     1     171.451 177.642 171.720  1.00  0.00    -0.271 N 
ATOM      7  C   UNL     1     172.451 176.251 170.040  1.00  0.00     0.090 A 
ATOM      8  C   UNL     1     172.359 176.685 171.360  1.00  0.00     0.099 A 
ATOM      9  C   UNL     1     171.610 176.821 169.091  1.00  0.00     0.253 A 
ATOM     10  N   UNL     1     170.729 177.786 169.462  1.00  0.00    -0.274 N 
ATOM     11  O   UNL     1     171.671 176.447 167.889  1.00  0.00    -0.269 OA
ATOM     12  C   UNL     1     170.647 178.206 170.755  1.00  0.00     0.330 A 
ATOM     13  H   UNL     1     170.107 178.217 168.740  1.00  0.00     0.175 HD
ATOM     14  O   UNL     1     169.831 179.122 171.048  1.00  0.00    -0.248 OA
ENDBRANCH   1   6
BRANCH   2  15
ATOM     15  O   UNL     1     169.952 176.161 173.404  1.00  0.00    -0.386 OA
ATOM     16  H   UNL     1     169.006 175.981 173.645  1.00  0.00     0.211 HD
ENDBRANCH   2  15
BRANCH   3  17
ATOM     17  O   UNL     1     170.524 178.449 176.084  1.00  0.00    -0.387 OA
ATOM     18  H   UNL     1     171.073 178.422 176.911  1.00  0.00     0.211 HD
ENDBRANCH   3  17
BRANCH   4  19
ATOM     19  C   UNL     1     173.244 177.742 176.129  1.00  0.00     0.191 C 
BRANCH  19  20
ATOM     20  O   UNL     1     173.404 179.123 175.965  1.00  0.00    -0.394 OA
ATOM     21  H   UNL     1     172.609 179.434 175.459  1.00  0.00     0.210 HD
ENDBRANCH  19  20
ENDBRANCH   4  19
TORSDOF 5
ENDMDL
MODEL 9
REMARK VINA RESULT:    -1.001      2.529      5.443
REMARK INTER + INTRA:          -1.600
REMARK INTER:                  -1.216
REMARK INTRA:                  -0.384
REMARK UNBOUND:                -0.394
REMARK SMILES O=c1ccn([C@@H]2O[C@@H](CO)[C@@H](O)[C@@H]2O)c(=O)[nH]1
REMARK SMILES IDX 6 1 13 2 11 3 8 4 7 5 5 6 3 7 4 8 2 9 17 10 1 11 15 12 16 14
REMARK SMILES IDX 14 15 12 17 9 19 10 20
REMARK H PARENT 17 13 14 16 12 18 10 21
REMARK Flexibility Score: inf
ROOT
ATOM      1  C   UNL     1     171.362 176.521 173.682  1.00  0.00     0.255 C 
ATOM      2  C   UNL     1     170.530 177.458 172.801  1.00  0.00     0.196 C 
ATOM      3  C   UNL     1     170.646 176.803 171.443  1.00  0.00     0.179 C 
ATOM      4  C   UNL     1     172.009 176.106 171.531  1.00  0.00     0.178 C 
ATOM      5  O   UNL     1     172.293 175.817 172.883  1.00  0.00    -0.347 OA
ENDROOT
BRANCH   1   6
ATOM      6  N   UNL     1     172.032 177.238 174.791  1.00  0.00    -0.271 N 
ATOM      7  C   UNL     1     174.067 178.099 175.726  1.00  0.00     0.090 A 
ATOM      8  C   UNL     1     173.381 177.447 174.705  1.00  0.00     0.099 A 
ATOM      9  C   UNL     1     173.355 178.522 176.843  1.00  0.00     0.253 A 
ATOM     10  N   UNL     1     172.020 178.288 176.921  1.00  0.00    -0.274 N 
ATOM     11  O   UNL     1     173.950 179.116 177.782  1.00  0.00    -0.269 OA
ATOM     12  C   UNL     1     171.357 177.648 175.918  1.00  0.00     0.330 A 
ATOM     13  H   UNL     1     171.493 178.601 177.769  1.00  0.00     0.175 HD
ATOM     14  O   UNL     1     170.121 177.431 176.046  1.00  0.00    -0.248 OA
ENDBRANCH   1   6
BRANCH   2  15
ATOM     15  O   UNL     1     171.085 178.749 172.767  1.00  0.00    -0.386 OA
ATOM     16  H   UNL     1     170.352 179.379 172.991  1.00  0.00     0.211 HD
ENDBRANCH   2  15
BRANCH   3  17
ATOM     17  O   UNL     1     169.582 175.907 171.215  1.00  0.00    -0.387 OA
ATOM     18  H   UNL     1     168.777 176.431 170.964  1.00  0.00     0.211 HD
ENDBRANCH   3  17
BRANCH   4  19
ATOM     19  C   UNL     1     172.124 174.831 170.684  1.00  0.00     0.191 C 
BRANCH  19  20
ATOM     20  O   UNL     1     171.551 173.750 171.365  1.00  0.00    -0.394 OA
ATOM     21  H   UNL     1     170.990 174.143 172.083  1.00  0.00     0.210 HD
ENDBRANCH  19  20
ENDBRANCH   4  19
TORSDOF 5
ENDMDL
