MODEL 1
REMARK VINA RESULT:    -4.914      0.000      0.000
REMARK INTER + INTRA:          -7.697
REMARK INTER:                  -6.781
REMARK INTRA:                  -0.916
REMARK UNBOUND:                -0.916
REMARK SMILES CCCCc1cccc(O)c1CCCC
REMARK SMILES IDX 5 1 11 2 9 3 8 4 7 5 6 6 4 7 3 8 2 9 1 10 12 11 13 12 14 13
REMARK SMILES IDX 15 14 10 15
REMARK H PARENT 10 16
REMARK Flexibility Score: inf
ROOT
ATOM      1  C   UNL     1      14.605  -0.511 -14.644  1.00  0.00    -0.041 A 
ATOM      2  C   UNL     1      14.953  -0.165 -13.303  1.00  0.00    -0.003 A 
ATOM      3  C   UNL     1      13.938  -0.146 -12.316  1.00  0.00     0.119 A 
ATOM      4  C   UNL     1      12.628  -0.516 -12.641  1.00  0.00     0.046 A 
ATOM      5  C   UNL     1      12.306  -0.897 -13.939  1.00  0.00     0.004 A 
ATOM      6  C   UNL     1      13.281  -0.892 -14.931  1.00  0.00     0.004 A 
ENDROOT
BRANCH   1   7
ATOM      7  C   UNL     1      15.580  -0.457 -15.806  1.00  0.00     0.036 C 
BRANCH   7   8
ATOM      8  C   UNL     1      15.403   0.839 -16.612  1.00  0.00     0.004 C 
BRANCH   8   9
ATOM      9  C   UNL     1      16.757   1.488 -16.918  1.00  0.00    -0.003 C 
ATOM     10  C   UNL     1      17.906   0.667 -16.341  1.00  0.00     0.004 C 
ENDBRANCH   8   9
ENDBRANCH   7   8
ENDBRANCH   1   7
BRANCH   2  11
ATOM     11  C   UNL     1      16.370   0.199 -12.897  1.00  0.00     0.040 C 
BRANCH  11  12
ATOM     12  C   UNL     1      17.242  -1.051 -12.734  1.00  0.00     0.005 C 
BRANCH  12  13
ATOM     13  C   UNL     1      17.234  -1.542 -11.281  1.00  0.00    -0.003 C 
ATOM     14  C   UNL     1      18.654  -1.772 -10.770  1.00  0.00     0.004 C 
ENDBRANCH  12  13
ENDBRANCH  11  12
ENDBRANCH   2  11
BRANCH   3  15
ATOM     15  O   UNL     1      14.233   0.241 -11.009  1.00  0.00    -0.508 OA
ATOM     16  H   UNL     1      13.734  -0.141 -10.213  1.00  0.00     0.293 HD
ENDBRANCH   3  15
TORSDOF 7
ENDMDL
MODEL 2
REMARK VINA RESULT:    -4.902     19.131     20.788
REMARK INTER + INTRA:          -7.681
REMARK INTER:                  -6.902
REMARK INTRA:                  -0.779
REMARK UNBOUND:                -0.916
REMARK SMILES CCCCc1cccc(O)c1CCCC
REMARK SMILES IDX 5 1 11 2 9 3 8 4 7 5 6 6 4 7 3 8 2 9 1 10 12 11 13 12 14 13
REMARK SMILES IDX 15 14 10 15
REMARK H PARENT 10 16
REMARK Flexibility Score: inf
ROOT
ATOM      1  C   UNL     1      29.663  14.461 -15.132  1.00  0.00    -0.041 A 
ATOM      2  C   UNL     1      29.397  14.110 -16.489  1.00  0.00    -0.003 A 
ATOM      3  C   UNL     1      29.514  15.105 -17.489  1.00  0.00     0.119 A 
ATOM      4  C   UNL     1      29.938  16.397 -17.156  1.00  0.00     0.046 A 
ATOM      5  C   UNL     1      30.241  16.720 -15.838  1.00  0.00     0.004 A 
ATOM      6  C   UNL     1      30.103  15.765 -14.836  1.00  0.00     0.004 A 
ENDROOT
BRANCH   1   7
ATOM      7  C   UNL     1      29.463  13.513 -13.964  1.00  0.00     0.036 C 
BRANCH   7   8
ATOM      8  C   UNL     1      28.018  13.578 -13.444  1.00  0.00     0.004 C 
BRANCH   8   9
ATOM      9  C   UNL     1      27.966  14.161 -12.028  1.00  0.00    -0.003 C 
ATOM     10  C   UNL     1      27.443  15.594 -12.040  1.00  0.00     0.004 C 
ENDBRANCH   8   9
ENDBRANCH   7   8
ENDBRANCH   1   7
BRANCH   2  11
ATOM     11  C   UNL     1      28.977  12.711 -16.902  1.00  0.00     0.040 C 
BRANCH  11  12
ATOM     12  C   UNL     1      30.179  11.760 -16.953  1.00  0.00     0.005 C 
BRANCH  12  13
ATOM     13  C   UNL     1      30.717  11.630 -18.383  1.00  0.00    -0.003 C 
ATOM     14  C   UNL     1      30.842  10.164 -18.792  1.00  0.00     0.004 C 
ENDBRANCH  12  13
ENDBRANCH  11  12
ENDBRANCH   2  11
BRANCH   3  15
ATOM     15  O   UNL     1      29.206  14.810 -18.818  1.00  0.00    -0.508 OA
ATOM     16  H   UNL     1      28.335  15.107 -19.243  1.00  0.00     0.293 HD
ENDBRANCH   3  15
TORSDOF 7
ENDMDL
MODEL 3
REMARK VINA RESULT:    -4.786     18.294     19.825
REMARK INTER + INTRA:          -7.521
REMARK INTER:                  -6.320
REMARK INTRA:                  -1.201
REMARK UNBOUND:                -0.916
REMARK SMILES CCCCc1cccc(O)c1CCCC
REMARK SMILES IDX 5 1 11 2 9 3 8 4 7 5 6 6 4 7 3 8 2 9 1 10 12 11 13 12 14 13
REMARK SMILES IDX 15 14 10 15
REMARK H PARENT 10 16
REMARK Flexibility Score: inf
ROOT
ATOM      1  C   UNL     1      28.970  13.173 -16.015  1.00  0.00    -0.041 A 
ATOM      2  C   UNL     1      29.372  14.069 -14.979  1.00  0.00    -0.003 A 
ATOM      3  C   UNL     1      29.921  15.324 -15.333  1.00  0.00     0.119 A 
ATOM      4  C   UNL     1      30.016  15.701 -16.678  1.00  0.00     0.046 A 
ATOM      5  C   UNL     1      29.579  14.842 -17.681  1.00  0.00     0.004 A 
ATOM      6  C   UNL     1      29.065  13.591 -17.355  1.00  0.00     0.004 A 
ENDROOT
BRANCH   1   7
ATOM      7  C   UNL     1      28.475  11.761 -15.761  1.00  0.00     0.036 C 
BRANCH   7   8
ATOM      8  C   UNL     1      29.633  10.753 -15.818  1.00  0.00     0.004 C 
BRANCH   8   9
ATOM      9  C   UNL     1      29.832  10.064 -14.464  1.00  0.00    -0.003 C 
ATOM     10  C   UNL     1      31.125  10.522 -13.795  1.00  0.00     0.004 C 
ENDBRANCH   8   9
ENDBRANCH   7   8
ENDBRANCH   1   7
BRANCH   2  11
ATOM     11  C   UNL     1      29.247  13.720 -13.506  1.00  0.00     0.040 C 
BRANCH  11  12
ATOM     12  C   UNL     1      27.851  14.056 -12.970  1.00  0.00     0.005 C 
BRANCH  12  13
ATOM     13  C   UNL     1      27.541  13.255 -11.700  1.00  0.00    -0.003 C 
ATOM     14  C   UNL     1      28.489  12.068 -11.553  1.00  0.00     0.004 C 
ENDBRANCH  12  13
ENDBRANCH  11  12
ENDBRANCH   2  11
BRANCH   3  15
ATOM     15  O   UNL     1      30.376  16.200 -14.346  1.00  0.00    -0.508 OA
ATOM     16  H   UNL     1      31.350  16.473 -14.283  1.00  0.00     0.293 HD
ENDBRANCH   3  15
TORSDOF 7
ENDMDL
MODEL 4
REMARK VINA RESULT:    -4.687     18.089     20.513
REMARK INTER + INTRA:          -7.384
REMARK INTER:                  -6.444
REMARK INTRA:                  -0.940
REMARK UNBOUND:                -0.916
REMARK SMILES CCCCc1cccc(O)c1CCCC
REMARK SMILES IDX 5 1 11 2 9 3 8 4 7 5 6 6 4 7 3 8 2 9 1 10 12 11 13 12 14 13
REMARK SMILES IDX 15 14 10 15
REMARK H PARENT 10 16
REMARK Flexibility Score: inf
ROOT
ATOM      1  C   UNL     1      29.395  14.264 -15.044  1.00  0.00    -0.041 A 
ATOM      2  C   UNL     1      29.368  13.977 -16.442  1.00  0.00    -0.003 A 
ATOM      3  C   UNL     1      29.605  15.027 -17.361  1.00  0.00     0.119 A 
ATOM      4  C   UNL     1      29.914  16.313 -16.902  1.00  0.00     0.046 A 
ATOM      5  C   UNL     1      29.985  16.575 -15.539  1.00  0.00     0.004 A 
ATOM      6  C   UNL     1      29.725  15.565 -14.619  1.00  0.00     0.004 A 
ENDROOT
BRANCH   1   7
ATOM      7  C   UNL     1      29.047  13.250 -13.970  1.00  0.00     0.036 C 
BRANCH   7   8
ATOM      8  C   UNL     1      30.309  12.552 -13.442  1.00  0.00     0.004 C 
BRANCH   8   9
ATOM      9  C   UNL     1      29.971  11.192 -12.824  1.00  0.00    -0.003 C 
ATOM     10  C   UNL     1      29.451  10.220 -13.878  1.00  0.00     0.004 C 
ENDBRANCH   8   9
ENDBRANCH   7   8
ENDBRANCH   1   7
BRANCH   2  11
ATOM     11  C   UNL     1      29.080  12.588 -16.983  1.00  0.00     0.040 C 
BRANCH  11  12
ATOM     12  C   UNL     1      30.365  11.762 -17.110  1.00  0.00     0.005 C 
BRANCH  12  13
ATOM     13  C   UNL     1      30.620  11.361 -18.568  1.00  0.00    -0.003 C 
ATOM     14  C   UNL     1      30.753   9.847 -18.707  1.00  0.00     0.004 C 
ENDBRANCH  12  13
ENDBRANCH  11  12
ENDBRANCH   2  11
BRANCH   3  15
ATOM     15  O   UNL     1      29.531  14.792 -18.735  1.00  0.00    -0.508 OA
ATOM     16  H   UNL     1      29.002  14.015 -19.115  1.00  0.00     0.293 HD
ENDBRANCH   3  15
TORSDOF 7
ENDMDL
MODEL 5
REMARK VINA RESULT:    -4.519     17.789     18.953
REMARK INTER + INTRA:          -7.152
REMARK INTER:                  -6.219
REMARK INTRA:                  -0.933
REMARK UNBOUND:                -0.916
REMARK SMILES CCCCc1cccc(O)c1CCCC
REMARK SMILES IDX 5 1 11 2 9 3 8 4 7 5 6 6 4 7 3 8 2 9 1 10 12 11 13 12 14 13
REMARK SMILES IDX 15 14 10 15
REMARK H PARENT 10 16
REMARK Flexibility Score: inf
ROOT
ATOM      1  C   UNL     1      28.025  12.181 -11.468  1.00  0.00    -0.041 A 
ATOM      2  C   UNL     1      28.707  13.080 -12.344  1.00  0.00    -0.003 A 
ATOM      3  C   UNL     1      28.117  14.332 -12.635  1.00  0.00     0.119 A 
ATOM      4  C   UNL     1      26.910  14.704 -12.029  1.00  0.00     0.046 A 
ATOM      5  C   UNL     1      26.275  13.844 -11.141  1.00  0.00     0.004 A 
ATOM      6  C   UNL     1      26.823  12.595 -10.865  1.00  0.00     0.004 A 
ENDROOT
BRANCH   1   7
ATOM      7  C   UNL     1      28.503  10.772 -11.172  1.00  0.00     0.036 C 
BRANCH   7   8
ATOM      8  C   UNL     1      29.329  10.732  -9.877  1.00  0.00     0.004 C 
BRANCH   8   9
ATOM      9  C   UNL     1      30.381   9.619  -9.928  1.00  0.00    -0.003 C 
ATOM     10  C   UNL     1      30.390   8.929 -11.288  1.00  0.00     0.004 C 
ENDBRANCH   8   9
ENDBRANCH   7   8
ENDBRANCH   1   7
BRANCH   2  11
ATOM     11  C   UNL     1      30.039  12.736 -12.988  1.00  0.00     0.040 C 
BRANCH  11  12
ATOM     12  C   UNL     1      29.853  11.793 -14.183  1.00  0.00     0.005 C 
BRANCH  12  13
ATOM     13  C   UNL     1      29.891  12.567 -15.506  1.00  0.00    -0.003 C 
ATOM     14  C   UNL     1      28.517  12.586 -16.171  1.00  0.00     0.004 C 
ENDBRANCH  12  13
ENDBRANCH  11  12
ENDBRANCH   2  11
BRANCH   3  15
ATOM     15  O   UNL     1      28.729  15.210 -13.530  1.00  0.00    -0.508 OA
ATOM     16  H   UNL     1      28.371  16.145 -13.690  1.00  0.00     0.293 HD
ENDBRANCH   3  15
TORSDOF 7
ENDMDL
MODEL 6
REMARK VINA RESULT:    -4.484     17.799     19.829
REMARK INTER + INTRA:          -7.105
REMARK INTER:                  -5.845
REMARK INTRA:                  -1.260
REMARK UNBOUND:                -0.916
REMARK SMILES CCCCc1cccc(O)c1CCCC
REMARK SMILES IDX 5 1 11 2 9 3 8 4 7 5 6 6 4 7 3 8 2 9 1 10 12 11 13 12 14 13
REMARK SMILES IDX 15 14 10 15
REMARK H PARENT 10 16
REMARK Flexibility Score: inf
ROOT
ATOM      1  C   UNL     1      30.446  10.945 -15.880  1.00  0.00    -0.041 A 
ATOM      2  C   UNL     1      30.644  11.374 -17.227  1.00  0.00    -0.003 A 
ATOM      3  C   UNL     1      30.543  10.423 -18.270  1.00  0.00     0.119 A 
ATOM      4  C   UNL     1      30.200   9.096 -17.987  1.00  0.00     0.046 A 
ATOM      5  C   UNL     1      29.962   8.695 -16.677  1.00  0.00     0.004 A 
ATOM      6  C   UNL     1      30.086   9.607 -15.634  1.00  0.00     0.004 A 
ENDROOT
BRANCH   1   7
ATOM      7  C   UNL     1      30.638  11.846 -14.674  1.00  0.00     0.036 C 
BRANCH   7   8
ATOM      8  C   UNL     1      29.366  11.893 -13.813  1.00  0.00     0.004 C 
BRANCH   8   9
ATOM      9  C   UNL     1      28.427  13.012 -14.277  1.00  0.00    -0.003 C 
ATOM     10  C   UNL     1      28.447  14.188 -13.305  1.00  0.00     0.004 C 
ENDBRANCH   8   9
ENDBRANCH   7   8
ENDBRANCH   1   7
BRANCH   2  11
ATOM     11  C   UNL     1      30.975  12.813 -17.583  1.00  0.00     0.040 C 
BRANCH  11  12
ATOM     12  C   UNL     1      29.718  13.588 -17.996  1.00  0.00     0.005 C 
BRANCH  12  13
ATOM     13  C   UNL     1      29.557  14.862 -17.158  1.00  0.00    -0.003 C 
ATOM     14  C   UNL     1      30.875  15.255 -16.496  1.00  0.00     0.004 C 
ENDBRANCH  12  13
ENDBRANCH  11  12
ENDBRANCH   2  11
BRANCH   3  15
ATOM     15  O   UNL     1      30.786  10.798 -19.592  1.00  0.00    -0.508 OA
ATOM     16  H   UNL     1      31.284  11.651 -19.822  1.00  0.00     0.293 HD
ENDBRANCH   3  15
TORSDOF 7
ENDMDL
MODEL 7
REMARK VINA RESULT:    -4.475     18.147     20.617
REMARK INTER + INTRA:          -7.092
REMARK INTER:                  -6.365
REMARK INTRA:                  -0.727
REMARK UNBOUND:                -0.916
REMARK SMILES CCCCc1cccc(O)c1CCCC
REMARK SMILES IDX 5 1 11 2 9 3 8 4 7 5 6 6 4 7 3 8 2 9 1 10 12 11 13 12 14 13
REMARK SMILES IDX 15 14 10 15
REMARK H PARENT 10 16
REMARK Flexibility Score: inf
ROOT
ATOM      1  C   UNL     1      29.152  13.405 -15.173  1.00  0.00    -0.041 A 
ATOM      2  C   UNL     1      29.558  13.802 -16.482  1.00  0.00    -0.003 A 
ATOM      3  C   UNL     1      29.832  12.803 -17.447  1.00  0.00     0.119 A 
ATOM      4  C   UNL     1      29.654  11.450 -17.134  1.00  0.00     0.046 A 
ATOM      5  C   UNL     1      29.213  11.072 -15.871  1.00  0.00     0.004 A 
ATOM      6  C   UNL     1      28.968  12.037 -14.899  1.00  0.00     0.004 A 
ENDROOT
BRANCH   1   7
ATOM      7  C   UNL     1      28.939  14.378 -14.027  1.00  0.00     0.036 C 
BRANCH   7   8
ATOM      8  C   UNL     1      28.358  13.662 -12.798  1.00  0.00     0.004 C 
BRANCH   8   9
ATOM      9  C   UNL     1      27.003  14.257 -12.403  1.00  0.00    -0.003 C 
ATOM     10  C   UNL     1      26.344  13.442 -11.294  1.00  0.00     0.004 C 
ENDBRANCH   8   9
ENDBRANCH   7   8
ENDBRANCH   1   7
BRANCH   2  11
ATOM     11  C   UNL     1      29.721  15.259 -16.878  1.00  0.00     0.040 C 
BRANCH  11  12
ATOM     12  C   UNL     1      31.125  15.774 -16.542  1.00  0.00     0.005 C 
BRANCH  12  13
ATOM     13  C   UNL     1      31.063  17.173 -15.916  1.00  0.00    -0.003 C 
ATOM     14  C   UNL     1      29.925  17.994 -16.516  1.00  0.00     0.004 C 
ENDBRANCH  12  13
ENDBRANCH  11  12
ENDBRANCH   2  11
BRANCH   3  15
ATOM     15  O   UNL     1      30.285  13.155 -18.719  1.00  0.00    -0.508 OA
ATOM     16  H   UNL     1      31.143  13.677 -18.854  1.00  0.00     0.293 HD
ENDBRANCH   3  15
TORSDOF 7
ENDMDL
MODEL 8
REMARK VINA RESULT:    -4.446      1.907      4.308
REMARK INTER + INTRA:          -7.052
REMARK INTER:                  -5.935
REMARK INTRA:                  -1.117
REMARK UNBOUND:                -0.916
REMARK SMILES CCCCc1cccc(O)c1CCCC
REMARK SMILES IDX 5 1 11 2 9 3 8 4 7 5 6 6 4 7 3 8 2 9 1 10 12 11 13 12 14 13
REMARK SMILES IDX 15 14 10 15
REMARK H PARENT 10 16
REMARK Flexibility Score: inf
ROOT
ATOM      1  C   UNL     1      16.316   0.195 -13.813  1.00  0.00    -0.041 A 
ATOM      2  C   UNL     1      15.398  -0.244 -14.814  1.00  0.00    -0.003 A 
ATOM      3  C   UNL     1      14.109  -0.677 -14.420  1.00  0.00     0.119 A 
ATOM      4  C   UNL     1      13.726  -0.623 -13.074  1.00  0.00     0.046 A 
ATOM      5  C   UNL     1      14.609  -0.150 -12.110  1.00  0.00     0.004 A 
ATOM      6  C   UNL     1      15.891   0.251 -12.473  1.00  0.00     0.004 A 
ENDROOT
BRANCH   1   7
ATOM      7  C   UNL     1      17.757   0.573 -14.102  1.00  0.00     0.036 C 
BRANCH   7   8
ATOM      8  C   UNL     1      18.711  -0.573 -13.736  1.00  0.00     0.004 C 
BRANCH   8   9
ATOM      9  C   UNL     1      19.358  -1.174 -14.989  1.00  0.00    -0.003 C 
ATOM     10  C   UNL     1      19.508  -0.128 -16.089  1.00  0.00     0.004 C 
ENDBRANCH   8   9
ENDBRANCH   7   8
ENDBRANCH   1   7
BRANCH   2  11
ATOM     11  C   UNL     1      15.756  -0.278 -16.290  1.00  0.00     0.040 C 
BRANCH  11  12
ATOM     12  C   UNL     1      15.471   1.069 -16.964  1.00  0.00     0.005 C 
BRANCH  12  13
ATOM     13  C   UNL     1      16.683   1.547 -17.772  1.00  0.00    -0.003 C 
ATOM     14  C   UNL     1      16.623   3.053 -18.015  1.00  0.00     0.004 C 
ENDBRANCH  12  13
ENDBRANCH  11  12
ENDBRANCH   2  11
BRANCH   3  15
ATOM     15  O   UNL     1      13.208  -1.164 -15.366  1.00  0.00    -0.508 OA
ATOM     16  H   UNL     1      12.224  -1.284 -15.154  1.00  0.00     0.293 HD
ENDBRANCH   3  15
TORSDOF 7
ENDMDL
MODEL 9
REMARK VINA RESULT:    -4.441     17.931     19.500
REMARK INTER + INTRA:          -7.045
REMARK INTER:                  -5.994
REMARK INTRA:                  -1.051
REMARK UNBOUND:                -0.916
REMARK SMILES CCCCc1cccc(O)c1CCCC
REMARK SMILES IDX 5 1 11 2 9 3 8 4 7 5 6 6 4 7 3 8 2 9 1 10 12 11 13 12 14 13
REMARK SMILES IDX 15 14 10 15
REMARK H PARENT 10 16
REMARK Flexibility Score: inf
ROOT
ATOM      1  C   UNL     1      29.115  12.636 -16.093  1.00  0.00    -0.041 A 
ATOM      2  C   UNL     1      29.247  13.471 -14.942  1.00  0.00    -0.003 A 
ATOM      3  C   UNL     1      29.559  14.840 -15.122  1.00  0.00     0.119 A 
ATOM      4  C   UNL     1      29.682  15.374 -16.410  1.00  0.00     0.046 A 
ATOM      5  C   UNL     1      29.506  14.565 -17.527  1.00  0.00     0.004 A 
ATOM      6  C   UNL     1      29.229  13.211 -17.372  1.00  0.00     0.004 A 
ENDROOT
BRANCH   1   7
ATOM      7  C   UNL     1      28.894  11.136 -16.022  1.00  0.00     0.036 C 
BRANCH   7   8
ATOM      8  C   UNL     1      30.228  10.379 -16.110  1.00  0.00     0.004 C 
BRANCH   8   9
ATOM      9  C   UNL     1      30.234   9.408 -17.295  1.00  0.00    -0.003 C 
ATOM     10  C   UNL     1      30.750  10.085 -18.561  1.00  0.00     0.004 C 
ENDBRANCH   8   9
ENDBRANCH   7   8
ENDBRANCH   1   7
BRANCH   2  11
ATOM     11  C   UNL     1      29.079  12.943 -13.528  1.00  0.00     0.040 C 
BRANCH  11  12
ATOM     12  C   UNL     1      30.400  12.396 -12.977  1.00  0.00     0.005 C 
BRANCH  12  13
ATOM     13  C   UNL     1      30.150  11.341 -11.893  1.00  0.00    -0.003 C 
ATOM     14  C   UNL     1      29.278  10.205 -12.422  1.00  0.00     0.004 C 
ENDBRANCH  12  13
ENDBRANCH  11  12
ENDBRANCH   2  11
BRANCH   3  15
ATOM     15  O   UNL     1      29.750  15.671 -14.018  1.00  0.00    -0.508 OA
ATOM     16  H   UNL     1      29.331  15.467 -13.117  1.00  0.00     0.293 HD
ENDBRANCH   3  15
TORSDOF 7
ENDMDL
