MODEL 1
REMARK VINA RESULT:    -3.090      0.000      0.000
REMARK INTER + INTRA:          -3.728
REMARK INTER:                  -3.632
REMARK INTRA:                  -0.096
REMARK UNBOUND:                -0.096
REMARK SMILES O=C([O-])CCC(=O)[O-]
REMARK SMILES IDX 4 1 2 2 1 3 3 4 5 5 6 6 7 7 8 8
REMARK H PARENT
REMARK Flexibility Score: inf
ROOT
ATOM      1  C   UNL     1       1.989   0.121 -23.364  1.00  0.00     0.059 C 
ENDROOT
BRANCH   1   2
ATOM      2  C   UNL     1       3.152   0.310 -24.291  1.00  0.00     0.042 C 
ATOM      3  O   UNL     1       3.451  -0.584 -25.124  1.00  0.00    -0.550 OA
ATOM      4  O   UNL     1       3.879   1.493 -24.259  1.00  0.00    -0.550 OA
ENDBRANCH   1   2
BRANCH   1   5
ATOM      5  C   UNL     1       2.437  -0.413 -22.000  1.00  0.00     0.059 C 
BRANCH   5   6
ATOM      6  C   UNL     1       1.996  -1.829 -21.790  1.00  0.00     0.042 C 
ATOM      7  O   UNL     1       0.876  -2.075 -21.270  1.00  0.00    -0.550 OA
ATOM      8  O   UNL     1       2.807  -2.879 -22.205  1.00  0.00    -0.550 OA
ENDBRANCH   5   6
ENDBRANCH   1   5
TORSDOF 3
ENDMDL
MODEL 2
REMARK VINA RESULT:    -3.063      0.079      3.941
REMARK INTER + INTRA:          -3.696
REMARK INTER:                  -3.588
REMARK INTRA:                  -0.108
REMARK UNBOUND:                -0.096
REMARK SMILES O=C([O-])CCC(=O)[O-]
REMARK SMILES IDX 4 1 2 2 1 3 3 4 5 5 6 6 7 7 8 8
REMARK H PARENT
REMARK Flexibility Score: inf
ROOT
ATOM      1  C   UNL     1       2.380  -0.377 -22.056  1.00  0.00     0.059 C 
ENDROOT
BRANCH   1   2
ATOM      2  C   UNL     1       1.991  -1.811 -21.853  1.00  0.00     0.042 C 
ATOM      3  O   UNL     1       0.875  -2.100 -21.349  1.00  0.00    -0.550 OA
ATOM      4  O   UNL     1       2.848  -2.826 -22.258  1.00  0.00    -0.550 OA
ENDBRANCH   1   2
BRANCH   1   5
ATOM      5  C   UNL     1       1.974   0.125 -23.446  1.00  0.00     0.059 C 
BRANCH   5   6
ATOM      6  C   UNL     1       3.163   0.286 -24.343  1.00  0.00     0.042 C 
ATOM      7  O   UNL     1       3.499  -0.642 -25.125  1.00  0.00    -0.550 OA
ATOM      8  O   UNL     1       3.877   1.478 -24.343  1.00  0.00    -0.550 OA
ENDBRANCH   5   6
ENDBRANCH   1   5
TORSDOF 3
ENDMDL
MODEL 3
REMARK VINA RESULT:    -3.035      2.609      3.937
REMARK INTER + INTRA:          -3.664
REMARK INTER:                  -3.631
REMARK INTRA:                  -0.033
REMARK UNBOUND:                -0.096
REMARK SMILES O=C([O-])CCC(=O)[O-]
REMARK SMILES IDX 4 1 2 2 1 3 3 4 5 5 6 6 7 7 8 8
REMARK H PARENT
REMARK Flexibility Score: inf
ROOT
ATOM      1  C   UNL     1       2.819  -3.125 -22.560  1.00  0.00     0.059 C 
ENDROOT
BRANCH   1   2
ATOM      2  C   UNL     1       2.074  -1.915 -22.083  1.00  0.00     0.042 C 
ATOM      3  O   UNL     1       1.109  -2.038 -21.283  1.00  0.00    -0.550 OA
ATOM      4  O   UNL     1       2.472  -0.648 -22.492  1.00  0.00    -0.550 OA
ENDBRANCH   1   2
BRANCH   1   5
ATOM      5  C   UNL     1       3.750  -3.676 -21.475  1.00  0.00     0.059 C 
BRANCH   5   6
ATOM      6  C   UNL     1       4.412  -4.948 -21.912  1.00  0.00     0.042 C 
ATOM      7  O   UNL     1       4.368  -5.306 -23.118  1.00  0.00    -0.550 OA
ATOM      8  O   UNL     1       5.114  -5.717 -20.991  1.00  0.00    -0.550 OA
ENDBRANCH   5   6
ENDBRANCH   1   5
TORSDOF 3
ENDMDL
MODEL 4
REMARK VINA RESULT:    -3.014      2.629      4.499
REMARK INTER + INTRA:          -3.639
REMARK INTER:                  -3.604
REMARK INTRA:                  -0.034
REMARK UNBOUND:                -0.096
REMARK SMILES O=C([O-])CCC(=O)[O-]
REMARK SMILES IDX 4 1 2 2 1 3 3 4 5 5 6 6 7 7 8 8
REMARK H PARENT
REMARK Flexibility Score: inf
ROOT
ATOM      1  C   UNL     1       3.593  -3.791 -21.451  1.00  0.00     0.059 C 
ENDROOT
BRANCH   1   2
ATOM      2  C   UNL     1       4.381  -4.986 -21.896  1.00  0.00     0.042 C 
ATOM      3  O   UNL     1       4.399  -5.318 -23.109  1.00  0.00    -0.550 OA
ATOM      4  O   UNL     1       5.128  -5.708 -20.973  1.00  0.00    -0.550 OA
ENDBRANCH   1   2
BRANCH   1   5
ATOM      5  C   UNL     1       2.934  -3.078 -22.636  1.00  0.00     0.059 C 
BRANCH   5   6
ATOM      6  C   UNL     1       2.139  -1.888 -22.192  1.00  0.00     0.042 C 
ATOM      7  O   UNL     1       1.203  -2.023 -21.361  1.00  0.00    -0.550 OA
ATOM      8  O   UNL     1       2.460  -0.622 -22.666  1.00  0.00    -0.550 OA
ENDBRANCH   5   6
ENDBRANCH   1   5
TORSDOF 3
ENDMDL
MODEL 5
REMARK VINA RESULT:    -2.963      6.848      7.502
REMARK INTER + INTRA:          -3.579
REMARK INTER:                  -3.541
REMARK INTRA:                  -0.038
REMARK UNBOUND:                -0.096
REMARK SMILES O=C([O-])CCC(=O)[O-]
REMARK SMILES IDX 4 1 2 2 1 3 3 4 5 5 6 6 7 7 8 8
REMARK H PARENT
REMARK Flexibility Score: inf
ROOT
ATOM      1  C   UNL     1      -3.512   3.381 -22.473  1.00  0.00     0.059 C 
ENDROOT
BRANCH   1   2
ATOM      2  C   UNL     1      -2.070   3.224 -22.850  1.00  0.00     0.042 C 
ATOM      3  O   UNL     1      -1.534   2.084 -22.850  1.00  0.00    -0.550 OA
ATOM      4  O   UNL     1      -1.330   4.333 -23.241  1.00  0.00    -0.550 OA
ENDBRANCH   1   2
BRANCH   1   5
ATOM      5  C   UNL     1      -3.938   2.340 -21.432  1.00  0.00     0.059 C 
BRANCH   5   6
ATOM      6  C   UNL     1      -4.931   2.905 -20.462  1.00  0.00     0.042 C 
ATOM      7  O   UNL     1      -5.639   3.894 -20.782  1.00  0.00    -0.550 OA
ATOM      8  O   UNL     1      -5.101   2.310 -19.218  1.00  0.00    -0.550 OA
ENDBRANCH   5   6
ENDBRANCH   1   5
TORSDOF 3
ENDMDL
MODEL 6
REMARK VINA RESULT:    -2.933      6.885      8.265
REMARK INTER + INTRA:          -3.544
REMARK INTER:                  -3.508
REMARK INTRA:                  -0.036
REMARK UNBOUND:                -0.096
REMARK SMILES O=C([O-])CCC(=O)[O-]
REMARK SMILES IDX 4 1 2 2 1 3 3 4 5 5 6 6 7 7 8 8
REMARK H PARENT
REMARK Flexibility Score: inf
ROOT
ATOM      1  C   UNL     1      -3.902   2.413 -21.520  1.00  0.00     0.059 C 
ENDROOT
BRANCH   1   2
ATOM      2  C   UNL     1      -4.961   2.964 -20.614  1.00  0.00     0.042 C 
ATOM      3  O   UNL     1      -5.087   2.522 -19.442  1.00  0.00    -0.550 OA
ATOM      4  O   UNL     1      -5.784   3.994 -21.053  1.00  0.00    -0.550 OA
ENDBRANCH   1   2
BRANCH   1   5
ATOM      5  C   UNL     1      -3.473   3.439 -22.573  1.00  0.00     0.059 C 
BRANCH   5   6
ATOM      6  C   UNL     1      -2.011   3.332 -22.884  1.00  0.00     0.042 C 
ATOM      7  O   UNL     1      -1.425   2.220 -22.808  1.00  0.00    -0.550 OA
ATOM      8  O   UNL     1      -1.304   4.455 -23.298  1.00  0.00    -0.550 OA
ENDBRANCH   5   6
ENDBRANCH   1   5
TORSDOF 3
ENDMDL
MODEL 7
REMARK VINA RESULT:    -2.787      8.722      9.711
REMARK INTER + INTRA:          -3.372
REMARK INTER:                  -3.260
REMARK INTRA:                  -0.112
REMARK UNBOUND:                -0.096
REMARK SMILES O=C([O-])CCC(=O)[O-]
REMARK SMILES IDX 4 1 2 2 1 3 3 4 5 5 6 6 7 7 8 8
REMARK H PARENT
REMARK Flexibility Score: inf
ROOT
ATOM      1  C   UNL     1      -5.754   3.640 -22.611  1.00  0.00     0.059 C 
ENDROOT
BRANCH   1   2
ATOM      2  C   UNL     1      -7.136   3.171 -22.954  1.00  0.00     0.042 C 
ATOM      3  O   UNL     1      -7.423   1.947 -22.897  1.00  0.00    -0.550 OA
ATOM      4  O   UNL     1      -8.116   4.094 -23.299  1.00  0.00    -0.550 OA
ENDBRANCH   1   2
BRANCH   1   5
ATOM      5  C   UNL     1      -5.555   3.745 -21.096  1.00  0.00     0.059 C 
BRANCH   5   6
ATOM      6  C   UNL     1      -4.831   2.552 -20.551  1.00  0.00     0.042 C 
ATOM      7  O   UNL     1      -4.123   1.837 -21.308  1.00  0.00    -0.550 OA
ATOM      8  O   UNL     1      -4.907   2.252 -19.196  1.00  0.00    -0.550 OA
ENDBRANCH   5   6
ENDBRANCH   1   5
TORSDOF 3
ENDMDL
MODEL 8
REMARK VINA RESULT:    -2.753      8.867     10.192
REMARK INTER + INTRA:          -3.332
REMARK INTER:                  -3.187
REMARK INTRA:                  -0.145
REMARK UNBOUND:                -0.096
REMARK SMILES O=C([O-])CCC(=O)[O-]
REMARK SMILES IDX 4 1 2 2 1 3 3 4 5 5 6 6 7 7 8 8
REMARK H PARENT
REMARK Flexibility Score: inf
ROOT
ATOM      1  C   UNL     1      -4.512   3.361 -21.745  1.00  0.00     0.059 C 
ENDROOT
BRANCH   1   2
ATOM      2  C   UNL     1      -5.166   2.447 -20.753  1.00  0.00     0.042 C 
ATOM      3  O   UNL     1      -5.104   2.698 -19.521  1.00  0.00    -0.550 OA
ATOM      4  O   UNL     1      -5.878   1.339 -21.194  1.00  0.00    -0.550 OA
ENDBRANCH   1   2
BRANCH   1   5
ATOM      5  C   UNL     1      -5.445   3.679 -22.918  1.00  0.00     0.059 C 
BRANCH   5   6
ATOM      6  C   UNL     1      -6.663   4.427 -22.467  1.00  0.00     0.042 C 
ATOM      7  O   UNL     1      -6.546   5.488 -21.800  1.00  0.00    -0.550 OA
ATOM      8  O   UNL     1      -7.927   3.971 -22.820  1.00  0.00    -0.550 OA
ENDBRANCH   5   6
ENDBRANCH   1   5
TORSDOF 3
ENDMDL
MODEL 9
REMARK VINA RESULT:    -2.706      8.766      9.883
REMARK INTER + INTRA:          -3.277
REMARK INTER:                  -3.173
REMARK INTRA:                  -0.104
REMARK UNBOUND:                -0.096
REMARK SMILES O=C([O-])CCC(=O)[O-]
REMARK SMILES IDX 4 1 2 2 1 3 3 4 5 5 6 6 7 7 8 8
REMARK H PARENT
REMARK Flexibility Score: inf
ROOT
ATOM      1  C   UNL     1      -5.087   3.779 -22.383  1.00  0.00     0.059 C 
ENDROOT
BRANCH   1   2
ATOM      2  C   UNL     1      -4.803   2.912 -21.193  1.00  0.00     0.042 C 
ATOM      3  O   UNL     1      -4.173   1.831 -21.332  1.00  0.00    -0.550 OA
ATOM      4  O   UNL     1      -5.201   3.319 -19.926  1.00  0.00    -0.550 OA
ENDBRANCH   1   2
BRANCH   1   5
ATOM      5  C   UNL     1      -6.587   4.050 -22.536  1.00  0.00     0.059 C 
BRANCH   5   6
ATOM      6  C   UNL     1      -7.234   3.062 -23.459  1.00  0.00     0.042 C 
ATOM      7  O   UNL     1      -7.374   3.331 -24.681  1.00  0.00    -0.550 OA
ATOM      8  O   UNL     1      -7.647   1.827 -22.975  1.00  0.00    -0.550 OA
ENDBRANCH   5   6
ENDBRANCH   1   5
TORSDOF 3
ENDMDL
