MODEL 1
REMARK VINA RESULT:    -7.029      0.000      0.000
REMARK INTER + INTRA:          -8.831
REMARK INTER:                  -8.672
REMARK INTRA:                  -0.158
REMARK UNBOUND:                -0.158
REMARK SMILES Oc1cc(O)c2cc(O)c(-c3cc(O)c(O)c(O)c3)[o+]c2c1
REMARK SMILES IDX 10 1 20 2 21 3 22 4 2 5 3 6 4 7 6 8 7 9 8 10 11 11 12 12
REMARK SMILES IDX 13 13 19 14 15 15 17 16 14 17 16 19 18 21 9 23 1 25 5 27
REMARK H PARENT 14 18 16 20 18 22 9 24 1 26 5 28
REMARK Flexibility Score: inf
ROOT
ATOM      1  C   UNL     1      27.465  13.258  77.956  1.00  0.00     0.402 A 
ATOM      2  O   UNL     1      27.315  12.231  77.124  1.00  0.00    -0.202 OA
ATOM      3  C   UNL     1      26.384  12.190  76.176  1.00  0.00     0.368 A 
ATOM      4  C   UNL     1      26.303  11.064  75.351  1.00  0.00     0.162 A 
ATOM      5  C   UNL     1      25.331  10.993  74.349  1.00  0.00     0.128 A 
ATOM      6  C   UNL     1      24.435  12.050  74.173  1.00  0.00     0.093 A 
ATOM      7  C   UNL     1      24.495  13.188  74.987  1.00  0.00     0.136 A 
ATOM      8  C   UNL     1      25.482  13.267  76.003  1.00  0.00     0.125 A 
ATOM      9  C   UNL     1      25.625  14.374  76.857  1.00  0.00     0.078 A 
ATOM     10  C   UNL     1      26.625  14.381  77.834  1.00  0.00     0.223 A 
ENDROOT
BRANCH   1  11
ATOM     11  C   UNL     1      28.535  13.182  78.977  1.00  0.00     0.091 A 
ATOM     12  C   UNL     1      28.255  13.347  80.344  1.00  0.00     0.068 A 
ATOM     13  C   UNL     1      29.278  13.249  81.297  1.00  0.00     0.162 A 
ATOM     14  C   UNL     1      29.847  12.884  78.580  1.00  0.00     0.068 A 
ATOM     15  C   UNL     1      30.593  12.973  80.888  1.00  0.00     0.200 A 
ATOM     16  C   UNL     1      30.875  12.786  79.524  1.00  0.00     0.162 A 
BRANCH  13  17
ATOM     17  O   UNL     1      28.989  13.421  82.651  1.00  0.00    -0.504 OA
ATOM     18  H   UNL     1      28.439  14.204  82.981  1.00  0.00     0.293 HD
ENDBRANCH  13  17
BRANCH  15  19
ATOM     19  O   UNL     1      31.625  12.877  81.824  1.00  0.00    -0.502 OA
ATOM     20  H   UNL     1      32.451  12.313  81.661  1.00  0.00     0.293 HD
ENDBRANCH  15  19
BRANCH  16  21
ATOM     21  O   UNL     1      32.168  12.502  79.087  1.00  0.00    -0.504 OA
ATOM     22  H   UNL     1      32.866  13.226  78.961  1.00  0.00     0.293 HD
ENDBRANCH  16  21
ENDBRANCH   1  11
BRANCH  10  23
ATOM     23  O   UNL     1      26.800  15.499  78.649  1.00  0.00    -0.500 OA
ATOM     24  H   UNL     1      26.031  15.900  79.174  1.00  0.00     0.294 HD
ENDBRANCH  10  23
BRANCH   5  25
ATOM     25  O   UNL     1      25.244   9.875  73.523  1.00  0.00    -0.507 OA
ATOM     26  H   UNL     1      24.730   9.901  72.649  1.00  0.00     0.293 HD
ENDBRANCH   5  25
BRANCH   7  27
ATOM     27  O   UNL     1      23.561  14.200  74.747  1.00  0.00    -0.507 OA
ATOM     28  H   UNL     1      22.560  14.083  74.824  1.00  0.00     0.293 HD
ENDBRANCH   7  27
TORSDOF 7
ENDMDL
MODEL 2
REMARK VINA RESULT:    -6.978      1.221      1.839
REMARK INTER + INTRA:          -8.769
REMARK INTER:                  -8.493
REMARK INTRA:                  -0.276
REMARK UNBOUND:                -0.158
REMARK SMILES Oc1cc(O)c2cc(O)c(-c3cc(O)c(O)c(O)c3)[o+]c2c1
REMARK SMILES IDX 10 1 20 2 21 3 22 4 2 5 3 6 4 7 6 8 7 9 8 10 11 11 12 12
REMARK SMILES IDX 13 13 19 14 15 15 17 16 14 17 16 19 18 21 9 23 1 25 5 27
REMARK H PARENT 14 18 16 20 18 22 9 24 1 26 5 28
REMARK Flexibility Score: inf
ROOT
ATOM      1  C   UNL     1      26.976  13.388  78.226  1.00  0.00     0.402 A 
ATOM      2  O   UNL     1      27.054  12.353  77.394  1.00  0.00    -0.202 OA
ATOM      3  C   UNL     1      26.333  12.256  76.282  1.00  0.00     0.368 A 
ATOM      4  C   UNL     1      26.483  11.127  75.471  1.00  0.00     0.162 A 
ATOM      5  C   UNL     1      25.734  10.997  74.298  1.00  0.00     0.128 A 
ATOM      6  C   UNL     1      24.830  11.999  73.935  1.00  0.00     0.093 A 
ATOM      7  C   UNL     1      24.661  13.138  74.731  1.00  0.00     0.136 A 
ATOM      8  C   UNL     1      25.421  13.277  75.921  1.00  0.00     0.125 A 
ATOM      9  C   UNL     1      25.327  14.391  76.772  1.00  0.00     0.078 A 
ATOM     10  C   UNL     1      26.112  14.458  77.927  1.00  0.00     0.223 A 
ENDROOT
BRANCH   1  11
ATOM     11  C   UNL     1      27.826  13.377  79.439  1.00  0.00     0.091 A 
ATOM     12  C   UNL     1      28.917  14.252  79.578  1.00  0.00     0.068 A 
ATOM     13  C   UNL     1      29.696  14.241  80.743  1.00  0.00     0.162 A 
ATOM     14  C   UNL     1      27.505  12.513  80.497  1.00  0.00     0.068 A 
ATOM     15  C   UNL     1      29.380  13.357  81.788  1.00  0.00     0.200 A 
ATOM     16  C   UNL     1      28.278  12.494  81.663  1.00  0.00     0.162 A 
BRANCH  13  17
ATOM     17  O   UNL     1      30.779  15.110  80.866  1.00  0.00    -0.504 OA
ATOM     18  H   UNL     1      30.764  16.039  80.465  1.00  0.00     0.293 HD
ENDBRANCH  13  17
BRANCH  15  19
ATOM     19  O   UNL     1      30.148  13.329  82.953  1.00  0.00    -0.502 OA
ATOM     20  H   UNL     1      30.435  14.175  83.431  1.00  0.00     0.293 HD
ENDBRANCH  15  19
BRANCH  16  21
ATOM     21  O   UNL     1      27.934  11.612  82.686  1.00  0.00    -0.504 OA
ATOM     22  H   UNL     1      28.542  11.440  83.478  1.00  0.00     0.293 HD
ENDBRANCH  16  21
ENDBRANCH   1  11
BRANCH  10  23
ATOM     23  O   UNL     1      26.056  15.586  78.747  1.00  0.00    -0.500 OA
ATOM     24  H   UNL     1      26.836  15.854  79.336  1.00  0.00     0.294 HD
ENDBRANCH  10  23
BRANCH   5  25
ATOM     25  O   UNL     1      25.878   9.875  73.485  1.00  0.00    -0.507 OA
ATOM     26  H   UNL     1      25.935   8.942  73.876  1.00  0.00     0.293 HD
ENDBRANCH   5  25
BRANCH   7  27
ATOM     27  O   UNL     1      23.735  14.092  74.299  1.00  0.00    -0.507 OA
ATOM     28  H   UNL     1      22.812  13.874  73.950  1.00  0.00     0.293 HD
ENDBRANCH   7  27
TORSDOF 7
ENDMDL
MODEL 3
REMARK VINA RESULT:    -6.545      1.679      6.971
REMARK INTER + INTRA:          -8.233
REMARK INTER:                  -8.085
REMARK INTRA:                  -0.148
REMARK UNBOUND:                -0.158
REMARK SMILES Oc1cc(O)c2cc(O)c(-c3cc(O)c(O)c(O)c3)[o+]c2c1
REMARK SMILES IDX 10 1 20 2 21 3 22 4 2 5 3 6 4 7 6 8 7 9 8 10 11 11 12 12
REMARK SMILES IDX 13 13 19 14 15 15 17 16 14 17 16 19 18 21 9 23 1 25 5 27
REMARK H PARENT 14 18 16 20 18 22 9 24 1 26 5 28
REMARK Flexibility Score: inf
ROOT
ATOM      1  C   UNL     1      27.208  13.082  78.155  1.00  0.00     0.402 A 
ATOM      2  O   UNL     1      27.144  12.295  79.226  1.00  0.00    -0.202 OA
ATOM      3  C   UNL     1      27.815  12.533  80.347  1.00  0.00     0.368 A 
ATOM      4  C   UNL     1      27.684  11.646  81.420  1.00  0.00     0.162 A 
ATOM      5  C   UNL     1      28.381  11.870  82.611  1.00  0.00     0.128 A 
ATOM      6  C   UNL     1      29.214  12.986  82.728  1.00  0.00     0.093 A 
ATOM      7  C   UNL     1      29.362  13.889  81.669  1.00  0.00     0.136 A 
ATOM      8  C   UNL     1      28.655  13.668  80.460  1.00  0.00     0.125 A 
ATOM      9  C   UNL     1      28.732  14.527  79.350  1.00  0.00     0.078 A 
ATOM     10  C   UNL     1      28.001  14.244  78.193  1.00  0.00     0.223 A 
ENDROOT
BRANCH   1  11
ATOM     11  C   UNL     1      26.420  12.704  76.960  1.00  0.00     0.091 A 
ATOM     12  C   UNL     1      25.455  13.569  76.415  1.00  0.00     0.068 A 
ATOM     13  C   UNL     1      24.735  13.202  75.270  1.00  0.00     0.162 A 
ATOM     14  C   UNL     1      26.677  11.480  76.322  1.00  0.00     0.068 A 
ATOM     15  C   UNL     1      24.984  11.965  74.652  1.00  0.00     0.200 A 
ATOM     16  C   UNL     1      25.962  11.105  75.180  1.00  0.00     0.162 A 
BRANCH  13  17
ATOM     17  O   UNL     1      23.776  14.066  74.742  1.00  0.00    -0.504 OA
ATOM     18  H   UNL     1      24.004  15.017  74.480  1.00  0.00     0.293 HD
ENDBRANCH  13  17
BRANCH  15  19
ATOM     19  O   UNL     1      24.272  11.582  73.514  1.00  0.00    -0.502 OA
ATOM     20  H   UNL     1      24.594  11.797  72.578  1.00  0.00     0.293 HD
ENDBRANCH  15  19
BRANCH  16  21
ATOM     21  O   UNL     1      26.239   9.875  74.585  1.00  0.00    -0.504 OA
ATOM     22  H   UNL     1      26.744   9.802  73.710  1.00  0.00     0.293 HD
ENDBRANCH  16  21
ENDBRANCH   1  11
BRANCH  10  23
ATOM     23  O   UNL     1      28.039  15.122  77.109  1.00  0.00    -0.500 OA
ATOM     24  H   UNL     1      27.641  16.053  77.165  1.00  0.00     0.294 HD
ENDBRANCH  10  23
BRANCH   5  25
ATOM     25  O   UNL     1      28.256  10.991  83.683  1.00  0.00    -0.507 OA
ATOM     26  H   UNL     1      27.514  11.092  84.367  1.00  0.00     0.293 HD
ENDBRANCH   5  25
BRANCH   7  27
ATOM     27  O   UNL     1      30.216  14.978  81.867  1.00  0.00    -0.507 OA
ATOM     28  H   UNL     1      30.381  15.706  81.186  1.00  0.00     0.293 HD
ENDBRANCH   7  27
TORSDOF 7
ENDMDL
MODEL 4
REMARK VINA RESULT:    -6.508      2.115      3.863
REMARK INTER + INTRA:          -8.188
REMARK INTER:                  -8.327
REMARK INTRA:                   0.139
REMARK UNBOUND:                -0.158
REMARK SMILES Oc1cc(O)c2cc(O)c(-c3cc(O)c(O)c(O)c3)[o+]c2c1
REMARK SMILES IDX 10 1 20 2 21 3 22 4 2 5 3 6 4 7 6 8 7 9 8 10 11 11 12 12
REMARK SMILES IDX 13 13 19 14 15 15 17 16 14 17 16 19 18 21 9 23 1 25 5 27
REMARK H PARENT 14 18 16 20 18 22 9 24 1 26 5 28
REMARK Flexibility Score: inf
ROOT
ATOM      1  C   UNL     1      26.686  13.674  78.137  1.00  0.00     0.402 A 
ATOM      2  O   UNL     1      25.855  13.997  77.149  1.00  0.00    -0.202 OA
ATOM      3  C   UNL     1      25.617  13.207  76.108  1.00  0.00     0.368 A 
ATOM      4  C   UNL     1      24.728  13.635  75.118  1.00  0.00     0.162 A 
ATOM      5  C   UNL     1      24.462  12.825  74.010  1.00  0.00     0.128 A 
ATOM      6  C   UNL     1      25.088  11.582  73.891  1.00  0.00     0.093 A 
ATOM      7  C   UNL     1      25.983  11.130  74.869  1.00  0.00     0.136 A 
ATOM      8  C   UNL     1      26.254  11.947  75.997  1.00  0.00     0.125 A 
ATOM      9  C   UNL     1      27.126  11.570  77.032  1.00  0.00     0.078 A 
ATOM     10  C   UNL     1      27.340  12.428  78.115  1.00  0.00     0.223 A 
ENDROOT
BRANCH   1  11
ATOM     11  C   UNL     1      26.875  14.645  79.238  1.00  0.00     0.091 A 
ATOM     12  C   UNL     1      28.102  14.754  79.915  1.00  0.00     0.068 A 
ATOM     13  C   UNL     1      28.269  15.695  80.941  1.00  0.00     0.162 A 
ATOM     14  C   UNL     1      25.828  15.513  79.580  1.00  0.00     0.068 A 
ATOM     15  C   UNL     1      27.207  16.545  81.291  1.00  0.00     0.200 A 
ATOM     16  C   UNL     1      25.984  16.454  80.603  1.00  0.00     0.162 A 
BRANCH  13  17
ATOM     17  O   UNL     1      29.489  15.789  81.609  1.00  0.00    -0.504 OA
ATOM     18  H   UNL     1      29.626  16.437  82.375  1.00  0.00     0.293 HD
ENDBRANCH  13  17
BRANCH  15  19
ATOM     19  O   UNL     1      27.353  17.484  82.313  1.00  0.00    -0.502 OA
ATOM     20  H   UNL     1      27.957  18.292  82.221  1.00  0.00     0.293 HD
ENDBRANCH  15  19
BRANCH  16  21
ATOM     21  O   UNL     1      24.915  17.290  80.921  1.00  0.00    -0.504 OA
ATOM     22  H   UNL     1      24.721  17.579  81.872  1.00  0.00     0.293 HD
ENDBRANCH  16  21
ENDBRANCH   1  11
BRANCH  10  23
ATOM     23  O   UNL     1      28.167  12.034  79.167  1.00  0.00    -0.500 OA
ATOM     24  H   UNL     1      29.154  12.266  79.184  1.00  0.00     0.294 HD
ENDBRANCH  10  23
BRANCH   5  25
ATOM     25  O   UNL     1      23.577  13.245  73.020  1.00  0.00    -0.507 OA
ATOM     26  H   UNL     1      23.750  14.084  72.477  1.00  0.00     0.293 HD
ENDBRANCH   5  25
BRANCH   7  27
ATOM     27  O   UNL     1      26.569   9.877  74.674  1.00  0.00    -0.507 OA
ATOM     28  H   UNL     1      27.373   9.537  75.183  1.00  0.00     0.293 HD
ENDBRANCH   7  27
TORSDOF 7
ENDMDL
MODEL 5
REMARK VINA RESULT:    -6.468      1.718      7.080
REMARK INTER + INTRA:          -8.139
REMARK INTER:                  -7.986
REMARK INTRA:                  -0.153
REMARK UNBOUND:                -0.158
REMARK SMILES Oc1cc(O)c2cc(O)c(-c3cc(O)c(O)c(O)c3)[o+]c2c1
REMARK SMILES IDX 10 1 20 2 21 3 22 4 2 5 3 6 4 7 6 8 7 9 8 10 11 11 12 12
REMARK SMILES IDX 13 13 19 14 15 15 17 16 14 17 16 19 18 21 9 23 1 25 5 27
REMARK H PARENT 14 18 16 20 18 22 9 24 1 26 5 28
REMARK Flexibility Score: inf
ROOT
ATOM      1  C   UNL     1      27.225  13.075  78.136  1.00  0.00     0.402 A 
ATOM      2  O   UNL     1      27.124  12.287  79.204  1.00  0.00    -0.202 OA
ATOM      3  C   UNL     1      27.744  12.535  80.353  1.00  0.00     0.368 A 
ATOM      4  C   UNL     1      27.579  11.646  81.419  1.00  0.00     0.162 A 
ATOM      5  C   UNL     1      28.223  11.880  82.638  1.00  0.00     0.128 A 
ATOM      6  C   UNL     1      29.035  13.007  82.791  1.00  0.00     0.093 A 
ATOM      7  C   UNL     1      29.217  13.911  81.737  1.00  0.00     0.136 A 
ATOM      8  C   UNL     1      28.564  13.680  80.499  1.00  0.00     0.125 A 
ATOM      9  C   UNL     1      28.677  14.540  79.394  1.00  0.00     0.078 A 
ATOM     10  C   UNL     1      28.000  14.247  78.206  1.00  0.00     0.223 A 
ENDROOT
BRANCH   1  11
ATOM     11  C   UNL     1      26.493  12.686  76.909  1.00  0.00     0.091 A 
ATOM     12  C   UNL     1      26.731  11.455  76.273  1.00  0.00     0.068 A 
ATOM     13  C   UNL     1      26.012  11.096  75.125  1.00  0.00     0.162 A 
ATOM     14  C   UNL     1      25.502  13.538  76.397  1.00  0.00     0.068 A 
ATOM     15  C   UNL     1      25.037  11.966  74.607  1.00  0.00     0.200 A 
ATOM     16  C   UNL     1      24.781  13.188  75.251  1.00  0.00     0.162 A 
BRANCH  13  17
ATOM     17  O   UNL     1      26.261   9.875  74.499  1.00  0.00    -0.504 OA
ATOM     18  H   UNL     1      26.782   9.139  74.959  1.00  0.00     0.293 HD
ENDBRANCH  13  17
BRANCH  15  19
ATOM     19  O   UNL     1      24.315  11.626  73.462  1.00  0.00    -0.502 OA
ATOM     20  H   UNL     1      24.057  12.313  72.763  1.00  0.00     0.293 HD
ENDBRANCH  15  19
BRANCH  16  21
ATOM     21  O   UNL     1      23.814  14.069  74.768  1.00  0.00    -0.504 OA
ATOM     22  H   UNL     1      24.051  14.987  74.410  1.00  0.00     0.293 HD
ENDBRANCH  16  21
ENDBRANCH   1  11
BRANCH  10  23
ATOM     23  O   UNL     1      28.072  15.125  77.125  1.00  0.00    -0.500 OA
ATOM     24  H   UNL     1      27.238  15.470  76.662  1.00  0.00     0.294 HD
ENDBRANCH  10  23
BRANCH   5  25
ATOM     25  O   UNL     1      28.063  11.000  83.705  1.00  0.00    -0.507 OA
ATOM     26  H   UNL     1      27.994   9.999  83.560  1.00  0.00     0.293 HD
ENDBRANCH   5  25
BRANCH   7  27
ATOM     27  O   UNL     1      30.048  15.011  81.970  1.00  0.00    -0.507 OA
ATOM     28  H   UNL     1      29.745  15.874  82.399  1.00  0.00     0.293 HD
ENDBRANCH   7  27
TORSDOF 7
ENDMDL
MODEL 6
REMARK VINA RESULT:    -6.453      2.128      3.611
REMARK INTER + INTRA:          -8.120
REMARK INTER:                  -8.356
REMARK INTRA:                   0.236
REMARK UNBOUND:                -0.158
REMARK SMILES Oc1cc(O)c2cc(O)c(-c3cc(O)c(O)c(O)c3)[o+]c2c1
REMARK SMILES IDX 10 1 20 2 21 3 22 4 2 5 3 6 4 7 6 8 7 9 8 10 11 11 12 12
REMARK SMILES IDX 13 13 19 14 15 15 17 16 14 17 16 19 18 21 9 23 1 25 5 27
REMARK H PARENT 14 18 16 20 18 22 9 24 1 26 5 28
REMARK Flexibility Score: inf
ROOT
ATOM      1  C   UNL     1      26.668  13.736  78.105  1.00  0.00     0.402 A 
ATOM      2  O   UNL     1      25.825  14.027  77.117  1.00  0.00    -0.202 OA
ATOM      3  C   UNL     1      25.596  13.213  76.091  1.00  0.00     0.368 A 
ATOM      4  C   UNL     1      24.693  13.608  75.099  1.00  0.00     0.162 A 
ATOM      5  C   UNL     1      24.436  12.773  74.007  1.00  0.00     0.128 A 
ATOM      6  C   UNL     1      25.084  11.539  73.907  1.00  0.00     0.093 A 
ATOM      7  C   UNL     1      25.993  11.122  74.888  1.00  0.00     0.136 A 
ATOM      8  C   UNL     1      26.255  11.963  75.999  1.00  0.00     0.125 A 
ATOM      9  C   UNL     1      27.140  11.621  77.035  1.00  0.00     0.078 A 
ATOM     10  C   UNL     1      27.345  12.502  78.101  1.00  0.00     0.223 A 
ENDROOT
BRANCH   1  11
ATOM     11  C   UNL     1      26.846  14.730  79.187  1.00  0.00     0.091 A 
ATOM     12  C   UNL     1      25.799  15.583  79.578  1.00  0.00     0.068 A 
ATOM     13  C   UNL     1      25.980  16.502  80.621  1.00  0.00     0.162 A 
ATOM     14  C   UNL     1      28.066  14.788  79.877  1.00  0.00     0.068 A 
ATOM     15  C   UNL     1      27.213  16.568  81.290  1.00  0.00     0.200 A 
ATOM     16  C   UNL     1      28.257  15.704  80.917  1.00  0.00     0.162 A 
BRANCH  13  17
ATOM     17  O   UNL     1      24.936  17.347  80.995  1.00  0.00    -0.504 OA
ATOM     18  H   UNL     1      24.406  17.872  80.311  1.00  0.00     0.293 HD
ENDBRANCH  13  17
BRANCH  15  19
ATOM     19  O   UNL     1      27.413  17.481  82.327  1.00  0.00    -0.502 OA
ATOM     20  H   UNL     1      27.586  17.186  83.280  1.00  0.00     0.293 HD
ENDBRANCH  15  19
BRANCH  16  21
ATOM     21  O   UNL     1      29.489  15.738  81.568  1.00  0.00    -0.504 OA
ATOM     22  H   UNL     1      29.808  16.555  82.076  1.00  0.00     0.293 HD
ENDBRANCH  16  21
ENDBRANCH   1  11
BRANCH  10  23
ATOM     23  O   UNL     1      28.185  12.143  79.155  1.00  0.00    -0.500 OA
ATOM     24  H   UNL     1      28.918  11.452  79.040  1.00  0.00     0.294 HD
ENDBRANCH  10  23
BRANCH   5  25
ATOM     25  O   UNL     1      23.538  13.159  73.015  1.00  0.00    -0.507 OA
ATOM     26  H   UNL     1      23.811  13.791  72.271  1.00  0.00     0.293 HD
ENDBRANCH   5  25
BRANCH   7  27
ATOM     27  O   UNL     1      26.601   9.876  74.711  1.00  0.00    -0.507 OA
ATOM     28  H   UNL     1      26.410   9.062  75.279  1.00  0.00     0.293 HD
ENDBRANCH   7  27
TORSDOF 7
ENDMDL
MODEL 7
REMARK VINA RESULT:    -6.257      2.010      7.227
REMARK INTER + INTRA:          -7.878
REMARK INTER:                  -8.128
REMARK INTRA:                   0.250
REMARK UNBOUND:                -0.158
REMARK SMILES Oc1cc(O)c2cc(O)c(-c3cc(O)c(O)c(O)c3)[o+]c2c1
REMARK SMILES IDX 10 1 20 2 21 3 22 4 2 5 3 6 4 7 6 8 7 9 8 10 11 11 12 12
REMARK SMILES IDX 13 13 19 14 15 15 17 16 14 17 16 19 18 21 9 23 1 25 5 27
REMARK H PARENT 14 18 16 20 18 22 9 24 1 26 5 28
REMARK Flexibility Score: inf
ROOT
ATOM      1  C   UNL     1      26.789  13.570  77.967  1.00  0.00     0.402 A 
ATOM      2  O   UNL     1      26.083  14.522  78.573  1.00  0.00    -0.202 OA
ATOM      3  C   UNL     1      26.476  15.121  79.692  1.00  0.00     0.368 A 
ATOM      4  C   UNL     1      25.663  16.109  80.255  1.00  0.00     0.162 A 
ATOM      5  C   UNL     1      26.051  16.754  81.434  1.00  0.00     0.128 A 
ATOM      6  C   UNL     1      27.255  16.408  82.051  1.00  0.00     0.093 A 
ATOM      7  C   UNL     1      28.086  15.421  81.507  1.00  0.00     0.136 A 
ATOM      8  C   UNL     1      27.700  14.766  80.310  1.00  0.00     0.125 A 
ATOM      9  C   UNL     1      28.476  13.776  79.686  1.00  0.00     0.078 A 
ATOM     10  C   UNL     1      28.030  13.177  78.504  1.00  0.00     0.223 A 
ENDROOT
BRANCH   1  11
ATOM     11  C   UNL     1      26.240  12.971  76.730  1.00  0.00     0.091 A 
ATOM     12  C   UNL     1      26.641  11.697  76.292  1.00  0.00     0.068 A 
ATOM     13  C   UNL     1      26.093  11.137  75.130  1.00  0.00     0.162 A 
ATOM     14  C   UNL     1      25.257  13.662  76.006  1.00  0.00     0.068 A 
ATOM     15  C   UNL     1      25.126  11.847  74.399  1.00  0.00     0.200 A 
ATOM     16  C   UNL     1      24.706  13.112  74.844  1.00  0.00     0.162 A 
BRANCH  13  17
ATOM     17  O   UNL     1      26.504   9.875  74.703  1.00  0.00    -0.504 OA
ATOM     18  H   UNL     1      27.438   9.530  74.886  1.00  0.00     0.293 HD
ENDBRANCH  13  17
BRANCH  15  19
ATOM     19  O   UNL     1      24.573  11.307  73.237  1.00  0.00    -0.502 OA
ATOM     20  H   UNL     1      25.137  11.079  72.427  1.00  0.00     0.293 HD
ENDBRANCH  15  19
BRANCH  16  21
ATOM     21  O   UNL     1      23.742  13.838  74.146  1.00  0.00    -0.504 OA
ATOM     22  H   UNL     1      22.772  13.867  74.439  1.00  0.00     0.293 HD
ENDBRANCH  16  21
ENDBRANCH   1  11
BRANCH  10  23
ATOM     23  O   UNL     1      28.823  12.229  77.856  1.00  0.00    -0.500 OA
ATOM     24  H   UNL     1      29.367  12.462  77.033  1.00  0.00     0.294 HD
ENDBRANCH  10  23
BRANCH   5  25
ATOM     25  O   UNL     1      25.246  17.739  82.001  1.00  0.00    -0.507 OA
ATOM     26  H   UNL     1      24.309  17.533  82.329  1.00  0.00     0.293 HD
ENDBRANCH   5  25
BRANCH   7  27
ATOM     27  O   UNL     1      29.272  15.133  82.188  1.00  0.00    -0.507 OA
ATOM     28  H   UNL     1      30.193  15.398  81.868  1.00  0.00     0.293 HD
ENDBRANCH   7  27
TORSDOF 7
ENDMDL
MODEL 8
REMARK VINA RESULT:    -6.193      1.338      7.004
REMARK INTER + INTRA:          -7.799
REMARK INTER:                  -8.177
REMARK INTRA:                   0.378
REMARK UNBOUND:                -0.158
REMARK SMILES Oc1cc(O)c2cc(O)c(-c3cc(O)c(O)c(O)c3)[o+]c2c1
REMARK SMILES IDX 10 1 20 2 21 3 22 4 2 5 3 6 4 7 6 8 7 9 8 10 11 11 12 12
REMARK SMILES IDX 13 13 19 14 15 15 17 16 14 17 16 19 18 21 9 23 1 25 5 27
REMARK H PARENT 14 18 16 20 18 22 9 24 1 26 5 28
REMARK Flexibility Score: inf
ROOT
ATOM      1  C   UNL     1      27.039  13.661  77.933  1.00  0.00     0.402 A 
ATOM      2  O   UNL     1      28.184  13.123  78.347  1.00  0.00    -0.202 OA
ATOM      3  C   UNL     1      28.879  13.591  79.378  1.00  0.00     0.368 A 
ATOM      4  C   UNL     1      30.073  12.958  79.736  1.00  0.00     0.162 A 
ATOM      5  C   UNL     1      30.827  13.432  80.814  1.00  0.00     0.128 A 
ATOM      6  C   UNL     1      30.385  14.544  81.536  1.00  0.00     0.093 A 
ATOM      7  C   UNL     1      29.193  15.195  81.196  1.00  0.00     0.136 A 
ATOM      8  C   UNL     1      28.423  14.717  80.105  1.00  0.00     0.125 A 
ATOM      9  C   UNL     1      27.209  15.299  79.702  1.00  0.00     0.078 A 
ATOM     10  C   UNL     1      26.504  14.768  78.618  1.00  0.00     0.223 A 
ENDROOT
BRANCH   1  11
ATOM     11  C   UNL     1      26.362  13.054  76.765  1.00  0.00     0.091 A 
ATOM     12  C   UNL     1      26.653  11.743  76.349  1.00  0.00     0.068 A 
ATOM     13  C   UNL     1      25.985  11.178  75.255  1.00  0.00     0.162 A 
ATOM     14  C   UNL     1      25.370  13.780  76.089  1.00  0.00     0.068 A 
ATOM     15  C   UNL     1      25.008  11.921  74.570  1.00  0.00     0.200 A 
ATOM     16  C   UNL     1      24.699  13.225  74.994  1.00  0.00     0.162 A 
BRANCH  13  17
ATOM     17  O   UNL     1      26.286   9.879  74.848  1.00  0.00    -0.504 OA
ATOM     18  H   UNL     1      25.569   9.247  74.513  1.00  0.00     0.293 HD
ENDBRANCH  13  17
BRANCH  15  19
ATOM     19  O   UNL     1      24.337  11.376  73.474  1.00  0.00    -0.502 OA
ATOM     20  H   UNL     1      24.829  10.992  72.676  1.00  0.00     0.293 HD
ENDBRANCH  15  19
BRANCH  16  21
ATOM     21  O   UNL     1      23.729  13.984  74.342  1.00  0.00    -0.504 OA
ATOM     22  H   UNL     1      22.741  13.769  74.409  1.00  0.00     0.293 HD
ENDBRANCH  16  21
ENDBRANCH   1  11
BRANCH  10  23
ATOM     23  O   UNL     1      25.274  15.314  78.248  1.00  0.00    -0.500 OA
ATOM     24  H   UNL     1      24.907  15.210  77.309  1.00  0.00     0.294 HD
ENDBRANCH  10  23
BRANCH   5  25
ATOM     25  O   UNL     1      32.017  12.807  81.176  1.00  0.00    -0.507 OA
ATOM     26  H   UNL     1      32.053  12.136  81.936  1.00  0.00     0.293 HD
ENDBRANCH   5  25
BRANCH   7  27
ATOM     27  O   UNL     1      28.824  16.302  81.967  1.00  0.00    -0.507 OA
ATOM     28  H   UNL     1      29.451  17.049  82.229  1.00  0.00     0.293 HD
ENDBRANCH   7  27
TORSDOF 7
ENDMDL
MODEL 9
REMARK VINA RESULT:    -5.985      1.644      7.269
REMARK INTER + INTRA:          -7.543
REMARK INTER:                  -7.407
REMARK INTRA:                  -0.136
REMARK UNBOUND:                -0.158
REMARK SMILES Oc1cc(O)c2cc(O)c(-c3cc(O)c(O)c(O)c3)[o+]c2c1
REMARK SMILES IDX 10 1 20 2 21 3 22 4 2 5 3 6 4 7 6 8 7 9 8 10 11 11 12 12
REMARK SMILES IDX 13 13 19 14 15 15 17 16 14 17 16 19 18 21 9 23 1 25 5 27
REMARK H PARENT 14 18 16 20 18 22 9 24 1 26 5 28
REMARK Flexibility Score: inf
ROOT
ATOM      1  C   UNL     1      26.328  12.349  76.339  1.00  0.00     0.402 A 
ATOM      2  O   UNL     1      27.265  11.614  76.932  1.00  0.00    -0.202 OA
ATOM      3  C   UNL     1      28.008  12.056  77.942  1.00  0.00     0.368 A 
ATOM      4  C   UNL     1      28.970  11.209  78.500  1.00  0.00     0.162 A 
ATOM      5  C   UNL     1      29.768  11.649  79.560  1.00  0.00     0.128 A 
ATOM      6  C   UNL     1      29.603  12.941  80.065  1.00  0.00     0.093 A 
ATOM      7  C   UNL     1      28.646  13.808  79.523  1.00  0.00     0.136 A 
ATOM      8  C   UNL     1      27.832  13.366  78.449  1.00  0.00     0.125 A 
ATOM      9  C   UNL     1      26.839  14.162  77.853  1.00  0.00     0.078 A 
ATOM     10  C   UNL     1      26.073  13.655  76.799  1.00  0.00     0.223 A 
ENDROOT
BRANCH   1  11
ATOM     11  C   UNL     1      25.574  11.748  75.216  1.00  0.00     0.091 A 
ATOM     12  C   UNL     1      26.228  11.251  74.076  1.00  0.00     0.068 A 
ATOM     13  C   UNL     1      25.498  10.665  73.033  1.00  0.00     0.162 A 
ATOM     14  C   UNL     1      24.180  11.620  75.312  1.00  0.00     0.068 A 
ATOM     15  C   UNL     1      24.100  10.562  73.129  1.00  0.00     0.200 A 
ATOM     16  C   UNL     1      23.442  11.038  74.276  1.00  0.00     0.162 A 
BRANCH  13  17
ATOM     17  O   UNL     1      26.158  10.182  71.904  1.00  0.00    -0.504 OA
ATOM     18  H   UNL     1      25.771  10.289  70.975  1.00  0.00     0.293 HD
ENDBRANCH  13  17
BRANCH  15  19
ATOM     19  O   UNL     1      23.356   9.986  72.098  1.00  0.00    -0.502 OA
ATOM     20  H   UNL     1      23.350  10.367  71.159  1.00  0.00     0.293 HD
ENDBRANCH  15  19
BRANCH  16  21
ATOM     21  O   UNL     1      22.057  10.942  74.405  1.00  0.00    -0.504 OA
ATOM     22  H   UNL     1      21.510  10.281  73.866  1.00  0.00     0.293 HD
ENDBRANCH  16  21
ENDBRANCH   1  11
BRANCH  10  23
ATOM     23  O   UNL     1      25.054  14.426  76.240  1.00  0.00    -0.500 OA
ATOM     24  H   UNL     1      25.010  14.607  75.244  1.00  0.00     0.294 HD
ENDBRANCH  10  23
BRANCH   5  25
ATOM     25  O   UNL     1      30.728  10.811  80.120  1.00  0.00    -0.507 OA
ATOM     26  H   UNL     1      31.642  10.694  79.696  1.00  0.00     0.293 HD
ENDBRANCH   5  25
BRANCH   7  27
ATOM     27  O   UNL     1      28.547  15.086  80.083  1.00  0.00    -0.507 OA
ATOM     28  H   UNL     1      29.046  15.387  80.908  1.00  0.00     0.293 HD
ENDBRANCH   7  27
TORSDOF 7
ENDMDL
