MODEL 1
REMARK VINA RESULT:    -5.538      0.000      0.000
REMARK INTER + INTRA:          -6.393
REMARK INTER:                  -6.347
REMARK INTRA:                  -0.045
REMARK UNBOUND:                -0.045
REMARK SMILES O=C([O-])c1cc(O)c(O)c(O)c1
REMARK SMILES IDX 4 1 5 2 12 3 6 4 10 5 8 6 2 7 1 8 3 9 7 10 11 12 9 14
REMARK H PARENT 7 11 11 13 9 15
REMARK Flexibility Score: inf
ROOT
ATOM      1  C   UNL     1       7.037  15.953  -8.490  1.00  0.00     0.005 A 
ATOM      2  C   UNL     1       5.918  15.140  -8.244  1.00  0.00     0.060 A 
ATOM      3  C   UNL     1       7.206  17.127  -7.736  1.00  0.00     0.060 A 
ATOM      4  C   UNL     1       4.983  15.492  -7.261  1.00  0.00     0.162 A 
ATOM      5  C   UNL     1       6.274  17.483  -6.751  1.00  0.00     0.162 A 
ATOM      6  C   UNL     1       5.159  16.662  -6.513  1.00  0.00     0.200 A 
ENDROOT
BRANCH   1   7
ATOM      7  C   UNL     1       8.019  15.576  -9.531  1.00  0.00     0.072 C 
ATOM      8  O   UNL     1       9.177  15.196  -9.210  1.00  0.00    -0.545 OA
ATOM      9  O   UNL     1       7.678  15.633 -10.877  1.00  0.00    -0.545 OA
ENDBRANCH   1   7
BRANCH   4  10
ATOM     10  O   UNL     1       3.875  14.681  -7.020  1.00  0.00    -0.504 OA
ATOM     11  H   UNL     1       3.735  13.812  -7.521  1.00  0.00     0.293 HD
ENDBRANCH   4  10
BRANCH   5  12
ATOM     12  O   UNL     1       6.452  18.650  -6.009  1.00  0.00    -0.504 OA
ATOM     13  H   UNL     1       6.188  18.704  -5.032  1.00  0.00     0.293 HD
ENDBRANCH   5  12
BRANCH   6  14
ATOM     14  O   UNL     1       4.218  16.996  -5.538  1.00  0.00    -0.502 OA
ATOM     15  H   UNL     1       4.017  16.388  -4.753  1.00  0.00     0.293 HD
ENDBRANCH   6  14
TORSDOF 4
ENDMDL
MODEL 2
REMARK VINA RESULT:    -5.520      0.284      2.436
REMARK INTER + INTRA:          -6.372
REMARK INTER:                  -6.328
REMARK INTRA:                  -0.045
REMARK UNBOUND:                -0.045
REMARK SMILES O=C([O-])c1cc(O)c(O)c(O)c1
REMARK SMILES IDX 4 1 5 2 12 3 6 4 10 5 8 6 2 7 1 8 3 9 7 10 11 12 9 14
REMARK H PARENT 7 11 11 13 9 15
REMARK Flexibility Score: inf
ROOT
ATOM      1  C   UNL     1       7.165  15.731  -8.509  1.00  0.00     0.005 A 
ATOM      2  C   UNL     1       7.393  16.890  -7.749  1.00  0.00     0.060 A 
ATOM      3  C   UNL     1       5.993  14.989  -8.286  1.00  0.00     0.060 A 
ATOM      4  C   UNL     1       6.466  17.303  -6.782  1.00  0.00     0.162 A 
ATOM      5  C   UNL     1       5.062  15.398  -7.321  1.00  0.00     0.162 A 
ATOM      6  C   UNL     1       5.300  16.559  -6.567  1.00  0.00     0.200 A 
ENDROOT
BRANCH   1   7
ATOM      7  C   UNL     1       8.149  15.301  -9.527  1.00  0.00     0.072 C 
ATOM      8  O   UNL     1       9.154  14.616  -9.197  1.00  0.00    -0.545 OA
ATOM      9  O   UNL     1       7.980  15.646 -10.862  1.00  0.00    -0.545 OA
ENDBRANCH   1   7
BRANCH   4  10
ATOM     10  O   UNL     1       6.697  18.454  -6.031  1.00  0.00    -0.504 OA
ATOM     11  H   UNL     1       5.961  18.892  -5.491  1.00  0.00     0.293 HD
ENDBRANCH   4  10
BRANCH   5  12
ATOM     12  O   UNL     1       3.902  14.654  -7.109  1.00  0.00    -0.504 OA
ATOM     13  H   UNL     1       3.639  14.331  -6.184  1.00  0.00     0.293 HD
ENDBRANCH   5  12
BRANCH   6  14
ATOM     14  O   UNL     1       4.388  16.986  -5.600  1.00  0.00    -0.502 OA
ATOM     15  H   UNL     1       4.035  16.366  -4.881  1.00  0.00     0.293 HD
ENDBRANCH   6  14
TORSDOF 4
ENDMDL
MODEL 3
REMARK VINA RESULT:    -5.391      1.138      4.018
REMARK INTER + INTRA:          -6.224
REMARK INTER:                  -6.172
REMARK INTRA:                  -0.053
REMARK UNBOUND:                -0.045
REMARK SMILES O=C([O-])c1cc(O)c(O)c(O)c1
REMARK SMILES IDX 4 1 5 2 12 3 6 4 10 5 8 6 2 7 1 8 3 9 7 10 11 12 9 14
REMARK H PARENT 7 11 11 13 9 15
REMARK Flexibility Score: inf
ROOT
ATOM      1  C   UNL     1       6.143  16.633  -6.963  1.00  0.00     0.005 A 
ATOM      2  C   UNL     1       5.255  15.565  -7.173  1.00  0.00     0.060 A 
ATOM      3  C   UNL     1       7.365  16.651  -7.656  1.00  0.00     0.060 A 
ATOM      4  C   UNL     1       5.582  14.531  -8.061  1.00  0.00     0.162 A 
ATOM      5  C   UNL     1       7.697  15.619  -8.546  1.00  0.00     0.162 A 
ATOM      6  C   UNL     1       6.801  14.556  -8.749  1.00  0.00     0.200 A 
ENDROOT
BRANCH   1   7
ATOM      7  C   UNL     1       5.792  17.721  -6.024  1.00  0.00     0.072 C 
ATOM      8  O   UNL     1       4.722  17.673  -5.360  1.00  0.00    -0.545 OA
ATOM      9  O   UNL     1       6.637  18.811  -5.859  1.00  0.00    -0.545 OA
ENDBRANCH   1   7
BRANCH   4  10
ATOM     10  O   UNL     1       4.697  13.473  -8.267  1.00  0.00    -0.504 OA
ATOM     11  H   UNL     1       3.944  13.535  -8.941  1.00  0.00     0.293 HD
ENDBRANCH   4  10
BRANCH   5  12
ATOM     12  O   UNL     1       8.913  15.647  -9.228  1.00  0.00    -0.504 OA
ATOM     13  H   UNL     1       9.111  16.349  -9.932  1.00  0.00     0.293 HD
ENDBRANCH   5  12
BRANCH   6  14
ATOM     14  O   UNL     1       7.109  13.517  -9.629  1.00  0.00    -0.502 OA
ATOM     15  H   UNL     1       8.047  13.145  -9.717  1.00  0.00     0.293 HD
ENDBRANCH   6  14
TORSDOF 4
ENDMDL
MODEL 4
REMARK VINA RESULT:    -5.362      1.155      4.585
REMARK INTER + INTRA:          -6.191
REMARK INTER:                  -6.138
REMARK INTRA:                  -0.053
REMARK UNBOUND:                -0.045
REMARK SMILES O=C([O-])c1cc(O)c(O)c(O)c1
REMARK SMILES IDX 4 1 5 2 12 3 6 4 10 5 8 6 2 7 1 8 3 9 7 10 11 12 9 14
REMARK H PARENT 7 11 11 13 9 15
REMARK Flexibility Score: inf
ROOT
ATOM      1  C   UNL     1       6.092  16.559  -6.989  1.00  0.00     0.005 A 
ATOM      2  C   UNL     1       7.323  16.616  -7.664  1.00  0.00     0.060 A 
ATOM      3  C   UNL     1       5.238  15.467  -7.219  1.00  0.00     0.060 A 
ATOM      4  C   UNL     1       7.695  15.599  -8.554  1.00  0.00     0.162 A 
ATOM      5  C   UNL     1       5.606  14.447  -8.108  1.00  0.00     0.162 A 
ATOM      6  C   UNL     1       6.839  14.514  -8.777  1.00  0.00     0.200 A 
ENDROOT
BRANCH   1   7
ATOM      7  C   UNL     1       5.705  17.636  -6.052  1.00  0.00     0.072 C 
ATOM      8  O   UNL     1       4.626  17.565  -5.405  1.00  0.00    -0.545 OA
ATOM      9  O   UNL     1       6.526  18.742  -5.870  1.00  0.00    -0.545 OA
ENDBRANCH   1   7
BRANCH   4  10
ATOM     10  O   UNL     1       8.918  15.660  -9.221  1.00  0.00    -0.504 OA
ATOM     11  H   UNL     1       8.998  15.429 -10.203  1.00  0.00     0.293 HD
ENDBRANCH   4  10
BRANCH   5  12
ATOM     12  O   UNL     1       4.750  13.369  -8.329  1.00  0.00    -0.504 OA
ATOM     13  H   UNL     1       3.747  13.494  -8.413  1.00  0.00     0.293 HD
ENDBRANCH   5  12
BRANCH   6  14
ATOM     14  O   UNL     1       7.228  13.511  -9.667  1.00  0.00    -0.502 OA
ATOM     15  H   UNL     1       7.744  13.713 -10.515  1.00  0.00     0.293 HD
ENDBRANCH   6  14
TORSDOF 4
ENDMDL
MODEL 5
REMARK VINA RESULT:    -5.325      1.587      3.010
REMARK INTER + INTRA:          -6.149
REMARK INTER:                  -6.097
REMARK INTRA:                  -0.053
REMARK UNBOUND:                -0.045
REMARK SMILES O=C([O-])c1cc(O)c(O)c(O)c1
REMARK SMILES IDX 4 1 5 2 12 3 6 4 10 5 8 6 2 7 1 8 3 9 7 10 11 12 9 14
REMARK H PARENT 7 11 11 13 9 15
REMARK Flexibility Score: inf
ROOT
ATOM      1  C   UNL     1       5.504  15.512  -8.849  1.00  0.00     0.005 A 
ATOM      2  C   UNL     1       6.819  15.978  -8.679  1.00  0.00     0.060 A 
ATOM      3  C   UNL     1       4.570  15.718  -7.820  1.00  0.00     0.060 A 
ATOM      4  C   UNL     1       7.195  16.638  -7.502  1.00  0.00     0.162 A 
ATOM      5  C   UNL     1       4.940  16.378  -6.640  1.00  0.00     0.162 A 
ATOM      6  C   UNL     1       6.258  16.840  -6.481  1.00  0.00     0.200 A 
ENDROOT
BRANCH   1   7
ATOM      7  C   UNL     1       5.115  14.815 -10.095  1.00  0.00     0.072 C 
ATOM      8  O   UNL     1       5.873  14.832 -11.102  1.00  0.00    -0.545 OA
ATOM      9  O   UNL     1       3.909  14.129 -10.172  1.00  0.00    -0.545 OA
ENDBRANCH   1   7
BRANCH   4  10
ATOM     10  O   UNL     1       8.500  17.098  -7.339  1.00  0.00    -0.504 OA
ATOM     11  H   UNL     1       8.776  18.028  -7.632  1.00  0.00     0.293 HD
ENDBRANCH   4  10
BRANCH   5  12
ATOM     12  O   UNL     1       4.005  16.576  -5.626  1.00  0.00    -0.504 OA
ATOM     13  H   UNL     1       3.015  16.666  -5.826  1.00  0.00     0.293 HD
ENDBRANCH   5  12
BRANCH   6  14
ATOM     14  O   UNL     1       6.650  17.500  -5.316  1.00  0.00    -0.502 OA
ATOM     15  H   UNL     1       7.434  18.142  -5.298  1.00  0.00     0.293 HD
ENDBRANCH   6  14
TORSDOF 4
ENDMDL
MODEL 6
REMARK VINA RESULT:    -5.319      1.670      2.598
REMARK INTER + INTRA:          -6.142
REMARK INTER:                  -6.096
REMARK INTRA:                  -0.045
REMARK UNBOUND:                -0.045
REMARK SMILES O=C([O-])c1cc(O)c(O)c(O)c1
REMARK SMILES IDX 4 1 5 2 12 3 6 4 10 5 8 6 2 7 1 8 3 9 7 10 11 12 9 14
REMARK H PARENT 7 11 11 13 9 15
REMARK Flexibility Score: inf
ROOT
ATOM      1  C   UNL     1       5.480  15.397  -8.777  1.00  0.00     0.005 A 
ATOM      2  C   UNL     1       4.577  15.668  -7.735  1.00  0.00     0.060 A 
ATOM      3  C   UNL     1       6.802  15.861  -8.672  1.00  0.00     0.060 A 
ATOM      4  C   UNL     1       4.988  16.389  -6.605  1.00  0.00     0.162 A 
ATOM      5  C   UNL     1       7.218  16.582  -7.544  1.00  0.00     0.162 A 
ATOM      6  C   UNL     1       6.308  16.847  -6.507  1.00  0.00     0.200 A 
ENDROOT
BRANCH   1   7
ATOM      7  C   UNL     1       5.038  14.636  -9.967  1.00  0.00     0.072 C 
ATOM      8  O   UNL     1       4.905  15.210 -11.080  1.00  0.00    -0.545 OA
ATOM      9  O   UNL     1       4.765  13.277  -9.873  1.00  0.00    -0.545 OA
ENDBRANCH   1   7
BRANCH   4  10
ATOM     10  O   UNL     1       4.089  16.655  -5.574  1.00  0.00    -0.504 OA
ATOM     11  H   UNL     1       4.251  16.325  -4.630  1.00  0.00     0.293 HD
ENDBRANCH   4  10
BRANCH   5  12
ATOM     12  O   UNL     1       8.533  17.037  -7.450  1.00  0.00    -0.504 OA
ATOM     13  H   UNL     1       8.908  17.403  -6.582  1.00  0.00     0.293 HD
ENDBRANCH   5  12
BRANCH   6  14
ATOM     14  O   UNL     1       6.698  17.563  -5.375  1.00  0.00    -0.502 OA
ATOM     15  H   UNL     1       7.199  17.129  -4.609  1.00  0.00     0.293 HD
ENDBRANCH   6  14
TORSDOF 4
ENDMDL
MODEL 7
REMARK VINA RESULT:    -5.228     12.500     14.173
REMARK INTER + INTRA:          -6.038
REMARK INTER:                  -5.990
REMARK INTRA:                  -0.047
REMARK UNBOUND:                -0.045
REMARK SMILES O=C([O-])c1cc(O)c(O)c(O)c1
REMARK SMILES IDX 4 1 5 2 12 3 6 4 10 5 8 6 2 7 1 8 3 9 7 10 11 12 9 14
REMARK H PARENT 7 11 11 13 9 15
REMARK Flexibility Score: inf
ROOT
ATOM      1  C   UNL     1      18.433  18.823 -12.186  1.00  0.00     0.005 A 
ATOM      2  C   UNL     1      19.039  18.587 -10.940  1.00  0.00     0.060 A 
ATOM      3  C   UNL     1      18.685  17.935 -13.246  1.00  0.00     0.060 A 
ATOM      4  C   UNL     1      19.881  17.483 -10.755  1.00  0.00     0.162 A 
ATOM      5  C   UNL     1      19.527  16.828 -13.065  1.00  0.00     0.162 A 
ATOM      6  C   UNL     1      20.127  16.602 -11.815  1.00  0.00     0.200 A 
ENDROOT
BRANCH   1   7
ATOM      7  C   UNL     1      17.546  19.992 -12.375  1.00  0.00     0.072 C 
ATOM      8  O   UNL     1      16.578  20.193 -11.594  1.00  0.00    -0.545 OA
ATOM      9  O   UNL     1      17.767  20.885 -13.415  1.00  0.00    -0.545 OA
ENDBRANCH   1   7
BRANCH   4  10
ATOM     10  O   UNL     1      20.479  17.254  -9.517  1.00  0.00    -0.504 OA
ATOM     11  H   UNL     1      20.077  16.612  -8.844  1.00  0.00     0.293 HD
ENDBRANCH   4  10
BRANCH   5  12
ATOM     12  O   UNL     1      19.769  15.954 -14.124  1.00  0.00    -0.504 OA
ATOM     13  H   UNL     1      19.811  16.279 -15.083  1.00  0.00     0.293 HD
ENDBRANCH   5  12
BRANCH   6  14
ATOM     14  O   UNL     1      20.968  15.508 -11.611  1.00  0.00    -0.502 OA
ATOM     15  H   UNL     1      20.903  14.924 -10.786  1.00  0.00     0.293 HD
ENDBRANCH   6  14
TORSDOF 4
ENDMDL
MODEL 8
REMARK VINA RESULT:    -5.194     12.519     14.089
REMARK INTER + INTRA:          -5.998
REMARK INTER:                  -5.951
REMARK INTRA:                  -0.047
REMARK UNBOUND:                -0.045
REMARK SMILES O=C([O-])c1cc(O)c(O)c(O)c1
REMARK SMILES IDX 4 1 5 2 12 3 6 4 10 5 8 6 2 7 1 8 3 9 7 10 11 12 9 14
REMARK H PARENT 7 11 11 13 9 15
REMARK Flexibility Score: inf
ROOT
ATOM      1  C   UNL     1      18.459  18.854 -12.162  1.00  0.00     0.005 A 
ATOM      2  C   UNL     1      18.701  17.945 -13.206  1.00  0.00     0.060 A 
ATOM      3  C   UNL     1      19.081  18.646 -10.919  1.00  0.00     0.060 A 
ATOM      4  C   UNL     1      19.550  16.847 -13.012  1.00  0.00     0.162 A 
ATOM      5  C   UNL     1      19.932  17.550 -10.721  1.00  0.00     0.162 A 
ATOM      6  C   UNL     1      20.167  16.648 -11.771  1.00  0.00     0.200 A 
ENDROOT
BRANCH   1   7
ATOM      7  C   UNL     1      17.560  20.010 -12.373  1.00  0.00     0.072 C 
ATOM      8  O   UNL     1      16.593  20.220 -11.593  1.00  0.00    -0.545 OA
ATOM      9  O   UNL     1      17.769  20.882 -13.434  1.00  0.00    -0.545 OA
ENDBRANCH   1   7
BRANCH   4  10
ATOM     10  O   UNL     1      19.787  15.949 -14.051  1.00  0.00    -0.504 OA
ATOM     11  H   UNL     1      20.389  15.143 -13.929  1.00  0.00     0.293 HD
ENDBRANCH   4  10
BRANCH   5  12
ATOM     12  O   UNL     1      20.544  17.354  -9.483  1.00  0.00    -0.504 OA
ATOM     13  H   UNL     1      20.484  16.468  -8.995  1.00  0.00     0.293 HD
ENDBRANCH   5  12
BRANCH   6  14
ATOM     14  O   UNL     1      21.010  15.549 -11.598  1.00  0.00    -0.502 OA
ATOM     15  H   UNL     1      20.733  14.611 -11.859  1.00  0.00     0.293 HD
ENDBRANCH   6  14
TORSDOF 4
ENDMDL
MODEL 9
REMARK VINA RESULT:    -5.073     10.272     11.921
REMARK INTER + INTRA:          -5.860
REMARK INTER:                  -5.814
REMARK INTRA:                  -0.046
REMARK UNBOUND:                -0.045
REMARK SMILES O=C([O-])c1cc(O)c(O)c(O)c1
REMARK SMILES IDX 4 1 5 2 12 3 6 4 10 5 8 6 2 7 1 8 3 9 7 10 11 12 9 14
REMARK H PARENT 7 11 11 13 9 15
REMARK Flexibility Score: inf
ROOT
ATOM      1  C   UNL     1      16.056  21.100 -12.454  1.00  0.00     0.005 A 
ATOM      2  C   UNL     1      14.772  21.030 -11.888  1.00  0.00     0.060 A 
ATOM      3  C   UNL     1      16.411  22.236 -13.201  1.00  0.00     0.060 A 
ATOM      4  C   UNL     1      13.858  22.077 -12.065  1.00  0.00     0.162 A 
ATOM      5  C   UNL     1      15.500  23.286 -13.380  1.00  0.00     0.162 A 
ATOM      6  C   UNL     1      14.219  23.206 -12.810  1.00  0.00     0.200 A 
ENDROOT
BRANCH   1   7
ATOM      7  C   UNL     1      17.016  19.990 -12.264  1.00  0.00     0.072 C 
ATOM      8  O   UNL     1      17.491  19.742 -11.124  1.00  0.00    -0.545 OA
ATOM      9  O   UNL     1      17.408  19.204 -13.341  1.00  0.00    -0.545 OA
ENDBRANCH   1   7
BRANCH   4  10
ATOM     10  O   UNL     1      12.585  22.002 -11.501  1.00  0.00    -0.504 OA
ATOM     11  H   UNL     1      12.105  21.117 -11.389  1.00  0.00     0.293 HD
ENDBRANCH   4  10
BRANCH   5  12
ATOM     12  O   UNL     1      15.864  24.408 -14.124  1.00  0.00    -0.504 OA
ATOM     13  H   UNL     1      15.685  25.349 -13.789  1.00  0.00     0.293 HD
ENDBRANCH   5  12
BRANCH   6  14
ATOM     14  O   UNL     1      13.295  24.238 -12.974  1.00  0.00    -0.502 OA
ATOM     15  H   UNL     1      12.736  24.333 -13.813  1.00  0.00     0.293 HD
ENDBRANCH   6  14
TORSDOF 4
ENDMDL
