MODEL 1
REMARK VINA RESULT:    -0.324      0.000      0.000
REMARK INTER + INTRA:          -1.519
REMARK INTER:                  -0.703
REMARK INTRA:                  -0.817
REMARK UNBOUND:                -0.817
REMARK SMILES CCCCCCCCCCCCCCCCCCCCCC(=O)[O-]
REMARK SMILES IDX 12 1 11 2 10 3 9 4 8 5 7 6 6 7 5 8 4 9 3 10 2 11 1 12 13 13
REMARK SMILES IDX 14 14 15 15 16 16 17 17 18 18 19 19 20 20 21 21 22 22 23 23
REMARK SMILES IDX 24 24
REMARK H PARENT
REMARK Flexibility Score: inf
ROOT
ATOM      1  C   UNL     1      -2.872 -22.072  16.416  1.00  0.00     0.000 C 
ENDROOT
BRANCH   1   2
ATOM      2  C   UNL     1      -1.793 -23.093  16.015  1.00  0.00     0.000 C 
BRANCH   2   3
ATOM      3  C   UNL     1      -0.361 -22.600  16.319  1.00  0.00     0.000 C 
BRANCH   3   4
ATOM      4  C   UNL     1       0.683 -23.014  15.264  1.00  0.00    -0.000 C 
BRANCH   4   5
ATOM      5  C   UNL     1       2.134 -23.107  15.775  1.00  0.00    -0.000 C 
BRANCH   5   6
ATOM      6  C   UNL     1       3.217 -23.091  14.679  1.00  0.00    -0.000 C 
BRANCH   6   7
ATOM      7  C   UNL     1       4.637 -22.934  15.241  1.00  0.00    -0.000 C 
BRANCH   7   8
ATOM      8  C   UNL     1       4.602 -22.360  16.665  1.00  0.00    -0.000 C 
BRANCH   8   9
ATOM      9  C   UNL     1       6.007 -22.102  17.235  1.00  0.00    -0.000 C 
BRANCH   9  10
ATOM     10  C   UNL     1       7.123 -22.477  16.245  1.00  0.00    -0.000 C 
BRANCH  10  11
ATOM     11  C   UNL     1       8.262 -21.446  16.223  1.00  0.00    -0.003 C 
ATOM     12  C   UNL     1       8.426 -20.776  14.859  1.00  0.00     0.004 C 
ENDBRANCH  10  11
ENDBRANCH   9  10
ENDBRANCH   8   9
ENDBRANCH   7   8
ENDBRANCH   6   7
ENDBRANCH   5   6
ENDBRANCH   4   5
ENDBRANCH   3   4
ENDBRANCH   2   3
ENDBRANCH   1   2
BRANCH   1  13
ATOM     13  C   UNL     1      -4.232 -22.362  15.758  1.00  0.00     0.000 C 
BRANCH  13  14
ATOM     14  C   UNL     1      -5.342 -21.416  16.248  1.00  0.00     0.000 C 
BRANCH  14  15
ATOM     15  C   UNL     1      -6.750 -21.944  15.936  1.00  0.00     0.000 C 
BRANCH  15  16
ATOM     16  C   UNL     1      -7.166 -23.106  16.858  1.00  0.00     0.000 C 
BRANCH  16  17
ATOM     17  C   UNL     1      -8.630 -22.987  17.322  1.00  0.00     0.000 C 
BRANCH  17  18
ATOM     18  C   UNL     1      -8.781 -22.651  18.817  1.00  0.00     0.000 C 
BRANCH  18  19
ATOM     19  C   UNL     1     -10.218 -22.879  19.322  1.00  0.00     0.000 C 
BRANCH  19  20
ATOM     20  C   UNL     1     -10.424 -22.396  20.770  1.00  0.00     0.006 C 
BRANCH  20  21
ATOM     21  C   UNL     1      -9.324 -22.837  21.749  1.00  0.00     0.053 C 
BRANCH  21  22
ATOM     22  C   UNL     1      -8.928 -21.736  22.684  1.00  0.00     0.041 C 
ATOM     23  O   UNL     1      -8.272 -21.995  23.726  1.00  0.00    -0.550 OA
ATOM     24  O   UNL     1      -9.306 -20.426  22.415  1.00  0.00    -0.550 OA
ENDBRANCH  21  22
ENDBRANCH  20  21
ENDBRANCH  19  20
ENDBRANCH  18  19
ENDBRANCH  17  18
ENDBRANCH  16  17
ENDBRANCH  15  16
ENDBRANCH  14  15
ENDBRANCH  13  14
ENDBRANCH   1  13
TORSDOF 20
ENDMDL
MODEL 2
REMARK VINA RESULT:    -0.056      1.186      2.155
REMARK INTER + INTRA:          -0.939
REMARK INTER:                  -0.276
REMARK INTRA:                  -0.663
REMARK UNBOUND:                -0.817
REMARK SMILES CCCCCCCCCCCCCCCCCCCCCC(=O)[O-]
REMARK SMILES IDX 12 1 11 2 10 3 9 4 8 5 7 6 6 7 5 8 4 9 3 10 2 11 1 12 13 13
REMARK SMILES IDX 14 14 15 15 16 16 17 17 18 18 19 19 20 20 21 21 22 22 23 23
REMARK SMILES IDX 24 24
REMARK H PARENT
REMARK Flexibility Score: inf
ROOT
ATOM      1  C   UNL     1      -1.072 -22.549  16.531  1.00  0.00     0.000 C 
ENDROOT
BRANCH   1   2
ATOM      2  C   UNL     1       0.017 -22.822  15.479  1.00  0.00     0.000 C 
BRANCH   2   3
ATOM      3  C   UNL     1       1.396 -23.120  16.107  1.00  0.00     0.000 C 
BRANCH   3   4
ATOM      4  C   UNL     1       2.581 -22.930  15.142  1.00  0.00    -0.000 C 
BRANCH   4   5
ATOM      5  C   UNL     1       3.977 -23.125  15.766  1.00  0.00    -0.000 C 
BRANCH   5   6
ATOM      6  C   UNL     1       4.440 -21.992  16.702  1.00  0.00    -0.000 C 
BRANCH   6   7
ATOM      7  C   UNL     1       5.815 -22.259  17.333  1.00  0.00    -0.000 C 
BRANCH   7   8
ATOM      8  C   UNL     1       6.878 -22.493  16.249  1.00  0.00    -0.000 C 
BRANCH   8   9
ATOM      9  C   UNL     1       8.256 -21.936  16.641  1.00  0.00    -0.000 C 
BRANCH   9  10
ATOM     10  C   UNL     1       9.027 -21.367  15.437  1.00  0.00    -0.000 C 
BRANCH  10  11
ATOM     11  C   UNL     1       8.198 -21.389  14.143  1.00  0.00    -0.003 C 
ATOM     12  C   UNL     1       9.008 -20.970  12.916  1.00  0.00     0.004 C 
ENDBRANCH  10  11
ENDBRANCH   9  10
ENDBRANCH   8   9
ENDBRANCH   7   8
ENDBRANCH   6   7
ENDBRANCH   5   6
ENDBRANCH   4   5
ENDBRANCH   3   4
ENDBRANCH   2   3
ENDBRANCH   1   2
BRANCH   1  13
ATOM     13  C   UNL     1      -2.448 -23.091  16.111  1.00  0.00     0.000 C 
BRANCH  13  14
ATOM     14  C   UNL     1      -3.454 -23.122  17.275  1.00  0.00     0.000 C 
BRANCH  14  15
ATOM     15  C   UNL     1      -4.744 -22.349  16.963  1.00  0.00     0.000 C 
BRANCH  15  16
ATOM     16  C   UNL     1      -5.688 -23.125  16.025  1.00  0.00     0.000 C 
BRANCH  16  17
ATOM     17  C   UNL     1      -7.170 -22.934  16.400  1.00  0.00     0.000 C 
BRANCH  17  18
ATOM     18  C   UNL     1      -7.392 -21.978  17.587  1.00  0.00     0.000 C 
BRANCH  18  19
ATOM     19  C   UNL     1      -8.422 -22.526  18.591  1.00  0.00     0.000 C 
BRANCH  19  20
ATOM     20  C   UNL     1      -9.648 -21.608  18.747  1.00  0.00     0.006 C 
BRANCH  20  21
ATOM     21  C   UNL     1      -9.565 -20.635  19.934  1.00  0.00     0.053 C 
BRANCH  21  22
ATOM     22  C   UNL     1      -9.691 -21.339  21.251  1.00  0.00     0.041 C 
ATOM     23  O   UNL     1     -10.075 -22.536  21.295  1.00  0.00    -0.550 OA
ATOM     24  O   UNL     1      -9.407 -20.662  22.431  1.00  0.00    -0.550 OA
ENDBRANCH  21  22
ENDBRANCH  20  21
ENDBRANCH  19  20
ENDBRANCH  18  19
ENDBRANCH  17  18
ENDBRANCH  16  17
ENDBRANCH  15  16
ENDBRANCH  14  15
ENDBRANCH  13  14
ENDBRANCH   1  13
TORSDOF 20
ENDMDL
MODEL 3
REMARK VINA RESULT:     0.656      5.143     13.355
REMARK INTER + INTRA:           0.607
REMARK INTER:                   1.378
REMARK INTRA:                  -0.771
REMARK UNBOUND:                -0.817
REMARK SMILES CCCCCCCCCCCCCCCCCCCCCC(=O)[O-]
REMARK SMILES IDX 12 1 11 2 10 3 9 4 8 5 7 6 6 7 5 8 4 9 3 10 2 11 1 12 13 13
REMARK SMILES IDX 14 14 15 15 16 16 17 17 18 18 19 19 20 20 21 21 22 22 23 23
REMARK SMILES IDX 24 24
REMARK H PARENT
REMARK Flexibility Score: inf
ROOT
ATOM      1  C   UNL     1      -4.149 -22.481  17.621  1.00  0.00     0.000 C 
ENDROOT
BRANCH   1   2
ATOM      2  C   UNL     1      -5.239 -23.125  16.747  1.00  0.00     0.000 C 
BRANCH   2   3
ATOM      3  C   UNL     1      -6.431 -22.179  16.483  1.00  0.00     0.000 C 
BRANCH   3   4
ATOM      4  C   UNL     1      -7.765 -22.667  17.081  1.00  0.00    -0.000 C 
BRANCH   4   5
ATOM      5  C   UNL     1      -8.620 -21.579  17.760  1.00  0.00    -0.000 C 
BRANCH   5   6
ATOM      6  C   UNL     1     -10.098 -21.950  17.982  1.00  0.00    -0.000 C 
BRANCH   6   7
ATOM      7  C   UNL     1     -10.753 -21.155  19.121  1.00  0.00    -0.000 C 
BRANCH   7   8
ATOM      8  C   UNL     1     -10.158 -21.555  20.479  1.00  0.00    -0.000 C 
BRANCH   8   9
ATOM      9  C   UNL     1      -9.870 -20.343  21.380  1.00  0.00    -0.000 C 
BRANCH   9  10
ATOM     10  C   UNL     1     -10.289 -20.580  22.841  1.00  0.00    -0.000 C 
BRANCH  10  11
ATOM     11  C   UNL     1      -9.823 -21.944  23.374  1.00  0.00    -0.003 C 
ATOM     12  C   UNL     1      -8.307 -22.020  23.556  1.00  0.00     0.004 C 
ENDBRANCH  10  11
ENDBRANCH   9  10
ENDBRANCH   8   9
ENDBRANCH   7   8
ENDBRANCH   6   7
ENDBRANCH   5   6
ENDBRANCH   4   5
ENDBRANCH   3   4
ENDBRANCH   2   3
ENDBRANCH   1   2
BRANCH   1  13
ATOM     13  C   UNL     1      -2.876 -22.146  16.826  1.00  0.00     0.000 C 
BRANCH  13  14
ATOM     14  C   UNL     1      -2.645 -23.105  15.645  1.00  0.00     0.000 C 
BRANCH  14  15
ATOM     15  C   UNL     1      -1.276 -22.905  14.979  1.00  0.00     0.000 C 
BRANCH  15  16
ATOM     16  C   UNL     1      -0.138 -22.733  16.002  1.00  0.00     0.000 C 
BRANCH  16  17
ATOM     17  C   UNL     1       1.235 -23.123  15.420  1.00  0.00     0.000 C 
BRANCH  17  18
ATOM     18  C   UNL     1       2.416 -22.820  16.360  1.00  0.00     0.000 C 
BRANCH  18  19
ATOM     19  C   UNL     1       3.775 -22.961  15.651  1.00  0.00     0.000 C 
BRANCH  19  20
ATOM     20  C   UNL     1       4.887 -22.136  16.324  1.00  0.00     0.006 C 
BRANCH  20  21
ATOM     21  C   UNL     1       6.300 -22.418  15.786  1.00  0.00     0.053 C 
BRANCH  21  22
ATOM     22  C   UNL     1       7.320 -22.469  16.882  1.00  0.00     0.041 C 
ATOM     23  O   UNL     1       6.961 -22.402  18.086  1.00  0.00    -0.550 OA
ATOM     24  O   UNL     1       8.671 -22.565  16.570  1.00  0.00    -0.550 OA
ENDBRANCH  21  22
ENDBRANCH  20  21
ENDBRANCH  19  20
ENDBRANCH  18  19
ENDBRANCH  17  18
ENDBRANCH  16  17
ENDBRANCH  15  16
ENDBRANCH  14  15
ENDBRANCH  13  14
ENDBRANCH   1  13
TORSDOF 20
ENDMDL
MODEL 4
REMARK VINA RESULT:     0.980      5.208     12.991
REMARK INTER + INTRA:           1.308
REMARK INTER:                   2.002
REMARK INTRA:                  -0.693
REMARK UNBOUND:                -0.817
REMARK SMILES CCCCCCCCCCCCCCCCCCCCCC(=O)[O-]
REMARK SMILES IDX 12 1 11 2 10 3 9 4 8 5 7 6 6 7 5 8 4 9 3 10 2 11 1 12 13 13
REMARK SMILES IDX 14 14 15 15 16 16 17 17 18 18 19 19 20 20 21 21 22 22 23 23
REMARK SMILES IDX 24 24
REMARK H PARENT
REMARK Flexibility Score: inf
ROOT
ATOM      1  C   UNL     1      -7.006 -20.488  15.520  1.00  0.00     0.000 C 
ENDROOT
BRANCH   1   2
ATOM      2  C   UNL     1      -8.320 -21.208  15.169  1.00  0.00     0.000 C 
BRANCH   2   3
ATOM      3  C   UNL     1      -9.518 -20.242  15.052  1.00  0.00     0.000 C 
BRANCH   3   4
ATOM      4  C   UNL     1     -10.447 -20.238  16.282  1.00  0.00    -0.000 C 
BRANCH   4   5
ATOM      5  C   UNL     1     -11.073 -21.600  16.638  1.00  0.00    -0.000 C 
BRANCH   5   6
ATOM      6  C   UNL     1     -10.167 -22.548  17.446  1.00  0.00    -0.000 C 
BRANCH   6   7
ATOM      7  C   UNL     1     -10.622 -22.717  18.903  1.00  0.00    -0.000 C 
BRANCH   7   8
ATOM      8  C   UNL     1      -9.805 -21.815  19.840  1.00  0.00    -0.000 C 
BRANCH   8   9
ATOM      9  C   UNL     1     -10.447 -20.432  20.041  1.00  0.00    -0.000 C 
BRANCH   9  10
ATOM     10  C   UNL     1     -10.698 -20.108  21.524  1.00  0.00    -0.000 C 
BRANCH  10  11
ATOM     11  C   UNL     1     -10.311 -21.267  22.454  1.00  0.00    -0.003 C 
ATOM     12  C   UNL     1      -8.941 -21.071  23.104  1.00  0.00     0.004 C 
ENDBRANCH  10  11
ENDBRANCH   9  10
ENDBRANCH   8   9
ENDBRANCH   7   8
ENDBRANCH   6   7
ENDBRANCH   5   6
ENDBRANCH   4   5
ENDBRANCH   3   4
ENDBRANCH   2   3
ENDBRANCH   1   2
BRANCH   1  13
ATOM     13  C   UNL     1      -5.767 -21.359  15.253  1.00  0.00     0.000 C 
BRANCH  13  14
ATOM     14  C   UNL     1      -5.191 -21.981  16.537  1.00  0.00     0.000 C 
BRANCH  14  15
ATOM     15  C   UNL     1      -3.930 -22.819  16.275  1.00  0.00     0.000 C 
BRANCH  15  16
ATOM     16  C   UNL     1      -2.776 -21.986  15.688  1.00  0.00     0.000 C 
BRANCH  16  17
ATOM     17  C   UNL     1      -1.534 -22.845  15.381  1.00  0.00     0.000 C 
BRANCH  17  18
ATOM     18  C   UNL     1      -0.204 -22.175  15.775  1.00  0.00     0.000 C 
BRANCH  18  19
ATOM     19  C   UNL     1       1.004 -23.099  15.540  1.00  0.00     0.000 C 
BRANCH  19  20
ATOM     20  C   UNL     1       2.084 -22.455  14.652  1.00  0.00     0.006 C 
BRANCH  20  21
ATOM     21  C   UNL     1       3.517 -22.919  14.958  1.00  0.00     0.053 C 
BRANCH  21  22
ATOM     22  C   UNL     1       4.370 -22.963  13.727  1.00  0.00     0.041 C 
ATOM     23  O   UNL     1       5.625 -22.934  13.824  1.00  0.00    -0.550 OA
ATOM     24  O   UNL     1       3.777 -23.011  12.471  1.00  0.00    -0.550 OA
ENDBRANCH  21  22
ENDBRANCH  20  21
ENDBRANCH  19  20
ENDBRANCH  18  19
ENDBRANCH  17  18
ENDBRANCH  16  17
ENDBRANCH  15  16
ENDBRANCH  14  15
ENDBRANCH  13  14
ENDBRANCH   1  13
TORSDOF 20
ENDMDL
MODEL 5
REMARK VINA RESULT:     1.622      5.816      9.184
REMARK INTER + INTRA:           2.702
REMARK INTER:                   2.195
REMARK INTRA:                   0.507
REMARK UNBOUND:                -0.817
REMARK SMILES CCCCCCCCCCCCCCCCCCCCCC(=O)[O-]
REMARK SMILES IDX 12 1 11 2 10 3 9 4 8 5 7 6 6 7 5 8 4 9 3 10 2 11 1 12 13 13
REMARK SMILES IDX 14 14 15 15 16 16 17 17 18 18 19 19 20 20 21 21 22 22 23 23
REMARK SMILES IDX 24 24
REMARK H PARENT
REMARK Flexibility Score: inf
ROOT
ATOM      1  C   UNL     1      -5.835 -22.416  17.911  1.00  0.00     0.000 C 
ENDROOT
BRANCH   1   2
ATOM      2  C   UNL     1      -5.076 -23.049  16.731  1.00  0.00     0.000 C 
BRANCH   2   3
ATOM      3  C   UNL     1      -3.835 -22.233  16.311  1.00  0.00     0.000 C 
BRANCH   3   4
ATOM      4  C   UNL     1      -4.150 -21.034  15.396  1.00  0.00    -0.000 C 
BRANCH   4   5
ATOM      5  C   UNL     1      -5.641 -20.657  15.293  1.00  0.00    -0.000 C 
BRANCH   5   6
ATOM      6  C   UNL     1      -6.443 -21.440  14.237  1.00  0.00    -0.000 C 
BRANCH   6   7
ATOM      7  C   UNL     1      -7.952 -21.460  14.522  1.00  0.00    -0.000 C 
BRANCH   7   8
ATOM      8  C   UNL     1      -8.658 -20.294  13.814  1.00  0.00    -0.000 C 
BRANCH   8   9
ATOM      9  C   UNL     1     -10.144 -20.184  14.193  1.00  0.00    -0.000 C 
BRANCH   9  10
ATOM     10  C   UNL     1     -10.707 -21.497  14.764  1.00  0.00    -0.000 C 
BRANCH  10  11
ATOM     11  C   UNL     1     -10.914 -21.437  16.285  1.00  0.00    -0.003 C 
ATOM     12  C   UNL     1     -11.075 -20.008  16.803  1.00  0.00     0.004 C 
ENDBRANCH  10  11
ENDBRANCH   9  10
ENDBRANCH   8   9
ENDBRANCH   7   8
ENDBRANCH   6   7
ENDBRANCH   5   6
ENDBRANCH   4   5
ENDBRANCH   3   4
ENDBRANCH   2   3
ENDBRANCH   1   2
BRANCH   1  13
ATOM     13  C   UNL     1      -7.175 -21.794  17.486  1.00  0.00     0.000 C 
BRANCH  13  14
ATOM     14  C   UNL     1      -8.333 -22.807  17.512  1.00  0.00     0.000 C 
BRANCH  14  15
ATOM     15  C   UNL     1      -8.957 -22.957  18.908  1.00  0.00     0.000 C 
BRANCH  15  16
ATOM     16  C   UNL     1      -8.535 -21.832  19.870  1.00  0.00     0.000 C 
BRANCH  16  17
ATOM     17  C   UNL     1      -9.628 -20.757  20.028  1.00  0.00     0.000 C 
BRANCH  17  18
ATOM     18  C   UNL     1     -10.475 -20.916  21.304  1.00  0.00     0.000 C 
BRANCH  18  19
ATOM     19  C   UNL     1     -11.110 -22.313  21.411  1.00  0.00     0.000 C 
BRANCH  19  20
ATOM     20  C   UNL     1     -10.650 -23.083  22.662  1.00  0.00     0.006 C 
BRANCH  20  21
ATOM     21  C   UNL     1      -9.841 -22.242  23.663  1.00  0.00     0.053 C 
BRANCH  21  22
ATOM     22  C   UNL     1      -8.412 -22.084  23.241  1.00  0.00     0.041 C 
ATOM     23  O   UNL     1      -7.804 -21.004  23.455  1.00  0.00    -0.550 OA
ATOM     24  O   UNL     1      -7.761 -23.125  22.590  1.00  0.00    -0.550 OA
ENDBRANCH  21  22
ENDBRANCH  20  21
ENDBRANCH  19  20
ENDBRANCH  18  19
ENDBRANCH  17  18
ENDBRANCH  16  17
ENDBRANCH  15  16
ENDBRANCH  14  15
ENDBRANCH  13  14
ENDBRANCH   1  13
TORSDOF 20
ENDMDL
MODEL 6
REMARK VINA RESULT:     2.615      4.444     12.088
REMARK INTER + INTRA:           4.857
REMARK INTER:                   6.461
REMARK INTRA:                  -1.604
REMARK UNBOUND:                -0.817
REMARK SMILES CCCCCCCCCCCCCCCCCCCCCC(=O)[O-]
REMARK SMILES IDX 12 1 11 2 10 3 9 4 8 5 7 6 6 7 5 8 4 9 3 10 2 11 1 12 13 13
REMARK SMILES IDX 14 14 15 15 16 16 17 17 18 18 19 19 20 20 21 21 22 22 23 23
REMARK SMILES IDX 24 24
REMARK H PARENT
REMARK Flexibility Score: inf
ROOT
ATOM      1  C   UNL     1      -8.056 -21.007  16.834  1.00  0.00     0.000 C 
ENDROOT
BRANCH   1   2
ATOM      2  C   UNL     1      -8.988 -22.158  17.252  1.00  0.00     0.000 C 
BRANCH   2   3
ATOM      3  C   UNL     1     -10.238 -21.668  18.015  1.00  0.00     0.000 C 
BRANCH   3   4
ATOM      4  C   UNL     1      -9.922 -20.931  19.331  1.00  0.00    -0.000 C 
BRANCH   4   5
ATOM      5  C   UNL     1     -10.915 -21.183  20.482  1.00  0.00    -0.000 C 
BRANCH   5   6
ATOM      6  C   UNL     1     -11.110 -22.662  20.868  1.00  0.00    -0.000 C 
BRANCH   6   7
ATOM      7  C   UNL     1     -10.958 -22.915  22.375  1.00  0.00    -0.000 C 
BRANCH   7   8
ATOM      8  C   UNL     1      -9.891 -21.990  22.980  1.00  0.00    -0.000 C 
BRANCH   8   9
ATOM      9  C   UNL     1      -8.923 -22.734  23.915  1.00  0.00    -0.000 C 
BRANCH   9  10
ATOM     10  C   UNL     1      -7.603 -23.110  23.219  1.00  0.00    -0.000 C 
BRANCH  10  11
ATOM     11  C   UNL     1      -7.063 -21.980  22.330  1.00  0.00    -0.003 C 
ATOM     12  C   UNL     1      -6.841 -22.420  20.883  1.00  0.00     0.004 C 
ENDBRANCH  10  11
ENDBRANCH   9  10
ENDBRANCH   8   9
ENDBRANCH   7   8
ENDBRANCH   6   7
ENDBRANCH   5   6
ENDBRANCH   4   5
ENDBRANCH   3   4
ENDBRANCH   2   3
ENDBRANCH   1   2
BRANCH   1  13
ATOM     13  C   UNL     1      -6.614 -21.477  16.581  1.00  0.00     0.000 C 
BRANCH  13  14
ATOM     14  C   UNL     1      -6.069 -22.357  17.720  1.00  0.00     0.000 C 
BRANCH  14  15
ATOM     15  C   UNL     1      -4.732 -23.025  17.364  1.00  0.00     0.000 C 
BRANCH  15  16
ATOM     16  C   UNL     1      -4.334 -22.809  15.892  1.00  0.00     0.000 C 
BRANCH  16  17
ATOM     17  C   UNL     1      -2.957 -22.132  15.753  1.00  0.00     0.000 C 
BRANCH  17  18
ATOM     18  C   UNL     1      -1.825 -22.874  16.489  1.00  0.00     0.000 C 
BRANCH  18  19
ATOM     19  C   UNL     1      -0.587 -23.078  15.597  1.00  0.00     0.000 C 
BRANCH  19  20
ATOM     20  C   UNL     1       0.685 -22.443  16.187  1.00  0.00     0.006 C 
BRANCH  20  21
ATOM     21  C   UNL     1       1.970 -22.749  15.401  1.00  0.00     0.053 C 
BRANCH  21  22
ATOM     22  C   UNL     1       3.203 -22.392  16.174  1.00  0.00     0.041 C 
ATOM     23  O   UNL     1       4.224 -23.124  16.112  1.00  0.00    -0.550 OA
ATOM     24  O   UNL     1       3.212 -21.263  16.984  1.00  0.00    -0.550 OA
ENDBRANCH  21  22
ENDBRANCH  20  21
ENDBRANCH  19  20
ENDBRANCH  18  19
ENDBRANCH  17  18
ENDBRANCH  16  17
ENDBRANCH  15  16
ENDBRANCH  14  15
ENDBRANCH  13  14
ENDBRANCH   1  13
TORSDOF 20
ENDMDL
