MODEL 1
REMARK VINA RESULT:    -2.288      0.000      0.000
REMARK INTER + INTRA:          -2.288
REMARK INTER:                  -2.288
REMARK INTRA:                   0.000
REMARK UNBOUND:                 0.000
REMARK SMILES CC(=O)[O-]
REMARK SMILES IDX 1 1 2 2 3 3 4 4
REMARK H PARENT
REMARK Flexibility Score: inf
ROOT
ATOM      1  C   UNL     1      34.956   0.281  21.618  1.00  0.00     0.063 C 
ATOM      2  C   UNL     1      35.095  -1.164  21.963  1.00  0.00     0.038 C 
ATOM      3  O   UNL     1      34.311  -1.694  22.793  1.00  0.00    -0.550 OA
ATOM      4  O   UNL     1      36.125  -1.915  21.410  1.00  0.00    -0.550 OA
ENDROOT
TORSDOF 0
ENDMDL
MODEL 2
REMARK VINA RESULT:    -2.284     19.963     20.415
REMARK INTER + INTRA:          -2.284
REMARK INTER:                  -2.284
REMARK INTRA:                   0.000
REMARK UNBOUND:                 0.000
REMARK SMILES CC(=O)[O-]
REMARK SMILES IDX 1 1 2 2 3 3 4 4
REMARK H PARENT
REMARK Flexibility Score: inf
ROOT
ATOM      1  C   UNL     1      29.890  10.970   4.783  1.00  0.00     0.063 C 
ATOM      2  C   UNL     1      30.862  10.280   5.678  1.00  0.00     0.038 C 
ATOM      3  O   UNL     1      32.046  10.085   5.295  1.00  0.00    -0.550 OA
ATOM      4  O   UNL     1      30.450   9.800   6.916  1.00  0.00    -0.550 OA
ENDROOT
TORSDOF 0
ENDMDL
MODEL 3
REMARK VINA RESULT:    -2.251     13.809     14.193
REMARK INTER + INTRA:          -2.251
REMARK INTER:                  -2.251
REMARK INTRA:                   0.000
REMARK UNBOUND:                 0.000
REMARK SMILES CC(=O)[O-]
REMARK SMILES IDX 1 1 2 2 3 3 4 4
REMARK H PARENT
REMARK Flexibility Score: inf
ROOT
ATOM      1  C   UNL     1      28.038   6.056  14.459  1.00  0.00     0.063 C 
ATOM      2  C   UNL     1      27.351   6.926  13.461  1.00  0.00     0.038 C 
ATOM      3  O   UNL     1      28.012   7.482  12.545  1.00  0.00    -0.550 OA
ATOM      4  O   UNL     1      25.987   7.170  13.572  1.00  0.00    -0.550 OA
ENDROOT
TORSDOF 0
ENDMDL
MODEL 4
REMARK VINA RESULT:    -2.246     18.572     18.986
REMARK INTER + INTRA:          -2.246
REMARK INTER:                  -2.246
REMARK INTRA:                   0.000
REMARK UNBOUND:                 0.000
REMARK SMILES CC(=O)[O-]
REMARK SMILES IDX 1 1 2 2 3 3 4 4
REMARK H PARENT
REMARK Flexibility Score: inf
ROOT
ATOM      1  C   UNL     1      23.303   6.900  11.969  1.00  0.00     0.063 C 
ATOM      2  C   UNL     1      22.179   7.650  11.337  1.00  0.00     0.038 C 
ATOM      3  O   UNL     1      22.263   8.023  10.137  1.00  0.00    -0.550 OA
ATOM      4  O   UNL     1      21.058   7.986  12.086  1.00  0.00    -0.550 OA
ENDROOT
TORSDOF 0
ENDMDL
MODEL 5
REMARK VINA RESULT:    -2.241     13.896     14.188
REMARK INTER + INTRA:          -2.241
REMARK INTER:                  -2.241
REMARK INTRA:                   0.000
REMARK UNBOUND:                 0.000
REMARK SMILES CC(=O)[O-]
REMARK SMILES IDX 1 1 2 2 3 3 4 4
REMARK H PARENT
REMARK Flexibility Score: inf
ROOT
ATOM      1  C   UNL     1      27.523   5.548  14.136  1.00  0.00     0.063 C 
ATOM      2  C   UNL     1      27.117   6.795  13.428  1.00  0.00     0.038 C 
ATOM      3  O   UNL     1      25.938   7.224  13.527  1.00  0.00    -0.550 OA
ATOM      4  O   UNL     1      28.025   7.459  12.611  1.00  0.00    -0.550 OA
ENDROOT
TORSDOF 0
ENDMDL
MODEL 6
REMARK VINA RESULT:    -2.130     18.207     18.546
REMARK INTER + INTRA:          -2.130
REMARK INTER:                  -2.130
REMARK INTRA:                   0.000
REMARK UNBOUND:                 0.000
REMARK SMILES CC(=O)[O-]
REMARK SMILES IDX 1 1 2 2 3 3 4 4
REMARK H PARENT
REMARK Flexibility Score: inf
ROOT
ATOM      1  C   UNL     1      22.138   6.181  10.336  1.00  0.00     0.063 C 
ATOM      2  C   UNL     1      22.590   7.261  11.261  1.00  0.00     0.038 C 
ATOM      3  O   UNL     1      21.863   8.270  11.457  1.00  0.00    -0.550 OA
ATOM      4  O   UNL     1      23.838   7.183  11.866  1.00  0.00    -0.550 OA
ENDROOT
TORSDOF 0
ENDMDL
MODEL 7
REMARK VINA RESULT:    -2.111     15.085     15.115
REMARK INTER + INTRA:          -2.111
REMARK INTER:                  -2.111
REMARK INTRA:                   0.000
REMARK UNBOUND:                 0.000
REMARK SMILES CC(=O)[O-]
REMARK SMILES IDX 1 1 2 2 3 3 4 4
REMARK H PARENT
REMARK Flexibility Score: inf
ROOT
ATOM      1  C   UNL     1      26.892  -3.008  11.203  1.00  0.00     0.063 C 
ATOM      2  C   UNL     1      26.252  -2.849   9.866  1.00  0.00     0.038 C 
ATOM      3  O   UNL     1      25.014  -2.635   9.778  1.00  0.00    -0.550 OA
ATOM      4  O   UNL     1      27.011  -2.989   8.710  1.00  0.00    -0.550 OA
ENDROOT
TORSDOF 0
ENDMDL
MODEL 8
REMARK VINA RESULT:    -2.080     23.764     24.124
REMARK INTER + INTRA:          -2.080
REMARK INTER:                  -2.080
REMARK INTRA:                   0.000
REMARK UNBOUND:                 0.000
REMARK SMILES CC(=O)[O-]
REMARK SMILES IDX 1 1 2 2 3 3 4 4
REMARK H PARENT
REMARK Flexibility Score: inf
ROOT
ATOM      1  C   UNL     1      18.248   6.074   7.816  1.00  0.00     0.063 C 
ATOM      2  C   UNL     1      17.594   7.414   7.822  1.00  0.00     0.038 C 
ATOM      3  O   UNL     1      17.046   7.855   6.777  1.00  0.00    -0.550 OA
ATOM      4  O   UNL     1      17.635   8.204   8.965  1.00  0.00    -0.550 OA
ENDROOT
TORSDOF 0
ENDMDL
MODEL 9
REMARK VINA RESULT:    -1.991     12.110     12.433
REMARK INTER + INTRA:          -1.991
REMARK INTER:                  -1.991
REMARK INTRA:                   0.000
REMARK UNBOUND:                 0.000
REMARK SMILES CC(=O)[O-]
REMARK SMILES IDX 1 1 2 2 3 3 4 4
REMARK H PARENT
REMARK Flexibility Score: inf
ROOT
ATOM      1  C   UNL     1      29.180   5.954  16.176  1.00  0.00     0.063 C 
ATOM      2  C   UNL     1      28.376   6.741  15.197  1.00  0.00     0.038 C 
ATOM      3  O   UNL     1      27.127   6.826  15.328  1.00  0.00    -0.550 OA
ATOM      4  O   UNL     1      28.997   7.338  14.106  1.00  0.00    -0.550 OA
ENDROOT
TORSDOF 0
ENDMDL
