MODEL 1
REMARK VINA RESULT:    -4.588      0.000      0.000
REMARK INTER + INTRA:          -6.626
REMARK INTER:                  -6.466
REMARK INTRA:                  -0.160
REMARK UNBOUND:                -0.160
REMARK SMILES CCCCCCCCC(=O)[O-]
REMARK SMILES IDX 6 1 7 2 8 3 9 4 10 5 11 6 5 7 4 8 3 9 2 10 1 11
REMARK H PARENT
REMARK Flexibility Score: inf
ROOT
ATOM      1  C   UNL     1      17.295   2.478  41.653  1.00  0.00     0.000 C 
ENDROOT
BRANCH   1   2
ATOM      2  C   UNL     1      18.302   3.471  41.054  1.00  0.00     0.006 C 
BRANCH   2   3
ATOM      3  C   UNL     1      19.572   2.752  40.591  1.00  0.00     0.053 C 
BRANCH   3   4
ATOM      4  C   UNL     1      20.742   3.159  41.429  1.00  0.00     0.041 C 
ATOM      5  O   UNL     1      21.637   2.322  41.716  1.00  0.00    -0.550 OA
ATOM      6  O   UNL     1      20.871   4.476  41.851  1.00  0.00    -0.550 OA
ENDBRANCH   3   4
ENDBRANCH   2   3
ENDBRANCH   1   2
BRANCH   1   7
ATOM      7  C   UNL     1      16.810   1.435  40.633  1.00  0.00     0.000 C 
BRANCH   7   8
ATOM      8  C   UNL     1      15.351   1.010  40.872  1.00  0.00    -0.000 C 
BRANCH   8   9
ATOM      9  C   UNL     1      15.187  -0.514  41.008  1.00  0.00    -0.000 C 
BRANCH   9  10
ATOM     10  C   UNL     1      13.753  -1.035  40.801  1.00  0.00    -0.003 C 
ATOM     11  C   UNL     1      13.683  -2.242  39.867  1.00  0.00     0.004 C 
ENDBRANCH   9  10
ENDBRANCH   8   9
ENDBRANCH   7   8
ENDBRANCH   1   7
TORSDOF 7
ENDMDL
MODEL 2
REMARK VINA RESULT:    -4.413      4.183      5.815
REMARK INTER + INTRA:          -6.379
REMARK INTER:                  -5.909
REMARK INTRA:                  -0.470
REMARK UNBOUND:                -0.160
REMARK SMILES CCCCCCCCC(=O)[O-]
REMARK SMILES IDX 6 1 7 2 8 3 9 4 10 5 11 6 5 7 4 8 3 9 2 10 1 11
REMARK H PARENT
REMARK Flexibility Score: inf
ROOT
ATOM      1  C   UNL     1      17.391   5.181  42.078  1.00  0.00     0.000 C 
ENDROOT
BRANCH   1   2
ATOM      2  C   UNL     1      17.575   6.697  42.253  1.00  0.00     0.006 C 
BRANCH   2   3
ATOM      3  C   UNL     1      16.419   7.467  41.609  1.00  0.00     0.053 C 
BRANCH   3   4
ATOM      4  C   UNL     1      16.933   8.656  40.860  1.00  0.00     0.041 C 
ATOM      5  O   UNL     1      16.619   9.819  41.225  1.00  0.00    -0.550 OA
ATOM      6  O   UNL     1      17.801   8.482  39.789  1.00  0.00    -0.550 OA
ENDBRANCH   3   4
ENDBRANCH   2   3
ENDBRANCH   1   2
BRANCH   1   7
ATOM      7  C   UNL     1      16.643   4.818  40.785  1.00  0.00     0.000 C 
BRANCH   7   8
ATOM      8  C   UNL     1      17.003   3.414  40.271  1.00  0.00    -0.000 C 
BRANCH   8   9
ATOM      9  C   UNL     1      18.055   2.708  41.146  1.00  0.00    -0.000 C 
BRANCH   9  10
ATOM     10  C   UNL     1      19.443   2.554  40.498  1.00  0.00    -0.003 C 
ATOM     11  C   UNL     1      20.577   3.074  41.379  1.00  0.00     0.004 C 
ENDBRANCH   9  10
ENDBRANCH   8   9
ENDBRANCH   7   8
ENDBRANCH   1   7
TORSDOF 7
ENDMDL
MODEL 3
REMARK VINA RESULT:    -4.358      1.655      2.757
REMARK INTER + INTRA:          -6.301
REMARK INTER:                  -6.000
REMARK INTRA:                  -0.301
REMARK UNBOUND:                -0.160
REMARK SMILES CCCCCCCCC(=O)[O-]
REMARK SMILES IDX 6 1 7 2 8 3 9 4 10 5 11 6 5 7 4 8 3 9 2 10 1 11
REMARK H PARENT
REMARK Flexibility Score: inf
ROOT
ATOM      1  C   UNL     1      15.483   0.223  40.833  1.00  0.00     0.000 C 
ENDROOT
BRANCH   1   2
ATOM      2  C   UNL     1      15.930   1.693  40.861  1.00  0.00     0.006 C 
BRANCH   2   3
ATOM      3  C   UNL     1      17.439   1.811  40.630  1.00  0.00     0.053 C 
BRANCH   3   4
ATOM      4  C   UNL     1      18.013   2.912  41.464  1.00  0.00     0.041 C 
ATOM      5  O   UNL     1      19.259   3.084  41.517  1.00  0.00    -0.550 OA
ATOM      6  O   UNL     1      17.169   3.783  42.143  1.00  0.00    -0.550 OA
ENDBRANCH   3   4
ENDBRANCH   2   3
ENDBRANCH   1   2
BRANCH   1   7
ATOM      7  C   UNL     1      13.955   0.064  40.887  1.00  0.00     0.000 C 
BRANCH   7   8
ATOM      8  C   UNL     1      13.524  -1.321  41.398  1.00  0.00    -0.000 C 
BRANCH   8   9
ATOM      9  C   UNL     1      14.590  -2.406  41.157  1.00  0.00    -0.000 C 
BRANCH   9  10
ATOM     10  C   UNL     1      14.154  -3.550  40.225  1.00  0.00    -0.003 C 
ATOM     11  C   UNL     1      12.710  -3.416  39.747  1.00  0.00     0.004 C 
ENDBRANCH   9  10
ENDBRANCH   8   9
ENDBRANCH   7   8
ENDBRANCH   1   7
TORSDOF 7
ENDMDL
MODEL 4
REMARK VINA RESULT:    -4.332      2.928      3.455
REMARK INTER + INTRA:          -6.265
REMARK INTER:                  -6.052
REMARK INTRA:                  -0.213
REMARK UNBOUND:                -0.160
REMARK SMILES CCCCCCCCC(=O)[O-]
REMARK SMILES IDX 6 1 7 2 8 3 9 4 10 5 11 6 5 7 4 8 3 9 2 10 1 11
REMARK H PARENT
REMARK Flexibility Score: inf
ROOT
ATOM      1  C   UNL     1      17.030   1.695  40.630  1.00  0.00     0.000 C 
ENDROOT
BRANCH   1   2
ATOM      2  C   UNL     1      17.163   3.170  40.221  1.00  0.00     0.006 C 
BRANCH   2   3
ATOM      3  C   UNL     1      16.759   4.096  41.371  1.00  0.00     0.053 C 
BRANCH   3   4
ATOM      4  C   UNL     1      15.919   5.226  40.866  1.00  0.00     0.041 C 
ATOM      5  O   UNL     1      14.664   5.142  40.885  1.00  0.00    -0.550 OA
ATOM      6  O   UNL     1      16.523   6.396  40.421  1.00  0.00    -0.550 OA
ENDBRANCH   3   4
ENDBRANCH   2   3
ENDBRANCH   1   2
BRANCH   1   7
ATOM      7  C   UNL     1      15.578   1.289  40.931  1.00  0.00     0.000 C 
BRANCH   7   8
ATOM      8  C   UNL     1      15.388  -0.237  40.967  1.00  0.00    -0.000 C 
BRANCH   8   9
ATOM      9  C   UNL     1      13.922  -0.662  40.766  1.00  0.00    -0.000 C 
BRANCH   9  10
ATOM     10  C   UNL     1      13.676  -1.606  39.576  1.00  0.00    -0.003 C 
ATOM     11  C   UNL     1      13.796  -3.083  39.948  1.00  0.00     0.004 C 
ENDBRANCH   9  10
ENDBRANCH   8   9
ENDBRANCH   7   8
ENDBRANCH   1   7
TORSDOF 7
ENDMDL
MODEL 5
REMARK VINA RESULT:    -4.227      4.066      6.772
REMARK INTER + INTRA:          -6.117
REMARK INTER:                  -5.847
REMARK INTRA:                  -0.270
REMARK UNBOUND:                -0.160
REMARK SMILES CCCCCCCCC(=O)[O-]
REMARK SMILES IDX 6 1 7 2 8 3 9 4 10 5 11 6 5 7 4 8 3 9 2 10 1 11
REMARK H PARENT
REMARK Flexibility Score: inf
ROOT
ATOM      1  C   UNL     1      14.219   0.889  40.958  1.00  0.00     0.000 C 
ENDROOT
BRANCH   1   2
ATOM      2  C   UNL     1      13.372  -0.393  40.933  1.00  0.00     0.006 C 
BRANCH   2   3
ATOM      3  C   UNL     1      13.751  -1.277  39.742  1.00  0.00     0.053 C 
BRANCH   3   4
ATOM      4  C   UNL     1      14.062  -2.668  40.198  1.00  0.00     0.041 C 
ATOM      5  O   UNL     1      13.604  -3.658  39.570  1.00  0.00    -0.550 OA
ATOM      6  O   UNL     1      14.901  -2.872  41.286  1.00  0.00    -0.550 OA
ENDBRANCH   3   4
ENDBRANCH   2   3
ENDBRANCH   1   2
BRANCH   1   7
ATOM      7  C   UNL     1      15.729   0.604  40.938  1.00  0.00     0.000 C 
BRANCH   7   8
ATOM      8  C   UNL     1      16.556   1.835  40.526  1.00  0.00    -0.000 C 
BRANCH   8   9
ATOM      9  C   UNL     1      17.409   2.395  41.679  1.00  0.00    -0.000 C 
BRANCH   9  10
ATOM     10  C   UNL     1      18.446   3.455  41.266  1.00  0.00    -0.003 C 
ATOM     11  C   UNL     1      19.870   2.906  41.199  1.00  0.00     0.004 C 
ENDBRANCH   9  10
ENDBRANCH   8   9
ENDBRANCH   7   8
ENDBRANCH   1   7
TORSDOF 7
ENDMDL
MODEL 6
REMARK VINA RESULT:    -4.225      4.844      7.254
REMARK INTER + INTRA:          -6.114
REMARK INTER:                  -5.849
REMARK INTRA:                  -0.265
REMARK UNBOUND:                -0.160
REMARK SMILES CCCCCCCCC(=O)[O-]
REMARK SMILES IDX 6 1 7 2 8 3 9 4 10 5 11 6 5 7 4 8 3 9 2 10 1 11
REMARK H PARENT
REMARK Flexibility Score: inf
ROOT
ATOM      1  C   UNL     1      15.131  -0.885  40.947  1.00  0.00     0.000 C 
ENDROOT
BRANCH   1   2
ATOM      2  C   UNL     1      13.821  -1.430  40.357  1.00  0.00     0.006 C 
BRANCH   2   3
ATOM      3  C   UNL     1      12.840  -0.294  40.060  1.00  0.00     0.053 C 
BRANCH   3   4
ATOM      4  C   UNL     1      11.544  -0.519  40.773  1.00  0.00     0.041 C 
ATOM      5  O   UNL     1      11.302   0.081  41.853  1.00  0.00    -0.550 OA
ATOM      6  O   UNL     1      10.581  -1.353  40.218  1.00  0.00    -0.550 OA
ENDBRANCH   3   4
ENDBRANCH   2   3
ENDBRANCH   1   2
BRANCH   1   7
ATOM      7  C   UNL     1      15.185   0.651  40.957  1.00  0.00     0.000 C 
BRANCH   7   8
ATOM      8  C   UNL     1      16.570   1.195  40.568  1.00  0.00    -0.000 C 
BRANCH   8   9
ATOM      9  C   UNL     1      16.737   2.692  40.891  1.00  0.00    -0.000 C 
BRANCH   9  10
ATOM     10  C   UNL     1      18.125   3.092  41.423  1.00  0.00    -0.003 C 
ATOM     11  C   UNL     1      19.265   2.675  40.495  1.00  0.00     0.004 C 
ENDBRANCH   9  10
ENDBRANCH   8   9
ENDBRANCH   7   8
ENDBRANCH   1   7
TORSDOF 7
ENDMDL
MODEL 7
REMARK VINA RESULT:    -4.191      4.330      6.231
REMARK INTER + INTRA:          -6.066
REMARK INTER:                  -5.623
REMARK INTRA:                  -0.442
REMARK UNBOUND:                -0.160
REMARK SMILES CCCCCCCCC(=O)[O-]
REMARK SMILES IDX 6 1 7 2 8 3 9 4 10 5 11 6 5 7 4 8 3 9 2 10 1 11
REMARK H PARENT
REMARK Flexibility Score: inf
ROOT
ATOM      1  C   UNL     1      16.709   1.347  40.629  1.00  0.00     0.000 C 
ENDROOT
BRANCH   1   2
ATOM      2  C   UNL     1      15.234   0.977  40.848  1.00  0.00     0.006 C 
BRANCH   2   3
ATOM      3  C   UNL     1      15.059  -0.540  40.951  1.00  0.00     0.053 C 
BRANCH   3   4
ATOM      4  C   UNL     1      13.879  -0.988  40.148  1.00  0.00     0.041 C 
ATOM      5  O   UNL     1      13.888  -2.112  39.581  1.00  0.00    -0.550 OA
ATOM      6  O   UNL     1      12.747  -0.187  40.068  1.00  0.00    -0.550 OA
ENDBRANCH   3   4
ENDBRANCH   2   3
ENDBRANCH   1   2
BRANCH   1   7
ATOM      7  C   UNL     1      17.138   2.583  41.435  1.00  0.00     0.000 C 
BRANCH   7   8
ATOM      8  C   UNL     1      17.476   3.785  40.536  1.00  0.00    -0.000 C 
BRANCH   8   9
ATOM      9  C   UNL     1      16.543   4.988  40.770  1.00  0.00    -0.000 C 
BRANCH   9  10
ATOM     10  C   UNL     1      15.298   4.688  41.622  1.00  0.00    -0.003 C 
ATOM     11  C   UNL     1      13.989   5.018  40.907  1.00  0.00     0.004 C 
ENDBRANCH   9  10
ENDBRANCH   8   9
ENDBRANCH   7   8
ENDBRANCH   1   7
TORSDOF 7
ENDMDL
MODEL 8
REMARK VINA RESULT:    -4.190      7.124      8.514
REMARK INTER + INTRA:          -6.066
REMARK INTER:                  -5.689
REMARK INTRA:                  -0.377
REMARK UNBOUND:                -0.160
REMARK SMILES CCCCCCCCC(=O)[O-]
REMARK SMILES IDX 6 1 7 2 8 3 9 4 10 5 11 6 5 7 4 8 3 9 2 10 1 11
REMARK H PARENT
REMARK Flexibility Score: inf
ROOT
ATOM      1  C   UNL     1      12.111   0.290  41.312  1.00  0.00     0.000 C 
ENDROOT
BRANCH   1   2
ATOM      2  C   UNL     1      10.963  -0.687  41.015  1.00  0.00     0.006 C 
BRANCH   2   3
ATOM      3  C   UNL     1       9.740  -0.374  41.881  1.00  0.00     0.053 C 
BRANCH   3   4
ATOM      4  C   UNL     1       8.849  -1.572  41.983  1.00  0.00     0.041 C 
ATOM      5  O   UNL     1       8.535  -2.219  40.950  1.00  0.00    -0.550 OA
ATOM      6  O   UNL     1       8.405  -2.004  43.227  1.00  0.00    -0.550 OA
ENDBRANCH   3   4
ENDBRANCH   2   3
ENDBRANCH   1   2
BRANCH   1   7
ATOM      7  C   UNL     1      13.402  -0.063  40.557  1.00  0.00     0.000 C 
BRANCH   7   8
ATOM      8  C   UNL     1      14.407  -0.830  41.434  1.00  0.00    -0.000 C 
BRANCH   8   9
ATOM      9  C   UNL     1      14.528  -2.315  41.045  1.00  0.00    -0.000 C 
BRANCH   9  10
ATOM     10  C   UNL     1      13.742  -2.723  39.786  1.00  0.00    -0.003 C 
ATOM     11  C   UNL     1      13.922  -4.195  39.419  1.00  0.00     0.004 C 
ENDBRANCH   9  10
ENDBRANCH   8   9
ENDBRANCH   7   8
ENDBRANCH   1   7
TORSDOF 7
ENDMDL
MODEL 9
REMARK VINA RESULT:    -4.145      3.434      5.056
REMARK INTER + INTRA:          -6.001
REMARK INTER:                  -5.460
REMARK INTRA:                  -0.542
REMARK UNBOUND:                -0.160
REMARK SMILES CCCCCCCCC(=O)[O-]
REMARK SMILES IDX 6 1 7 2 8 3 9 4 10 5 11 6 5 7 4 8 3 9 2 10 1 11
REMARK H PARENT
REMARK Flexibility Score: inf
ROOT
ATOM      1  C   UNL     1      16.307   4.910  40.803  1.00  0.00     0.000 C 
ENDROOT
BRANCH   1   2
ATOM      2  C   UNL     1      16.632   6.404  40.958  1.00  0.00     0.006 C 
BRANCH   2   3
ATOM      3  C   UNL     1      16.962   6.744  42.413  1.00  0.00     0.053 C 
BRANCH   3   4
ATOM      4  C   UNL     1      18.311   7.386  42.509  1.00  0.00     0.041 C 
ATOM      5  O   UNL     1      18.415   8.640  42.549  1.00  0.00    -0.550 OA
ATOM      6  O   UNL     1      19.450   6.598  42.607  1.00  0.00    -0.550 OA
ENDBRANCH   3   4
ENDBRANCH   2   3
ENDBRANCH   1   2
BRANCH   1   7
ATOM      7  C   UNL     1      16.592   4.104  42.080  1.00  0.00     0.000 C 
BRANCH   7   8
ATOM      8  C   UNL     1      17.313   2.776  41.790  1.00  0.00    -0.000 C 
BRANCH   8   9
ATOM      9  C   UNL     1      17.912   2.718  40.373  1.00  0.00    -0.000 C 
BRANCH   9  10
ATOM     10  C   UNL     1      19.402   2.341  40.312  1.00  0.00    -0.003 C 
ATOM     11  C   UNL     1      20.262   3.131  41.296  1.00  0.00     0.004 C 
ENDBRANCH   9  10
ENDBRANCH   8   9
ENDBRANCH   7   8
ENDBRANCH   1   7
TORSDOF 7
ENDMDL
