MODEL 1
REMARK VINA RESULT:    -3.299      0.000      0.000
REMARK INTER + INTRA:          -4.099
REMARK INTER:                  -4.070
REMARK INTRA:                  -0.029
REMARK UNBOUND:                -0.029
REMARK SMILES CCCCCC=O
REMARK SMILES IDX 4 1 3 2 2 3 1 4 5 5 6 6 7 7
REMARK H PARENT
REMARK Flexibility Score: inf
ROOT
ATOM      1  C   UNL     1     -16.407   4.494 -13.751  1.00  0.00     0.008 C 
ENDROOT
BRANCH   1   2
ATOM      2  C   UNL     1     -16.186   3.333 -14.733  1.00  0.00     0.000 C 
BRANCH   2   3
ATOM      3  C   UNL     1     -17.125   3.400 -15.947  1.00  0.00    -0.003 C 
ATOM      4  C   UNL     1     -17.118   2.114 -16.772  1.00  0.00     0.004 C 
ENDBRANCH   2   3
ENDBRANCH   1   2
BRANCH   1   5
ATOM      5  C   UNL     1     -15.368   4.463 -12.624  1.00  0.00     0.072 C 
BRANCH   5   6
ATOM      6  C   UNL     1     -15.323   5.775 -11.900  1.00  0.00     0.224 C 
ATOM      7  O   UNL     1     -15.707   5.857 -10.744  1.00  0.00    -0.303 OA
ENDBRANCH   5   6
ENDBRANCH   1   5
TORSDOF 4
ENDMDL
MODEL 2
REMARK VINA RESULT:    -3.263      2.897      4.722
REMARK INTER + INTRA:          -4.055
REMARK INTER:                  -3.986
REMARK INTRA:                  -0.070
REMARK UNBOUND:                -0.029
REMARK SMILES CCCCCC=O
REMARK SMILES IDX 4 1 3 2 2 3 1 4 5 5 6 6 7 7
REMARK H PARENT
REMARK Flexibility Score: inf
ROOT
ATOM      1  C   UNL     1     -16.505   4.196 -14.130  1.00  0.00     0.008 C 
ENDROOT
BRANCH   1   2
ATOM      2  C   UNL     1     -15.517   4.131 -12.955  1.00  0.00     0.000 C 
BRANCH   2   3
ATOM      3  C   UNL     1     -15.357   5.484 -12.243  1.00  0.00    -0.003 C 
ATOM      4  C   UNL     1     -16.453   6.481 -12.615  1.00  0.00     0.004 C 
ENDBRANCH   2   3
ENDBRANCH   1   2
BRANCH   1   5
ATOM      5  C   UNL     1     -16.198   3.105 -15.163  1.00  0.00     0.072 C 
BRANCH   5   6
ATOM      6  C   UNL     1     -17.042   3.278 -16.390  1.00  0.00     0.224 C 
ATOM      7  O   UNL     1     -17.348   2.312 -17.072  1.00  0.00    -0.303 OA
ENDBRANCH   5   6
ENDBRANCH   1   5
TORSDOF 4
ENDMDL
MODEL 3
REMARK VINA RESULT:    -3.162      3.187      4.298
REMARK INTER + INTRA:          -3.930
REMARK INTER:                  -3.860
REMARK INTRA:                  -0.070
REMARK UNBOUND:                -0.029
REMARK SMILES CCCCCC=O
REMARK SMILES IDX 4 1 3 2 2 3 1 4 5 5 6 6 7 7
REMARK H PARENT
REMARK Flexibility Score: inf
ROOT
ATOM      1  C   UNL     1     -17.235   6.181 -13.422  1.00  0.00     0.008 C 
ENDROOT
BRANCH   1   2
ATOM      2  C   UNL     1     -16.054   6.227 -12.441  1.00  0.00     0.000 C 
BRANCH   2   3
ATOM      3  C   UNL     1     -15.350   4.868 -12.301  1.00  0.00    -0.003 C 
ATOM      4  C   UNL     1     -15.738   3.885 -13.404  1.00  0.00     0.004 C 
ENDBRANCH   2   3
ENDBRANCH   1   2
BRANCH   1   5
ATOM      5  C   UNL     1     -18.282   7.244 -13.068  1.00  0.00     0.072 C 
BRANCH   5   6
ATOM      6  C   UNL     1     -19.480   7.135 -13.963  1.00  0.00     0.224 C 
ATOM      7  O   UNL     1     -19.868   8.102 -14.599  1.00  0.00    -0.303 OA
ENDBRANCH   5   6
ENDBRANCH   1   5
TORSDOF 4
ENDMDL
MODEL 4
REMARK VINA RESULT:    -3.092      6.888      7.958
REMARK INTER + INTRA:          -3.845
REMARK INTER:                  -3.776
REMARK INTRA:                  -0.069
REMARK UNBOUND:                -0.029
REMARK SMILES CCCCCC=O
REMARK SMILES IDX 4 1 3 2 2 3 1 4 5 5 6 6 7 7
REMARK H PARENT
REMARK Flexibility Score: inf
ROOT
ATOM      1  C   UNL     1     -12.445  -0.517 -18.544  1.00  0.00     0.008 C 
ENDROOT
BRANCH   1   2
ATOM      2  C   UNL     1     -13.474   0.039 -17.549  1.00  0.00     0.000 C 
BRANCH   2   3
ATOM      3  C   UNL     1     -14.662   0.721 -18.246  1.00  0.00    -0.003 C 
ATOM      4  C   UNL     1     -14.572   0.652 -19.770  1.00  0.00     0.004 C 
ENDBRANCH   2   3
ENDBRANCH   1   2
BRANCH   1   5
ATOM      5  C   UNL     1     -11.201  -1.036 -17.813  1.00  0.00     0.072 C 
BRANCH   5   6
ATOM      6  C   UNL     1      -9.949  -0.486 -18.429  1.00  0.00     0.224 C 
ATOM      7  O   UNL     1      -8.962  -0.275 -17.742  1.00  0.00    -0.303 OA
ENDBRANCH   5   6
ENDBRANCH   1   5
TORSDOF 4
ENDMDL
MODEL 5
REMARK VINA RESULT:    -3.076      7.155      8.391
REMARK INTER + INTRA:          -3.825
REMARK INTER:                  -3.770
REMARK INTRA:                  -0.054
REMARK UNBOUND:                -0.029
REMARK SMILES CCCCCC=O
REMARK SMILES IDX 4 1 3 2 2 3 1 4 5 5 6 6 7 7
REMARK H PARENT
REMARK Flexibility Score: inf
ROOT
ATOM      1  C   UNL     1     -11.665  -1.002 -17.984  1.00  0.00     0.008 C 
ENDROOT
BRANCH   1   2
ATOM      2  C   UNL     1     -10.435  -0.667 -18.840  1.00  0.00     0.000 C 
BRANCH   2   3
ATOM      3  C   UNL     1      -9.207  -0.300 -17.992  1.00  0.00    -0.003 C 
ATOM      4  C   UNL     1      -8.624   1.064 -18.357  1.00  0.00     0.004 C 
ENDBRANCH   2   3
ENDBRANCH   1   2
BRANCH   1   5
ATOM      5  C   UNL     1     -12.902  -0.247 -18.483  1.00  0.00     0.072 C 
BRANCH   5   6
ATOM      6  C   UNL     1     -13.788   0.147 -17.340  1.00  0.00     0.224 C 
ATOM      7  O   UNL     1     -14.868   0.678 -17.546  1.00  0.00    -0.303 OA
ENDBRANCH   5   6
ENDBRANCH   1   5
TORSDOF 4
ENDMDL
MODEL 6
REMARK VINA RESULT:    -3.042      4.049      5.097
REMARK INTER + INTRA:          -3.783
REMARK INTER:                  -3.646
REMARK INTRA:                  -0.137
REMARK UNBOUND:                -0.029
REMARK SMILES CCCCCC=O
REMARK SMILES IDX 4 1 3 2 2 3 1 4 5 5 6 6 7 7
REMARK H PARENT
REMARK Flexibility Score: inf
ROOT
ATOM      1  C   UNL     1     -17.269   3.492 -16.015  1.00  0.00     0.008 C 
ENDROOT
BRANCH   1   2
ATOM      2  C   UNL     1     -18.453   4.391 -16.402  1.00  0.00     0.000 C 
BRANCH   2   3
ATOM      3  C   UNL     1     -18.362   4.894 -17.852  1.00  0.00    -0.003 C 
ATOM      4  C   UNL     1     -18.967   6.285 -18.034  1.00  0.00     0.004 C 
ENDBRANCH   2   3
ENDBRANCH   1   2
BRANCH   1   5
ATOM      5  C   UNL     1     -17.332   2.153 -16.759  1.00  0.00     0.072 C 
BRANCH   5   6
ATOM      6  C   UNL     1     -16.048   1.883 -17.486  1.00  0.00     0.224 C 
ATOM      7  O   UNL     1     -15.460   2.786 -18.060  1.00  0.00    -0.303 OA
ENDBRANCH   5   6
ENDBRANCH   1   5
TORSDOF 4
ENDMDL
MODEL 7
REMARK VINA RESULT:    -3.036      3.566      5.123
REMARK INTER + INTRA:          -3.776
REMARK INTER:                  -3.698
REMARK INTRA:                  -0.078
REMARK UNBOUND:                -0.029
REMARK SMILES CCCCCC=O
REMARK SMILES IDX 4 1 3 2 2 3 1 4 5 5 6 6 7 7
REMARK H PARENT
REMARK Flexibility Score: inf
ROOT
ATOM      1  C   UNL     1     -19.084   5.201 -16.657  1.00  0.00     0.008 C 
ENDROOT
BRANCH   1   2
ATOM      2  C   UNL     1     -19.961   5.671 -15.487  1.00  0.00     0.000 C 
BRANCH   2   3
ATOM      3  C   UNL     1     -19.188   6.540 -14.482  1.00  0.00    -0.003 C 
ATOM      4  C   UNL     1     -19.643   7.998 -14.489  1.00  0.00     0.004 C 
ENDBRANCH   2   3
ENDBRANCH   1   2
BRANCH   1   5
ATOM      5  C   UNL     1     -18.694   3.727 -16.491  1.00  0.00     0.072 C 
BRANCH   5   6
ATOM      6  C   UNL     1     -17.204   3.567 -16.462  1.00  0.00     0.224 C 
ATOM      7  O   UNL     1     -16.628   3.320 -15.414  1.00  0.00    -0.303 OA
ENDBRANCH   5   6
ENDBRANCH   1   5
TORSDOF 4
ENDMDL
MODEL 8
REMARK VINA RESULT:    -3.021      3.894      4.699
REMARK INTER + INTRA:          -3.756
REMARK INTER:                  -3.643
REMARK INTRA:                  -0.113
REMARK UNBOUND:                -0.029
REMARK SMILES CCCCCC=O
REMARK SMILES IDX 4 1 3 2 2 3 1 4 5 5 6 6 7 7
REMARK H PARENT
REMARK Flexibility Score: inf
ROOT
ATOM      1  C   UNL     1     -16.885   3.179 -16.018  1.00  0.00     0.008 C 
ENDROOT
BRANCH   1   2
ATOM      2  C   UNL     1     -18.249   3.789 -16.372  1.00  0.00     0.000 C 
BRANCH   2   3
ATOM      3  C   UNL     1     -19.025   2.944 -17.396  1.00  0.00    -0.003 C 
ATOM      4  C   UNL     1     -20.260   2.275 -16.795  1.00  0.00     0.004 C 
ENDBRANCH   2   3
ENDBRANCH   1   2
BRANCH   1   5
ATOM      5  C   UNL     1     -16.509   2.069 -17.007  1.00  0.00     0.072 C 
BRANCH   5   6
ATOM      6  C   UNL     1     -15.078   2.195 -17.437  1.00  0.00     0.224 C 
ATOM      7  O   UNL     1     -14.178   1.779 -16.725  1.00  0.00    -0.303 OA
ENDBRANCH   5   6
ENDBRANCH   1   5
TORSDOF 4
ENDMDL
MODEL 9
REMARK VINA RESULT:    -2.978      5.277      6.584
REMARK INTER + INTRA:          -3.704
REMARK INTER:                  -3.504
REMARK INTRA:                  -0.200
REMARK UNBOUND:                -0.029
REMARK SMILES CCCCCC=O
REMARK SMILES IDX 4 1 3 2 2 3 1 4 5 5 6 6 7 7
REMARK H PARENT
REMARK Flexibility Score: inf
ROOT
ATOM      1  C   UNL     1     -19.190   5.447 -16.857  1.00  0.00     0.008 C 
ENDROOT
BRANCH   1   2
ATOM      2  C   UNL     1     -20.038   5.806 -15.628  1.00  0.00     0.000 C 
BRANCH   2   3
ATOM      3  C   UNL     1     -19.230   6.543 -14.548  1.00  0.00    -0.003 C 
ATOM      4  C   UNL     1     -19.630   8.012 -14.410  1.00  0.00     0.004 C 
ENDBRANCH   2   3
ENDBRANCH   1   2
BRANCH   1   5
ATOM      5  C   UNL     1     -19.133   6.619 -17.844  1.00  0.00     0.072 C 
BRANCH   5   6
ATOM      6  C   UNL     1     -20.506   7.157 -18.115  1.00  0.00     0.224 C 
ATOM      7  O   UNL     1     -20.689   8.359 -18.223  1.00  0.00    -0.303 OA
ENDBRANCH   5   6
ENDBRANCH   1   5
TORSDOF 4
ENDMDL
