MODEL 1
REMARK VINA RESULT:    -4.408      0.000      0.000
REMARK INTER + INTRA:          -7.123
REMARK INTER:                  -6.727
REMARK INTRA:                  -0.396
REMARK UNBOUND:                -0.396
REMARK SMILES O=C([O-])CCCCCCCCC(=O)[O-]
REMARK SMILES IDX 7 1 6 2 5 3 4 4 2 5 1 6 3 7 8 8 9 9 10 10 11 11 12 12 13 13
REMARK SMILES IDX 14 14
REMARK H PARENT
REMARK Flexibility Score: inf
ROOT
ATOM      1  C   UNL     1      29.700  27.577 -16.413  1.00  0.00     0.000 C 
ENDROOT
BRANCH   1   2
ATOM      2  C   UNL     1      28.266  27.984 -16.785  1.00  0.00     0.000 C 
BRANCH   2   3
ATOM      3  C   UNL     1      28.243  29.368 -17.444  1.00  0.00     0.006 C 
BRANCH   3   4
ATOM      4  C   UNL     1      26.838  29.714 -17.948  1.00  0.00     0.053 C 
BRANCH   4   5
ATOM      5  C   UNL     1      26.909  30.730 -19.043  1.00  0.00     0.041 C 
ATOM      6  O   UNL     1      27.809  30.656 -19.920  1.00  0.00    -0.550 OA
ATOM      7  O   UNL     1      25.951  31.733 -19.123  1.00  0.00    -0.550 OA
ENDBRANCH   4   5
ENDBRANCH   3   4
ENDBRANCH   2   3
ENDBRANCH   1   2
BRANCH   1   8
ATOM      8  C   UNL     1      30.190  26.350 -17.198  1.00  0.00     0.000 C 
BRANCH   8   9
ATOM      9  C   UNL     1      29.284  25.125 -17.010  1.00  0.00     0.000 C 
BRANCH   9  10
ATOM     10  C   UNL     1      29.078  24.385 -18.340  1.00  0.00     0.006 C 
BRANCH  10  11
ATOM     11  C   UNL     1      27.734  23.646 -18.392  1.00  0.00     0.053 C 
BRANCH  11  12
ATOM     12  C   UNL     1      26.793  24.273 -19.375  1.00  0.00     0.041 C 
ATOM     13  O   UNL     1      25.886  25.050 -18.977  1.00  0.00    -0.550 OA
ATOM     14  O   UNL     1      26.940  24.025 -20.734  1.00  0.00    -0.550 OA
ENDBRANCH  11  12
ENDBRANCH  10  11
ENDBRANCH   9  10
ENDBRANCH   8   9
ENDBRANCH   1   8
TORSDOF 9
ENDMDL
MODEL 2
REMARK VINA RESULT:    -4.283      1.251      5.605
REMARK INTER + INTRA:          -6.932
REMARK INTER:                  -6.360
REMARK INTRA:                  -0.573
REMARK UNBOUND:                -0.396
REMARK SMILES O=C([O-])CCCCCCCCC(=O)[O-]
REMARK SMILES IDX 7 1 6 2 5 3 4 4 2 5 1 6 3 7 8 8 9 9 10 10 11 11 12 12 13 13
REMARK SMILES IDX 14 14
REMARK H PARENT
REMARK Flexibility Score: inf
ROOT
ATOM      1  C   UNL     1      27.983  27.346 -15.976  1.00  0.00     0.000 C 
ENDROOT
BRANCH   1   2
ATOM      2  C   UNL     1      27.603  25.967 -16.536  1.00  0.00     0.000 C 
BRANCH   2   3
ATOM      3  C   UNL     1      27.044  26.089 -17.959  1.00  0.00     0.006 C 
BRANCH   3   4
ATOM      4  C   UNL     1      26.239  24.843 -18.342  1.00  0.00     0.053 C 
BRANCH   4   5
ATOM      5  C   UNL     1      27.031  23.970 -19.264  1.00  0.00     0.041 C 
ATOM      6  O   UNL     1      28.007  23.307 -18.827  1.00  0.00    -0.550 OA
ATOM      7  O   UNL     1      26.660  23.851 -20.597  1.00  0.00    -0.550 OA
ENDBRANCH   4   5
ENDBRANCH   3   4
ENDBRANCH   2   3
ENDBRANCH   1   2
BRANCH   1   8
ATOM      8  C   UNL     1      29.232  27.935 -16.648  1.00  0.00     0.000 C 
BRANCH   8   9
ATOM      9  C   UNL     1      28.896  29.044 -17.656  1.00  0.00     0.000 C 
BRANCH   9  10
ATOM     10  C   UNL     1      27.574  29.735 -17.291  1.00  0.00     0.006 C 
BRANCH  10  11
ATOM     11  C   UNL     1      26.555  29.684 -18.437  1.00  0.00     0.053 C 
BRANCH  11  12
ATOM     12  C   UNL     1      26.612  30.917 -19.286  1.00  0.00     0.041 C 
ATOM     13  O   UNL     1      25.890  31.911 -19.009  1.00  0.00    -0.550 OA
ATOM     14  O   UNL     1      27.487  30.979 -20.363  1.00  0.00    -0.550 OA
ENDBRANCH  11  12
ENDBRANCH  10  11
ENDBRANCH   9  10
ENDBRANCH   8   9
ENDBRANCH   1   8
TORSDOF 9
ENDMDL
MODEL 3
REMARK VINA RESULT:    -4.026      3.419      5.732
REMARK INTER + INTRA:          -6.540
REMARK INTER:                  -5.960
REMARK INTRA:                  -0.580
REMARK UNBOUND:                -0.396
REMARK SMILES O=C([O-])CCCCCCCCC(=O)[O-]
REMARK SMILES IDX 7 1 6 2 5 3 4 4 2 5 1 6 3 7 8 8 9 9 10 10 11 11 12 12 13 13
REMARK SMILES IDX 14 14
REMARK H PARENT
REMARK Flexibility Score: inf
ROOT
ATOM      1  C   UNL     1      27.670  26.392 -15.671  1.00  0.00     0.000 C 
ENDROOT
BRANCH   1   2
ATOM      2  C   UNL     1      26.924  25.192 -16.274  1.00  0.00     0.000 C 
BRANCH   2   3
ATOM      3  C   UNL     1      26.625  25.422 -17.760  1.00  0.00     0.006 C 
BRANCH   3   4
ATOM      4  C   UNL     1      27.237  24.313 -18.622  1.00  0.00     0.053 C 
BRANCH   4   5
ATOM      5  C   UNL     1      26.659  24.343 -20.002  1.00  0.00     0.041 C 
ATOM      6  O   UNL     1      25.795  25.204 -20.309  1.00  0.00    -0.550 OA
ATOM      7  O   UNL     1      27.112  23.448 -20.963  1.00  0.00    -0.550 OA
ENDBRANCH   4   5
ENDBRANCH   3   4
ENDBRANCH   2   3
ENDBRANCH   1   2
BRANCH   1   8
ATOM      8  C   UNL     1      28.016  27.461 -16.719  1.00  0.00     0.000 C 
BRANCH   8   9
ATOM      9  C   UNL     1      29.453  27.986 -16.578  1.00  0.00     0.000 C 
BRANCH   9  10
ATOM     10  C   UNL     1      30.472  26.854 -16.773  1.00  0.00     0.006 C 
BRANCH  10  11
ATOM     11  C   UNL     1      31.434  26.727 -15.584  1.00  0.00     0.053 C 
BRANCH  11  12
ATOM     12  C   UNL     1      32.802  26.300 -16.021  1.00  0.00     0.041 C 
ATOM     13  O   UNL     1      33.025  26.026 -17.229  1.00  0.00    -0.550 OA
ATOM     14  O   UNL     1      33.838  26.238 -15.097  1.00  0.00    -0.550 OA
ENDBRANCH  11  12
ENDBRANCH  10  11
ENDBRANCH   9  10
ENDBRANCH   8   9
ENDBRANCH   1   8
TORSDOF 9
ENDMDL
MODEL 4
REMARK VINA RESULT:    -3.992      1.052      5.199
REMARK INTER + INTRA:          -6.489
REMARK INTER:                  -5.857
REMARK INTRA:                  -0.632
REMARK UNBOUND:                -0.396
REMARK SMILES O=C([O-])CCCCCCCCC(=O)[O-]
REMARK SMILES IDX 7 1 6 2 5 3 4 4 2 5 1 6 3 7 8 8 9 9 10 10 11 11 12 12 13 13
REMARK SMILES IDX 14 14
REMARK H PARENT
REMARK Flexibility Score: inf
ROOT
ATOM      1  C   UNL     1      29.078  25.879 -16.796  1.00  0.00     0.000 C 
ENDROOT
BRANCH   1   2
ATOM      2  C   UNL     1      29.411  24.781 -17.817  1.00  0.00     0.000 C 
BRANCH   2   3
ATOM      3  C   UNL     1      28.270  23.760 -17.915  1.00  0.00     0.006 C 
BRANCH   3   4
ATOM      4  C   UNL     1      27.552  23.866 -19.264  1.00  0.00     0.053 C 
BRANCH   4   5
ATOM      5  C   UNL     1      26.357  24.759 -19.152  1.00  0.00     0.041 C 
ATOM      6  O   UNL     1      25.829  25.243 -20.187  1.00  0.00    -0.550 OA
ATOM      7  O   UNL     1      25.797  25.017 -17.908  1.00  0.00    -0.550 OA
ENDBRANCH   4   5
ENDBRANCH   3   4
ENDBRANCH   2   3
ENDBRANCH   1   2
BRANCH   1   8
ATOM      8  C   UNL     1      30.068  27.054 -16.846  1.00  0.00     0.000 C 
BRANCH   8   9
ATOM      9  C   UNL     1      29.367  28.415 -16.960  1.00  0.00     0.000 C 
BRANCH   9  10
ATOM     10  C   UNL     1      27.848  28.266 -16.789  1.00  0.00     0.006 C 
BRANCH  10  11
ATOM     11  C   UNL     1      27.087  28.539 -18.092  1.00  0.00     0.053 C 
BRANCH  11  12
ATOM     12  C   UNL     1      26.832  30.002 -18.291  1.00  0.00     0.041 C 
ATOM     13  O   UNL     1      26.796  30.488 -19.452  1.00  0.00    -0.550 OA
ATOM     14  O   UNL     1      26.603  30.823 -17.193  1.00  0.00    -0.550 OA
ENDBRANCH  11  12
ENDBRANCH  10  11
ENDBRANCH   9  10
ENDBRANCH   8   9
ENDBRANCH   1   8
TORSDOF 9
ENDMDL
MODEL 5
REMARK VINA RESULT:    -3.992      2.857      6.025
REMARK INTER + INTRA:          -6.488
REMARK INTER:                  -6.028
REMARK INTRA:                  -0.460
REMARK UNBOUND:                -0.396
REMARK SMILES O=C([O-])CCCCCCCCC(=O)[O-]
REMARK SMILES IDX 7 1 6 2 5 3 4 4 2 5 1 6 3 7 8 8 9 9 10 10 11 11 12 12 13 13
REMARK SMILES IDX 14 14
REMARK H PARENT
REMARK Flexibility Score: inf
ROOT
ATOM      1  C   UNL     1      30.226  27.007 -15.396  1.00  0.00     0.000 C 
ENDROOT
BRANCH   1   2
ATOM      2  C   UNL     1      29.015  26.617 -14.535  1.00  0.00     0.000 C 
BRANCH   2   3
ATOM      3  C   UNL     1      28.903  25.093 -14.405  1.00  0.00     0.006 C 
BRANCH   3   4
ATOM      4  C   UNL     1      27.660  24.570 -15.133  1.00  0.00     0.053 C 
BRANCH   4   5
ATOM      5  C   UNL     1      26.529  24.384 -14.171  1.00  0.00     0.041 C 
ATOM      6  O   UNL     1      26.729  23.840 -13.055  1.00  0.00    -0.550 OA
ATOM      7  O   UNL     1      25.262  24.858 -14.490  1.00  0.00    -0.550 OA
ENDBRANCH   4   5
ENDBRANCH   3   4
ENDBRANCH   2   3
ENDBRANCH   1   2
BRANCH   1   8
ATOM      8  C   UNL     1      29.821  27.597 -16.756  1.00  0.00     0.000 C 
BRANCH   8   9
ATOM      9  C   UNL     1      28.362  28.075 -16.783  1.00  0.00     0.000 C 
BRANCH   9  10
ATOM     10  C   UNL     1      28.246  29.444 -17.470  1.00  0.00     0.006 C 
BRANCH  10  11
ATOM     11  C   UNL     1      26.819  29.734 -17.951  1.00  0.00     0.053 C 
BRANCH  11  12
ATOM     12  C   UNL     1      26.800  30.744 -19.058  1.00  0.00     0.041 C 
ATOM     13  O   UNL     1      25.925  31.648 -19.077  1.00  0.00    -0.550 OA
ATOM     14  O   UNL     1      27.771  30.704 -20.052  1.00  0.00    -0.550 OA
ENDBRANCH  11  12
ENDBRANCH  10  11
ENDBRANCH   9  10
ENDBRANCH   8   9
ENDBRANCH   1   8
TORSDOF 9
ENDMDL
MODEL 6
REMARK VINA RESULT:    -3.936      2.945      4.883
REMARK INTER + INTRA:          -6.402
REMARK INTER:                  -5.413
REMARK INTRA:                  -0.989
REMARK UNBOUND:                -0.396
REMARK SMILES O=C([O-])CCCCCCCCC(=O)[O-]
REMARK SMILES IDX 7 1 6 2 5 3 4 4 2 5 1 6 3 7 8 8 9 9 10 10 11 11 12 12 13 13
REMARK SMILES IDX 14 14
REMARK H PARENT
REMARK Flexibility Score: inf
ROOT
ATOM      1  C   UNL     1      30.762  25.699 -17.392  1.00  0.00     0.000 C 
ENDROOT
BRANCH   1   2
ATOM      2  C   UNL     1      30.127  24.301 -17.408  1.00  0.00     0.000 C 
BRANCH   2   3
ATOM      3  C   UNL     1      29.247  24.112 -18.650  1.00  0.00     0.006 C 
BRANCH   3   4
ATOM      4  C   UNL     1      27.789  23.853 -18.256  1.00  0.00     0.053 C 
BRANCH   4   5
ATOM      5  C   UNL     1      26.864  24.328 -19.331  1.00  0.00     0.041 C 
ATOM      6  O   UNL     1      27.096  24.050 -20.536  1.00  0.00    -0.550 OA
ATOM      7  O   UNL     1      25.717  25.037 -18.997  1.00  0.00    -0.550 OA
ENDBRANCH   4   5
ENDBRANCH   3   4
ENDBRANCH   2   3
ENDBRANCH   1   2
BRANCH   1   8
ATOM      8  C   UNL     1      30.207  26.589 -16.268  1.00  0.00     0.000 C 
BRANCH   8   9
ATOM      9  C   UNL     1      29.090  27.526 -16.750  1.00  0.00     0.000 C 
BRANCH   9  10
ATOM     10  C   UNL     1      27.715  27.026 -16.283  1.00  0.00     0.006 C 
BRANCH  10  11
ATOM     11  C   UNL     1      27.779  26.354 -14.905  1.00  0.00     0.053 C 
BRANCH  11  12
ATOM     12  C   UNL     1      27.096  25.020 -14.906  1.00  0.00     0.041 C 
ATOM     13  O   UNL     1      27.641  24.029 -14.354  1.00  0.00    -0.550 OA
ATOM     14  O   UNL     1      25.843  24.881 -15.489  1.00  0.00    -0.550 OA
ENDBRANCH  11  12
ENDBRANCH  10  11
ENDBRANCH   9  10
ENDBRANCH   8   9
ENDBRANCH   1   8
TORSDOF 9
ENDMDL
MODEL 7
REMARK VINA RESULT:    -3.845      2.270      3.221
REMARK INTER + INTRA:          -6.264
REMARK INTER:                  -5.355
REMARK INTRA:                  -0.909
REMARK UNBOUND:                -0.396
REMARK SMILES O=C([O-])CCCCCCCCC(=O)[O-]
REMARK SMILES IDX 7 1 6 2 5 3 4 4 2 5 1 6 3 7 8 8 9 9 10 10 11 11 12 12 13 13
REMARK SMILES IDX 14 14
REMARK H PARENT
REMARK Flexibility Score: inf
ROOT
ATOM      1  C   UNL     1      31.261  25.412 -17.265  1.00  0.00     0.000 C 
ENDROOT
BRANCH   1   2
ATOM      2  C   UNL     1      31.756  26.371 -16.173  1.00  0.00     0.000 C 
BRANCH   2   3
ATOM      3  C   UNL     1      30.602  27.216 -15.621  1.00  0.00     0.006 C 
BRANCH   3   4
ATOM      4  C   UNL     1      29.744  27.783 -16.757  1.00  0.00     0.053 C 
BRANCH   4   5
ATOM      5  C   UNL     1      28.292  27.537 -16.490  1.00  0.00     0.041 C 
ATOM      6  O   UNL     1      27.415  28.070 -17.218  1.00  0.00    -0.550 OA
ATOM      7  O   UNL     1      27.910  26.679 -15.467  1.00  0.00    -0.550 OA
ENDBRANCH   4   5
ENDBRANCH   3   4
ENDBRANCH   2   3
ENDBRANCH   1   2
BRANCH   1   8
ATOM      8  C   UNL     1      30.824  24.050 -16.704  1.00  0.00     0.000 C 
BRANCH   8   9
ATOM      9  C   UNL     1      29.341  23.750 -16.963  1.00  0.00     0.000 C 
BRANCH   9  10
ATOM     10  C   UNL     1      28.867  24.411 -18.266  1.00  0.00     0.006 C 
BRANCH  10  11
ATOM     11  C   UNL     1      27.727  23.631 -18.933  1.00  0.00     0.053 C 
BRANCH  11  12
ATOM     12  C   UNL     1      26.529  24.497 -19.175  1.00  0.00     0.041 C 
ATOM     13  O   UNL     1      26.144  24.734 -20.350  1.00  0.00    -0.550 OA
ATOM     14  O   UNL     1      25.818  25.016 -18.100  1.00  0.00    -0.550 OA
ENDBRANCH  11  12
ENDBRANCH  10  11
ENDBRANCH   9  10
ENDBRANCH   8   9
ENDBRANCH   1   8
TORSDOF 9
ENDMDL
MODEL 8
REMARK VINA RESULT:    -3.835      2.978      4.850
REMARK INTER + INTRA:          -6.249
REMARK INTER:                  -5.405
REMARK INTRA:                  -0.844
REMARK UNBOUND:                -0.396
REMARK SMILES O=C([O-])CCCCCCCCC(=O)[O-]
REMARK SMILES IDX 7 1 6 2 5 3 4 4 2 5 1 6 3 7 8 8 9 9 10 10 11 11 12 12 13 13
REMARK SMILES IDX 14 14
REMARK H PARENT
REMARK Flexibility Score: inf
ROOT
ATOM      1  C   UNL     1      30.174  26.990 -16.707  1.00  0.00     0.000 C 
ENDROOT
BRANCH   1   2
ATOM      2  C   UNL     1      31.076  27.137 -15.472  1.00  0.00     0.000 C 
BRANCH   2   3
ATOM      3  C   UNL     1      31.119  25.833 -14.666  1.00  0.00     0.006 C 
BRANCH   3   4
ATOM      4  C   UNL     1      30.428  26.002 -13.310  1.00  0.00     0.053 C 
BRANCH   4   5
ATOM      5  C   UNL     1      28.968  25.692 -13.423  1.00  0.00     0.041 C 
ATOM      6  O   UNL     1      28.118  26.619 -13.386  1.00  0.00    -0.550 OA
ATOM      7  O   UNL     1      28.550  24.382 -13.619  1.00  0.00    -0.550 OA
ENDBRANCH   4   5
ENDBRANCH   3   4
ENDBRANCH   2   3
ENDBRANCH   1   2
BRANCH   1   8
ATOM      8  C   UNL     1      29.004  27.986 -16.708  1.00  0.00     0.000 C 
BRANCH   8   9
ATOM      9  C   UNL     1      27.646  27.305 -16.934  1.00  0.00     0.000 C 
BRANCH   9  10
ATOM     10  C   UNL     1      27.797  25.777 -16.964  1.00  0.00     0.006 C 
BRANCH  10  11
ATOM     11  C   UNL     1      26.498  25.073 -17.378  1.00  0.00     0.053 C 
BRANCH  11  12
ATOM     12  C   UNL     1      26.505  24.705 -18.830  1.00  0.00     0.041 C 
ATOM     13  O   UNL     1      27.199  23.735 -19.235  1.00  0.00    -0.550 OA
ATOM     14  O   UNL     1      25.719  25.412 -19.731  1.00  0.00    -0.550 OA
ENDBRANCH  11  12
ENDBRANCH  10  11
ENDBRANCH   9  10
ENDBRANCH   8   9
ENDBRANCH   1   8
TORSDOF 9
ENDMDL
MODEL 9
REMARK VINA RESULT:    -3.776      2.869      4.827
REMARK INTER + INTRA:          -6.158
REMARK INTER:                  -5.444
REMARK INTRA:                  -0.714
REMARK UNBOUND:                -0.396
REMARK SMILES O=C([O-])CCCCCCCCC(=O)[O-]
REMARK SMILES IDX 7 1 6 2 5 3 4 4 2 5 1 6 3 7 8 8 9 9 10 10 11 11 12 12 13 13
REMARK SMILES IDX 14 14
REMARK H PARENT
REMARK Flexibility Score: inf
ROOT
ATOM      1  C   UNL     1      27.970  27.471 -16.736  1.00  0.00     0.000 C 
ENDROOT
BRANCH   1   2
ATOM      2  C   UNL     1      27.756  25.990 -16.391  1.00  0.00     0.000 C 
BRANCH   2   3
ATOM      3  C   UNL     1      26.751  25.343 -17.352  1.00  0.00     0.006 C 
BRANCH   3   4
ATOM      4  C   UNL     1      27.468  24.497 -18.409  1.00  0.00     0.053 C 
BRANCH   4   5
ATOM      5  C   UNL     1      26.694  24.493 -19.690  1.00  0.00     0.041 C 
ATOM      6  O   UNL     1      25.699  25.249 -19.832  1.00  0.00    -0.550 OA
ATOM      7  O   UNL     1      27.103  23.687 -20.745  1.00  0.00    -0.550 OA
ENDBRANCH   4   5
ENDBRANCH   3   4
ENDBRANCH   2   3
ENDBRANCH   1   2
BRANCH   1   8
ATOM      8  C   UNL     1      29.456  27.860 -16.785  1.00  0.00     0.000 C 
BRANCH   8   9
ATOM      9  C   UNL     1      30.368  26.795 -16.157  1.00  0.00     0.000 C 
BRANCH   9  10
ATOM     10  C   UNL     1      31.399  26.288 -17.175  1.00  0.00     0.006 C 
BRANCH  10  11
ATOM     11  C   UNL     1      31.109  24.851 -17.630  1.00  0.00     0.053 C 
BRANCH  11  12
ATOM     12  C   UNL     1      31.847  24.507 -18.887  1.00  0.00     0.041 C 
ATOM     13  O   UNL     1      31.566  23.455 -19.520  1.00  0.00    -0.550 OA
ATOM     14  O   UNL     1      32.823  25.366 -19.378  1.00  0.00    -0.550 OA
ENDBRANCH  11  12
ENDBRANCH  10  11
ENDBRANCH   9  10
ENDBRANCH   8   9
ENDBRANCH   1   8
TORSDOF 9
ENDMDL
