MODEL 1
REMARK VINA RESULT:    -3.646      0.000      0.000
REMARK INTER + INTRA:          -5.000
REMARK INTER:                  -4.712
REMARK INTRA:                  -0.289
REMARK UNBOUND:                -0.289
REMARK SMILES CCCCCCC(=O)[O-]
REMARK SMILES IDX 5 1 6 2 7 3 8 4 9 5 4 6 3 7 2 8 1 9
REMARK H PARENT
REMARK Flexibility Score: inf
ROOT
ATOM      1  C   UNL     1      -3.196  -2.426   8.512  1.00  0.00     0.006 C 
ENDROOT
BRANCH   1   2
ATOM      2  C   UNL     1      -4.321  -1.487   8.968  1.00  0.00     0.053 C 
BRANCH   2   3
ATOM      3  C   UNL     1      -3.796  -0.341   9.776  1.00  0.00     0.041 C 
ATOM      4  O   UNL     1      -4.016  -0.285  11.014  1.00  0.00    -0.550 OA
ATOM      5  O   UNL     1      -3.095   0.685   9.155  1.00  0.00    -0.550 OA
ENDBRANCH   2   3
ENDBRANCH   1   2
BRANCH   1   6
ATOM      6  C   UNL     1      -3.458  -3.886   8.923  1.00  0.00     0.000 C 
BRANCH   6   7
ATOM      7  C   UNL     1      -3.604  -4.062  10.445  1.00  0.00    -0.000 C 
BRANCH   7   8
ATOM      8  C   UNL     1      -4.730  -5.017  10.880  1.00  0.00    -0.003 C 
ATOM      9  C   UNL     1      -5.748  -5.285   9.772  1.00  0.00     0.004 C 
ENDBRANCH   7   8
ENDBRANCH   6   7
ENDBRANCH   1   6
TORSDOF 5
ENDMDL
MODEL 2
REMARK VINA RESULT:    -3.578      6.999      8.584
REMARK INTER + INTRA:          -4.912
REMARK INTER:                  -4.665
REMARK INTRA:                  -0.247
REMARK UNBOUND:                -0.289
REMARK SMILES CCCCCCC(=O)[O-]
REMARK SMILES IDX 5 1 6 2 7 3 8 4 9 5 4 6 3 7 2 8 1 9
REMARK H PARENT
REMARK Flexibility Score: inf
ROOT
ATOM      1  C   UNL     1      -6.712   2.867  16.414  1.00  0.00     0.006 C 
ENDROOT
BRANCH   1   2
ATOM      2  C   UNL     1      -7.562   4.143  16.362  1.00  0.00     0.053 C 
BRANCH   2   3
ATOM      3  C   UNL     1      -8.053   4.427  14.976  1.00  0.00     0.041 C 
ATOM      4  O   UNL     1      -7.357   5.118  14.186  1.00  0.00    -0.550 OA
ATOM      5  O   UNL     1      -9.298   3.962  14.570  1.00  0.00    -0.550 OA
ENDBRANCH   2   3
ENDBRANCH   1   2
BRANCH   1   6
ATOM      6  C   UNL     1      -5.248   3.128  16.015  1.00  0.00     0.000 C 
BRANCH   6   7
ATOM      7  C   UNL     1      -4.708   2.093  15.013  1.00  0.00    -0.000 C 
BRANCH   7   8
ATOM      8  C   UNL     1      -5.538   1.947  13.725  1.00  0.00    -0.003 C 
ATOM      9  C   UNL     1      -5.074   0.789  12.842  1.00  0.00     0.004 C 
ENDBRANCH   7   8
ENDBRANCH   6   7
ENDBRANCH   1   6
TORSDOF 5
ENDMDL
MODEL 3
REMARK VINA RESULT:    -3.539      2.308      4.152
REMARK INTER + INTRA:          -4.863
REMARK INTER:                  -4.504
REMARK INTRA:                  -0.359
REMARK UNBOUND:                -0.289
REMARK SMILES CCCCCCC(=O)[O-]
REMARK SMILES IDX 5 1 6 2 7 3 8 4 9 5 4 6 3 7 2 8 1 9
REMARK H PARENT
REMARK Flexibility Score: inf
ROOT
ATOM      1  C   UNL     1      -2.889  -3.657   8.906  1.00  0.00     0.006 C 
ENDROOT
BRANCH   1   2
ATOM      2  C   UNL     1      -4.290  -4.054   9.388  1.00  0.00     0.053 C 
BRANCH   2   3
ATOM      3  C   UNL     1      -4.267  -4.580  10.790  1.00  0.00     0.041 C 
ATOM      4  O   UNL     1      -4.928  -5.609  11.092  1.00  0.00    -0.550 OA
ATOM      5  O   UNL     1      -3.547  -3.912  11.773  1.00  0.00    -0.550 OA
ENDBRANCH   2   3
ENDBRANCH   1   2
BRANCH   1   6
ATOM      6  C   UNL     1      -2.855  -2.227   8.337  1.00  0.00     0.000 C 
BRANCH   6   7
ATOM      7  C   UNL     1      -4.128  -1.425   8.660  1.00  0.00    -0.000 C 
BRANCH   7   8
ATOM      8  C   UNL     1      -3.892  -0.140   9.473  1.00  0.00    -0.003 C 
ATOM      9  C   UNL     1      -3.620  -0.410  10.953  1.00  0.00     0.004 C 
ENDBRANCH   7   8
ENDBRANCH   6   7
ENDBRANCH   1   6
TORSDOF 5
ENDMDL
MODEL 4
REMARK VINA RESULT:    -3.480      2.670      4.386
REMARK INTER + INTRA:          -4.786
REMARK INTER:                  -4.428
REMARK INTRA:                  -0.359
REMARK UNBOUND:                -0.289
REMARK SMILES CCCCCCC(=O)[O-]
REMARK SMILES IDX 5 1 6 2 7 3 8 4 9 5 4 6 3 7 2 8 1 9
REMARK H PARENT
REMARK Flexibility Score: inf
ROOT
ATOM      1  C   UNL     1      -2.417  -3.417  11.482  1.00  0.00     0.006 C 
ENDROOT
BRANCH   1   2
ATOM      2  C   UNL     1      -3.906  -3.771  11.579  1.00  0.00     0.053 C 
BRANCH   2   3
ATOM      3  C   UNL     1      -4.374  -4.543  10.384  1.00  0.00     0.041 C 
ATOM      4  O   UNL     1      -3.857  -4.335   9.254  1.00  0.00    -0.550 OA
ATOM      5  O   UNL     1      -5.406  -5.464  10.510  1.00  0.00    -0.550 OA
ENDBRANCH   2   3
ENDBRANCH   1   2
BRANCH   1   6
ATOM      6  C   UNL     1      -2.193  -1.921  11.198  1.00  0.00     0.000 C 
BRANCH   6   7
ATOM      7  C   UNL     1      -3.481  -1.089  11.329  1.00  0.00    -0.000 C 
BRANCH   7   8
ATOM      8  C   UNL     1      -3.778  -0.166  10.134  1.00  0.00    -0.003 C 
ATOM      9  C   UNL     1      -4.134  -0.932   8.860  1.00  0.00     0.004 C 
ENDBRANCH   7   8
ENDBRANCH   6   7
ENDBRANCH   1   6
TORSDOF 5
ENDMDL
MODEL 5
REMARK VINA RESULT:    -3.462      6.752      8.312
REMARK INTER + INTRA:          -4.763
REMARK INTER:                  -4.580
REMARK INTRA:                  -0.183
REMARK UNBOUND:                -0.289
REMARK SMILES CCCCCCC(=O)[O-]
REMARK SMILES IDX 5 1 6 2 7 3 8 4 9 5 4 6 3 7 2 8 1 9
REMARK H PARENT
REMARK Flexibility Score: inf
ROOT
ATOM      1  C   UNL     1      -5.455   3.235  16.163  1.00  0.00     0.006 C 
ENDROOT
BRANCH   1   2
ATOM      2  C   UNL     1      -6.942   2.914  16.356  1.00  0.00     0.053 C 
BRANCH   2   3
ATOM      3  C   UNL     1      -7.813   4.080  16.003  1.00  0.00     0.041 C 
ATOM      4  O   UNL     1      -7.924   5.052  16.797  1.00  0.00    -0.550 OA
ATOM      5  O   UNL     1      -8.532   4.077  14.815  1.00  0.00    -0.550 OA
ENDBRANCH   2   3
ENDBRANCH   1   2
BRANCH   1   6
ATOM      6  C   UNL     1      -4.769   2.249  15.200  1.00  0.00     0.000 C 
BRANCH   6   7
ATOM      7  C   UNL     1      -5.182   2.462  13.733  1.00  0.00    -0.000 C 
BRANCH   7   8
ATOM      8  C   UNL     1      -5.544   1.175  12.971  1.00  0.00    -0.003 C 
ATOM      9  C   UNL     1      -4.427   0.692  12.047  1.00  0.00     0.004 C 
ENDBRANCH   7   8
ENDBRANCH   6   7
ENDBRANCH   1   6
TORSDOF 5
ENDMDL
MODEL 6
REMARK VINA RESULT:    -3.416      8.766      9.909
REMARK INTER + INTRA:          -4.703
REMARK INTER:                  -4.247
REMARK INTRA:                  -0.455
REMARK UNBOUND:                -0.289
REMARK SMILES CCCCCCC(=O)[O-]
REMARK SMILES IDX 5 1 6 2 7 3 8 4 9 5 4 6 3 7 2 8 1 9
REMARK H PARENT
REMARK Flexibility Score: inf
ROOT
ATOM      1  C   UNL     1      -5.812   2.862  15.498  1.00  0.00     0.006 C 
ENDROOT
BRANCH   1   2
ATOM      2  C   UNL     1      -7.005   2.842  16.463  1.00  0.00     0.053 C 
BRANCH   2   3
ATOM      3  C   UNL     1      -7.941   3.984  16.213  1.00  0.00     0.041 C 
ATOM      4  O   UNL     1      -8.837   3.888  15.334  1.00  0.00    -0.550 OA
ATOM      5  O   UNL     1      -7.799   5.169  16.924  1.00  0.00    -0.550 OA
ENDBRANCH   2   3
ENDBRANCH   1   2
BRANCH   1   6
ATOM      6  C   UNL     1      -4.653   3.724  16.027  1.00  0.00     0.000 C 
BRANCH   6   7
ATOM      7  C   UNL     1      -4.501   5.054  15.267  1.00  0.00    -0.000 C 
BRANCH   7   8
ATOM      8  C   UNL     1      -5.238   5.113  13.917  1.00  0.00    -0.003 C 
ATOM      9  C   UNL     1      -6.271   6.238  13.848  1.00  0.00     0.004 C 
ENDBRANCH   7   8
ENDBRANCH   6   7
ENDBRANCH   1   6
TORSDOF 5
ENDMDL
MODEL 7
REMARK VINA RESULT:    -3.390      7.364      8.785
REMARK INTER + INTRA:          -4.669
REMARK INTER:                  -4.501
REMARK INTRA:                  -0.169
REMARK UNBOUND:                -0.289
REMARK SMILES CCCCCCC(=O)[O-]
REMARK SMILES IDX 5 1 6 2 7 3 8 4 9 5 4 6 3 7 2 8 1 9
REMARK H PARENT
REMARK Flexibility Score: inf
ROOT
ATOM      1  C   UNL     1      -5.582   3.099  15.893  1.00  0.00     0.006 C 
ENDROOT
BRANCH   1   2
ATOM      2  C   UNL     1      -6.991   2.936  16.479  1.00  0.00     0.053 C 
BRANCH   2   3
ATOM      3  C   UNL     1      -7.863   4.112  16.166  1.00  0.00     0.041 C 
ATOM      4  O   UNL     1      -8.647   4.075  15.181  1.00  0.00    -0.550 OA
ATOM      5  O   UNL     1      -7.784   5.263  16.939  1.00  0.00    -0.550 OA
ENDBRANCH   2   3
ENDBRANCH   1   2
BRANCH   1   6
ATOM      6  C   UNL     1      -5.425   2.366  14.549  1.00  0.00     0.000 C 
BRANCH   6   7
ATOM      7  C   UNL     1      -4.156   1.497  14.487  1.00  0.00    -0.000 C 
BRANCH   7   8
ATOM      8  C   UNL     1      -2.919   2.113  15.163  1.00  0.00    -0.003 C 
ATOM      9  C   UNL     1      -1.757   1.128  15.297  1.00  0.00     0.004 C 
ENDBRANCH   7   8
ENDBRANCH   6   7
ENDBRANCH   1   6
TORSDOF 5
ENDMDL
MODEL 8
REMARK VINA RESULT:    -3.374      7.860      9.405
REMARK INTER + INTRA:          -4.649
REMARK INTER:                  -4.341
REMARK INTRA:                  -0.308
REMARK UNBOUND:                -0.289
REMARK SMILES CCCCCCC(=O)[O-]
REMARK SMILES IDX 5 1 6 2 7 3 8 4 9 5 4 6 3 7 2 8 1 9
REMARK H PARENT
REMARK Flexibility Score: inf
ROOT
ATOM      1  C   UNL     1      -7.455   3.501  15.772  1.00  0.00     0.006 C 
ENDROOT
BRANCH   1   2
ATOM      2  C   UNL     1      -7.838   4.700  16.649  1.00  0.00     0.053 C 
BRANCH   2   3
ATOM      3  C   UNL     1      -6.777   5.757  16.641  1.00  0.00     0.041 C 
ATOM      4  O   UNL     1      -6.290   6.158  15.552  1.00  0.00    -0.550 OA
ATOM      5  O   UNL     1      -6.297   6.270  17.840  1.00  0.00    -0.550 OA
ENDBRANCH   2   3
ENDBRANCH   1   2
BRANCH   1   6
ATOM      6  C   UNL     1      -6.305   2.680  16.383  1.00  0.00     0.000 C 
BRANCH   6   7
ATOM      7  C   UNL     1      -5.068   2.612  15.469  1.00  0.00    -0.000 C 
BRANCH   7   8
ATOM      8  C   UNL     1      -5.377   2.642  13.962  1.00  0.00    -0.003 C 
ATOM      9  C   UNL     1      -5.190   1.283  13.286  1.00  0.00     0.004 C 
ENDBRANCH   7   8
ENDBRANCH   6   7
ENDBRANCH   1   6
TORSDOF 5
ENDMDL
MODEL 9
REMARK VINA RESULT:    -3.359      6.682      8.524
REMARK INTER + INTRA:          -4.629
REMARK INTER:                  -4.357
REMARK INTRA:                  -0.272
REMARK UNBOUND:                -0.289
REMARK SMILES CCCCCCC(=O)[O-]
REMARK SMILES IDX 5 1 6 2 7 3 8 4 9 5 4 6 3 7 2 8 1 9
REMARK H PARENT
REMARK Flexibility Score: inf
ROOT
ATOM      1  C   UNL     1      -5.060   3.071  15.931  1.00  0.00     0.006 C 
ENDROOT
BRANCH   1   2
ATOM      2  C   UNL     1      -4.528   1.971  15.003  1.00  0.00     0.053 C 
BRANCH   2   3
ATOM      3  C   UNL     1      -4.944   2.194  13.582  1.00  0.00     0.041 C 
ATOM      4  O   UNL     1      -4.558   3.219  12.961  1.00  0.00    -0.550 OA
ATOM      5  O   UNL     1      -5.790   1.288  12.954  1.00  0.00    -0.550 OA
ENDBRANCH   2   3
ENDBRANCH   1   2
BRANCH   1   6
ATOM      6  C   UNL     1      -6.466   2.747  16.468  1.00  0.00     0.000 C 
BRANCH   6   7
ATOM      7  C   UNL     1      -7.439   3.934  16.350  1.00  0.00    -0.000 C 
BRANCH   7   8
ATOM      8  C   UNL     1      -7.754   4.370  14.909  1.00  0.00    -0.003 C 
ATOM      9  C   UNL     1      -9.157   3.966  14.454  1.00  0.00     0.004 C 
ENDBRANCH   7   8
ENDBRANCH   6   7
ENDBRANCH   1   6
TORSDOF 5
ENDMDL
