MODEL 1
REMARK VINA RESULT:    13.551      0.000      0.000
REMARK INTER + INTRA:          15.631
REMARK INTER:                  15.927
REMARK INTRA:                  -0.296
REMARK UNBOUND:                -0.296
REMARK SMILES O=c1cc(-c2ccc(O)c(O)c2)oc2cc(O)cc(O)c12
REMARK SMILES IDX 4 1 3 2 2 3 1 4 21 5 19 6 18 7 16 8 15 9 14 10 13 11 5 12
REMARK SMILES IDX 6 13 7 14 8 15 12 16 10 17 9 18 11 20 20 22 17 24
REMARK H PARENT 9 19 11 21 20 23 17 25
REMARK Flexibility Score: inf
ROOT
ATOM      1  C   UNL     1     103.985 104.182 102.146  1.00  0.00     0.138 A 
ATOM      2  C   UNL     1     104.340 105.471 102.567  1.00  0.00     0.100 A 
ATOM      3  C   UNL     1     104.416 105.757 103.931  1.00  0.00     0.197 A 
ATOM      4  O   UNL     1     104.797 106.904 104.278  1.00  0.00    -0.289 OA
ATOM      5  C   UNL     1     104.105 104.751 104.877  1.00  0.00     0.107 A 
ATOM      6  C   UNL     1     104.108 104.939 106.293  1.00  0.00     0.134 A 
ATOM      7  C   UNL     1     103.896 103.841 107.134  1.00  0.00     0.093 A 
ATOM      8  C   UNL     1     103.622 102.576 106.614  1.00  0.00     0.123 A 
ATOM      9  C   UNL     1     103.562 102.393 105.232  1.00  0.00     0.094 A 
ATOM     10  C   UNL     1     103.803 103.461 104.366  1.00  0.00     0.146 A 
ATOM     11  O   UNL     1     103.751 103.242 103.057  1.00  0.00    -0.456 OA
ENDROOT
BRANCH   1  12
ATOM     12  C   UNL     1     103.888 103.825 100.709  1.00  0.00     0.021 A 
ATOM     13  C   UNL     1     103.399 102.560 100.342  1.00  0.00     0.016 A 
ATOM     14  C   UNL     1     103.291 102.202  98.995  1.00  0.00     0.051 A 
ATOM     15  C   UNL     1     103.659 103.104  97.992  1.00  0.00     0.157 A 
ATOM     16  C   UNL     1     104.247 104.735  99.694  1.00  0.00     0.062 A 
ATOM     17  C   UNL     1     104.137 104.378  98.342  1.00  0.00     0.158 A 
BRANCH  15  18
ATOM     18  O   UNL     1     103.542 102.718  96.657  1.00  0.00    -0.504 OA
ATOM     19  H   UNL     1     104.339 102.409  96.115  1.00  0.00     0.293 HD
ENDBRANCH  15  18
BRANCH  17  20
ATOM     20  O   UNL     1     104.496 105.285  97.346  1.00  0.00    -0.504 OA
ATOM     21  H   UNL     1     104.527 105.017  96.370  1.00  0.00     0.293 HD
ENDBRANCH  17  20
ENDBRANCH   1  12
BRANCH   6  22
ATOM     22  O   UNL     1     104.288 106.177 106.916  1.00  0.00    -0.507 OA
ATOM     23  H   UNL     1     104.648 106.306 107.849  1.00  0.00     0.293 HD
ENDBRANCH   6  22
BRANCH   8  24
ATOM     24  O   UNL     1     103.401 101.509 107.482  1.00  0.00    -0.508 OA
ATOM     25  H   UNL     1     103.757 101.516 108.431  1.00  0.00     0.293 HD
ENDBRANCH   8  24
TORSDOF 5
ENDMDL
MODEL 2
REMARK VINA RESULT:    13.551      1.109      2.948
REMARK INTER + INTRA:          15.631
REMARK INTER:                  15.927
REMARK INTRA:                  -0.296
REMARK UNBOUND:                -0.296
REMARK SMILES O=c1cc(-c2ccc(O)c(O)c2)oc2cc(O)cc(O)c12
REMARK SMILES IDX 4 1 3 2 2 3 1 4 21 5 19 6 18 7 16 8 15 9 14 10 13 11 5 12
REMARK SMILES IDX 6 13 7 14 8 15 12 16 10 17 9 18 11 20 20 22 17 24
REMARK H PARENT 9 19 11 21 20 23 17 25
REMARK Flexibility Score: inf
ROOT
ATOM      1  C   UNL     1     104.010 104.139 102.118  1.00  0.00     0.138 A 
ATOM      2  C   UNL     1     103.649 102.851 102.538  1.00  0.00     0.100 A 
ATOM      3  C   UNL     1     103.566 102.567 103.902  1.00  0.00     0.197 A 
ATOM      4  O   UNL     1     103.181 101.420 104.248  1.00  0.00    -0.289 OA
ATOM      5  C   UNL     1     103.877 103.572 104.848  1.00  0.00     0.107 A 
ATOM      6  C   UNL     1     103.867 103.386 106.264  1.00  0.00     0.134 A 
ATOM      7  C   UNL     1     104.078 104.484 107.106  1.00  0.00     0.093 A 
ATOM      8  C   UNL     1     104.358 105.747 106.586  1.00  0.00     0.123 A 
ATOM      9  C   UNL     1     104.425 105.929 105.204  1.00  0.00     0.094 A 
ATOM     10  C   UNL     1     104.184 104.861 104.338  1.00  0.00     0.146 A 
ATOM     11  O   UNL     1     104.243 105.079 103.028  1.00  0.00    -0.456 OA
ENDROOT
BRANCH   1  12
ATOM     12  C   UNL     1     104.114 104.494 100.680  1.00  0.00     0.021 A 
ATOM     13  C   UNL     1     104.603 105.760 100.314  1.00  0.00     0.016 A 
ATOM     14  C   UNL     1     104.718 106.116  98.968  1.00  0.00     0.051 A 
ATOM     15  C   UNL     1     104.356 105.213  97.964  1.00  0.00     0.157 A 
ATOM     16  C   UNL     1     103.762 103.583  99.664  1.00  0.00     0.062 A 
ATOM     17  C   UNL     1     103.878 103.939  98.313  1.00  0.00     0.158 A 
BRANCH  15  18
ATOM     18  O   UNL     1     104.480 105.598  96.630  1.00  0.00    -0.504 OA
ATOM     19  H   UNL     1     103.674 105.759  96.039  1.00  0.00     0.293 HD
ENDBRANCH  15  18
BRANCH  17  20
ATOM     20  O   UNL     1     103.526 103.030  97.316  1.00  0.00    -0.504 OA
ATOM     21  H   UNL     1     102.557 102.854  97.076  1.00  0.00     0.293 HD
ENDBRANCH  17  20
ENDBRANCH   1  12
BRANCH   6  22
ATOM     22  O   UNL     1     103.680 102.148 106.888  1.00  0.00    -0.507 OA
ATOM     23  H   UNL     1     104.337 101.716 107.519  1.00  0.00     0.293 HD
ENDBRANCH   6  22
BRANCH   8  24
ATOM     24  O   UNL     1     104.578 106.814 107.454  1.00  0.00    -0.508 OA
ATOM     25  H   UNL     1     104.714 106.669 108.448  1.00  0.00     0.293 HD
ENDBRANCH   8  24
TORSDOF 5
ENDMDL
MODEL 3
REMARK VINA RESULT:    13.571      2.693      5.489
REMARK INTER + INTRA:          15.655
REMARK INTER:                  15.951
REMARK INTRA:                  -0.296
REMARK UNBOUND:                -0.296
REMARK SMILES O=c1cc(-c2ccc(O)c(O)c2)oc2cc(O)cc(O)c12
REMARK SMILES IDX 4 1 3 2 2 3 1 4 21 5 19 6 18 7 16 8 15 9 14 10 13 11 5 12
REMARK SMILES IDX 6 13 7 14 8 15 12 16 10 17 9 18 11 20 20 22 17 24
REMARK H PARENT 9 19 11 21 20 23 17 25
REMARK Flexibility Score: inf
ROOT
ATOM      1  C   UNL     1     104.024 104.187 106.771  1.00  0.00     0.138 A 
ATOM      2  C   UNL     1     103.646 102.902 107.186  1.00  0.00     0.100 A 
ATOM      3  C   UNL     1     103.556 102.615 108.549  1.00  0.00     0.197 A 
ATOM      4  O   UNL     1     103.154 101.473 108.891  1.00  0.00    -0.289 OA
ATOM      5  C   UNL     1     103.878 103.613 109.500  1.00  0.00     0.107 A 
ATOM      6  C   UNL     1     103.862 103.422 110.914  1.00  0.00     0.134 A 
ATOM      7  C   UNL     1     104.086 104.515 111.760  1.00  0.00     0.093 A 
ATOM      8  C   UNL     1     104.385 105.776 111.245  1.00  0.00     0.123 A 
ATOM      9  C   UNL     1     104.457 105.961 109.864  1.00  0.00     0.094 A 
ATOM     10  C   UNL     1     104.204 104.900 108.994  1.00  0.00     0.146 A 
ATOM     11  O   UNL     1     104.268 105.121 107.685  1.00  0.00    -0.456 OA
ENDROOT
BRANCH   1  12
ATOM     12  C   UNL     1     104.136 104.545 105.335  1.00  0.00     0.021 A 
ATOM     13  C   UNL     1     104.649 105.803 104.974  1.00  0.00     0.016 A 
ATOM     14  C   UNL     1     104.772 106.162 103.629  1.00  0.00     0.051 A 
ATOM     15  C   UNL     1     104.394 105.270 102.622  1.00  0.00     0.157 A 
ATOM     16  C   UNL     1     103.768 103.645 104.316  1.00  0.00     0.062 A 
ATOM     17  C   UNL     1     103.892 104.003 102.965  1.00  0.00     0.158 A 
BRANCH  15  18
ATOM     18  O   UNL     1     104.526 105.657 101.289  1.00  0.00    -0.504 OA
ATOM     19  H   UNL     1     105.325 105.390 100.728  1.00  0.00     0.293 HD
ENDBRANCH  15  18
BRANCH  17  20
ATOM     20  O   UNL     1     103.523 103.105 101.965  1.00  0.00    -0.504 OA
ATOM     21  H   UNL     1     102.600 102.687 101.940  1.00  0.00     0.293 HD
ENDBRANCH  17  20
ENDBRANCH   1  12
BRANCH   6  22
ATOM     22  O   UNL     1     103.658 102.185 111.534  1.00  0.00    -0.507 OA
ATOM     23  H   UNL     1     103.477 101.320 111.048  1.00  0.00     0.293 HD
ENDBRANCH   6  22
BRANCH   8  24
ATOM     24  O   UNL     1     104.617 106.837 112.117  1.00  0.00    -0.508 OA
ATOM     25  H   UNL     1     103.915 107.547 112.287  1.00  0.00     0.293 HD
ENDBRANCH   8  24
TORSDOF 5
ENDMDL
MODEL 4
REMARK VINA RESULT:    13.616      2.648      4.615
REMARK INTER + INTRA:          15.708
REMARK INTER:                  16.005
REMARK INTRA:                  -0.296
REMARK UNBOUND:                -0.296
REMARK SMILES O=c1cc(-c2ccc(O)c(O)c2)oc2cc(O)cc(O)c12
REMARK SMILES IDX 4 1 3 2 2 3 1 4 21 5 19 6 18 7 16 8 15 9 14 10 13 11 5 12
REMARK SMILES IDX 6 13 7 14 8 15 12 16 10 17 9 18 11 20 20 22 17 24
REMARK H PARENT 9 19 11 21 20 23 17 25
REMARK Flexibility Score: inf
ROOT
ATOM      1  C   UNL     1     103.962 104.019 106.758  1.00  0.00     0.138 A 
ATOM      2  C   UNL     1     104.362 105.294 107.184  1.00  0.00     0.100 A 
ATOM      3  C   UNL     1     104.447 105.572 108.549  1.00  0.00     0.197 A 
ATOM      4  O   UNL     1     104.868 106.704 108.900  1.00  0.00    -0.289 OA
ATOM      5  C   UNL     1     104.099 104.574 109.491  1.00  0.00     0.107 A 
ATOM      6  C   UNL     1     104.107 104.757 110.907  1.00  0.00     0.134 A 
ATOM      7  C   UNL     1     103.856 103.664 111.745  1.00  0.00     0.093 A 
ATOM      8  C   UNL     1     103.536 102.412 111.220  1.00  0.00     0.123 A 
ATOM      9  C   UNL     1     103.472 102.236 109.837  1.00  0.00     0.094 A 
ATOM     10  C   UNL     1     103.752 103.297 108.975  1.00  0.00     0.146 A 
ATOM     11  O   UNL     1     103.693 103.085 107.665  1.00  0.00    -0.456 OA
ENDROOT
BRANCH   1  12
ATOM     12  C   UNL     1     103.855 103.671 105.320  1.00  0.00     0.021 A 
ATOM     13  C   UNL     1     103.352 102.412 104.948  1.00  0.00     0.016 A 
ATOM     14  C   UNL     1     103.233 102.063 103.600  1.00  0.00     0.051 A 
ATOM     15  C   UNL     1     103.605 102.966 102.600  1.00  0.00     0.157 A 
ATOM     16  C   UNL     1     104.216 104.583 104.307  1.00  0.00     0.062 A 
ATOM     17  C   UNL     1     104.096 104.234 102.954  1.00  0.00     0.158 A 
BRANCH  15  18
ATOM     18  O   UNL     1     103.477 102.588 101.264  1.00  0.00    -0.504 OA
ATOM     19  H   UNL     1     102.610 102.701 100.754  1.00  0.00     0.293 HD
ENDBRANCH  15  18
BRANCH  17  20
ATOM     20  O   UNL     1     104.458 105.143 101.961  1.00  0.00    -0.504 OA
ATOM     21  H   UNL     1     105.035 104.868 101.175  1.00  0.00     0.293 HD
ENDBRANCH  17  20
ENDBRANCH   1  12
BRANCH   6  22
ATOM     22  O   UNL     1     104.331 105.986 111.535  1.00  0.00    -0.507 OA
ATOM     23  H   UNL     1     104.488 106.859 111.055  1.00  0.00     0.293 HD
ENDBRANCH   6  22
BRANCH   8  24
ATOM     24  O   UNL     1     103.277 101.351 112.085  1.00  0.00    -0.508 OA
ATOM     25  H   UNL     1     103.739 101.274 112.983  1.00  0.00     0.293 HD
ENDBRANCH   8  24
TORSDOF 5
ENDMDL
MODEL 5
REMARK VINA RESULT:    13.778      1.358      7.443
REMARK INTER + INTRA:          15.899
REMARK INTER:                  16.195
REMARK INTRA:                  -0.296
REMARK UNBOUND:                -0.296
REMARK SMILES O=c1cc(-c2ccc(O)c(O)c2)oc2cc(O)cc(O)c12
REMARK SMILES IDX 4 1 3 2 2 3 1 4 21 5 19 6 18 7 16 8 15 9 14 10 13 11 5 12
REMARK SMILES IDX 6 13 7 14 8 15 12 16 10 17 9 18 11 20 20 22 17 24
REMARK H PARENT 9 19 11 21 20 23 17 25
REMARK Flexibility Score: inf
ROOT
ATOM      1  C   UNL     1     104.036 104.106 102.964  1.00  0.00     0.138 A 
ATOM      2  C   UNL     1     103.702 102.832 102.485  1.00  0.00     0.100 A 
ATOM      3  C   UNL     1     103.618 102.610 101.110  1.00  0.00     0.197 A 
ATOM      4  O   UNL     1     103.376 101.442 100.710  1.00  0.00    -0.289 OA
ATOM      5  C   UNL     1     103.841 103.680 100.211  1.00  0.00     0.107 A 
ATOM      6  C   UNL     1     103.741 103.582  98.791  1.00  0.00     0.134 A 
ATOM      7  C   UNL     1     104.098 104.678  97.997  1.00  0.00     0.093 A 
ATOM      8  C   UNL     1     104.490 105.887  98.571  1.00  0.00     0.123 A 
ATOM      9  C   UNL     1     104.538 106.011  99.960  1.00  0.00     0.094 A 
ATOM     10  C   UNL     1     104.223 104.925 100.778  1.00  0.00     0.146 A 
ATOM     11  O   UNL     1     104.294 105.080 102.096  1.00  0.00    -0.456 OA
ENDROOT
BRANCH   1  12
ATOM     12  C   UNL     1     104.139 104.397 104.416  1.00  0.00     0.021 A 
ATOM     13  C   UNL     1     104.645 105.638 104.839  1.00  0.00     0.016 A 
ATOM     14  C   UNL     1     104.744 105.939 106.200  1.00  0.00     0.051 A 
ATOM     15  C   UNL     1     104.332 105.012 107.161  1.00  0.00     0.157 A 
ATOM     16  C   UNL     1     103.713 103.470 105.389  1.00  0.00     0.062 A 
ATOM     17  C   UNL     1     103.810 103.773 106.755  1.00  0.00     0.158 A 
BRANCH  15  18
ATOM     18  O   UNL     1     104.444 105.340 108.512  1.00  0.00    -0.504 OA
ATOM     19  H   UNL     1     103.708 105.142 109.177  1.00  0.00     0.293 HD
ENDBRANCH  15  18
BRANCH  17  20
ATOM     20  O   UNL     1     103.387 102.848 107.709  1.00  0.00    -0.504 OA
ATOM     21  H   UNL     1     103.967 102.063 107.981  1.00  0.00     0.293 HD
ENDBRANCH  17  20
ENDBRANCH   1  12
BRANCH   6  22
ATOM     22  O   UNL     1     103.279 102.447  98.116  1.00  0.00    -0.507 OA
ATOM     23  H   UNL     1     103.719 101.540  98.146  1.00  0.00     0.293 HD
ENDBRANCH   6  22
BRANCH   8  24
ATOM     24  O   UNL     1     104.823 106.961  97.750  1.00  0.00    -0.508 OA
ATOM     25  H   UNL     1     105.475 106.859  96.981  1.00  0.00     0.293 HD
ENDBRANCH   8  24
TORSDOF 5
ENDMDL
MODEL 6
REMARK VINA RESULT:    13.888      1.149      6.838
REMARK INTER + INTRA:          16.028
REMARK INTER:                  16.324
REMARK INTRA:                  -0.296
REMARK UNBOUND:                -0.296
REMARK SMILES O=c1cc(-c2ccc(O)c(O)c2)oc2cc(O)cc(O)c12
REMARK SMILES IDX 4 1 3 2 2 3 1 4 21 5 19 6 18 7 16 8 15 9 14 10 13 11 5 12
REMARK SMILES IDX 6 13 7 14 8 15 12 16 10 17 9 18 11 20 20 22 17 24
REMARK H PARENT 9 19 11 21 20 23 17 25
REMARK Flexibility Score: inf
ROOT
ATOM      1  C   UNL     1     103.971 104.254 102.947  1.00  0.00     0.138 A 
ATOM      2  C   UNL     1     104.312 105.551 102.538  1.00  0.00     0.100 A 
ATOM      3  C   UNL     1     104.411 105.842 101.177  1.00  0.00     0.197 A 
ATOM      4  O   UNL     1     104.657 107.029 100.839  1.00  0.00    -0.289 OA
ATOM      5  C   UNL     1     104.197 104.819 100.222  1.00  0.00     0.107 A 
ATOM      6  C   UNL     1     104.312 104.989  98.810  1.00  0.00     0.134 A 
ATOM      7  C   UNL     1     103.965 103.935  97.957  1.00  0.00     0.093 A 
ATOM      8  C   UNL     1     103.566 102.699  98.465  1.00  0.00     0.123 A 
ATOM      9  C   UNL     1     103.503 102.504  99.846  1.00  0.00     0.094 A 
ATOM     10  C   UNL     1     103.809 103.547 100.721  1.00  0.00     0.146 A 
ATOM     11  O   UNL     1     103.723 103.325 102.029  1.00  0.00    -0.456 OA
ENDROOT
BRANCH   1  12
ATOM     12  C   UNL     1     103.853 103.890 104.382  1.00  0.00     0.021 A 
ATOM     13  C   UNL     1     103.351 102.626 104.735  1.00  0.00     0.016 A 
ATOM     14  C   UNL     1     103.238 102.256 106.078  1.00  0.00     0.051 A 
ATOM     15  C   UNL     1     103.630 103.137 107.090  1.00  0.00     0.157 A 
ATOM     16  C   UNL     1     104.260 104.770 105.405  1.00  0.00     0.062 A 
ATOM     17  C   UNL     1     104.147 104.399 106.753  1.00  0.00     0.158 A 
BRANCH  15  18
ATOM     18  O   UNL     1     103.503 102.741 108.421  1.00  0.00    -0.504 OA
ATOM     19  H   UNL     1     103.871 103.294 109.184  1.00  0.00     0.293 HD
ENDBRANCH  15  18
BRANCH  17  20
ATOM     20  O   UNL     1     104.551 105.277 107.757  1.00  0.00    -0.504 OA
ATOM     21  H   UNL     1     104.107 105.282 108.668  1.00  0.00     0.293 HD
ENDBRANCH  17  20
ENDBRANCH   1  12
BRANCH   6  22
ATOM     22  O   UNL     1     104.782 106.156  98.199  1.00  0.00    -0.507 OA
ATOM     23  H   UNL     1     104.201 106.845  97.747  1.00  0.00     0.293 HD
ENDBRANCH   6  22
BRANCH   8  24
ATOM     24  O   UNL     1     103.242 101.667  97.587  1.00  0.00    -0.508 OA
ATOM     25  H   UNL     1     103.877 100.896  97.418  1.00  0.00     0.293 HD
ENDBRANCH   8  24
TORSDOF 5
ENDMDL
MODEL 7
REMARK VINA RESULT:    13.985      2.784      8.699
REMARK INTER + INTRA:          16.141
REMARK INTER:                  16.437
REMARK INTRA:                  -0.296
REMARK UNBOUND:                -0.296
REMARK SMILES O=c1cc(-c2ccc(O)c(O)c2)oc2cc(O)cc(O)c12
REMARK SMILES IDX 4 1 3 2 2 3 1 4 21 5 19 6 18 7 16 8 15 9 14 10 13 11 5 12
REMARK SMILES IDX 6 13 7 14 8 15 12 16 10 17 9 18 11 20 20 22 17 24
REMARK H PARENT 9 19 11 21 20 23 17 25
REMARK Flexibility Score: inf
ROOT
ATOM      1  C   UNL     1     104.012 104.064 107.590  1.00  0.00     0.138 A 
ATOM      2  C   UNL     1     103.676 102.781 107.135  1.00  0.00     0.100 A 
ATOM      3  C   UNL     1     103.582 102.537 105.764  1.00  0.00     0.197 A 
ATOM      4  O   UNL     1     103.340 101.363 105.384  1.00  0.00    -0.289 OA
ATOM      5  C   UNL     1     103.797 103.594 104.847  1.00  0.00     0.107 A 
ATOM      6  C   UNL     1     103.688 103.472 103.428  1.00  0.00     0.134 A 
ATOM      7  C   UNL     1     104.036 104.557 102.614  1.00  0.00     0.093 A 
ATOM      8  C   UNL     1     104.431 105.775 103.167  1.00  0.00     0.123 A 
ATOM      9  C   UNL     1     104.488 105.921 104.553  1.00  0.00     0.094 A 
ATOM     10  C   UNL     1     104.181 104.848 105.391  1.00  0.00     0.146 A 
ATOM     11  O   UNL     1     104.261 105.024 106.706  1.00  0.00    -0.456 OA
ENDROOT
BRANCH   1  12
ATOM     12  C   UNL     1     104.124 104.378 109.037  1.00  0.00     0.021 A 
ATOM     13  C   UNL     1     104.659 105.614 109.437  1.00  0.00     0.016 A 
ATOM     14  C   UNL     1     104.768 105.937 110.792  1.00  0.00     0.051 A 
ATOM     15  C   UNL     1     104.337 105.037 111.771  1.00  0.00     0.157 A 
ATOM     16  C   UNL     1     103.680 103.478 110.027  1.00  0.00     0.062 A 
ATOM     17  C   UNL     1     103.788 103.802 111.387  1.00  0.00     0.158 A 
BRANCH  15  18
ATOM     18  O   UNL     1     104.461 105.386 113.115  1.00  0.00    -0.504 OA
ATOM     19  H   UNL     1     103.741 105.172 113.794  1.00  0.00     0.293 HD
ENDBRANCH  15  18
BRANCH  17  20
ATOM     20  O   UNL     1     103.347 102.904 112.358  1.00  0.00    -0.504 OA
ATOM     21  H   UNL     1     103.676 102.952 113.315  1.00  0.00     0.293 HD
ENDBRANCH  17  20
ENDBRANCH   1  12
BRANCH   6  22
ATOM     22  O   UNL     1     103.222 102.327 102.775  1.00  0.00    -0.507 OA
ATOM     23  H   UNL     1     103.349 102.131 101.795  1.00  0.00     0.293 HD
ENDBRANCH   6  22
BRANCH   8  24
ATOM     24  O   UNL     1     104.755 106.837 102.326  1.00  0.00    -0.508 OA
ATOM     25  H   UNL     1     104.075 107.548 102.083  1.00  0.00     0.293 HD
ENDBRANCH   8  24
TORSDOF 5
ENDMDL
MODEL 8
REMARK VINA RESULT:    14.066      2.770      8.193
REMARK INTER + INTRA:          16.237
REMARK INTER:                  16.533
REMARK INTRA:                  -0.296
REMARK UNBOUND:                -0.296
REMARK SMILES O=c1cc(-c2ccc(O)c(O)c2)oc2cc(O)cc(O)c12
REMARK SMILES IDX 4 1 3 2 2 3 1 4 21 5 19 6 18 7 16 8 15 9 14 10 13 11 5 12
REMARK SMILES IDX 6 13 7 14 8 15 12 16 10 17 9 18 11 20 20 22 17 24
REMARK H PARENT 9 19 11 21 20 23 17 25
REMARK Flexibility Score: inf
ROOT
ATOM      1  C   UNL     1     104.017 104.299 107.591  1.00  0.00     0.138 A 
ATOM      2  C   UNL     1     104.356 105.577 107.126  1.00  0.00     0.100 A 
ATOM      3  C   UNL     1     104.446 105.812 105.753  1.00  0.00     0.197 A 
ATOM      4  O   UNL     1     104.691 106.983 105.365  1.00  0.00    -0.289 OA
ATOM      5  C   UNL     1     104.223 104.750 104.843  1.00  0.00     0.107 A 
ATOM      6  C   UNL     1     104.327 104.862 103.424  1.00  0.00     0.134 A 
ATOM      7  C   UNL     1     103.971 103.775 102.618  1.00  0.00     0.093 A 
ATOM      8  C   UNL     1     103.574 102.561 103.180  1.00  0.00     0.123 A 
ATOM      9  C   UNL     1     103.521 102.424 104.567  1.00  0.00     0.094 A 
ATOM     10  C   UNL     1     103.836 103.501 105.397  1.00  0.00     0.146 A 
ATOM     11  O   UNL     1     103.760 103.333 106.713  1.00  0.00    -0.456 OA
ENDROOT
BRANCH   1  12
ATOM     12  C   UNL     1     103.910 103.994 109.039  1.00  0.00     0.021 A 
ATOM     13  C   UNL     1     103.366 102.765 109.449  1.00  0.00     0.016 A 
ATOM     14  C   UNL     1     103.261 102.450 110.807  1.00  0.00     0.051 A 
ATOM     15  C   UNL     1     103.705 103.353 111.778  1.00  0.00     0.157 A 
ATOM     16  C   UNL     1     104.367 104.895 110.022  1.00  0.00     0.062 A 
ATOM     17  C   UNL     1     104.264 104.580 111.385  1.00  0.00     0.158 A 
BRANCH  15  18
ATOM     18  O   UNL     1     103.585 103.013 113.125  1.00  0.00    -0.504 OA
ATOM     19  H   UNL     1     104.013 102.179 113.509  1.00  0.00     0.293 HD
ENDBRANCH  15  18
BRANCH  17  20
ATOM     20  O   UNL     1     104.718 105.480 112.348  1.00  0.00    -0.504 OA
ATOM     21  H   UNL     1     104.075 105.998 112.936  1.00  0.00     0.293 HD
ENDBRANCH  17  20
ENDBRANCH   1  12
BRANCH   6  22
ATOM     22  O   UNL     1     104.794 106.002 102.762  1.00  0.00    -0.507 OA
ATOM     23  H   UNL     1     104.302 106.881 102.710  1.00  0.00     0.293 HD
ENDBRANCH   6  22
BRANCH   8  24
ATOM     24  O   UNL     1     103.241 101.495 102.347  1.00  0.00    -0.508 OA
ATOM     25  H   UNL     1     103.708 100.599 102.422  1.00  0.00     0.293 HD
ENDBRANCH   8  24
TORSDOF 5
ENDMDL
