MODEL 1
REMARK VINA RESULT:    -4.386      0.000      0.000
REMARK INTER + INTRA:          -5.507
REMARK INTER:                  -5.283
REMARK INTRA:                  -0.224
REMARK UNBOUND:                -0.224
REMARK SMILES NC(=O)C[C@@H]([NH3+])C(=O)[O-]
REMARK SMILES IDX 4 1 5 2 6 3 7 7 8 8 9 9 2 10 3 11 1 12
REMARK H PARENT 6 4 6 5 6 6 1 13 1 14
REMARK Flexibility Score: inf
ROOT
ATOM      1  C   UNL     1       7.997   6.067  19.171  1.00  0.00     0.171 C 
ENDROOT
BRANCH   1   2
ATOM      2  C   UNL     1       9.391   5.840  18.552  1.00  0.00     0.237 C 
BRANCH   2   3
ATOM      3  N   UNL     1      10.162   7.088  18.491  1.00  0.00    -0.350 N 
ATOM      4  H   UNL     1      11.105   6.944  18.923  1.00  0.00     0.345 HD
ATOM      5  H   UNL     1       9.667   7.858  18.999  1.00  0.00     0.345 HD
ATOM      6  H   UNL     1      10.308   7.371  17.495  1.00  0.00     0.345 HD
ENDBRANCH   2   3
BRANCH   2   7
ATOM      7  C   UNL     1      10.139   4.803  19.348  1.00  0.00     0.100 C 
ATOM      8  O   UNL     1       9.821   4.562  20.543  1.00  0.00    -0.544 OA
ATOM      9  O   UNL     1      11.178   4.093  18.759  1.00  0.00    -0.544 OA
ENDBRANCH   2   7
ENDBRANCH   1   2
BRANCH   1  10
ATOM     10  C   UNL     1       6.954   6.307  18.119  1.00  0.00     0.223 C 
ATOM     11  O   UNL     1       7.185   7.119  17.184  1.00  0.00    -0.275 OA
ATOM     12  N   UNL     1       5.689   5.649  18.187  1.00  0.00    -0.369 N 
ATOM     13  H   UNL     1       4.963   5.827  17.459  1.00  0.00     0.159 HD
ATOM     14  H   UNL     1       5.472   4.991  18.968  1.00  0.00     0.159 HD
ENDBRANCH   1  10
TORSDOF 4
ENDMDL
MODEL 2
REMARK VINA RESULT:    -4.362      1.701      1.781
REMARK INTER + INTRA:          -5.478
REMARK INTER:                  -5.281
REMARK INTRA:                  -0.197
REMARK UNBOUND:                -0.224
REMARK SMILES NC(=O)C[C@@H]([NH3+])C(=O)[O-]
REMARK SMILES IDX 4 1 5 2 6 3 7 7 8 8 9 9 2 10 3 11 1 12
REMARK H PARENT 6 4 6 5 6 6 1 13 1 14
REMARK Flexibility Score: inf
ROOT
ATOM      1  C   UNL     1       8.554   6.632  19.730  1.00  0.00     0.171 C 
ENDROOT
BRANCH   1   2
ATOM      2  C   UNL     1       9.406   6.130  18.547  1.00  0.00     0.237 C 
BRANCH   2   3
ATOM      3  N   UNL     1      10.574   6.992  18.321  1.00  0.00    -0.350 N 
ATOM      4  H   UNL     1      11.076   6.688  17.455  1.00  0.00     0.345 HD
ATOM      5  H   UNL     1      11.233   6.947  19.133  1.00  0.00     0.345 HD
ATOM      6  H   UNL     1      10.267   7.982  18.181  1.00  0.00     0.345 HD
ENDBRANCH   2   3
BRANCH   2   7
ATOM      7  C   UNL     1       9.847   4.712  18.802  1.00  0.00     0.100 C 
ATOM      8  O   UNL     1      10.546   4.431  19.811  1.00  0.00    -0.544 OA
ATOM      9  O   UNL     1       9.468   3.700  17.928  1.00  0.00    -0.544 OA
ENDBRANCH   2   7
ENDBRANCH   1   2
BRANCH   1  10
ATOM     10  C   UNL     1       7.288   5.839  19.879  1.00  0.00     0.223 C 
ATOM     11  O   UNL     1       7.052   5.236  20.959  1.00  0.00    -0.275 OA
ATOM     12  N   UNL     1       6.366   5.735  18.795  1.00  0.00    -0.369 N 
ATOM     13  H   UNL     1       5.492   5.174  18.899  1.00  0.00     0.159 HD
ATOM     14  H   UNL     1       6.557   6.209  17.884  1.00  0.00     0.159 HD
ENDBRANCH   1  10
TORSDOF 4
ENDMDL
MODEL 3
REMARK VINA RESULT:    -4.312      2.471      3.360
REMARK INTER + INTRA:          -5.418
REMARK INTER:                  -5.132
REMARK INTRA:                  -0.286
REMARK UNBOUND:                -0.224
REMARK SMILES NC(=O)C[C@@H]([NH3+])C(=O)[O-]
REMARK SMILES IDX 4 1 5 2 6 3 7 7 8 8 9 9 2 10 3 11 1 12
REMARK H PARENT 6 4 6 5 6 6 1 13 1 14
REMARK Flexibility Score: inf
ROOT
ATOM      1  C   UNL     1       6.700   7.123  16.320  1.00  0.00     0.171 C 
ENDROOT
BRANCH   1   2
ATOM      2  C   UNL     1       6.732   6.701  17.803  1.00  0.00     0.237 C 
BRANCH   2   3
ATOM      3  N   UNL     1       5.738   5.658  18.088  1.00  0.00    -0.350 N 
ATOM      4  H   UNL     1       6.149   4.942  18.730  1.00  0.00     0.345 HD
ATOM      5  H   UNL     1       5.427   5.189  17.206  1.00  0.00     0.345 HD
ATOM      6  H   UNL     1       4.907   6.076  18.566  1.00  0.00     0.345 HD
ENDBRANCH   2   3
BRANCH   2   7
ATOM      7  C   UNL     1       8.112   6.218  18.166  1.00  0.00     0.100 C 
ATOM      8  O   UNL     1       8.384   4.989  18.149  1.00  0.00    -0.544 OA
ATOM      9  O   UNL     1       9.100   7.134  18.507  1.00  0.00    -0.544 OA
ENDBRANCH   2   7
ENDBRANCH   1   2
BRANCH   1  10
ATOM     10  C   UNL     1       5.302   7.120  15.773  1.00  0.00     0.223 C 
ATOM     11  O   UNL     1       4.406   7.798  16.343  1.00  0.00    -0.275 OA
ATOM     12  N   UNL     1       4.971   6.328  14.632  1.00  0.00    -0.369 N 
ATOM     13  H   UNL     1       3.995   6.321  14.261  1.00  0.00     0.159 HD
ATOM     14  H   UNL     1       5.695   5.742  14.161  1.00  0.00     0.159 HD
ENDBRANCH   1  10
TORSDOF 4
ENDMDL
MODEL 4
REMARK VINA RESULT:    -4.296      1.996      3.791
REMARK INTER + INTRA:          -5.399
REMARK INTER:                  -5.209
REMARK INTRA:                  -0.189
REMARK UNBOUND:                -0.224
REMARK SMILES NC(=O)C[C@@H]([NH3+])C(=O)[O-]
REMARK SMILES IDX 4 1 5 2 6 3 7 7 8 8 9 9 2 10 3 11 1 12
REMARK H PARENT 6 4 6 5 6 6 1 13 1 14
REMARK Flexibility Score: inf
ROOT
ATOM      1  C   UNL     1       8.926   4.507  19.960  1.00  0.00     0.171 C 
ENDROOT
BRANCH   1   2
ATOM      2  C   UNL     1       7.846   5.483  19.451  1.00  0.00     0.237 C 
BRANCH   2   3
ATOM      3  N   UNL     1       6.838   5.755  20.483  1.00  0.00    -0.350 N 
ATOM      4  H   UNL     1       7.283   5.731  21.430  1.00  0.00     0.345 HD
ATOM      5  H   UNL     1       6.069   5.047  20.449  1.00  0.00     0.345 HD
ATOM      6  H   UNL     1       6.433   6.709  20.346  1.00  0.00     0.345 HD
ENDBRANCH   2   3
BRANCH   2   7
ATOM      7  C   UNL     1       8.492   6.767  19.001  1.00  0.00     0.100 C 
ATOM      8  O   UNL     1       8.257   7.234  17.855  1.00  0.00    -0.544 OA
ATOM      9  O   UNL     1       9.340   7.455  19.859  1.00  0.00    -0.544 OA
ENDBRANCH   2   7
ENDBRANCH   1   2
BRANCH   1  10
ATOM     10  C   UNL     1       9.898   4.139  18.876  1.00  0.00     0.223 C 
ATOM     11  O   UNL     1       9.482   3.580  17.827  1.00  0.00    -0.275 OA
ATOM     12  N   UNL     1      11.294   4.387  19.040  1.00  0.00    -0.369 N 
ATOM     13  H   UNL     1      11.968   4.120  18.289  1.00  0.00     0.159 HD
ATOM     14  H   UNL     1      11.660   4.828  19.913  1.00  0.00     0.159 HD
ENDBRANCH   1  10
TORSDOF 4
ENDMDL
MODEL 5
REMARK VINA RESULT:    -4.272      2.126      3.564
REMARK INTER + INTRA:          -5.369
REMARK INTER:                  -5.096
REMARK INTRA:                  -0.273
REMARK UNBOUND:                -0.224
REMARK SMILES NC(=O)C[C@@H]([NH3+])C(=O)[O-]
REMARK SMILES IDX 4 1 5 2 6 3 7 7 8 8 9 9 2 10 3 11 1 12
REMARK H PARENT 6 4 6 5 6 6 1 13 1 14
REMARK Flexibility Score: inf
ROOT
ATOM      1  C   UNL     1       9.894   4.709  19.882  1.00  0.00     0.171 C 
ENDROOT
BRANCH   1   2
ATOM      2  C   UNL     1       9.426   6.171  19.737  1.00  0.00     0.237 C 
BRANCH   2   3
ATOM      3  N   UNL     1      10.038   6.818  18.568  1.00  0.00    -0.350 N 
ATOM      4  H   UNL     1      10.826   7.434  18.875  1.00  0.00     0.345 HD
ATOM      5  H   UNL     1       9.335   7.394  18.050  1.00  0.00     0.345 HD
ATOM      6  H   UNL     1      10.431   6.094  17.923  1.00  0.00     0.345 HD
ENDBRANCH   2   3
BRANCH   2   7
ATOM      7  C   UNL     1       7.924   6.217  19.631  1.00  0.00     0.100 C 
ATOM      8  O   UNL     1       7.204   5.718  20.536  1.00  0.00    -0.544 OA
ATOM      9  O   UNL     1       7.324   6.830  18.538  1.00  0.00    -0.544 OA
ENDBRANCH   2   7
ENDBRANCH   1   2
BRANCH   1  10
ATOM     10  C   UNL     1      10.215   4.094  18.550  1.00  0.00     0.223 C 
ATOM     11  O   UNL     1       9.287   3.849  17.735  1.00  0.00    -0.275 OA
ATOM     12  N   UNL     1      11.560   3.752  18.214  1.00  0.00    -0.369 N 
ATOM     13  H   UNL     1      11.777   3.315  17.292  1.00  0.00     0.159 HD
ATOM     14  H   UNL     1      12.339   3.927  18.887  1.00  0.00     0.159 HD
ENDBRANCH   1  10
TORSDOF 4
ENDMDL
MODEL 6
REMARK VINA RESULT:    -4.226      1.881      1.937
REMARK INTER + INTRA:          -5.315
REMARK INTER:                  -4.821
REMARK INTRA:                  -0.494
REMARK UNBOUND:                -0.224
REMARK SMILES NC(=O)C[C@@H]([NH3+])C(=O)[O-]
REMARK SMILES IDX 4 1 5 2 6 3 7 7 8 8 9 9 2 10 3 11 1 12
REMARK H PARENT 6 4 6 5 6 6 1 13 1 14
REMARK Flexibility Score: inf
ROOT
ATOM      1  C   UNL     1       8.269   6.539  18.293  1.00  0.00     0.171 C 
ENDROOT
BRANCH   1   2
ATOM      2  C   UNL     1       8.146   6.050  19.750  1.00  0.00     0.237 C 
BRANCH   2   3
ATOM      3  N   UNL     1       6.748   5.774  20.108  1.00  0.00    -0.350 N 
ATOM      4  H   UNL     1       6.675   5.591  21.136  1.00  0.00     0.345 HD
ATOM      5  H   UNL     1       6.386   4.942  19.586  1.00  0.00     0.345 HD
ATOM      6  H   UNL     1       6.151   6.604  19.889  1.00  0.00     0.345 HD
ENDBRANCH   2   3
BRANCH   2   7
ATOM      7  C   UNL     1       8.987   4.816  19.946  1.00  0.00     0.100 C 
ATOM      8  O   UNL     1       9.700   4.685  20.976  1.00  0.00    -0.544 OA
ATOM      9  O   UNL     1       8.965   3.803  18.994  1.00  0.00    -0.544 OA
ENDBRANCH   2   7
ENDBRANCH   1   2
BRANCH   1  10
ATOM     10  C   UNL     1       7.092   6.114  17.463  1.00  0.00     0.223 C 
ATOM     11  O   UNL     1       6.053   6.824  17.442  1.00  0.00    -0.275 OA
ATOM     12  N   UNL     1       7.130   4.893  16.724  1.00  0.00    -0.369 N 
ATOM     13  H   UNL     1       6.306   4.595  16.156  1.00  0.00     0.159 HD
ATOM     14  H   UNL     1       7.975   4.280  16.748  1.00  0.00     0.159 HD
ENDBRANCH   1  10
TORSDOF 4
ENDMDL
MODEL 7
REMARK VINA RESULT:    -4.157      1.999      2.197
REMARK INTER + INTRA:          -5.231
REMARK INTER:                  -5.128
REMARK INTRA:                  -0.103
REMARK UNBOUND:                -0.224
REMARK SMILES NC(=O)C[C@@H]([NH3+])C(=O)[O-]
REMARK SMILES IDX 4 1 5 2 6 3 7 7 8 8 9 9 2 10 3 11 1 12
REMARK H PARENT 6 4 6 5 6 6 1 13 1 14
REMARK Flexibility Score: inf
ROOT
ATOM      1  C   UNL     1       8.494   4.707  20.081  1.00  0.00     0.171 C 
ENDROOT
BRANCH   1   2
ATOM      2  C   UNL     1       9.982   4.948  19.755  1.00  0.00     0.237 C 
BRANCH   2   3
ATOM      3  N   UNL     1      10.844   4.617  20.898  1.00  0.00    -0.350 N 
ATOM      4  H   UNL     1      11.046   5.481  21.452  1.00  0.00     0.345 HD
ATOM      5  H   UNL     1      11.747   4.199  20.575  1.00  0.00     0.345 HD
ATOM      6  H   UNL     1      10.358   3.939  21.529  1.00  0.00     0.345 HD
ENDBRANCH   2   3
BRANCH   2   7
ATOM      7  C   UNL     1      10.379   4.135  18.551  1.00  0.00     0.100 C 
ATOM      8  O   UNL     1      11.593   3.997  18.244  1.00  0.00    -0.544 OA
ATOM      9  O   UNL     1       9.403   3.518  17.779  1.00  0.00    -0.544 OA
ENDBRANCH   2   7
ENDBRANCH   1   2
BRANCH   1  10
ATOM     10  C   UNL     1       7.630   5.837  19.604  1.00  0.00     0.223 C 
ATOM     11  O   UNL     1       8.035   7.025  19.720  1.00  0.00    -0.275 OA
ATOM     12  N   UNL     1       6.340   5.581  19.050  1.00  0.00    -0.369 N 
ATOM     13  H   UNL     1       5.738   6.371  18.729  1.00  0.00     0.159 HD
ATOM     14  H   UNL     1       5.979   4.604  18.968  1.00  0.00     0.159 HD
ENDBRANCH   1  10
TORSDOF 4
ENDMDL
MODEL 8
REMARK VINA RESULT:    -4.132      1.628      4.714
REMARK INTER + INTRA:          -5.202
REMARK INTER:                  -4.970
REMARK INTRA:                  -0.231
REMARK UNBOUND:                -0.224
REMARK SMILES NC(=O)C[C@@H]([NH3+])C(=O)[O-]
REMARK SMILES IDX 4 1 5 2 6 3 7 7 8 8 9 9 2 10 3 11 1 12
REMARK H PARENT 6 4 6 5 6 6 1 13 1 14
REMARK Flexibility Score: inf
ROOT
ATOM      1  C   UNL     1       7.726   7.062  17.862  1.00  0.00     0.171 C 
ENDROOT
BRANCH   1   2
ATOM      2  C   UNL     1       6.780   6.015  17.242  1.00  0.00     0.237 C 
BRANCH   2   3
ATOM      3  N   UNL     1       5.734   5.608  18.191  1.00  0.00    -0.350 N 
ATOM      4  H   UNL     1       6.161   5.407  19.125  1.00  0.00     0.345 HD
ATOM      5  H   UNL     1       5.236   4.753  17.851  1.00  0.00     0.345 HD
ATOM      6  H   UNL     1       5.042   6.382  18.315  1.00  0.00     0.345 HD
ENDBRANCH   2   3
BRANCH   2   7
ATOM      7  C   UNL     1       6.158   6.568  15.987  1.00  0.00     0.100 C 
ATOM      8  O   UNL     1       6.353   6.009  14.876  1.00  0.00    -0.544 OA
ATOM      9  O   UNL     1       5.347   7.695  16.053  1.00  0.00    -0.544 OA
ENDBRANCH   2   7
ENDBRANCH   1   2
BRANCH   1  10
ATOM     10  C   UNL     1       8.923   6.420  18.502  1.00  0.00     0.223 C 
ATOM     11  O   UNL     1       8.790   5.332  19.122  1.00  0.00    -0.275 OA
ATOM     12  N   UNL     1      10.203   7.049  18.443  1.00  0.00    -0.369 N 
ATOM     13  H   UNL     1      11.030   6.604  18.899  1.00  0.00     0.159 HD
ATOM     14  H   UNL     1      10.326   7.963  17.953  1.00  0.00     0.159 HD
ENDBRANCH   1  10
TORSDOF 4
ENDMDL
MODEL 9
REMARK VINA RESULT:    -4.089      2.175      3.036
REMARK INTER + INTRA:          -5.150
REMARK INTER:                  -4.954
REMARK INTRA:                  -0.196
REMARK UNBOUND:                -0.224
REMARK SMILES NC(=O)C[C@@H]([NH3+])C(=O)[O-]
REMARK SMILES IDX 4 1 5 2 6 3 7 7 8 8 9 9 2 10 3 11 1 12
REMARK H PARENT 6 4 6 5 6 6 1 13 1 14
REMARK Flexibility Score: inf
ROOT
ATOM      1  C   UNL     1       8.893   4.458  20.363  1.00  0.00     0.171 C 
ENDROOT
BRANCH   1   2
ATOM      2  C   UNL     1       9.374   5.121  19.057  1.00  0.00     0.237 C 
BRANCH   2   3
ATOM      3  N   UNL     1      10.838   5.088  18.944  1.00  0.00    -0.350 N 
ATOM      4  H   UNL     1      11.140   4.179  18.522  1.00  0.00     0.345 HD
ATOM      5  H   UNL     1      11.287   5.196  19.882  1.00  0.00     0.345 HD
ATOM      6  H   UNL     1      11.166   5.856  18.315  1.00  0.00     0.345 HD
ENDBRANCH   2   3
BRANCH   2   7
ATOM      7  C   UNL     1       8.744   4.434  17.874  1.00  0.00     0.100 C 
ATOM      8  O   UNL     1       9.193   3.331  17.462  1.00  0.00    -0.544 OA
ATOM      9  O   UNL     1       7.649   5.007  17.240  1.00  0.00    -0.544 OA
ENDBRANCH   2   7
ENDBRANCH   1   2
BRANCH   1  10
ATOM     10  C   UNL     1       7.446   4.749  20.635  1.00  0.00     0.223 C 
ATOM     11  O   UNL     1       6.738   3.894  21.232  1.00  0.00    -0.275 OA
ATOM     12  N   UNL     1       6.856   5.970  20.191  1.00  0.00    -0.369 N 
ATOM     13  H   UNL     1       5.846   6.164  20.372  1.00  0.00     0.159 HD
ATOM     14  H   UNL     1       7.422   6.680  19.675  1.00  0.00     0.159 HD
ENDBRANCH   1  10
TORSDOF 4
ENDMDL
