MODEL 1
REMARK VINA RESULT:    -5.118      0.000      0.000
REMARK INTER + INTRA:          -5.118
REMARK INTER:                  -5.118
REMARK INTRA:                   0.000
REMARK UNBOUND:                 0.000
REMARK SMILES CC1=CC(=O)[C@H]2C[C@@H]1C2(C)C
REMARK SMILES IDX 1 1 2 2 3 3 4 4 5 5 6 6 7 7 8 8 9 9 10 10 11 11
REMARK H PARENT
REMARK Flexibility Score: inf
ROOT
ATOM      1  C   UNL     1     -24.862  11.222 -27.881  1.00  0.00     0.040 C 
ATOM      2  C   UNL     1     -25.677  11.727 -29.029  1.00  0.00    -0.066 C 
ATOM      3  C   UNL     1     -25.455  12.958 -29.569  1.00  0.00     0.047 C 
ATOM      4  C   UNL     1     -26.359  13.361 -30.694  1.00  0.00     0.159 C 
ATOM      5  O   UNL     1     -26.279  14.488 -31.250  1.00  0.00    -0.295 OA
ATOM      6  C   UNL     1     -27.383  12.309 -31.120  1.00  0.00     0.067 C 
ATOM      7  C   UNL     1     -26.570  10.998 -31.194  1.00  0.00     0.021 C 
ATOM      8  C   UNL     1     -26.794  10.875 -29.669  1.00  0.00     0.022 C 
ATOM      9  C   UNL     1     -28.073  11.745 -29.845  1.00  0.00    -0.019 C 
ATOM     10  C   UNL     1     -29.324  10.894 -30.179  1.00  0.00     0.012 C 
ATOM     11  C   UNL     1     -28.448  12.738 -28.708  1.00  0.00     0.012 C 
ENDROOT
TORSDOF 0
ENDMDL
MODEL 2
REMARK VINA RESULT:    -4.950      1.152      2.808
REMARK INTER + INTRA:          -4.950
REMARK INTER:                  -4.950
REMARK INTRA:                   0.000
REMARK UNBOUND:                 0.000
REMARK SMILES CC1=CC(=O)[C@H]2C[C@@H]1C2(C)C
REMARK SMILES IDX 1 1 2 2 3 3 4 4 5 5 6 6 7 7 8 8 9 9 10 10 11 11
REMARK H PARENT
REMARK Flexibility Score: inf
ROOT
ATOM      1  C   UNL     1     -27.090  10.875 -32.753  1.00  0.00     0.040 C 
ATOM      2  C   UNL     1     -27.015  11.768 -31.556  1.00  0.00    -0.066 C 
ATOM      3  C   UNL     1     -26.468  13.013 -31.633  1.00  0.00     0.047 C 
ATOM      4  C   UNL     1     -26.424  13.797 -30.357  1.00  0.00     0.159 C 
ATOM      5  O   UNL     1     -25.908  14.944 -30.290  1.00  0.00    -0.295 OA
ATOM      6  C   UNL     1     -27.048  13.109 -29.143  1.00  0.00     0.067 C 
ATOM      7  C   UNL     1     -28.384  12.545 -29.674  1.00  0.00     0.021 C 
ATOM      8  C   UNL     1     -27.570  11.333 -30.182  1.00  0.00     0.022 C 
ATOM      9  C   UNL     1     -26.520  11.647 -29.077  1.00  0.00    -0.019 C 
ATOM     10  C   UNL     1     -26.858  10.959 -27.730  1.00  0.00     0.012 C 
ATOM     11  C   UNL     1     -25.019  11.389 -29.393  1.00  0.00     0.012 C 
ENDROOT
TORSDOF 0
ENDMDL
MODEL 3
REMARK VINA RESULT:    -4.897      1.754      2.900
REMARK INTER + INTRA:          -4.897
REMARK INTER:                  -4.897
REMARK INTRA:                   0.000
REMARK UNBOUND:                 0.000
REMARK SMILES CC1=CC(=O)[C@H]2C[C@@H]1C2(C)C
REMARK SMILES IDX 1 1 2 2 3 3 4 4 5 5 6 6 7 7 8 8 9 9 10 10 11 11
REMARK H PARENT
REMARK Flexibility Score: inf
ROOT
ATOM      1  C   UNL     1     -26.001  15.338 -30.200  1.00  0.00     0.040 C 
ATOM      2  C   UNL     1     -26.062  13.873 -29.903  1.00  0.00    -0.066 C 
ATOM      3  C   UNL     1     -24.929  13.134 -29.744  1.00  0.00     0.047 C 
ATOM      4  C   UNL     1     -25.124  11.672 -29.480  1.00  0.00     0.159 C 
ATOM      5  O   UNL     1     -24.155  10.877 -29.353  1.00  0.00    -0.295 OA
ATOM      6  C   UNL     1     -26.578  11.213 -29.377  1.00  0.00     0.067 C 
ATOM      7  C   UNL     1     -27.245  12.271 -28.471  1.00  0.00     0.021 C 
ATOM      8  C   UNL     1     -27.407  13.132 -29.744  1.00  0.00     0.022 C 
ATOM      9  C   UNL     1     -27.373  11.814 -30.571  1.00  0.00    -0.019 C 
ATOM     10  C   UNL     1     -28.777  11.177 -30.724  1.00  0.00     0.012 C 
ATOM     11  C   UNL     1     -26.695  11.841 -31.971  1.00  0.00     0.012 C 
ENDROOT
TORSDOF 0
ENDMDL
MODEL 4
REMARK VINA RESULT:    -4.823     11.781     13.436
REMARK INTER + INTRA:          -4.823
REMARK INTER:                  -4.823
REMARK INTRA:                   0.000
REMARK UNBOUND:                 0.000
REMARK SMILES CC1=CC(=O)[C@H]2C[C@@H]1C2(C)C
REMARK SMILES IDX 1 1 2 2 3 3 4 4 5 5 6 6 7 7 8 8 9 9 10 10 11 11
REMARK H PARENT
REMARK Flexibility Score: inf
ROOT
ATOM      1  C   UNL     1     -16.311  14.254 -29.547  1.00  0.00     0.040 C 
ATOM      2  C   UNL     1     -15.372  14.466 -30.692  1.00  0.00    -0.066 C 
ATOM      3  C   UNL     1     -15.653  13.990 -31.937  1.00  0.00     0.047 C 
ATOM      4  C   UNL     1     -14.618  14.241 -32.991  1.00  0.00     0.159 C 
ATOM      5  O   UNL     1     -14.743  13.818 -34.170  1.00  0.00    -0.295 OA
ATOM      6  C   UNL     1     -13.401  15.046 -32.535  1.00  0.00     0.067 C 
ATOM      7  C   UNL     1     -14.002  16.217 -31.729  1.00  0.00     0.021 C 
ATOM      8  C   UNL     1     -14.052  15.249 -30.525  1.00  0.00     0.022 C 
ATOM      9  C   UNL     1     -12.891  14.454 -31.190  1.00  0.00    -0.019 C 
ATOM     10  C   UNL     1     -11.497  15.004 -30.795  1.00  0.00     0.012 C 
ATOM     11  C   UNL     1     -12.869  12.908 -31.024  1.00  0.00     0.012 C 
ENDROOT
TORSDOF 0
ENDMDL
MODEL 5
REMARK VINA RESULT:    -4.756      1.567      2.541
REMARK INTER + INTRA:          -4.756
REMARK INTER:                  -4.756
REMARK INTRA:                   0.000
REMARK UNBOUND:                 0.000
REMARK SMILES CC1=CC(=O)[C@H]2C[C@@H]1C2(C)C
REMARK SMILES IDX 1 1 2 2 3 3 4 4 5 5 6 6 7 7 8 8 9 9 10 10 11 11
REMARK H PARENT
REMARK Flexibility Score: inf
ROOT
ATOM      1  C   UNL     1     -25.650  15.042 -30.195  1.00  0.00     0.040 C 
ATOM      2  C   UNL     1     -26.023  13.603 -30.362  1.00  0.00    -0.066 C 
ATOM      3  C   UNL     1     -26.406  13.106 -31.571  1.00  0.00     0.047 C 
ATOM      4  C   UNL     1     -26.784  11.656 -31.601  1.00  0.00     0.159 C 
ATOM      5  O   UNL     1     -27.191  11.089 -32.649  1.00  0.00    -0.295 OA
ATOM      6  C   UNL     1     -26.640  10.914 -30.273  1.00  0.00     0.067 C 
ATOM      7  C   UNL     1     -25.260  11.356 -29.740  1.00  0.00     0.021 C 
ATOM      8  C   UNL     1     -25.973  12.609 -29.182  1.00  0.00     0.022 C 
ATOM      9  C   UNL     1     -27.288  11.776 -29.152  1.00  0.00    -0.019 C 
ATOM     10  C   UNL     1     -27.457  10.990 -27.827  1.00  0.00     0.012 C 
ATOM     11  C   UNL     1     -28.627  12.504 -29.460  1.00  0.00     0.012 C 
ENDROOT
TORSDOF 0
ENDMDL
MODEL 6
REMARK VINA RESULT:    -4.648     11.348     12.838
REMARK INTER + INTRA:          -4.648
REMARK INTER:                  -4.648
REMARK INTRA:                   0.000
REMARK UNBOUND:                 0.000
REMARK SMILES CC1=CC(=O)[C@H]2C[C@@H]1C2(C)C
REMARK SMILES IDX 1 1 2 2 3 3 4 4 5 5 6 6 7 7 8 8 9 9 10 10 11 11
REMARK H PARENT
REMARK Flexibility Score: inf
ROOT
ATOM      1  C   UNL     1     -13.709  16.917 -30.761  1.00  0.00     0.040 C 
ATOM      2  C   UNL     1     -13.918  15.436 -30.739  1.00  0.00    -0.066 C 
ATOM      3  C   UNL     1     -12.912  14.573 -31.053  1.00  0.00     0.047 C 
ATOM      4  C   UNL     1     -13.257  13.115 -31.023  1.00  0.00     0.159 C 
ATOM      5  O   UNL     1     -12.425  12.221 -31.331  1.00  0.00    -0.295 OA
ATOM      6  C   UNL     1     -14.687  12.789 -30.595  1.00  0.00     0.067 C 
ATOM      7  C   UNL     1     -14.922  13.678 -29.354  1.00  0.00     0.021 C 
ATOM      8  C   UNL     1     -15.274  14.813 -30.342  1.00  0.00     0.022 C 
ATOM      9  C   UNL     1     -15.662  13.716 -31.375  1.00  0.00    -0.019 C 
ATOM     10  C   UNL     1     -17.139  13.270 -31.235  1.00  0.00     0.012 C 
ATOM     11  C   UNL     1     -15.376  13.989 -32.880  1.00  0.00     0.012 C 
ENDROOT
TORSDOF 0
ENDMDL
MODEL 7
REMARK VINA RESULT:    -4.524     11.498     13.094
REMARK INTER + INTRA:          -4.524
REMARK INTER:                  -4.524
REMARK INTRA:                   0.000
REMARK UNBOUND:                 0.000
REMARK SMILES CC1=CC(=O)[C@H]2C[C@@H]1C2(C)C
REMARK SMILES IDX 1 1 2 2 3 3 4 4 5 5 6 6 7 7 8 8 9 9 10 10 11 11
REMARK H PARENT
REMARK Flexibility Score: inf
ROOT
ATOM      1  C   UNL     1     -16.636  14.238 -29.112  1.00  0.00     0.040 C 
ATOM      2  C   UNL     1     -15.545  13.998 -30.106  1.00  0.00    -0.066 C 
ATOM      3  C   UNL     1     -14.681  12.953 -29.972  1.00  0.00     0.047 C 
ATOM      4  C   UNL     1     -13.613  12.838 -31.017  1.00  0.00     0.159 C 
ATOM      5  O   UNL     1     -12.732  11.939 -30.982  1.00  0.00    -0.295 OA
ATOM      6  C   UNL     1     -13.667  13.888 -32.126  1.00  0.00     0.067 C 
ATOM      7  C   UNL     1     -15.157  13.939 -32.528  1.00  0.00     0.021 C 
ATOM      8  C   UNL     1     -15.355  14.907 -31.339  1.00  0.00     0.022 C 
ATOM      9  C   UNL     1     -13.852  15.288 -31.474  1.00  0.00    -0.019 C 
ATOM     10  C   UNL     1     -13.625  16.443 -32.483  1.00  0.00     0.012 C 
ATOM     11  C   UNL     1     -13.055  15.610 -30.178  1.00  0.00     0.012 C 
ENDROOT
TORSDOF 0
ENDMDL
MODEL 8
REMARK VINA RESULT:    -4.473     11.595     13.312
REMARK INTER + INTRA:          -4.473
REMARK INTER:                  -4.473
REMARK INTRA:                   0.000
REMARK UNBOUND:                 0.000
REMARK SMILES CC1=CC(=O)[C@H]2C[C@@H]1C2(C)C
REMARK SMILES IDX 1 1 2 2 3 3 4 4 5 5 6 6 7 7 8 8 9 9 10 10 11 11
REMARK H PARENT
REMARK Flexibility Score: inf
ROOT
ATOM      1  C   UNL     1     -14.741  14.236 -33.933  1.00  0.00     0.040 C 
ATOM      2  C   UNL     1     -14.650  14.177 -32.441  1.00  0.00    -0.066 C 
ATOM      3  C   UNL     1     -15.764  14.242 -31.660  1.00  0.00     0.047 C 
ATOM      4  C   UNL     1     -15.538  14.202 -30.179  1.00  0.00     0.159 C 
ATOM      5  O   UNL     1     -16.483  14.294 -29.352  1.00  0.00    -0.295 OA
ATOM      6  C   UNL     1     -14.082  14.044 -29.743  1.00  0.00     0.067 C 
ATOM      7  C   UNL     1     -13.535  12.922 -30.652  1.00  0.00     0.021 C 
ATOM      8  C   UNL     1     -13.297  14.019 -31.715  1.00  0.00     0.022 C 
ATOM      9  C   UNL     1     -13.211  15.048 -30.551  1.00  0.00    -0.019 C 
ATOM     10  C   UNL     1     -11.776  15.175 -29.980  1.00  0.00     0.012 C 
ATOM     11  C   UNL     1     -13.767  16.480 -30.793  1.00  0.00     0.012 C 
ENDROOT
TORSDOF 0
ENDMDL
MODEL 9
REMARK VINA RESULT:    -4.449     13.612     15.107
REMARK INTER + INTRA:          -4.449
REMARK INTER:                  -4.449
REMARK INTRA:                   0.000
REMARK UNBOUND:                 0.000
REMARK SMILES CC1=CC(=O)[C@H]2C[C@@H]1C2(C)C
REMARK SMILES IDX 1 1 2 2 3 3 4 4 5 5 6 6 7 7 8 8 9 9 10 10 11 11
REMARK H PARENT
REMARK Flexibility Score: inf
ROOT
ATOM      1  C   UNL     1     -12.508  13.502 -26.906  1.00  0.00     0.040 C 
ATOM      2  C   UNL     1     -12.560  13.657 -28.392  1.00  0.00    -0.066 C 
ATOM      3  C   UNL     1     -13.344  12.852 -29.162  1.00  0.00     0.047 C 
ATOM      4  C   UNL     1     -13.284  13.088 -30.641  1.00  0.00     0.159 C 
ATOM      5  O   UNL     1     -13.932  12.385 -31.460  1.00  0.00    -0.295 OA
ATOM      6  C   UNL     1     -12.383  14.240 -31.084  1.00  0.00     0.067 C 
ATOM      7  C   UNL     1     -12.737  15.391 -30.118  1.00  0.00     0.021 C 
ATOM      8  C   UNL     1     -11.745  14.745 -29.124  1.00  0.00     0.022 C 
ATOM      9  C   UNL     1     -11.019  14.114 -30.347  1.00  0.00    -0.019 C 
ATOM     10  C   UNL     1      -9.939  15.053 -30.941  1.00  0.00     0.012 C 
ATOM     11  C   UNL     1     -10.397  12.698 -30.183  1.00  0.00     0.012 C 
ENDROOT
TORSDOF 0
ENDMDL
