MODEL 1
REMARK VINA RESULT:    -3.320      0.000      0.000
REMARK INTER + INTRA:          -9.037
REMARK INTER:                  -6.425
REMARK INTRA:                  -2.612
REMARK UNBOUND:                -2.612
REMARK SMILES CCCCCCCCCCCCCCCCCC(=O)[O-]
REMARK SMILES IDX 10 1 11 2 12 3 13 4 14 5 15 6 16 7 17 8 18 9 19 10 20 11
REMARK SMILES IDX 9 12 8 13 7 14 6 15 5 16 4 17 3 18 2 19 1 20
REMARK H PARENT
REMARK Flexibility Score: inf
ROOT
ATOM      1  C   UNL     1      57.200  25.507  52.146  1.00  0.00     0.000 C 
ENDROOT
BRANCH   1   2
ATOM      2  C   UNL     1      56.812  26.623  51.160  1.00  0.00     0.000 C 
BRANCH   2   3
ATOM      3  C   UNL     1      56.640  26.113  49.716  1.00  0.00     0.000 C 
BRANCH   3   4
ATOM      4  C   UNL     1      55.184  26.021  49.225  1.00  0.00     0.000 C 
BRANCH   4   5
ATOM      5  C   UNL     1      54.197  26.784  50.123  1.00  0.00     0.000 C 
BRANCH   5   6
ATOM      6  C   UNL     1      53.269  27.719  49.327  1.00  0.00     0.000 C 
BRANCH   6   7
ATOM      7  C   UNL     1      53.359  29.198  49.761  1.00  0.00     0.006 C 
BRANCH   7   8
ATOM      8  C   UNL     1      54.766  29.572  50.245  1.00  0.00     0.053 C 
BRANCH   8   9
ATOM      9  C   UNL     1      54.709  30.147  51.625  1.00  0.00     0.041 C 
ATOM     10  O   UNL     1      54.579  31.388  51.790  1.00  0.00    -0.550 OA
ATOM     11  O   UNL     1      54.847  29.316  52.729  1.00  0.00    -0.550 OA
ENDBRANCH   8   9
ENDBRANCH   7   8
ENDBRANCH   6   7
ENDBRANCH   5   6
ENDBRANCH   4   5
ENDBRANCH   3   4
ENDBRANCH   2   3
ENDBRANCH   1   2
BRANCH   1  12
ATOM     12  C   UNL     1      58.636  25.002  51.935  1.00  0.00     0.000 C 
BRANCH  12  13
ATOM     13  C   UNL     1      59.645  26.151  51.766  1.00  0.00    -0.000 C 
BRANCH  13  14
ATOM     14  C   UNL     1      60.632  25.909  50.613  1.00  0.00    -0.000 C 
BRANCH  14  15
ATOM     15  C   UNL     1      60.213  26.614  49.314  1.00  0.00    -0.000 C 
BRANCH  15  16
ATOM     16  C   UNL     1      60.695  28.073  49.301  1.00  0.00    -0.000 C 
BRANCH  16  17
ATOM     17  C   UNL     1      59.587  29.068  48.907  1.00  0.00    -0.000 C 
BRANCH  17  18
ATOM     18  C   UNL     1      58.572  29.386  50.021  1.00  0.00    -0.000 C 
BRANCH  18  19
ATOM     19  C   UNL     1      59.231  29.941  51.292  1.00  0.00    -0.003 C 
ATOM     20  C   UNL     1      58.411  29.595  52.531  1.00  0.00     0.004 C 
ENDBRANCH  18  19
ENDBRANCH  17  18
ENDBRANCH  16  17
ENDBRANCH  15  16
ENDBRANCH  14  15
ENDBRANCH  13  14
ENDBRANCH  12  13
ENDBRANCH   1  12
TORSDOF 16
ENDMDL
MODEL 2
REMARK VINA RESULT:    -3.291     11.444     13.514
REMARK INTER + INTRA:          -8.981
REMARK INTER:                  -6.435
REMARK INTRA:                  -2.546
REMARK UNBOUND:                -2.612
REMARK SMILES CCCCCCCCCCCCCCCCCC(=O)[O-]
REMARK SMILES IDX 10 1 11 2 12 3 13 4 14 5 15 6 16 7 17 8 18 9 19 10 20 11
REMARK SMILES IDX 9 12 8 13 7 14 6 15 5 16 4 17 3 18 2 19 1 20
REMARK H PARENT
REMARK Flexibility Score: inf
ROOT
ATOM      1  C   UNL     1      62.060  33.760  60.366  1.00  0.00     0.000 C 
ENDROOT
BRANCH   1   2
ATOM      2  C   UNL     1      61.432  32.920  59.239  1.00  0.00     0.000 C 
BRANCH   2   3
ATOM      3  C   UNL     1      61.400  31.414  59.562  1.00  0.00     0.000 C 
BRANCH   3   4
ATOM      4  C   UNL     1      61.035  31.065  61.016  1.00  0.00     0.000 C 
BRANCH   4   5
ATOM      5  C   UNL     1      61.983  30.028  61.641  1.00  0.00     0.000 C 
BRANCH   5   6
ATOM      6  C   UNL     1      63.399  30.080  61.043  1.00  0.00     0.000 C 
BRANCH   6   7
ATOM      7  C   UNL     1      63.969  28.691  60.679  1.00  0.00     0.006 C 
BRANCH   7   8
ATOM      8  C   UNL     1      65.173  28.792  59.733  1.00  0.00     0.053 C 
BRANCH   8   9
ATOM      9  C   UNL     1      66.321  27.991  60.260  1.00  0.00     0.041 C 
ATOM     10  O   UNL     1      66.481  26.797  59.896  1.00  0.00    -0.550 OA
ATOM     11  O   UNL     1      67.188  28.550  61.189  1.00  0.00    -0.550 OA
ENDBRANCH   8   9
ENDBRANCH   7   8
ENDBRANCH   6   7
ENDBRANCH   5   6
ENDBRANCH   4   5
ENDBRANCH   3   4
ENDBRANCH   2   3
ENDBRANCH   1   2
BRANCH   1  12
ATOM     12  C   UNL     1      62.041  35.267  60.063  1.00  0.00     0.000 C 
BRANCH  12  13
ATOM     13  C   UNL     1      63.172  36.025  60.779  1.00  0.00    -0.000 C 
BRANCH  13  14
ATOM     14  C   UNL     1      64.318  35.100  61.220  1.00  0.00    -0.000 C 
BRANCH  14  15
ATOM     15  C   UNL     1      65.699  35.618  60.792  1.00  0.00    -0.000 C 
BRANCH  15  16
ATOM     16  C   UNL     1      65.652  36.198  59.370  1.00  0.00    -0.000 C 
BRANCH  16  17
ATOM     17  C   UNL     1      65.931  35.145  58.281  1.00  0.00    -0.000 C 
BRANCH  17  18
ATOM     18  C   UNL     1      64.690  34.659  57.511  1.00  0.00    -0.000 C 
BRANCH  18  19
ATOM     19  C   UNL     1      64.613  33.130  57.399  1.00  0.00    -0.003 C 
ATOM     20  C   UNL     1      65.107  32.460  58.678  1.00  0.00     0.004 C 
ENDBRANCH  18  19
ENDBRANCH  17  18
ENDBRANCH  16  17
ENDBRANCH  15  16
ENDBRANCH  14  15
ENDBRANCH  13  14
ENDBRANCH  12  13
ENDBRANCH   1  12
TORSDOF 16
ENDMDL
MODEL 3
REMARK VINA RESULT:    -3.277      1.265      3.149
REMARK INTER + INTRA:          -8.954
REMARK INTER:                  -6.265
REMARK INTRA:                  -2.689
REMARK UNBOUND:                -2.612
REMARK SMILES CCCCCCCCCCCCCCCCCC(=O)[O-]
REMARK SMILES IDX 10 1 11 2 12 3 13 4 14 5 15 6 16 7 17 8 18 9 19 10 20 11
REMARK SMILES IDX 9 12 8 13 7 14 6 15 5 16 4 17 3 18 2 19 1 20
REMARK H PARENT
REMARK Flexibility Score: inf
ROOT
ATOM      1  C   UNL     1      56.384  26.162  49.813  1.00  0.00     0.000 C 
ENDROOT
BRANCH   1   2
ATOM      2  C   UNL     1      54.925  25.695  49.666  1.00  0.00     0.000 C 
BRANCH   2   3
ATOM      3  C   UNL     1      53.982  26.816  49.189  1.00  0.00     0.000 C 
BRANCH   3   4
ATOM      4  C   UNL     1      53.573  27.831  50.273  1.00  0.00     0.000 C 
BRANCH   4   5
ATOM      5  C   UNL     1      53.854  29.288  49.869  1.00  0.00     0.000 C 
BRANCH   5   6
ATOM      6  C   UNL     1      54.222  30.177  51.069  1.00  0.00     0.000 C 
BRANCH   6   7
ATOM      7  C   UNL     1      54.504  29.385  52.364  1.00  0.00     0.006 C 
BRANCH   7   8
ATOM      8  C   UNL     1      54.718  30.309  53.570  1.00  0.00     0.053 C 
BRANCH   8   9
ATOM      9  C   UNL     1      55.961  31.121  53.393  1.00  0.00     0.041 C 
ATOM     10  O   UNL     1      57.092  30.599  53.577  1.00  0.00    -0.550 OA
ATOM     11  O   UNL     1      55.870  32.469  53.070  1.00  0.00    -0.550 OA
ENDBRANCH   8   9
ENDBRANCH   7   8
ENDBRANCH   6   7
ENDBRANCH   5   6
ENDBRANCH   4   5
ENDBRANCH   3   4
ENDBRANCH   2   3
ENDBRANCH   1   2
BRANCH   1  12
ATOM     12  C   UNL     1      56.831  26.262  51.281  1.00  0.00     0.000 C 
BRANCH  12  13
ATOM     13  C   UNL     1      57.554  27.584  51.587  1.00  0.00    -0.000 C 
BRANCH  13  14
ATOM     14  C   UNL     1      57.540  28.556  50.396  1.00  0.00    -0.000 C 
BRANCH  14  15
ATOM     15  C   UNL     1      58.828  29.387  50.293  1.00  0.00    -0.000 C 
BRANCH  15  16
ATOM     16  C   UNL     1      59.575  29.082  48.985  1.00  0.00    -0.000 C 
BRANCH  16  17
ATOM     17  C   UNL     1      60.699  28.043  49.164  1.00  0.00    -0.000 C 
BRANCH  17  18
ATOM     18  C   UNL     1      60.228  26.578  49.222  1.00  0.00    -0.000 C 
BRANCH  18  19
ATOM     19  C   UNL     1      60.576  25.888  50.548  1.00  0.00    -0.003 C 
ATOM     20  C   UNL     1      60.127  24.430  50.544  1.00  0.00     0.004 C 
ENDBRANCH  18  19
ENDBRANCH  17  18
ENDBRANCH  16  17
ENDBRANCH  15  16
ENDBRANCH  14  15
ENDBRANCH  13  14
ENDBRANCH  12  13
ENDBRANCH   1  12
TORSDOF 16
ENDMDL
MODEL 4
REMARK VINA RESULT:    -3.159      3.365      6.077
REMARK INTER + INTRA:          -8.726
REMARK INTER:                  -6.006
REMARK INTRA:                  -2.720
REMARK UNBOUND:                -2.612
REMARK SMILES CCCCCCCCCCCCCCCCCC(=O)[O-]
REMARK SMILES IDX 10 1 11 2 12 3 13 4 14 5 15 6 16 7 17 8 18 9 19 10 20 11
REMARK SMILES IDX 9 12 8 13 7 14 6 15 5 16 4 17 3 18 2 19 1 20
REMARK H PARENT
REMARK Flexibility Score: inf
ROOT
ATOM      1  C   UNL     1      58.112  28.258  52.530  1.00  0.00     0.000 C 
ENDROOT
BRANCH   1   2
ATOM      2  C   UNL     1      59.265  29.255  52.318  1.00  0.00     0.000 C 
BRANCH   2   3
ATOM      3  C   UNL     1      59.238  29.916  50.927  1.00  0.00     0.000 C 
BRANCH   3   4
ATOM      4  C   UNL     1      58.832  28.985  49.770  1.00  0.00     0.000 C 
BRANCH   4   5
ATOM      5  C   UNL     1      60.032  28.490  48.947  1.00  0.00     0.000 C 
BRANCH   5   6
ATOM      6  C   UNL     1      60.709  27.255  49.566  1.00  0.00     0.000 C 
BRANCH   6   7
ATOM      7  C   UNL     1      59.787  26.019  49.650  1.00  0.00     0.006 C 
BRANCH   7   8
ATOM      8  C   UNL     1      60.341  24.949  50.599  1.00  0.00     0.053 C 
BRANCH   8   9
ATOM      9  C   UNL     1      61.423  24.164  49.928  1.00  0.00     0.041 C 
ATOM     10  O   UNL     1      61.157  23.072  49.361  1.00  0.00    -0.550 OA
ATOM     11  O   UNL     1      62.736  24.615  49.969  1.00  0.00    -0.550 OA
ENDBRANCH   8   9
ENDBRANCH   7   8
ENDBRANCH   6   7
ENDBRANCH   5   6
ENDBRANCH   4   5
ENDBRANCH   3   4
ENDBRANCH   2   3
ENDBRANCH   1   2
BRANCH   1  12
ATOM     12  C   UNL     1      58.576  26.944  53.180  1.00  0.00     0.000 C 
BRANCH  12  13
ATOM     13  C   UNL     1      57.488  25.857  53.151  1.00  0.00    -0.000 C 
BRANCH  13  14
ATOM     14  C   UNL     1      56.104  26.415  52.784  1.00  0.00    -0.000 C 
BRANCH  14  15
ATOM     15  C   UNL     1      55.426  25.628  51.652  1.00  0.00    -0.000 C 
BRANCH  15  16
ATOM     16  C   UNL     1      56.094  25.926  50.301  1.00  0.00    -0.000 C 
BRANCH  16  17
ATOM     17  C   UNL     1      55.800  27.347  49.785  1.00  0.00    -0.000 C 
BRANCH  17  18
ATOM     18  C   UNL     1      54.312  27.651  49.528  1.00  0.00    -0.000 C 
BRANCH  18  19
ATOM     19  C   UNL     1      53.904  29.064  49.968  1.00  0.00    -0.003 C 
ATOM     20  C   UNL     1      55.007  29.725  50.788  1.00  0.00     0.004 C 
ENDBRANCH  18  19
ENDBRANCH  17  18
ENDBRANCH  16  17
ENDBRANCH  15  16
ENDBRANCH  14  15
ENDBRANCH  13  14
ENDBRANCH  12  13
ENDBRANCH   1  12
TORSDOF 16
ENDMDL
MODEL 5
REMARK VINA RESULT:    -3.090      1.965      3.943
REMARK INTER + INTRA:          -8.593
REMARK INTER:                  -6.108
REMARK INTRA:                  -2.485
REMARK UNBOUND:                -2.612
REMARK SMILES CCCCCCCCCCCCCCCCCC(=O)[O-]
REMARK SMILES IDX 10 1 11 2 12 3 13 4 14 5 15 6 16 7 17 8 18 9 19 10 20 11
REMARK SMILES IDX 9 12 8 13 7 14 6 15 5 16 4 17 3 18 2 19 1 20
REMARK H PARENT
REMARK Flexibility Score: inf
ROOT
ATOM      1  C   UNL     1      54.782  27.069  49.462  1.00  0.00     0.000 C 
ENDROOT
BRANCH   1   2
ATOM      2  C   UNL     1      53.405  27.751  49.378  1.00  0.00     0.000 C 
BRANCH   2   3
ATOM      3  C   UNL     1      53.366  29.114  50.096  1.00  0.00     0.000 C 
BRANCH   3   4
ATOM      4  C   UNL     1      54.737  29.787  50.293  1.00  0.00     0.000 C 
BRANCH   4   5
ATOM      5  C   UNL     1      54.934  30.346  51.711  1.00  0.00     0.000 C 
BRANCH   5   6
ATOM      6  C   UNL     1      55.625  29.347  52.654  1.00  0.00     0.000 C 
BRANCH   6   7
ATOM      7  C   UNL     1      56.952  29.870  53.247  1.00  0.00     0.006 C 
BRANCH   7   8
ATOM      8  C   UNL     1      57.092  31.390  53.095  1.00  0.00     0.053 C 
BRANCH   8   9
ATOM      9  C   UNL     1      58.518  31.762  52.840  1.00  0.00     0.041 C 
ATOM     10  O   UNL     1      59.361  30.876  52.540  1.00  0.00    -0.550 OA
ATOM     11  O   UNL     1      58.927  33.082  52.978  1.00  0.00    -0.550 OA
ENDBRANCH   8   9
ENDBRANCH   7   8
ENDBRANCH   6   7
ENDBRANCH   5   6
ENDBRANCH   4   5
ENDBRANCH   3   4
ENDBRANCH   2   3
ENDBRANCH   1   2
BRANCH   1  12
ATOM     12  C   UNL     1      54.910  26.140  50.680  1.00  0.00     0.000 C 
BRANCH  12  13
ATOM     13  C   UNL     1      56.359  26.026  51.182  1.00  0.00    -0.000 C 
BRANCH  13  14
ATOM     14  C   UNL     1      57.387  26.492  50.139  1.00  0.00    -0.000 C 
BRANCH  14  15
ATOM     15  C   UNL     1      58.372  27.530  50.697  1.00  0.00    -0.000 C 
BRANCH  15  16
ATOM     16  C   UNL     1      58.250  28.864  49.944  1.00  0.00    -0.000 C 
BRANCH  16  17
ATOM     17  C   UNL     1      59.490  29.189  49.091  1.00  0.00    -0.000 C 
BRANCH  17  18
ATOM     18  C   UNL     1      60.503  28.038  48.950  1.00  0.00    -0.000 C 
BRANCH  18  19
ATOM     19  C   UNL     1      61.853  28.342  49.615  1.00  0.00    -0.003 C 
ATOM     20  C   UNL     1      62.155  27.343  50.728  1.00  0.00     0.004 C 
ENDBRANCH  18  19
ENDBRANCH  17  18
ENDBRANCH  16  17
ENDBRANCH  15  16
ENDBRANCH  14  15
ENDBRANCH  13  14
ENDBRANCH  12  13
ENDBRANCH   1  12
TORSDOF 16
ENDMDL
MODEL 6
REMARK VINA RESULT:    -3.087      2.641      6.333
REMARK INTER + INTRA:          -8.586
REMARK INTER:                  -5.946
REMARK INTRA:                  -2.639
REMARK UNBOUND:                -2.612
REMARK SMILES CCCCCCCCCCCCCCCCCC(=O)[O-]
REMARK SMILES IDX 10 1 11 2 12 3 13 4 14 5 15 6 16 7 17 8 18 9 19 10 20 11
REMARK SMILES IDX 9 12 8 13 7 14 6 15 5 16 4 17 3 18 2 19 1 20
REMARK H PARENT
REMARK Flexibility Score: inf
ROOT
ATOM      1  C   UNL     1      57.460  28.106  51.397  1.00  0.00     0.000 C 
ENDROOT
BRANCH   1   2
ATOM      2  C   UNL     1      58.645  29.036  51.080  1.00  0.00     0.000 C 
BRANCH   2   3
ATOM      3  C   UNL     1      58.830  29.276  49.570  1.00  0.00     0.000 C 
BRANCH   3   4
ATOM      4  C   UNL     1      60.087  28.633  48.956  1.00  0.00     0.000 C 
BRANCH   4   5
ATOM      5  C   UNL     1      60.147  27.110  49.165  1.00  0.00     0.000 C 
BRANCH   5   6
ATOM      6  C   UNL     1      61.539  26.624  49.603  1.00  0.00     0.000 C 
BRANCH   6   7
ATOM      7  C   UNL     1      61.500  25.564  50.725  1.00  0.00     0.006 C 
BRANCH   7   8
ATOM      8  C   UNL     1      60.285  25.741  51.644  1.00  0.00     0.053 C 
BRANCH   8   9
ATOM      9  C   UNL     1      59.521  24.459  51.755  1.00  0.00     0.041 C 
ATOM     10  O   UNL     1      59.986  23.399  51.260  1.00  0.00    -0.550 OA
ATOM     11  O   UNL     1      58.273  24.444  52.363  1.00  0.00    -0.550 OA
ENDBRANCH   8   9
ENDBRANCH   7   8
ENDBRANCH   6   7
ENDBRANCH   5   6
ENDBRANCH   4   5
ENDBRANCH   3   4
ENDBRANCH   2   3
ENDBRANCH   1   2
BRANCH   1  12
ATOM     12  C   UNL     1      56.598  27.802  50.161  1.00  0.00     0.000 C 
BRANCH  12  13
ATOM     13  C   UNL     1      56.495  26.295  49.871  1.00  0.00    -0.000 C 
BRANCH  13  14
ATOM     14  C   UNL     1      55.244  25.933  49.054  1.00  0.00    -0.000 C 
BRANCH  14  15
ATOM     15  C   UNL     1      54.058  26.866  49.337  1.00  0.00    -0.000 C 
BRANCH  15  16
ATOM     16  C   UNL     1      52.875  26.087  49.932  1.00  0.00    -0.000 C 
BRANCH  16  17
ATOM     17  C   UNL     1      52.876  26.077  51.473  1.00  0.00    -0.000 C 
BRANCH  17  18
ATOM     18  C   UNL     1      53.227  27.424  52.132  1.00  0.00    -0.000 C 
BRANCH  18  19
ATOM     19  C   UNL     1      54.350  27.307  53.173  1.00  0.00    -0.003 C 
ATOM     20  C   UNL     1      54.914  25.891  53.216  1.00  0.00     0.004 C 
ENDBRANCH  18  19
ENDBRANCH  17  18
ENDBRANCH  16  17
ENDBRANCH  15  16
ENDBRANCH  14  15
ENDBRANCH  13  14
ENDBRANCH  12  13
ENDBRANCH   1  12
TORSDOF 16
ENDMDL
MODEL 7
REMARK VINA RESULT:    -3.083      2.625      5.727
REMARK INTER + INTRA:          -8.579
REMARK INTER:                  -6.295
REMARK INTRA:                  -2.284
REMARK UNBOUND:                -2.612
REMARK SMILES CCCCCCCCCCCCCCCCCC(=O)[O-]
REMARK SMILES IDX 10 1 11 2 12 3 13 4 14 5 15 6 16 7 17 8 18 9 19 10 20 11
REMARK SMILES IDX 9 12 8 13 7 14 6 15 5 16 4 17 3 18 2 19 1 20
REMARK H PARENT
REMARK Flexibility Score: inf
ROOT
ATOM      1  C   UNL     1      56.537  25.869  50.940  1.00  0.00     0.000 C 
ENDROOT
BRANCH   1   2
ATOM      2  C   UNL     1      57.777  26.636  51.434  1.00  0.00     0.000 C 
BRANCH   2   3
ATOM      3  C   UNL     1      57.435  28.031  51.991  1.00  0.00     0.000 C 
BRANCH   3   4
ATOM      4  C   UNL     1      58.231  29.194  51.372  1.00  0.00     0.000 C 
BRANCH   4   5
ATOM      5  C   UNL     1      58.211  29.187  49.835  1.00  0.00     0.000 C 
BRANCH   5   6
ATOM      6  C   UNL     1      59.620  29.268  49.221  1.00  0.00     0.000 C 
BRANCH   6   7
ATOM      7  C   UNL     1      60.270  27.889  48.978  1.00  0.00     0.006 C 
BRANCH   7   8
ATOM      8  C   UNL     1      61.701  27.821  49.529  1.00  0.00     0.053 C 
BRANCH   8   9
ATOM      9  C   UNL     1      61.682  27.701  51.020  1.00  0.00     0.041 C 
ATOM     10  O   UNL     1      62.049  28.667  51.739  1.00  0.00    -0.550 OA
ATOM     11  O   UNL     1      61.302  26.505  51.615  1.00  0.00    -0.550 OA
ENDBRANCH   8   9
ENDBRANCH   7   8
ENDBRANCH   6   7
ENDBRANCH   5   6
ENDBRANCH   4   5
ENDBRANCH   3   4
ENDBRANCH   2   3
ENDBRANCH   1   2
BRANCH   1  12
ATOM     12  C   UNL     1      56.028  26.377  49.581  1.00  0.00     0.000 C 
BRANCH  12  13
ATOM     13  C   UNL     1      54.736  25.671  49.136  1.00  0.00    -0.000 C 
BRANCH  13  14
ATOM     14  C   UNL     1      53.549  26.639  48.999  1.00  0.00    -0.000 C 
BRANCH  14  15
ATOM     15  C   UNL     1      53.413  27.586  50.200  1.00  0.00    -0.000 C 
BRANCH  15  16
ATOM     16  C   UNL     1      53.455  29.054  49.750  1.00  0.00    -0.000 C 
BRANCH  16  17
ATOM     17  C   UNL     1      54.560  29.867  50.451  1.00  0.00    -0.000 C 
BRANCH  17  18
ATOM     18  C   UNL     1      54.137  30.537  51.771  1.00  0.00    -0.000 C 
BRANCH  18  19
ATOM     19  C   UNL     1      55.310  31.192  52.514  1.00  0.00    -0.003 C 
ATOM     20  C   UNL     1      55.336  30.770  53.980  1.00  0.00     0.004 C 
ENDBRANCH  18  19
ENDBRANCH  17  18
ENDBRANCH  16  17
ENDBRANCH  15  16
ENDBRANCH  14  15
ENDBRANCH  13  14
ENDBRANCH  12  13
ENDBRANCH   1  12
TORSDOF 16
ENDMDL
MODEL 8
REMARK VINA RESULT:    -3.064      9.592     12.534
REMARK INTER + INTRA:          -8.542
REMARK INTER:                  -5.774
REMARK INTRA:                  -2.768
REMARK UNBOUND:                -2.612
REMARK SMILES CCCCCCCCCCCCCCCCCC(=O)[O-]
REMARK SMILES IDX 10 1 11 2 12 3 13 4 14 5 15 6 16 7 17 8 18 9 19 10 20 11
REMARK SMILES IDX 9 12 8 13 7 14 6 15 5 16 4 17 3 18 2 19 1 20
REMARK H PARENT
REMARK Flexibility Score: inf
ROOT
ATOM      1  C   UNL     1      64.832  31.363  59.222  1.00  0.00     0.000 C 
ENDROOT
BRANCH   1   2
ATOM      2  C   UNL     1      64.727  31.060  60.727  1.00  0.00     0.000 C 
BRANCH   2   3
ATOM      3  C   UNL     1      64.120  29.674  61.017  1.00  0.00     0.000 C 
BRANCH   3   4
ATOM      4  C   UNL     1      64.743  28.509  60.226  1.00  0.00     0.000 C 
BRANCH   4   5
ATOM      5  C   UNL     1      63.919  27.214  60.315  1.00  0.00     0.000 C 
BRANCH   5   6
ATOM      6  C   UNL     1      62.577  27.411  61.040  1.00  0.00     0.000 C 
BRANCH   6   7
ATOM      7  C   UNL     1      61.738  26.119  61.152  1.00  0.00     0.006 C 
BRANCH   7   8
ATOM      8  C   UNL     1      61.685  25.589  62.591  1.00  0.00     0.053 C 
BRANCH   8   9
ATOM      9  C   UNL     1      60.398  24.865  62.835  1.00  0.00     0.041 C 
ATOM     10  O   UNL     1      60.348  23.925  63.670  1.00  0.00    -0.550 OA
ATOM     11  O   UNL     1      59.265  25.199  62.105  1.00  0.00    -0.550 OA
ENDBRANCH   8   9
ENDBRANCH   7   8
ENDBRANCH   6   7
ENDBRANCH   5   6
ENDBRANCH   4   5
ENDBRANCH   3   4
ENDBRANCH   2   3
ENDBRANCH   1   2
BRANCH   1  12
ATOM     12  C   UNL     1      64.247  32.736  58.851  1.00  0.00     0.000 C 
BRANCH  12  13
ATOM     13  C   UNL     1      63.916  33.587  60.089  1.00  0.00    -0.000 C 
BRANCH  13  14
ATOM     14  C   UNL     1      62.425  33.953  60.175  1.00  0.00    -0.000 C 
BRANCH  14  15
ATOM     15  C   UNL     1      61.513  32.875  59.571  1.00  0.00    -0.000 C 
BRANCH  15  16
ATOM     16  C   UNL     1      61.122  31.830  60.629  1.00  0.00    -0.000 C 
BRANCH  16  17
ATOM     17  C   UNL     1      60.766  30.462  60.019  1.00  0.00    -0.000 C 
BRANCH  17  18
ATOM     18  C   UNL     1      60.845  30.393  58.483  1.00  0.00    -0.000 C 
BRANCH  18  19
ATOM     19  C   UNL     1      61.883  29.380  57.980  1.00  0.00    -0.003 C 
ATOM     20  C   UNL     1      62.610  29.904  56.746  1.00  0.00     0.004 C 
ENDBRANCH  18  19
ENDBRANCH  17  18
ENDBRANCH  16  17
ENDBRANCH  15  16
ENDBRANCH  14  15
ENDBRANCH  13  14
ENDBRANCH  12  13
ENDBRANCH   1  12
TORSDOF 16
ENDMDL
MODEL 9
REMARK VINA RESULT:    -3.046      3.818      7.490
REMARK INTER + INTRA:          -8.507
REMARK INTER:                  -7.188
REMARK INTRA:                  -1.319
REMARK UNBOUND:                -2.612
REMARK SMILES CCCCCCCCCCCCCCCCCC(=O)[O-]
REMARK SMILES IDX 10 1 11 2 12 3 13 4 14 5 15 6 16 7 17 8 18 9 19 10 20 11
REMARK SMILES IDX 9 12 8 13 7 14 6 15 5 16 4 17 3 18 2 19 1 20
REMARK H PARENT
REMARK Flexibility Score: inf
ROOT
ATOM      1  C   UNL     1      58.148  28.495  50.120  1.00  0.00     0.000 C 
ENDROOT
BRANCH   1   2
ATOM      2  C   UNL     1      59.371  29.091  49.399  1.00  0.00     0.000 C 
BRANCH   2   3
ATOM      3  C   UNL     1      60.410  28.026  49.002  1.00  0.00     0.000 C 
BRANCH   3   4
ATOM      4  C   UNL     1      61.717  28.053  49.816  1.00  0.00     0.000 C 
BRANCH   4   5
ATOM      5  C   UNL     1      62.543  26.764  49.671  1.00  0.00     0.000 C 
BRANCH   5   6
ATOM      6  C   UNL     1      62.629  25.963  50.981  1.00  0.00     0.000 C 
BRANCH   6   7
ATOM      7  C   UNL     1      61.563  24.852  51.099  1.00  0.00     0.006 C 
BRANCH   7   8
ATOM      8  C   UNL     1      61.303  24.156  49.756  1.00  0.00     0.053 C 
BRANCH   8   9
ATOM      9  C   UNL     1      61.489  22.678  49.888  1.00  0.00     0.041 C 
ATOM     10  O   UNL     1      62.043  22.197  50.911  1.00  0.00    -0.550 OA
ATOM     11  O   UNL     1      61.092  21.834  48.859  1.00  0.00    -0.550 OA
ENDBRANCH   8   9
ENDBRANCH   7   8
ENDBRANCH   6   7
ENDBRANCH   5   6
ENDBRANCH   4   5
ENDBRANCH   3   4
ENDBRANCH   2   3
ENDBRANCH   1   2
BRANCH   1  12
ATOM     12  C   UNL     1      57.859  29.183  51.464  1.00  0.00     0.000 C 
BRANCH  12  13
ATOM     13  C   UNL     1      56.367  29.506  51.650  1.00  0.00    -0.000 C 
BRANCH  13  14
ATOM     14  C   UNL     1      55.545  29.266  50.373  1.00  0.00    -0.000 C 
BRANCH  14  15
ATOM     15  C   UNL     1      54.119  29.827  50.470  1.00  0.00    -0.000 C 
BRANCH  15  16
ATOM     16  C   UNL     1      53.122  28.923  49.729  1.00  0.00    -0.000 C 
BRANCH  16  17
ATOM     17  C   UNL     1      53.270  27.435  50.098  1.00  0.00    -0.000 C 
BRANCH  17  18
ATOM     18  C   UNL     1      53.120  26.454  48.921  1.00  0.00    -0.000 C 
BRANCH  18  19
ATOM     19  C   UNL     1      54.408  25.671  48.625  1.00  0.00    -0.003 C 
ATOM     20  C   UNL     1      55.423  25.837  49.751  1.00  0.00     0.004 C 
ENDBRANCH  18  19
ENDBRANCH  17  18
ENDBRANCH  16  17
ENDBRANCH  15  16
ENDBRANCH  14  15
ENDBRANCH  13  14
ENDBRANCH  12  13
ENDBRANCH   1  12
TORSDOF 16
ENDMDL
