MODEL 1
REMARK VINA RESULT:    -3.475      0.000      0.000
REMARK INTER + INTRA:          -9.554
REMARK INTER:                  -6.726
REMARK INTRA:                  -2.827
REMARK UNBOUND:                -2.827
REMARK SMILES CCCCCCCCCCCCCCCCCC(=O)[O-]
REMARK SMILES IDX 10 1 11 2 12 3 13 4 14 5 15 6 16 7 17 8 18 9 19 10 20 11
REMARK SMILES IDX 9 12 8 13 7 14 6 15 5 16 4 17 3 18 2 19 1 20
REMARK H PARENT
REMARK Flexibility Score: inf
ROOT
ATOM      1  C   UNL     1      -4.222  -4.332 -26.826  1.00  0.00     0.000 C 
ENDROOT
BRANCH   1   2
ATOM      2  C   UNL     1      -2.736  -4.698 -26.911  1.00  0.00     0.000 C 
BRANCH   2   3
ATOM      3  C   UNL     1      -1.859  -3.437 -26.944  1.00  0.00     0.000 C 
BRANCH   3   4
ATOM      4  C   UNL     1      -0.888  -3.422 -28.135  1.00  0.00     0.000 C 
BRANCH   4   5
ATOM      5  C   UNL     1      -0.659  -2.007 -28.698  1.00  0.00     0.000 C 
BRANCH   5   6
ATOM      6  C   UNL     1      -1.298  -0.918 -27.811  1.00  0.00     0.000 C 
BRANCH   6   7
ATOM      7  C   UNL     1      -1.947   0.224 -28.610  1.00  0.00     0.006 C 
BRANCH   7   8
ATOM      8  C   UNL     1      -1.721   0.100 -30.121  1.00  0.00     0.053 C 
BRANCH   8   9
ATOM      9  C   UNL     1      -0.817   1.189 -30.605  1.00  0.00     0.041 C 
ATOM     10  O   UNL     1      -0.203   1.916 -29.782  1.00  0.00    -0.550 OA
ATOM     11  O   UNL     1      -0.691   1.434 -31.967  1.00  0.00    -0.550 OA
ENDBRANCH   8   9
ENDBRANCH   7   8
ENDBRANCH   6   7
ENDBRANCH   5   6
ENDBRANCH   4   5
ENDBRANCH   3   4
ENDBRANCH   2   3
ENDBRANCH   1   2
BRANCH   1  12
ATOM     12  C   UNL     1      -4.450  -2.864 -27.204  1.00  0.00     0.000 C 
BRANCH  12  13
ATOM     13  C   UNL     1      -5.163  -2.108 -26.073  1.00  0.00    -0.000 C 
BRANCH  13  14
ATOM     14  C   UNL     1      -4.861  -0.599 -26.075  1.00  0.00    -0.000 C 
BRANCH  14  15
ATOM     15  C   UNL     1      -4.183  -0.062 -24.797  1.00  0.00    -0.000 C 
BRANCH  15  16
ATOM     16  C   UNL     1      -2.898  -0.802 -24.380  1.00  0.00    -0.000 C 
BRANCH  16  17
ATOM     17  C   UNL     1      -3.025  -1.630 -23.088  1.00  0.00    -0.000 C 
BRANCH  17  18
ATOM     18  C   UNL     1      -2.677  -3.124 -23.275  1.00  0.00    -0.000 C 
BRANCH  18  19
ATOM     19  C   UNL     1      -3.894  -4.060 -23.180  1.00  0.00    -0.003 C 
ATOM     20  C   UNL     1      -3.512  -5.534 -23.320  1.00  0.00     0.004 C 
ENDBRANCH  18  19
ENDBRANCH  17  18
ENDBRANCH  16  17
ENDBRANCH  15  16
ENDBRANCH  14  15
ENDBRANCH  13  14
ENDBRANCH  12  13
ENDBRANCH   1  12
TORSDOF 16
ENDMDL
MODEL 2
REMARK VINA RESULT:    -3.422      2.704      5.814
REMARK INTER + INTRA:          -9.451
REMARK INTER:                  -7.047
REMARK INTRA:                  -2.404
REMARK UNBOUND:                -2.827
REMARK SMILES CCCCCCCCCCCCCCCCCC(=O)[O-]
REMARK SMILES IDX 10 1 11 2 12 3 13 4 14 5 15 6 16 7 17 8 18 9 19 10 20 11
REMARK SMILES IDX 9 12 8 13 7 14 6 15 5 16 4 17 3 18 2 19 1 20
REMARK H PARENT
REMARK Flexibility Score: inf
ROOT
ATOM      1  C   UNL     1      -1.437  -4.857 -27.268  1.00  0.00     0.000 C 
ENDROOT
BRANCH   1   2
ATOM      2  C   UNL     1      -2.532  -4.456 -26.273  1.00  0.00     0.000 C 
BRANCH   2   3
ATOM      3  C   UNL     1      -3.904  -4.984 -26.723  1.00  0.00     0.000 C 
BRANCH   3   4
ATOM      4  C   UNL     1      -5.071  -4.170 -26.144  1.00  0.00     0.000 C 
BRANCH   4   5
ATOM      5  C   UNL     1      -5.021  -2.686 -26.552  1.00  0.00     0.000 C 
BRANCH   5   6
ATOM      6  C   UNL     1      -4.940  -1.749 -25.329  1.00  0.00     0.000 C 
BRANCH   6   7
ATOM      7  C   UNL     1      -4.559  -0.302 -25.687  1.00  0.00     0.006 C 
BRANCH   7   8
ATOM      8  C   UNL     1      -4.174   0.534 -24.462  1.00  0.00     0.053 C 
BRANCH   8   9
ATOM      9  C   UNL     1      -2.693   0.738 -24.412  1.00  0.00     0.041 C 
ATOM     10  O   UNL     1      -2.215   1.901 -24.352  1.00  0.00    -0.550 OA
ATOM     11  O   UNL     1      -1.838  -0.355 -24.482  1.00  0.00    -0.550 OA
ENDBRANCH   8   9
ENDBRANCH   7   8
ENDBRANCH   6   7
ENDBRANCH   5   6
ENDBRANCH   4   5
ENDBRANCH   3   4
ENDBRANCH   2   3
ENDBRANCH   1   2
BRANCH   1  12
ATOM     12  C   UNL     1      -0.935  -3.640 -28.054  1.00  0.00     0.000 C 
BRANCH  12  13
ATOM     13  C   UNL     1      -1.350  -2.331 -27.368  1.00  0.00    -0.000 C 
BRANCH  13  14
ATOM     14  C   UNL     1      -2.104  -1.373 -28.308  1.00  0.00    -0.000 C 
BRANCH  14  15
ATOM     15  C   UNL     1      -1.599   0.085 -28.305  1.00  0.00    -0.000 C 
BRANCH  15  16
ATOM     16  C   UNL     1      -1.388   0.705 -29.699  1.00  0.00    -0.000 C 
BRANCH  16  17
ATOM     17  C   UNL     1       0.060   0.637 -30.219  1.00  0.00    -0.000 C 
BRANCH  17  18
ATOM     18  C   UNL     1       0.308  -0.529 -31.204  1.00  0.00    -0.000 C 
BRANCH  18  19
ATOM     19  C   UNL     1       1.016  -1.736 -30.568  1.00  0.00    -0.003 C 
ATOM     20  C   UNL     1       1.790  -1.362 -29.302  1.00  0.00     0.004 C 
ENDBRANCH  18  19
ENDBRANCH  17  18
ENDBRANCH  16  17
ENDBRANCH  15  16
ENDBRANCH  14  15
ENDBRANCH  13  14
ENDBRANCH  12  13
ENDBRANCH   1  12
TORSDOF 16
ENDMDL
MODEL 3
REMARK VINA RESULT:    -3.422     13.874     16.559
REMARK INTER + INTRA:          -9.450
REMARK INTER:                  -7.268
REMARK INTRA:                  -2.182
REMARK UNBOUND:                -2.827
REMARK SMILES CCCCCCCCCCCCCCCCCC(=O)[O-]
REMARK SMILES IDX 10 1 11 2 12 3 13 4 14 5 15 6 16 7 17 8 18 9 19 10 20 11
REMARK SMILES IDX 9 12 8 13 7 14 6 15 5 16 4 17 3 18 2 19 1 20
REMARK H PARENT
REMARK Flexibility Score: inf
ROOT
ATOM      1  C   UNL     1      -2.828  -8.477 -16.677  1.00  0.00     0.000 C 
ENDROOT
BRANCH   1   2
ATOM      2  C   UNL     1      -1.933  -9.665 -16.304  1.00  0.00     0.000 C 
BRANCH   2   3
ATOM      3  C   UNL     1      -1.046  -9.327 -15.095  1.00  0.00     0.000 C 
BRANCH   3   4
ATOM      4  C   UNL     1      -0.666 -10.570 -14.275  1.00  0.00     0.000 C 
BRANCH   4   5
ATOM      5  C   UNL     1      -1.572 -11.778 -14.571  1.00  0.00     0.000 C 
BRANCH   5   6
ATOM      6  C   UNL     1      -0.794 -12.944 -15.216  1.00  0.00     0.000 C 
BRANCH   6   7
ATOM      7  C   UNL     1      -1.566 -14.275 -15.215  1.00  0.00     0.006 C 
BRANCH   7   8
ATOM      8  C   UNL     1      -0.926 -15.336 -14.313  1.00  0.00     0.053 C 
BRANCH   8   9
ATOM      9  C   UNL     1      -1.625 -15.390 -12.992  1.00  0.00     0.041 C 
ATOM     10  O   UNL     1      -2.753 -14.848 -12.849  1.00  0.00    -0.550 OA
ATOM     11  O   UNL     1      -1.010 -15.995 -11.903  1.00  0.00    -0.550 OA
ENDBRANCH   8   9
ENDBRANCH   7   8
ENDBRANCH   6   7
ENDBRANCH   5   6
ENDBRANCH   4   5
ENDBRANCH   3   4
ENDBRANCH   2   3
ENDBRANCH   1   2
BRANCH   1  12
ATOM     12  C   UNL     1      -4.306  -8.800 -16.428  1.00  0.00     0.000 C 
BRANCH  12  13
ATOM     13  C   UNL     1      -4.778  -9.948 -17.332  1.00  0.00    -0.000 C 
BRANCH  13  14
ATOM     14  C   UNL     1      -5.420 -11.106 -16.547  1.00  0.00    -0.000 C 
BRANCH  14  15
ATOM     15  C   UNL     1      -4.613 -12.421 -16.537  1.00  0.00    -0.000 C 
BRANCH  15  16
ATOM     16  C   UNL     1      -5.291 -13.608 -17.248  1.00  0.00    -0.000 C 
BRANCH  16  17
ATOM     17  C   UNL     1      -4.702 -13.949 -18.629  1.00  0.00    -0.000 C 
BRANCH  17  18
ATOM     18  C   UNL     1      -3.481 -13.081 -19.012  1.00  0.00    -0.000 C 
BRANCH  18  19
ATOM     19  C   UNL     1      -2.133 -13.806 -18.856  1.00  0.00    -0.003 C 
ATOM     20  C   UNL     1      -2.296 -15.321 -18.721  1.00  0.00     0.004 C 
ENDBRANCH  18  19
ENDBRANCH  17  18
ENDBRANCH  16  17
ENDBRANCH  15  16
ENDBRANCH  14  15
ENDBRANCH  13  14
ENDBRANCH  12  13
ENDBRANCH   1  12
TORSDOF 16
ENDMDL
MODEL 4
REMARK VINA RESULT:    -3.347      1.577      3.049
REMARK INTER + INTRA:          -9.305
REMARK INTER:                  -7.197
REMARK INTRA:                  -2.108
REMARK UNBOUND:                -2.827
REMARK SMILES CCCCCCCCCCCCCCCCCC(=O)[O-]
REMARK SMILES IDX 10 1 11 2 12 3 13 4 14 5 15 6 16 7 17 8 18 9 19 10 20 11
REMARK SMILES IDX 9 12 8 13 7 14 6 15 5 16 4 17 3 18 2 19 1 20
REMARK H PARENT
REMARK Flexibility Score: inf
ROOT
ATOM      1  C   UNL     1      -1.698  -4.610 -27.283  1.00  0.00     0.000 C 
ENDROOT
BRANCH   1   2
ATOM      2  C   UNL     1      -0.722  -3.454 -27.038  1.00  0.00     0.000 C 
BRANCH   2   3
ATOM      3  C   UNL     1      -0.772  -2.438 -28.191  1.00  0.00     0.000 C 
BRANCH   3   4
ATOM      4  C   UNL     1      -2.032  -1.560 -28.151  1.00  0.00     0.000 C 
BRANCH   4   5
ATOM      5  C   UNL     1      -1.733  -0.076 -28.431  1.00  0.00     0.000 C 
BRANCH   5   6
ATOM      6  C   UNL     1      -0.701   0.105 -29.564  1.00  0.00     0.000 C 
BRANCH   6   7
ATOM      7  C   UNL     1      -1.323   0.565 -30.894  1.00  0.00     0.006 C 
BRANCH   7   8
ATOM      8  C   UNL     1      -0.511   0.123 -32.117  1.00  0.00     0.053 C 
BRANCH   8   9
ATOM      9  C   UNL     1       0.846   0.751 -32.097  1.00  0.00     0.041 C 
ATOM     10  O   UNL     1       0.965   2.005 -32.108  1.00  0.00    -0.550 OA
ATOM     11  O   UNL     1       1.983  -0.048 -32.117  1.00  0.00    -0.550 OA
ENDBRANCH   8   9
ENDBRANCH   7   8
ENDBRANCH   6   7
ENDBRANCH   5   6
ENDBRANCH   4   5
ENDBRANCH   3   4
ENDBRANCH   2   3
ENDBRANCH   1   2
BRANCH   1  12
ATOM     12  C   UNL     1      -2.601  -4.836 -26.066  1.00  0.00     0.000 C 
BRANCH  12  13
ATOM     13  C   UNL     1      -4.052  -5.095 -26.497  1.00  0.00    -0.000 C 
BRANCH  13  14
ATOM     14  C   UNL     1      -5.024  -4.000 -26.025  1.00  0.00    -0.000 C 
BRANCH  14  15
ATOM     15  C   UNL     1      -5.288  -2.870 -27.043  1.00  0.00    -0.000 C 
BRANCH  15  16
ATOM     16  C   UNL     1      -5.089  -1.443 -26.499  1.00  0.00    -0.000 C 
BRANCH  16  17
ATOM     17  C   UNL     1      -4.628  -1.374 -25.031  1.00  0.00    -0.000 C 
BRANCH  17  18
ATOM     18  C   UNL     1      -4.177   0.038 -24.591  1.00  0.00    -0.000 C 
BRANCH  18  19
ATOM     19  C   UNL     1      -2.675   0.299 -24.792  1.00  0.00    -0.003 C 
ATOM     20  C   UNL     1      -1.822  -0.940 -24.507  1.00  0.00     0.004 C 
ENDBRANCH  18  19
ENDBRANCH  17  18
ENDBRANCH  16  17
ENDBRANCH  15  16
ENDBRANCH  14  15
ENDBRANCH  13  14
ENDBRANCH  12  13
ENDBRANCH   1  12
TORSDOF 16
ENDMDL
MODEL 5
REMARK VINA RESULT:    -3.325      1.132      2.522
REMARK INTER + INTRA:          -9.263
REMARK INTER:                  -6.593
REMARK INTRA:                  -2.670
REMARK UNBOUND:                -2.827
REMARK SMILES CCCCCCCCCCCCCCCCCC(=O)[O-]
REMARK SMILES IDX 10 1 11 2 12 3 13 4 14 5 15 6 16 7 17 8 18 9 19 10 20 11
REMARK SMILES IDX 9 12 8 13 7 14 6 15 5 16 4 17 3 18 2 19 1 20
REMARK H PARENT
REMARK Flexibility Score: inf
ROOT
ATOM      1  C   UNL     1      -1.475  -2.653 -24.704  1.00  0.00     0.000 C 
ENDROOT
BRANCH   1   2
ATOM      2  C   UNL     1      -0.709  -3.530 -25.701  1.00  0.00     0.000 C 
BRANCH   2   3
ATOM      3  C   UNL     1      -1.401  -3.536 -27.073  1.00  0.00     0.000 C 
BRANCH   3   4
ATOM      4  C   UNL     1      -0.412  -3.355 -28.236  1.00  0.00     0.000 C 
BRANCH   4   5
ATOM      5  C   UNL     1      -0.459  -1.940 -28.841  1.00  0.00     0.000 C 
BRANCH   5   6
ATOM      6  C   UNL     1      -1.788  -1.220 -28.533  1.00  0.00     0.000 C 
BRANCH   6   7
ATOM      7  C   UNL     1      -1.766   0.282 -28.866  1.00  0.00     0.006 C 
BRANCH   7   8
ATOM      8  C   UNL     1      -2.015   0.568 -30.351  1.00  0.00     0.053 C 
BRANCH   8   9
ATOM      9  C   UNL     1      -0.864   1.323 -30.938  1.00  0.00     0.041 C 
ATOM     10  O   UNL     1      -0.486   1.087 -32.115  1.00  0.00    -0.550 OA
ATOM     11  O   UNL     1      -0.176   2.253 -30.168  1.00  0.00    -0.550 OA
ENDBRANCH   8   9
ENDBRANCH   7   8
ENDBRANCH   6   7
ENDBRANCH   5   6
ENDBRANCH   4   5
ENDBRANCH   3   4
ENDBRANCH   2   3
ENDBRANCH   1   2
BRANCH   1  12
ATOM     12  C   UNL     1      -1.149  -1.170 -24.910  1.00  0.00     0.000 C 
BRANCH  12  13
ATOM     13  C   UNL     1      -2.433  -0.335 -25.022  1.00  0.00    -0.000 C 
BRANCH  13  14
ATOM     14  C   UNL     1      -3.624  -0.960 -24.274  1.00  0.00    -0.000 C 
BRANCH  14  15
ATOM     15  C   UNL     1      -4.906  -1.141 -25.113  1.00  0.00    -0.000 C 
BRANCH  15  16
ATOM     16  C   UNL     1      -4.673  -1.380 -26.617  1.00  0.00    -0.000 C 
BRANCH  16  17
ATOM     17  C   UNL     1      -4.992  -2.808 -27.097  1.00  0.00    -0.000 C 
BRANCH  17  18
ATOM     18  C   UNL     1      -5.351  -3.780 -25.949  1.00  0.00    -0.000 C 
BRANCH  18  19
ATOM     19  C   UNL     1      -4.395  -4.979 -25.832  1.00  0.00    -0.003 C 
ATOM     20  C   UNL     1      -4.638  -5.801 -24.565  1.00  0.00     0.004 C 
ENDBRANCH  18  19
ENDBRANCH  17  18
ENDBRANCH  16  17
ENDBRANCH  15  16
ENDBRANCH  14  15
ENDBRANCH  13  14
ENDBRANCH  12  13
ENDBRANCH   1  12
TORSDOF 16
ENDMDL
MODEL 6
REMARK VINA RESULT:    -3.267     10.804     13.377
REMARK INTER + INTRA:          -9.150
REMARK INTER:                  -6.809
REMARK INTRA:                  -2.342
REMARK UNBOUND:                -2.827
REMARK SMILES CCCCCCCCCCCCCCCCCC(=O)[O-]
REMARK SMILES IDX 10 1 11 2 12 3 13 4 14 5 15 6 16 7 17 8 18 9 19 10 20 11
REMARK SMILES IDX 9 12 8 13 7 14 6 15 5 16 4 17 3 18 2 19 1 20
REMARK H PARENT
REMARK Flexibility Score: inf
ROOT
ATOM      1  C   UNL     1      -3.433 -14.090 -18.998  1.00  0.00     0.000 C 
ENDROOT
BRANCH   1   2
ATOM      2  C   UNL     1      -3.182 -13.611 -20.433  1.00  0.00     0.000 C 
BRANCH   2   3
ATOM      3  C   UNL     1      -3.255 -12.078 -20.522  1.00  0.00     0.000 C 
BRANCH   3   4
ATOM      4  C   UNL     1      -2.448 -11.382 -19.416  1.00  0.00     0.000 C 
BRANCH   4   5
ATOM      5  C   UNL     1      -2.872  -9.917 -19.203  1.00  0.00     0.000 C 
BRANCH   5   6
ATOM      6  C   UNL     1      -4.273  -9.628 -19.780  1.00  0.00     0.000 C 
BRANCH   6   7
ATOM      7  C   UNL     1      -5.254  -9.041 -18.751  1.00  0.00     0.006 C 
BRANCH   7   8
ATOM      8  C   UNL     1      -5.459  -7.531 -18.914  1.00  0.00     0.053 C 
BRANCH   8   9
ATOM      9  C   UNL     1      -4.614  -6.780 -17.935  1.00  0.00     0.041 C 
ATOM     10  O   UNL     1      -3.414  -6.512 -18.208  1.00  0.00    -0.550 OA
ATOM     11  O   UNL     1      -5.135  -6.419 -16.699  1.00  0.00    -0.550 OA
ENDBRANCH   8   9
ENDBRANCH   7   8
ENDBRANCH   6   7
ENDBRANCH   5   6
ENDBRANCH   4   5
ENDBRANCH   3   4
ENDBRANCH   2   3
ENDBRANCH   1   2
BRANCH   1  12
ATOM     12  C   UNL     1      -4.877 -14.574 -18.824  1.00  0.00     0.000 C 
BRANCH  12  13
ATOM     13  C   UNL     1      -5.518 -13.958 -17.572  1.00  0.00    -0.000 C 
BRANCH  13  14
ATOM     14  C   UNL     1      -5.449 -12.420 -17.558  1.00  0.00    -0.000 C 
BRANCH  14  15
ATOM     15  C   UNL     1      -4.884 -11.799 -16.264  1.00  0.00    -0.000 C 
BRANCH  15  16
ATOM     16  C   UNL     1      -3.508 -12.338 -15.828  1.00  0.00    -0.000 C 
BRANCH  16  17
ATOM     17  C   UNL     1      -2.407 -11.267 -15.712  1.00  0.00    -0.000 C 
BRANCH  17  18
ATOM     18  C   UNL     1      -1.237 -11.681 -14.791  1.00  0.00    -0.000 C 
BRANCH  18  19
ATOM     19  C   UNL     1      -0.540 -10.494 -14.105  1.00  0.00    -0.003 C 
ATOM     20  C   UNL     1      -0.820  -9.164 -14.808  1.00  0.00     0.004 C 
ENDBRANCH  18  19
ENDBRANCH  17  18
ENDBRANCH  16  17
ENDBRANCH  15  16
ENDBRANCH  14  15
ENDBRANCH  13  14
ENDBRANCH  12  13
ENDBRANCH   1  12
TORSDOF 16
ENDMDL
MODEL 7
REMARK VINA RESULT:    -3.256      4.440      7.076
REMARK INTER + INTRA:          -9.130
REMARK INTER:                  -6.950
REMARK INTRA:                  -2.180
REMARK UNBOUND:                -2.827
REMARK SMILES CCCCCCCCCCCCCCCCCC(=O)[O-]
REMARK SMILES IDX 10 1 11 2 12 3 13 4 14 5 15 6 16 7 17 8 18 9 19 10 20 11
REMARK SMILES IDX 9 12 8 13 7 14 6 15 5 16 4 17 3 18 2 19 1 20
REMARK H PARENT
REMARK Flexibility Score: inf
ROOT
ATOM      1  C   UNL     1      -2.120  -8.036 -25.469  1.00  0.00     0.000 C 
ENDROOT
BRANCH   1   2
ATOM      2  C   UNL     1      -3.249  -7.792 -26.478  1.00  0.00     0.000 C 
BRANCH   2   3
ATOM      3  C   UNL     1      -4.339  -6.891 -25.876  1.00  0.00     0.000 C 
BRANCH   3   4
ATOM      4  C   UNL     1      -3.775  -5.858 -24.889  1.00  0.00     0.000 C 
BRANCH   4   5
ATOM      5  C   UNL     1      -3.480  -4.500 -25.552  1.00  0.00     0.000 C 
BRANCH   5   6
ATOM      6  C   UNL     1      -4.166  -4.364 -26.927  1.00  0.00     0.000 C 
BRANCH   6   7
ATOM      7  C   UNL     1      -5.044  -3.107 -27.055  1.00  0.00     0.006 C 
BRANCH   7   8
ATOM      8  C   UNL     1      -5.029  -2.237 -25.794  1.00  0.00     0.053 C 
BRANCH   8   9
ATOM      9  C   UNL     1      -4.603  -0.842 -26.125  1.00  0.00     0.041 C 
ATOM     10  O   UNL     1      -3.470  -0.629 -26.630  1.00  0.00    -0.550 OA
ATOM     11  O   UNL     1      -5.437   0.229 -25.830  1.00  0.00    -0.550 OA
ENDBRANCH   8   9
ENDBRANCH   7   8
ENDBRANCH   6   7
ENDBRANCH   5   6
ENDBRANCH   4   5
ENDBRANCH   3   4
ENDBRANCH   2   3
ENDBRANCH   1   2
BRANCH   1  12
ATOM     12  C   UNL     1      -0.751  -7.736 -26.089  1.00  0.00     0.000 C 
BRANCH  12  13
ATOM     13  C   UNL     1      -0.884  -6.765 -27.272  1.00  0.00    -0.000 C 
BRANCH  13  14
ATOM     14  C   UNL     1      -0.152  -7.253 -28.535  1.00  0.00    -0.000 C 
BRANCH  14  15
ATOM     15  C   UNL     1       0.250  -8.742 -28.528  1.00  0.00    -0.000 C 
BRANCH  15  16
ATOM     16  C   UNL     1      -0.543  -9.637 -29.500  1.00  0.00    -0.000 C 
BRANCH  16  17
ATOM     17  C   UNL     1      -1.946 -10.036 -29.005  1.00  0.00    -0.000 C 
BRANCH  17  18
ATOM     18  C   UNL     1      -1.923 -11.030 -27.821  1.00  0.00    -0.000 C 
BRANCH  18  19
ATOM     19  C   UNL     1      -3.317 -11.351 -27.256  1.00  0.00    -0.003 C 
ATOM     20  C   UNL     1      -3.441 -12.805 -26.797  1.00  0.00     0.004 C 
ENDBRANCH  18  19
ENDBRANCH  17  18
ENDBRANCH  16  17
ENDBRANCH  15  16
ENDBRANCH  14  15
ENDBRANCH  13  14
ENDBRANCH  12  13
ENDBRANCH   1  12
TORSDOF 16
ENDMDL
MODEL 8
REMARK VINA RESULT:    -3.205     11.936     14.385
REMARK INTER + INTRA:          -9.030
REMARK INTER:                  -6.073
REMARK INTRA:                  -2.957
REMARK UNBOUND:                -2.827
REMARK SMILES CCCCCCCCCCCCCCCCCC(=O)[O-]
REMARK SMILES IDX 10 1 11 2 12 3 13 4 14 5 15 6 16 7 17 8 18 9 19 10 20 11
REMARK SMILES IDX 9 12 8 13 7 14 6 15 5 16 4 17 3 18 2 19 1 20
REMARK H PARENT
REMARK Flexibility Score: inf
ROOT
ATOM      1  C   UNL     1      -2.073 -13.289 -17.366  1.00  0.00     0.000 C 
ENDROOT
BRANCH   1   2
ATOM      2  C   UNL     1      -2.351 -14.079 -16.081  1.00  0.00     0.000 C 
BRANCH   2   3
ATOM      3  C   UNL     1      -2.265 -13.169 -14.846  1.00  0.00     0.000 C 
BRANCH   3   4
ATOM      4  C   UNL     1      -1.803 -11.745 -15.191  1.00  0.00     0.000 C 
BRANCH   4   5
ATOM      5  C   UNL     1      -0.808 -11.177 -14.162  1.00  0.00     0.000 C 
BRANCH   5   6
ATOM      6  C   UNL     1      -0.352  -9.748 -14.522  1.00  0.00     0.000 C 
BRANCH   6   7
ATOM      7  C   UNL     1      -1.428  -8.924 -15.251  1.00  0.00     0.006 C 
BRANCH   7   8
ATOM      8  C   UNL     1      -0.865  -7.664 -15.918  1.00  0.00     0.053 C 
BRANCH   8   9
ATOM      9  C   UNL     1      -0.195  -6.791 -14.905  1.00  0.00     0.041 C 
ATOM     10  O   UNL     1       1.023  -6.498 -15.026  1.00  0.00    -0.550 OA
ATOM     11  O   UNL     1      -0.904  -6.339 -13.798  1.00  0.00    -0.550 OA
ENDBRANCH   8   9
ENDBRANCH   7   8
ENDBRANCH   6   7
ENDBRANCH   5   6
ENDBRANCH   4   5
ENDBRANCH   3   4
ENDBRANCH   2   3
ENDBRANCH   1   2
BRANCH   1  12
ATOM     12  C   UNL     1      -3.161 -13.545 -18.416  1.00  0.00     0.000 C 
BRANCH  12  13
ATOM     13  C   UNL     1      -4.541 -13.681 -17.757  1.00  0.00    -0.000 C 
BRANCH  13  14
ATOM     14  C   UNL     1      -5.370 -12.386 -17.827  1.00  0.00    -0.000 C 
BRANCH  14  15
ATOM     15  C   UNL     1      -5.496 -11.613 -16.497  1.00  0.00    -0.000 C 
BRANCH  15  16
ATOM     16  C   UNL     1      -4.798 -10.239 -16.472  1.00  0.00    -0.000 C 
BRANCH  16  17
ATOM     17  C   UNL     1      -4.877  -9.456 -17.796  1.00  0.00    -0.000 C 
BRANCH  17  18
ATOM     18  C   UNL     1      -3.507  -8.941 -18.292  1.00  0.00    -0.000 C 
BRANCH  18  19
ATOM     19  C   UNL     1      -2.744  -9.954 -19.164  1.00  0.00    -0.003 C 
ATOM     20  C   UNL     1      -1.256 -10.020 -18.819  1.00  0.00     0.004 C 
ENDBRANCH  18  19
ENDBRANCH  17  18
ENDBRANCH  16  17
ENDBRANCH  15  16
ENDBRANCH  14  15
ENDBRANCH  13  14
ENDBRANCH  12  13
ENDBRANCH   1  12
TORSDOF 16
ENDMDL
MODEL 9
REMARK VINA RESULT:    -3.163     14.878     16.558
REMARK INTER + INTRA:          -8.949
REMARK INTER:                  -6.234
REMARK INTRA:                  -2.715
REMARK UNBOUND:                -2.827
REMARK SMILES CCCCCCCCCCCCCCCCCC(=O)[O-]
REMARK SMILES IDX 10 1 11 2 12 3 13 4 14 5 15 6 16 7 17 8 18 9 19 10 20 11
REMARK SMILES IDX 9 12 8 13 7 14 6 15 5 16 4 17 3 18 2 19 1 20
REMARK H PARENT
REMARK Flexibility Score: inf
ROOT
ATOM      1  C   UNL     1      13.508  -5.500 -21.192  1.00  0.00     0.000 C 
ENDROOT
BRANCH   1   2
ATOM      2  C   UNL     1      12.410  -4.985 -20.253  1.00  0.00     0.000 C 
BRANCH   2   3
ATOM      3  C   UNL     1      11.206  -5.939 -20.239  1.00  0.00     0.000 C 
BRANCH   3   4
ATOM      4  C   UNL     1      11.519  -7.297 -20.886  1.00  0.00     0.000 C 
BRANCH   4   5
ATOM      5  C   UNL     1      10.708  -7.545 -22.171  1.00  0.00     0.000 C 
BRANCH   5   6
ATOM      6  C   UNL     1      11.275  -8.717 -22.999  1.00  0.00     0.000 C 
BRANCH   6   7
ATOM      7  C   UNL     1      12.706  -8.476 -23.509  1.00  0.00     0.006 C 
BRANCH   7   8
ATOM      8  C   UNL     1      13.119  -9.453 -24.614  1.00  0.00     0.053 C 
BRANCH   8   9
ATOM      9  C   UNL     1      12.917 -10.865 -24.167  1.00  0.00     0.041 C 
ATOM     10  O   UNL     1      11.978 -11.554 -24.646  1.00  0.00    -0.550 OA
ATOM     11  O   UNL     1      13.734 -11.407 -23.183  1.00  0.00    -0.550 OA
ENDBRANCH   8   9
ENDBRANCH   7   8
ENDBRANCH   6   7
ENDBRANCH   5   6
ENDBRANCH   4   5
ENDBRANCH   3   4
ENDBRANCH   2   3
ENDBRANCH   1   2
BRANCH   1  12
ATOM     12  C   UNL     1      13.470  -4.767 -22.538  1.00  0.00     0.000 C 
BRANCH  12  13
ATOM     13  C   UNL     1      12.985  -3.320 -22.364  1.00  0.00    -0.000 C 
BRANCH  13  14
ATOM     14  C   UNL     1      11.852  -2.945 -23.337  1.00  0.00    -0.000 C 
BRANCH  14  15
ATOM     15  C   UNL     1      10.914  -4.104 -23.732  1.00  0.00    -0.000 C 
BRANCH  15  16
ATOM     16  C   UNL     1       9.553  -4.117 -23.010  1.00  0.00    -0.000 C 
BRANCH  16  17
ATOM     17  C   UNL     1       9.196  -2.803 -22.291  1.00  0.00    -0.000 C 
BRANCH  17  18
ATOM     18  C   UNL     1       9.174  -2.927 -20.750  1.00  0.00    -0.000 C 
BRANCH  18  19
ATOM     19  C   UNL     1       9.595  -1.641 -20.019  1.00  0.00    -0.003 C 
ATOM     20  C   UNL     1      11.087  -1.623 -19.678  1.00  0.00     0.004 C 
ENDBRANCH  18  19
ENDBRANCH  17  18
ENDBRANCH  16  17
ENDBRANCH  15  16
ENDBRANCH  14  15
ENDBRANCH  13  14
ENDBRANCH  12  13
ENDBRANCH   1  12
TORSDOF 16
ENDMDL
