MODEL 1
REMARK VINA RESULT:    -4.958      0.000      0.000
REMARK INTER + INTRA:          -5.995
REMARK INTER:                  -5.683
REMARK INTRA:                  -0.312
REMARK UNBOUND:                -0.312
REMARK SMILES O=C1C[C@@H](c2ccc(O)cc2)Oc2cc(O)cc(O)c21
REMARK SMILES IDX 3 1 4 2 12 3 13 4 14 5 15 6 17 7 18 8 20 9 2 10 1 11 5 12
REMARK SMILES IDX 6 13 11 14 7 15 10 16 8 17 9 18 19 20 16 22
REMARK H PARENT 9 19 19 21 16 23
REMARK Flexibility Score: inf
ROOT
ATOM      1  C   UNL     1     143.538 131.841 145.576  1.00  0.00     0.131 C 
ATOM      2  C   UNL     1     144.854 131.856 144.789  1.00  0.00     0.211 C 
ATOM      3  O   UNL     1     145.595 130.666 145.051  1.00  0.00    -0.484 OA
ATOM      4  C   UNL     1     144.989 129.406 145.051  1.00  0.00     0.138 A 
ATOM      5  C   UNL     1     145.797 128.269 144.991  1.00  0.00     0.093 A 
ATOM      6  C   UNL     1     145.225 126.998 144.964  1.00  0.00     0.123 A 
ATOM      7  C   UNL     1     143.834 126.864 144.980  1.00  0.00     0.093 A 
ATOM      8  C   UNL     1     143.002 127.989 145.032  1.00  0.00     0.133 A 
ATOM      9  C   UNL     1     143.582 129.287 145.120  1.00  0.00     0.102 A 
ATOM     10  C   UNL     1     142.811 130.542 145.366  1.00  0.00     0.174 C 
ATOM     11  O   UNL     1     141.562 130.533 145.512  1.00  0.00    -0.294 OA
ENDROOT
BRANCH   2  12
ATOM     12  C   UNL     1     145.677 133.070 145.145  1.00  0.00    -0.007 A 
ATOM     13  C   UNL     1     145.056 134.297 145.436  1.00  0.00     0.011 A 
ATOM     14  C   UNL     1     147.081 133.000 145.132  1.00  0.00     0.011 A 
ATOM     15  C   UNL     1     145.826 135.426 145.735  1.00  0.00     0.046 A 
ATOM     16  C   UNL     1     147.849 134.130 145.431  1.00  0.00     0.046 A 
ATOM     17  C   UNL     1     147.225 135.344 145.735  1.00  0.00     0.115 A 
BRANCH  17  18
ATOM     18  O   UNL     1     148.001 136.461 146.031  1.00  0.00    -0.508 OA
ATOM     19  H   UNL     1     148.022 136.860 146.963  1.00  0.00     0.293 HD
ENDBRANCH  17  18
ENDBRANCH   2  12
BRANCH   8  20
ATOM     20  O   UNL     1     141.625 127.759 144.979  1.00  0.00    -0.507 OA
ATOM     21  H   UNL     1     140.961 128.365 144.521  1.00  0.00     0.293 HD
ENDBRANCH   8  20
BRANCH   6  22
ATOM     22  O   UNL     1     146.047 125.876 144.910  1.00  0.00    -0.508 OA
ATOM     23  H   UNL     1     147.058 125.957 144.924  1.00  0.00     0.293 HD
ENDBRANCH   6  22
TORSDOF 4
ENDMDL
MODEL 2
REMARK VINA RESULT:    -4.646     21.680     23.103
REMARK INTER + INTRA:          -5.637
REMARK INTER:                  -5.351
REMARK INTRA:                  -0.286
REMARK UNBOUND:                -0.312
REMARK SMILES O=C1C[C@@H](c2ccc(O)cc2)Oc2cc(O)cc(O)c21
REMARK SMILES IDX 3 1 4 2 12 3 13 4 14 5 15 6 17 7 18 8 20 9 2 10 1 11 5 12
REMARK SMILES IDX 6 13 11 14 7 15 10 16 8 17 9 18 19 20 16 22
REMARK H PARENT 9 19 19 21 16 23
REMARK Flexibility Score: inf
ROOT
ATOM      1  C   UNL     1     130.754 141.782 129.752  1.00  0.00     0.131 C 
ATOM      2  C   UNL     1     131.443 143.008 130.363  1.00  0.00     0.211 C 
ATOM      3  O   UNL     1     132.803 142.706 130.667  1.00  0.00    -0.484 OA
ATOM      4  C   UNL     1     133.627 142.028 129.763  1.00  0.00     0.138 A 
ATOM      5  C   UNL     1     135.008 142.043 129.967  1.00  0.00     0.093 A 
ATOM      6  C   UNL     1     135.860 141.399 129.071  1.00  0.00     0.123 A 
ATOM      7  C   UNL     1     135.328 140.750 127.954  1.00  0.00     0.093 A 
ATOM      8  C   UNL     1     133.947 140.728 127.723  1.00  0.00     0.133 A 
ATOM      9  C   UNL     1     133.069 141.333 128.666  1.00  0.00     0.102 A 
ATOM     10  C   UNL     1     131.580 141.217 128.629  1.00  0.00     0.174 C 
ATOM     11  O   UNL     1     130.989 140.560 127.734  1.00  0.00    -0.294 OA
ENDROOT
BRANCH   2  12
ATOM     12  C   UNL     1     130.721 143.463 131.608  1.00  0.00    -0.007 A 
ATOM     13  C   UNL     1     129.706 142.674 132.176  1.00  0.00     0.011 A 
ATOM     14  C   UNL     1     131.019 144.711 132.181  1.00  0.00     0.011 A 
ATOM     15  C   UNL     1     129.019 143.115 133.312  1.00  0.00     0.046 A 
ATOM     16  C   UNL     1     130.331 145.150 133.317  1.00  0.00     0.046 A 
ATOM     17  C   UNL     1     129.333 144.354 133.886  1.00  0.00     0.115 A 
BRANCH  17  18
ATOM     18  O   UNL     1     128.656 144.804 135.018  1.00  0.00    -0.508 OA
ATOM     19  H   UNL     1     127.722 144.480 135.239  1.00  0.00     0.293 HD
ENDBRANCH  17  18
ENDBRANCH   2  12
BRANCH   8  20
ATOM     20  O   UNL     1     133.514 140.111 126.546  1.00  0.00    -0.507 OA
ATOM     21  H   UNL     1     133.068 139.208 126.504  1.00  0.00     0.293 HD
ENDBRANCH   8  20
BRANCH   6  22
ATOM     22  O   UNL     1     137.234 141.420 129.295  1.00  0.00    -0.508 OA
ATOM     23  H   UNL     1     137.620 141.649 130.204  1.00  0.00     0.293 HD
ENDBRANCH   6  22
TORSDOF 4
ENDMDL
MODEL 3
REMARK VINA RESULT:    -4.551     12.789     14.860
REMARK INTER + INTRA:          -5.528
REMARK INTER:                  -5.238
REMARK INTRA:                  -0.290
REMARK UNBOUND:                -0.312
REMARK SMILES O=C1C[C@@H](c2ccc(O)cc2)Oc2cc(O)cc(O)c21
REMARK SMILES IDX 3 1 4 2 12 3 13 4 14 5 15 6 17 7 18 8 20 9 2 10 1 11 5 12
REMARK SMILES IDX 6 13 11 14 7 15 10 16 8 17 9 18 19 20 16 22
REMARK H PARENT 9 19 19 21 16 23
REMARK Flexibility Score: inf
ROOT
ATOM      1  C   UNL     1     132.794 130.612 136.940  1.00  0.00     0.131 C 
ATOM      2  C   UNL     1     133.261 130.860 138.380  1.00  0.00     0.211 C 
ATOM      3  O   UNL     1     132.358 131.743 139.043  1.00  0.00    -0.484 OA
ATOM      4  C   UNL     1     130.972 131.582 138.953  1.00  0.00     0.138 A 
ATOM      5  C   UNL     1     130.154 132.257 139.862  1.00  0.00     0.093 A 
ATOM      6  C   UNL     1     128.770 132.099 139.816  1.00  0.00     0.123 A 
ATOM      7  C   UNL     1     128.200 131.247 138.866  1.00  0.00     0.093 A 
ATOM      8  C   UNL     1     129.000 130.554 137.949  1.00  0.00     0.133 A 
ATOM      9  C   UNL     1     130.409 130.757 137.953  1.00  0.00     0.102 A 
ATOM     10  C   UNL     1     131.342 130.223 136.916  1.00  0.00     0.174 C 
ATOM     11  O   UNL     1     130.930 129.537 135.945  1.00  0.00    -0.294 OA
ENDROOT
BRANCH   2  12
ATOM     12  C   UNL     1     134.657 131.435 138.399  1.00  0.00    -0.007 A 
ATOM     13  C   UNL     1     135.747 130.654 138.822  1.00  0.00     0.011 A 
ATOM     14  C   UNL     1     134.873 132.778 138.048  1.00  0.00     0.011 A 
ATOM     15  C   UNL     1     137.033 131.201 138.867  1.00  0.00     0.046 A 
ATOM     16  C   UNL     1     136.160 133.323 138.094  1.00  0.00     0.046 A 
ATOM     17  C   UNL     1     137.243 132.537 138.500  1.00  0.00     0.115 A 
BRANCH  17  18
ATOM     18  O   UNL     1     138.519 133.093 138.541  1.00  0.00    -0.508 OA
ATOM     19  H   UNL     1     138.750 133.843 139.182  1.00  0.00     0.293 HD
ENDBRANCH  17  18
ENDBRANCH   2  12
BRANCH   8  20
ATOM     20  O   UNL     1     128.346 129.675 137.081  1.00  0.00    -0.507 OA
ATOM     21  H   UNL     1     127.602 129.051 137.352  1.00  0.00     0.293 HD
ENDBRANCH   8  20
BRANCH   6  22
ATOM     22  O   UNL     1     127.970 132.785 140.727  1.00  0.00    -0.508 OA
ATOM     23  H   UNL     1     127.712 133.754 140.581  1.00  0.00     0.293 HD
ENDBRANCH   6  22
TORSDOF 4
ENDMDL
MODEL 4
REMARK VINA RESULT:    -4.542     19.981     21.476
REMARK INTER + INTRA:          -5.517
REMARK INTER:                  -5.232
REMARK INTRA:                  -0.285
REMARK UNBOUND:                -0.312
REMARK SMILES O=C1C[C@@H](c2ccc(O)cc2)Oc2cc(O)cc(O)c21
REMARK SMILES IDX 3 1 4 2 12 3 13 4 14 5 15 6 17 7 18 8 20 9 2 10 1 11 5 12
REMARK SMILES IDX 6 13 11 14 7 15 10 16 8 17 9 18 19 20 16 22
REMARK H PARENT 9 19 19 21 16 23
REMARK Flexibility Score: inf
ROOT
ATOM      1  C   UNL     1     131.333 142.435 132.501  1.00  0.00     0.131 C 
ATOM      2  C   UNL     1     132.414 143.450 132.892  1.00  0.00     0.211 C 
ATOM      3  O   UNL     1     133.697 142.984 132.478  1.00  0.00    -0.484 OA
ATOM      4  C   UNL     1     133.909 142.444 131.205  1.00  0.00     0.138 A 
ATOM      5  C   UNL     1     135.218 142.306 130.741  1.00  0.00     0.093 A 
ATOM      6  C   UNL     1     135.464 141.794 129.468  1.00  0.00     0.123 A 
ATOM      7  C   UNL     1     134.392 141.434 128.646  1.00  0.00     0.093 A 
ATOM      8  C   UNL     1     133.070 141.571 129.086  1.00  0.00     0.133 A 
ATOM      9  C   UNL     1     132.815 142.037 130.408  1.00  0.00     0.102 A 
ATOM     10  C   UNL     1     131.468 142.051 131.053  1.00  0.00     0.174 C 
ATOM     11  O   UNL     1     130.442 141.642 130.452  1.00  0.00    -0.294 OA
ENDROOT
BRANCH   2  12
ATOM     12  C   UNL     1     132.406 143.695 134.381  1.00  0.00    -0.007 A 
ATOM     13  C   UNL     1     132.144 144.977 134.895  1.00  0.00     0.011 A 
ATOM     14  C   UNL     1     132.718 142.652 135.270  1.00  0.00     0.011 A 
ATOM     15  C   UNL     1     132.169 145.204 136.275  1.00  0.00     0.046 A 
ATOM     16  C   UNL     1     132.742 142.881 136.649  1.00  0.00     0.046 A 
ATOM     17  C   UNL     1     132.466 144.155 137.155  1.00  0.00     0.115 A 
BRANCH  17  18
ATOM     18  O   UNL     1     132.493 144.370 138.531  1.00  0.00    -0.508 OA
ATOM     19  H   UNL     1     133.207 143.954 139.118  1.00  0.00     0.293 HD
ENDBRANCH  17  18
ENDBRANCH   2  12
BRANCH   8  20
ATOM     20  O   UNL     1     132.064 141.247 128.172  1.00  0.00    -0.507 OA
ATOM     21  H   UNL     1     131.077 141.354 128.347  1.00  0.00     0.293 HD
ENDBRANCH   8  20
BRANCH   6  22
ATOM     22  O   UNL     1     136.777 141.659 129.024  1.00  0.00    -0.508 OA
ATOM     23  H   UNL     1     137.167 140.752 128.791  1.00  0.00     0.293 HD
ENDBRANCH   6  22
TORSDOF 4
ENDMDL
MODEL 5
REMARK VINA RESULT:    -4.530      4.914      5.981
REMARK INTER + INTRA:          -5.504
REMARK INTER:                  -5.202
REMARK INTRA:                  -0.302
REMARK UNBOUND:                -0.312
REMARK SMILES O=C1C[C@@H](c2ccc(O)cc2)Oc2cc(O)cc(O)c21
REMARK SMILES IDX 3 1 4 2 12 3 13 4 14 5 15 6 17 7 18 8 20 9 2 10 1 11 5 12
REMARK SMILES IDX 6 13 11 14 7 15 10 16 8 17 9 18 19 20 16 22
REMARK H PARENT 9 19 19 21 16 23
REMARK Flexibility Score: inf
ROOT
ATOM      1  C   UNL     1     141.065 130.002 143.549  1.00  0.00     0.131 C 
ATOM      2  C   UNL     1     141.093 129.485 142.106  1.00  0.00     0.211 C 
ATOM      3  O   UNL     1     142.416 129.083 141.754  1.00  0.00    -0.484 OA
ATOM      4  C   UNL     1     143.204 128.310 142.613  1.00  0.00     0.138 A 
ATOM      5  C   UNL     1     144.342 127.682 142.102  1.00  0.00     0.093 A 
ATOM      6  C   UNL     1     145.135 126.883 142.924  1.00  0.00     0.123 A 
ATOM      7  C   UNL     1     144.779 126.697 144.262  1.00  0.00     0.093 A 
ATOM      8  C   UNL     1     143.638 127.309 144.796  1.00  0.00     0.133 A 
ATOM      9  C   UNL     1     142.858 128.174 143.976  1.00  0.00     0.102 A 
ATOM     10  C   UNL     1     141.734 129.023 144.474  1.00  0.00     0.174 C 
ATOM     11  O   UNL     1     141.395 129.028 145.685  1.00  0.00    -0.294 OA
ENDROOT
BRANCH   2  12
ATOM     12  C   UNL     1     140.599 130.541 141.148  1.00  0.00    -0.007 A 
ATOM     13  C   UNL     1     139.222 130.737 140.946  1.00  0.00     0.011 A 
ATOM     14  C   UNL     1     141.515 131.303 140.403  1.00  0.00     0.011 A 
ATOM     15  C   UNL     1     138.770 131.697 140.034  1.00  0.00     0.046 A 
ATOM     16  C   UNL     1     141.062 132.262 139.492  1.00  0.00     0.046 A 
ATOM     17  C   UNL     1     139.690 132.463 139.306  1.00  0.00     0.115 A 
BRANCH  17  18
ATOM     18  O   UNL     1     139.252 133.422 138.396  1.00  0.00    -0.508 OA
ATOM     19  H   UNL     1     138.270 133.650 138.298  1.00  0.00     0.293 HD
ENDBRANCH  17  18
ENDBRANCH   2  12
BRANCH   8  20
ATOM     20  O   UNL     1     143.326 127.012 146.125  1.00  0.00    -0.507 OA
ATOM     21  H   UNL     1     143.239 126.079 146.497  1.00  0.00     0.293 HD
ENDBRANCH   8  20
BRANCH   6  22
ATOM     22  O   UNL     1     146.269 126.270 142.398  1.00  0.00    -0.508 OA
ATOM     23  H   UNL     1     146.973 126.799 141.896  1.00  0.00     0.293 HD
ENDBRANCH   6  22
TORSDOF 4
ENDMDL
MODEL 6
REMARK VINA RESULT:    -4.525      4.863      7.633
REMARK INTER + INTRA:          -5.498
REMARK INTER:                  -5.186
REMARK INTRA:                  -0.312
REMARK UNBOUND:                -0.312
REMARK SMILES O=C1C[C@@H](c2ccc(O)cc2)Oc2cc(O)cc(O)c21
REMARK SMILES IDX 3 1 4 2 12 3 13 4 14 5 15 6 17 7 18 8 20 9 2 10 1 11 5 12
REMARK SMILES IDX 6 13 11 14 7 15 10 16 8 17 9 18 19 20 16 22
REMARK H PARENT 9 19 19 21 16 23
REMARK Flexibility Score: inf
ROOT
ATOM      1  C   UNL     1     141.678 130.498 140.867  1.00  0.00     0.131 C 
ATOM      2  C   UNL     1     140.531 130.420 141.882  1.00  0.00     0.211 C 
ATOM      3  O   UNL     1     140.730 129.316 142.763  1.00  0.00    -0.484 OA
ATOM      4  C   UNL     1     141.976 129.053 143.344  1.00  0.00     0.138 A 
ATOM      5  C   UNL     1     142.042 128.176 144.429  1.00  0.00     0.093 A 
ATOM      6  C   UNL     1     143.262 127.911 145.048  1.00  0.00     0.123 A 
ATOM      7  C   UNL     1     144.423 128.540 144.589  1.00  0.00     0.093 A 
ATOM      8  C   UNL     1     144.381 129.429 143.508  1.00  0.00     0.133 A 
ATOM      9  C   UNL     1     143.147 129.658 142.835  1.00  0.00     0.102 A 
ATOM     10  C   UNL     1     143.008 130.433 141.566  1.00  0.00     0.174 C 
ATOM     11  O   UNL     1     144.002 130.951 140.995  1.00  0.00    -0.294 OA
ENDROOT
BRANCH   2  12
ATOM     12  C   UNL     1     139.202 130.290 141.180  1.00  0.00    -0.007 A 
ATOM     13  C   UNL     1     138.364 129.190 141.431  1.00  0.00     0.011 A 
ATOM     14  C   UNL     1     138.812 131.243 140.223  1.00  0.00     0.011 A 
ATOM     15  C   UNL     1     137.147 129.060 140.754  1.00  0.00     0.046 A 
ATOM     16  C   UNL     1     137.595 131.111 139.548  1.00  0.00     0.046 A 
ATOM     17  C   UNL     1     136.758 130.022 139.813  1.00  0.00     0.115 A 
BRANCH  17  18
ATOM     18  O   UNL     1     135.549 129.902 139.133  1.00  0.00    -0.508 OA
ATOM     19  H   UNL     1     134.973 130.712 138.929  1.00  0.00     0.293 HD
ENDBRANCH  17  18
ENDBRANCH   2  12
BRANCH   8  20
ATOM     20  O   UNL     1     145.579 130.060 143.163  1.00  0.00    -0.507 OA
ATOM     21  H   UNL     1     146.088 130.689 143.765  1.00  0.00     0.293 HD
ENDBRANCH   8  20
BRANCH   6  22
ATOM     22  O   UNL     1     143.309 127.030 146.125  1.00  0.00    -0.508 OA
ATOM     23  H   UNL     1     143.958 126.252 146.145  1.00  0.00     0.293 HD
ENDBRANCH   6  22
TORSDOF 4
ENDMDL
MODEL 7
REMARK VINA RESULT:    -4.466      3.517      6.515
REMARK INTER + INTRA:          -5.430
REMARK INTER:                  -5.126
REMARK INTRA:                  -0.304
REMARK UNBOUND:                -0.312
REMARK SMILES O=C1C[C@@H](c2ccc(O)cc2)Oc2cc(O)cc(O)c21
REMARK SMILES IDX 3 1 4 2 12 3 13 4 14 5 15 6 17 7 18 8 20 9 2 10 1 11 5 12
REMARK SMILES IDX 6 13 11 14 7 15 10 16 8 17 9 18 19 20 16 22
REMARK H PARENT 9 19 19 21 16 23
REMARK Flexibility Score: inf
ROOT
ATOM      1  C   UNL     1     142.459 130.984 143.293  1.00  0.00     0.131 C 
ATOM      2  C   UNL     1     141.650 129.683 143.363  1.00  0.00     0.211 C 
ATOM      3  O   UNL     1     142.521 128.558 143.264  1.00  0.00    -0.484 OA
ATOM      4  C   UNL     1     143.714 128.483 143.992  1.00  0.00     0.138 A 
ATOM      5  C   UNL     1     144.356 127.249 144.109  1.00  0.00     0.093 A 
ATOM      6  C   UNL     1     145.532 127.134 144.847  1.00  0.00     0.123 A 
ATOM      7  C   UNL     1     146.062 128.258 145.487  1.00  0.00     0.093 A 
ATOM      8  C   UNL     1     145.432 129.505 145.391  1.00  0.00     0.133 A 
ATOM      9  C   UNL     1     144.263 129.640 144.589  1.00  0.00     0.102 A 
ATOM     10  C   UNL     1     143.610 130.943 144.261  1.00  0.00     0.174 C 
ATOM     11  O   UNL     1     144.064 132.036 144.686  1.00  0.00    -0.294 OA
ENDROOT
BRANCH   2  12
ATOM     12  C   UNL     1     140.615 129.636 142.267  1.00  0.00    -0.007 A 
ATOM     13  C   UNL     1     139.906 128.451 142.001  1.00  0.00     0.011 A 
ATOM     14  C   UNL     1     140.388 130.764 141.460  1.00  0.00     0.011 A 
ATOM     15  C   UNL     1     138.970 128.405 140.963  1.00  0.00     0.046 A 
ATOM     16  C   UNL     1     139.451 130.716 140.423  1.00  0.00     0.046 A 
ATOM     17  C   UNL     1     138.739 129.539 140.173  1.00  0.00     0.115 A 
BRANCH  17  18
ATOM     18  O   UNL     1     137.809 129.505 139.137  1.00  0.00    -0.508 OA
ATOM     19  H   UNL     1     137.956 128.935 138.311  1.00  0.00     0.293 HD
ENDBRANCH  17  18
ENDBRANCH   2  12
BRANCH   8  20
ATOM     20  O   UNL     1     145.998 130.555 146.119  1.00  0.00    -0.507 OA
ATOM     21  H   UNL     1     145.848 130.714 147.103  1.00  0.00     0.293 HD
ENDBRANCH   8  20
BRANCH   6  22
ATOM     22  O   UNL     1     146.162 125.896 144.948  1.00  0.00    -0.508 OA
ATOM     23  H   UNL     1     145.966 125.262 145.714  1.00  0.00     0.293 HD
ENDBRANCH   6  22
TORSDOF 4
ENDMDL
MODEL 8
REMARK VINA RESULT:    -4.443      3.984      7.522
REMARK INTER + INTRA:          -5.404
REMARK INTER:                  -5.087
REMARK INTRA:                  -0.317
REMARK UNBOUND:                -0.312
REMARK SMILES O=C1C[C@@H](c2ccc(O)cc2)Oc2cc(O)cc(O)c21
REMARK SMILES IDX 3 1 4 2 12 3 13 4 14 5 15 6 17 7 18 8 20 9 2 10 1 11 5 12
REMARK SMILES IDX 6 13 11 14 7 15 10 16 8 17 9 18 19 20 16 22
REMARK H PARENT 9 19 19 21 16 23
REMARK Flexibility Score: inf
ROOT
ATOM      1  C   UNL     1     141.363 128.308 143.611  1.00  0.00     0.131 C 
ATOM      2  C   UNL     1     141.273 129.398 142.536  1.00  0.00     0.211 C 
ATOM      3  O   UNL     1     141.467 130.683 143.122  1.00  0.00    -0.484 OA
ATOM      4  C   UNL     1     142.493 130.926 144.041  1.00  0.00     0.138 A 
ATOM      5  C   UNL     1     142.838 132.247 144.333  1.00  0.00     0.093 A 
ATOM      6  C   UNL     1     143.872 132.525 145.226  1.00  0.00     0.123 A 
ATOM      7  C   UNL     1     144.578 131.474 145.817  1.00  0.00     0.093 A 
ATOM      8  C   UNL     1     144.256 130.141 145.534  1.00  0.00     0.133 A 
ATOM      9  C   UNL     1     143.162 129.852 144.670  1.00  0.00     0.102 A 
ATOM     10  C   UNL     1     142.607 128.484 144.438  1.00  0.00     0.174 C 
ATOM     11  O   UNL     1     143.087 127.470 145.007  1.00  0.00    -0.294 OA
ENDROOT
BRANCH   2  12
ATOM     12  C   UNL     1     139.940 129.345 141.830  1.00  0.00    -0.007 A 
ATOM     13  C   UNL     1     139.291 130.528 141.436  1.00  0.00     0.011 A 
ATOM     14  C   UNL     1     139.306 128.110 141.610  1.00  0.00     0.011 A 
ATOM     15  C   UNL     1     138.041 130.474 140.810  1.00  0.00     0.046 A 
ATOM     16  C   UNL     1     138.056 128.058 140.983  1.00  0.00     0.046 A 
ATOM     17  C   UNL     1     137.422 129.238 140.580  1.00  0.00     0.115 A 
BRANCH  17  18
ATOM     18  O   UNL     1     136.178 129.172 139.958  1.00  0.00    -0.508 OA
ATOM     19  H   UNL     1     135.973 128.469 139.256  1.00  0.00     0.293 HD
ENDBRANCH  17  18
ENDBRANCH   2  12
BRANCH   8  20
ATOM     20  O   UNL     1     145.059 129.160 146.122  1.00  0.00    -0.507 OA
ATOM     21  H   UNL     1     145.572 128.459 145.610  1.00  0.00     0.293 HD
ENDBRANCH   8  20
BRANCH   6  22
ATOM     22  O   UNL     1     144.198 133.849 145.509  1.00  0.00    -0.508 OA
ATOM     23  H   UNL     1     144.024 134.254 146.421  1.00  0.00     0.293 HD
ENDBRANCH   6  22
TORSDOF 4
ENDMDL
MODEL 9
REMARK VINA RESULT:    -4.420      1.480      3.016
REMARK INTER + INTRA:          -5.378
REMARK INTER:                  -5.077
REMARK INTRA:                  -0.301
REMARK UNBOUND:                -0.312
REMARK SMILES O=C1C[C@@H](c2ccc(O)cc2)Oc2cc(O)cc(O)c21
REMARK SMILES IDX 3 1 4 2 12 3 13 4 14 5 15 6 17 7 18 8 20 9 2 10 1 11 5 12
REMARK SMILES IDX 6 13 11 14 7 15 10 16 8 17 9 18 19 20 16 22
REMARK H PARENT 9 19 19 21 16 23
REMARK Flexibility Score: inf
ROOT
ATOM      1  C   UNL     1     146.152 130.834 145.853  1.00  0.00     0.131 C 
ATOM      2  C   UNL     1     145.228 132.043 146.045  1.00  0.00     0.211 C 
ATOM      3  O   UNL     1     144.171 132.009 145.087  1.00  0.00    -0.484 OA
ATOM      4  C   UNL     1     143.462 130.834 144.814  1.00  0.00     0.138 A 
ATOM      5  C   UNL     1     142.251 130.922 144.125  1.00  0.00     0.093 A 
ATOM      6  C   UNL     1     141.507 129.775 143.858  1.00  0.00     0.123 A 
ATOM      7  C   UNL     1     141.968 128.531 144.298  1.00  0.00     0.093 A 
ATOM      8  C   UNL     1     143.176 128.418 144.998  1.00  0.00     0.133 A 
ATOM      9  C   UNL     1     143.969 129.579 145.221  1.00  0.00     0.102 A 
ATOM     10  C   UNL     1     145.352 129.562 145.786  1.00  0.00     0.174 C 
ATOM     11  O   UNL     1     145.919 128.489 146.113  1.00  0.00    -0.294 OA
ENDROOT
BRANCH   2  12
ATOM     12  C   UNL     1     146.000 133.333 145.920  1.00  0.00    -0.007 A 
ATOM     13  C   UNL     1     147.406 133.331 145.941  1.00  0.00     0.011 A 
ATOM     14  C   UNL     1     145.318 134.559 145.838  1.00  0.00     0.011 A 
ATOM     15  C   UNL     1     148.115 134.533 145.856  1.00  0.00     0.046 A 
ATOM     16  C   UNL     1     146.030 135.760 145.753  1.00  0.00     0.046 A 
ATOM     17  C   UNL     1     147.429 135.751 145.759  1.00  0.00     0.115 A 
BRANCH  17  18
ATOM     18  O   UNL     1     148.125 136.954 145.674  1.00  0.00    -0.508 OA
ATOM     19  H   UNL     1     147.820 137.780 146.177  1.00  0.00     0.293 HD
ENDBRANCH  17  18
ENDBRANCH   2  12
BRANCH   8  20
ATOM     20  O   UNL     1     143.523 127.144 145.454  1.00  0.00    -0.507 OA
ATOM     21  H   UNL     1     142.864 126.404 145.642  1.00  0.00     0.293 HD
ENDBRANCH   8  20
BRANCH   6  22
ATOM     22  O   UNL     1     140.304 129.882 143.164  1.00  0.00    -0.508 OA
ATOM     23  H   UNL     1     139.527 130.421 143.530  1.00  0.00     0.293 HD
ENDBRANCH   6  22
TORSDOF 4
ENDMDL
