MODEL 1
REMARK VINA RESULT:    -4.083      0.000      0.000
REMARK INTER + INTRA:          -4.431
REMARK INTER:                  -5.753
REMARK INTRA:                   1.322
REMARK UNBOUND:                 1.322
REMARK SMILES CC1=CCC(=C(C)C)C(=O)CC(C)=CCC1
REMARK SMILES IDX 12 1 14 2 13 3 15 4 16 5 2 6 1 7 3 8 11 10 9 11 10 12 5 13
REMARK SMILES IDX 6 14 7 15 8 16 4 17
REMARK H PARENT
REMARK Flexibility Score: 60.00
ROOT
ATOM      1  C   UNL     1      -5.562  -1.871  10.236  1.00  0.00    -0.070 C 
ATOM      2  C   UNL     1      -4.450  -2.537   9.853  1.00  0.00    -0.027 C 
ATOM      3  C   UNL     1      -5.402  -0.452  10.721  1.00  0.00     0.039 C 
ENDROOT
BRANCH   2   4
ATOM      4  C   UNL     1      -4.416  -3.926   9.250  1.00  0.00     0.032 C 
BRANCH   4   5
ATOM      5  C   UNL     1      -4.266  -3.962   7.715  1.00  0.00     0.034 C 
BRANCH   5   6
ATOM      6  C   UNL     1      -5.579  -4.198   6.992  1.00  0.00    -0.077 C 
ATOM      7  C   UNL     1      -5.867  -5.594   6.499  1.00  0.00     0.039 C 
ATOM      8  C   UNL     1      -6.537  -3.255   6.820  1.00  0.00    -0.023 CG0
ATOM      9  G   UNL     1      -6.461  -1.793   7.212  1.00  0.00     0.000 G0
ENDBRANCH   5   6
ENDBRANCH   4   5
ENDBRANCH   2   4
BRANCH   1  10
ATOM     10  C   UNL     1      -6.958  -2.445  10.114  1.00  0.00     0.111 C 
BRANCH  10  11
ATOM     11  C   UNL     1      -7.875  -1.522   9.355  1.00  0.00     0.163 C 
ATOM     12  O   UNL     1      -8.760  -0.900  10.001  1.00  0.00    -0.294 OA
BRANCH  11  13
ATOM     13  C   UNL     1      -7.730  -1.276   7.889  1.00  0.00    -0.002 C 
ATOM     14  C   UNL     1      -8.667  -0.553   7.205  1.00  0.00    -0.069 C 
ATOM     15  C   UNL     1      -9.955  -0.113   7.867  1.00  0.00     0.039 C 
ATOM     16  C   UNL     1      -8.472  -0.153   5.759  1.00  0.00     0.039 C 
BRANCH  13  17
ATOM     17  C   UNL     1      -6.460  -1.779   7.222  1.00  0.00     0.066 CG0
ATOM     18  G   UNL     1      -6.562  -3.235   6.810  1.00  0.00     0.000 G0
ENDBRANCH  13  17
ENDBRANCH  11  13
ENDBRANCH  10  11
ENDBRANCH   1  10
TORSDOF 0
ENDMDL
MODEL 2
REMARK VINA RESULT:    -3.565      1.530      4.096
REMARK INTER + INTRA:          -3.702
REMARK INTER:                  -5.067
REMARK INTRA:                   1.365
REMARK UNBOUND:                 1.322
REMARK SMILES CC1=CCC(=C(C)C)C(=O)CC(C)=CCC1
REMARK SMILES IDX 12 1 14 2 13 3 15 4 16 5 2 6 1 7 3 8 11 10 9 11 10 12 5 13
REMARK SMILES IDX 6 14 7 15 8 16 4 17
REMARK H PARENT
REMARK Flexibility Score: 60.00
ROOT
ATOM      1  C   UNL     1      -6.475  -0.438  10.118  1.00  0.00    -0.070 C 
ATOM      2  C   UNL     1      -7.824  -0.521  10.103  1.00  0.00    -0.027 C 
ATOM      3  C   UNL     1      -5.816   0.120  11.355  1.00  0.00     0.039 C 
ENDROOT
BRANCH   2   4
ATOM      4  C   UNL     1      -8.659  -1.138   9.000  1.00  0.00     0.032 C 
BRANCH   4   5
ATOM      5  C   UNL     1      -8.893  -0.226   7.778  1.00  0.00     0.034 C 
BRANCH   5   6
ATOM      6  C   UNL     1      -8.298  -0.780   6.497  1.00  0.00    -0.077 C 
ATOM      7  C   UNL     1      -8.336   0.096   5.269  1.00  0.00     0.039 C 
ATOM      8  C   UNL     1      -7.675  -1.980   6.400  1.00  0.00    -0.023 CG0
ATOM      9  G   UNL     1      -7.533  -3.027   7.487  1.00  0.00     0.000 G0
ENDBRANCH   5   6
ENDBRANCH   4   5
ENDBRANCH   2   4
BRANCH   1  10
ATOM     10  C   UNL     1      -5.597  -0.961   9.000  1.00  0.00     0.111 C 
BRANCH  10  11
ATOM     11  C   UNL     1      -5.538  -2.467   8.998  1.00  0.00     0.163 C 
ATOM     12  O   UNL     1      -5.064  -3.043  10.013  1.00  0.00    -0.294 OA
BRANCH  11  13
ATOM     13  C   UNL     1      -6.072  -3.288   7.871  1.00  0.00    -0.002 C 
ATOM     14  C   UNL     1      -5.307  -4.262   7.292  1.00  0.00    -0.069 C 
ATOM     15  C   UNL     1      -3.850  -4.437   7.660  1.00  0.00     0.039 C 
ATOM     16  C   UNL     1      -5.870  -5.214   6.259  1.00  0.00     0.039 C 
BRANCH  13  17
ATOM     17  C   UNL     1      -7.520  -3.058   7.469  1.00  0.00     0.066 CG0
ATOM     18  G   UNL     1      -7.659  -1.990   6.401  1.00  0.00     0.000 G0
ENDBRANCH  13  17
ENDBRANCH  11  13
ENDBRANCH  10  11
ENDBRANCH   1  10
TORSDOF 0
ENDMDL
MODEL 3
REMARK VINA RESULT:    -3.417      1.626      3.646
REMARK INTER + INTRA:          -3.493
REMARK INTER:                  -5.269
REMARK INTRA:                   1.776
REMARK UNBOUND:                 1.322
REMARK SMILES CC1=CCC(=C(C)C)C(=O)CC(C)=CCC1
REMARK SMILES IDX 12 1 14 2 13 3 15 4 16 5 2 6 1 7 3 8 11 10 9 11 10 12 5 13
REMARK SMILES IDX 6 14 7 15 8 16 4 17
REMARK H PARENT
REMARK Flexibility Score: 60.00
ROOT
ATOM      1  C   UNL     1      -5.361  -3.935   7.570  1.00  0.00    -0.070 C 
ATOM      2  C   UNL     1      -4.920  -4.172   8.826  1.00  0.00    -0.027 C 
ATOM      3  C   UNL     1      -5.687  -5.124   6.701  1.00  0.00     0.039 C 
ENDROOT
BRANCH   2   4
ATOM      4  C   UNL     1      -4.634  -3.119   9.875  1.00  0.00     0.032 C 
BRANCH   4   5
ATOM      5  C   UNL     1      -4.862  -1.665   9.412  1.00  0.00     0.034 C 
BRANCH   5   6
ATOM      6  C   UNL     1      -5.904  -0.931  10.237  1.00  0.00    -0.077 C 
ATOM      7  C   UNL     1      -5.417   0.093  11.231  1.00  0.00     0.039 C 
ATOM      8  C   UNL     1      -7.243  -1.087  10.092  1.00  0.00    -0.023 CG0
ATOM      9  G   UNL     1      -7.955  -2.063   9.176  1.00  0.00     0.000 G0
ENDBRANCH   5   6
ENDBRANCH   4   5
ENDBRANCH   2   4
BRANCH   1  10
ATOM     10  C   UNL     1      -5.632  -2.545   7.032  1.00  0.00     0.111 C 
BRANCH  10  11
ATOM     11  C   UNL     1      -7.099  -2.326   6.770  1.00  0.00     0.163 C 
ATOM     12  O   UNL     1      -7.597  -2.830   5.728  1.00  0.00    -0.294 OA
BRANCH  11  13
ATOM     13  C   UNL     1      -7.983  -1.594   7.725  1.00  0.00    -0.002 C 
ATOM     14  C   UNL     1      -8.828  -0.614   7.284  1.00  0.00    -0.069 C 
ATOM     15  C   UNL     1      -8.787  -0.129   5.851  1.00  0.00     0.039 C 
ATOM     16  C   UNL     1      -9.845   0.036   8.196  1.00  0.00     0.039 C 
BRANCH  13  17
ATOM     17  C   UNL     1      -7.967  -2.049   9.176  1.00  0.00     0.066 CG0
ATOM     18  G   UNL     1      -7.220  -1.084  10.075  1.00  0.00     0.000 G0
ENDBRANCH  13  17
ENDBRANCH  11  13
ENDBRANCH  10  11
ENDBRANCH   1  10
TORSDOF 0
ENDMDL
MODEL 4
REMARK VINA RESULT:    -3.285      1.753      3.222
REMARK INTER + INTRA:          -3.308
REMARK INTER:                  -5.269
REMARK INTRA:                   1.961
REMARK UNBOUND:                 1.322
REMARK SMILES CC1=CCC(=C(C)C)C(=O)CC(C)=CCC1
REMARK SMILES IDX 12 1 14 2 13 3 15 4 16 5 2 6 1 7 3 8 11 10 9 11 10 12 5 13
REMARK SMILES IDX 6 14 7 15 8 16 4 17
REMARK H PARENT
REMARK Flexibility Score: 60.00
ROOT
ATOM      1  C   UNL     1      -5.373  -3.830   7.288  1.00  0.00    -0.070 C 
ATOM      2  C   UNL     1      -4.450  -4.382   8.108  1.00  0.00    -0.027 C 
ATOM      3  C   UNL     1      -6.251  -4.760   6.488  1.00  0.00     0.039 C 
ENDROOT
BRANCH   2   4
ATOM      4  C   UNL     1      -3.548  -3.623   9.058  1.00  0.00     0.032 C 
BRANCH   4   5
ATOM      5  C   UNL     1      -4.235  -3.127  10.347  1.00  0.00     0.034 C 
BRANCH   5   6
ATOM      6  C   UNL     1      -5.652  -3.646  10.506  1.00  0.00    -0.077 C 
ATOM      7  C   UNL     1      -5.829  -5.078  10.945  1.00  0.00     0.039 C 
ATOM      8  C   UNL     1      -6.766  -2.889  10.346  1.00  0.00    -0.023 CG0
ATOM      9  G   UNL     1      -6.832  -1.444   9.894  1.00  0.00     0.000 G0
ENDBRANCH   5   6
ENDBRANCH   4   5
ENDBRANCH   2   4
BRANCH   1  10
ATOM     10  C   UNL     1      -5.628  -2.340   7.207  1.00  0.00     0.111 C 
BRANCH  10  11
ATOM     11  C   UNL     1      -7.087  -2.014   7.393  1.00  0.00     0.163 C 
ATOM     12  O   UNL     1      -7.905  -2.442   6.536  1.00  0.00    -0.294 OA
BRANCH  11  13
ATOM     13  C   UNL     1      -7.595  -1.263   8.580  1.00  0.00    -0.002 C 
ATOM     14  C   UNL     1      -8.739  -0.519   8.498  1.00  0.00    -0.069 C 
ATOM     15  C   UNL     1      -9.440  -0.301   7.175  1.00  0.00     0.039 C 
ATOM     16  C   UNL     1      -9.364   0.125   9.717  1.00  0.00     0.039 C 
BRANCH  13  17
ATOM     17  C   UNL     1      -6.843  -1.440   9.889  1.00  0.00     0.066 CG0
ATOM     18  G   UNL     1      -6.772  -2.891  10.322  1.00  0.00     0.000 G0
ENDBRANCH  13  17
ENDBRANCH  11  13
ENDBRANCH  10  11
ENDBRANCH   1  10
TORSDOF 0
ENDMDL
MODEL 5
REMARK VINA RESULT:    -3.185      1.691      3.698
REMARK INTER + INTRA:          -3.166
REMARK INTER:                  -3.874
REMARK INTRA:                   0.707
REMARK UNBOUND:                 1.322
REMARK SMILES CC1=CCC(=C(C)C)C(=O)CC(C)=CCC1
REMARK SMILES IDX 12 1 14 2 13 3 15 4 16 5 2 6 1 7 3 8 11 10 9 11 10 12 5 13
REMARK SMILES IDX 6 14 7 15 8 16 4 17
REMARK H PARENT
REMARK Flexibility Score: 60.00
ROOT
ATOM      1  C   UNL     1      -4.506  -4.002   8.282  1.00  0.00    -0.070 C 
ATOM      2  C   UNL     1      -5.132  -4.468   7.178  1.00  0.00    -0.027 C 
ATOM      3  C   UNL     1      -3.775  -4.995   9.150  1.00  0.00     0.039 C 
ENDROOT
BRANCH   2   4
ATOM      4  C   UNL     1      -5.833  -3.622   6.137  1.00  0.00     0.032 C 
BRANCH   4   5
ATOM      5  C   UNL     1      -7.364  -3.523   6.305  1.00  0.00     0.034 C 
BRANCH   5   6
ATOM      6  C   UNL     1      -7.835  -2.131   6.681  1.00  0.00    -0.077 C 
ATOM      7  C   UNL     1      -8.278  -1.215   5.567  1.00  0.00     0.039 C 
ATOM      8  C   UNL     1      -7.948  -1.680   7.955  1.00  0.00    -0.023 CG0
ATOM      9  G   UNL     1      -7.549  -2.411   9.221  1.00  0.00     0.000 G0
ENDBRANCH   5   6
ENDBRANCH   4   5
ENDBRANCH   2   4
BRANCH   1  10
ATOM     10  C   UNL     1      -4.426  -2.531   8.633  1.00  0.00     0.111 C 
BRANCH  10  11
ATOM     11  C   UNL     1      -5.101  -2.235   9.946  1.00  0.00     0.163 C 
ATOM     12  O   UNL     1      -4.441  -2.409  11.005  1.00  0.00    -0.294 OA
BRANCH  11  13
ATOM     13  C   UNL     1      -6.488  -1.689  10.028  1.00  0.00    -0.002 C 
ATOM     14  C   UNL     1      -6.747  -0.542  10.726  1.00  0.00    -0.069 C 
ATOM     15  C   UNL     1      -5.679   0.125  11.565  1.00  0.00     0.039 C 
ATOM     16  C   UNL     1      -8.107   0.122  10.698  1.00  0.00     0.039 C 
BRANCH  13  17
ATOM     17  C   UNL     1      -7.566  -2.405   9.231  1.00  0.00     0.066 CG0
ATOM     18  G   UNL     1      -7.923  -1.671   7.954  1.00  0.00     0.000 G0
ENDBRANCH  13  17
ENDBRANCH  11  13
ENDBRANCH  10  11
ENDBRANCH   1  10
TORSDOF 0
ENDMDL
MODEL 6
REMARK VINA RESULT:    -3.099      2.186      5.246
REMARK INTER + INTRA:          -3.046
REMARK INTER:                  -3.441
REMARK INTRA:                   0.395
REMARK UNBOUND:                 1.322
REMARK SMILES CC1=CCC(=C(C)C)C(=O)CC(C)=CCC1
REMARK SMILES IDX 12 1 14 2 13 3 15 4 16 5 2 6 1 7 3 8 11 10 9 11 10 12 5 13
REMARK SMILES IDX 6 14 7 15 8 16 4 17
REMARK H PARENT
REMARK Flexibility Score: 60.00
ROOT
ATOM      1  C   UNL     1      -6.818  -3.407   6.554  1.00  0.00    -0.070 C 
ATOM      2  C   UNL     1      -7.555  -2.322   6.228  1.00  0.00    -0.027 C 
ATOM      3  C   UNL     1      -6.096  -4.129   5.444  1.00  0.00     0.039 C 
ENDROOT
BRANCH   2   4
ATOM      4  C   UNL     1      -8.269  -1.413   7.206  1.00  0.00     0.032 C 
BRANCH   4   5
ATOM      5  C   UNL     1      -7.396  -0.290   7.803  1.00  0.00     0.034 C 
BRANCH   5   6
ATOM      6  C   UNL     1      -7.304  -0.346   9.317  1.00  0.00    -0.077 C 
ATOM      7  C   UNL     1      -8.499   0.119  10.110  1.00  0.00     0.039 C 
ATOM      8  C   UNL     1      -6.246  -0.848  10.000  1.00  0.00    -0.023 CG0
ATOM      9  G   UNL     1      -4.939  -1.351   9.420  1.00  0.00     0.000 G0
ENDBRANCH   5   6
ENDBRANCH   4   5
ENDBRANCH   2   4
BRANCH   1  10
ATOM     10  C   UNL     1      -6.608  -3.871   7.980  1.00  0.00     0.111 C 
BRANCH  10  11
ATOM     11  C   UNL     1      -5.173  -3.711   8.412  1.00  0.00     0.163 C 
ATOM     12  O   UNL     1      -4.281  -4.279   7.728  1.00  0.00    -0.294 OA
BRANCH  11  13
ATOM     13  C   UNL     1      -4.777  -2.861   9.573  1.00  0.00    -0.002 C 
ATOM     14  C   UNL     1      -4.218  -3.419  10.690  1.00  0.00    -0.069 C 
ATOM     15  C   UNL     1      -4.126  -4.920  10.854  1.00  0.00     0.039 C 
ATOM     16  C   UNL     1      -3.662  -2.573  11.815  1.00  0.00     0.039 C 
BRANCH  13  17
ATOM     17  C   UNL     1      -4.934  -1.356   9.420  1.00  0.00     0.066 CG0
ATOM     18  G   UNL     1      -6.245  -0.853   9.989  1.00  0.00     0.000 G0
ENDBRANCH  13  17
ENDBRANCH  11  13
ENDBRANCH  10  11
ENDBRANCH   1  10
TORSDOF 0
ENDMDL
MODEL 7
REMARK VINA RESULT:    -2.810      1.863      5.054
REMARK INTER + INTRA:          -2.638
REMARK INTER:                  -4.403
REMARK INTRA:                   1.766
REMARK UNBOUND:                 1.322
REMARK SMILES CC1=CCC(=C(C)C)C(=O)CC(C)=CCC1
REMARK SMILES IDX 12 1 14 2 13 3 15 4 16 5 2 6 1 7 3 8 11 10 9 11 10 12 5 13
REMARK SMILES IDX 6 14 7 15 8 16 4 17
REMARK H PARENT
REMARK Flexibility Score: 60.00
ROOT
ATOM      1  C   UNL     1      -8.400  -0.949   6.784  1.00  0.00    -0.070 C 
ATOM      2  C   UNL     1      -9.122  -0.453   7.814  1.00  0.00    -0.027 C 
ATOM      3  C   UNL     1      -9.070  -1.046   5.436  1.00  0.00     0.039 C 
ENDROOT
BRANCH   2   4
ATOM      4  C   UNL     1      -8.601  -0.188   9.211  1.00  0.00     0.032 C 
BRANCH   4   5
ATOM      5  C   UNL     1      -7.084   0.083   9.296  1.00  0.00     0.034 C 
BRANCH   5   6
ATOM      6  C   UNL     1      -6.403  -0.676  10.419  1.00  0.00    -0.077 C 
ATOM      7  C   UNL     1      -5.657   0.125  11.456  1.00  0.00     0.039 C 
ATOM      8  C   UNL     1      -6.479  -2.020  10.589  1.00  0.00    -0.023 CG0
ATOM      9  G   UNL     1      -7.152  -3.020   9.671  1.00  0.00     0.000 G0
ENDBRANCH   5   6
ENDBRANCH   4   5
ENDBRANCH   2   4
BRANCH   1  10
ATOM     10  C   UNL     1      -6.936  -1.320   6.898  1.00  0.00     0.111 C 
BRANCH  10  11
ATOM     11  C   UNL     1      -6.754  -2.795   7.145  1.00  0.00     0.163 C 
ATOM     12  O   UNL     1      -6.951  -3.586   6.185  1.00  0.00    -0.294 OA
BRANCH  11  13
ATOM     13  C   UNL     1      -6.291  -3.335   8.457  1.00  0.00    -0.002 C 
ATOM     14  C   UNL     1      -5.108  -4.014   8.555  1.00  0.00    -0.069 C 
ATOM     15  C   UNL     1      -4.307  -4.377   7.324  1.00  0.00     0.039 C 
ATOM     16  C   UNL     1      -4.535  -4.436   9.891  1.00  0.00     0.039 C 
BRANCH  13  17
ATOM     17  C   UNL     1      -7.139  -3.018   9.678  1.00  0.00     0.066 CG0
ATOM     18  G   UNL     1      -6.479  -2.002  10.590  1.00  0.00     0.000 G0
ENDBRANCH  13  17
ENDBRANCH  11  13
ENDBRANCH  10  11
ENDBRANCH   1  10
TORSDOF 0
ENDMDL
MODEL 8
REMARK VINA RESULT:    -2.793      2.003      3.486
REMARK INTER + INTRA:          -2.615
REMARK INTER:                  -3.929
REMARK INTRA:                   1.314
REMARK UNBOUND:                 1.322
REMARK SMILES CC1=CCC(=C(C)C)C(=O)CC(C)=CCC1
REMARK SMILES IDX 12 1 14 2 13 3 15 4 16 5 2 6 1 7 3 8 11 10 9 11 10 12 5 13
REMARK SMILES IDX 6 14 7 15 8 16 4 17
REMARK H PARENT
REMARK Flexibility Score: 60.00
ROOT
ATOM      1  C   UNL     1      -5.531  -3.243   9.721  1.00  0.00    -0.070 C 
ATOM      2  C   UNL     1      -4.582  -2.281   9.707  1.00  0.00    -0.027 C 
ATOM      3  C   UNL     1      -5.585  -4.163  10.916  1.00  0.00     0.039 C 
ENDROOT
BRANCH   2   4
ATOM      4  C   UNL     1      -4.429  -1.207   8.651  1.00  0.00     0.032 C 
BRANCH   4   5
ATOM      5  C   UNL     1      -5.137   0.125   8.974  1.00  0.00     0.034 C 
BRANCH   5   6
ATOM      6  C   UNL     1      -5.986   0.061  10.230  1.00  0.00    -0.077 C 
ATOM      7  C   UNL     1      -5.273   0.069  11.559  1.00  0.00     0.039 C 
ATOM      8  C   UNL     1      -7.342   0.066  10.238  1.00  0.00    -0.023 CG0
ATOM      9  G   UNL     1      -8.262   0.037   9.034  1.00  0.00     0.000 G0
ENDBRANCH   5   6
ENDBRANCH   4   5
ENDBRANCH   2   4
BRANCH   1  10
ATOM     10  C   UNL     1      -6.593  -3.380   8.650  1.00  0.00     0.111 C 
BRANCH  10  11
ATOM     11  C   UNL     1      -7.785  -2.504   8.932  1.00  0.00     0.163 C 
ATOM     12  O   UNL     1      -8.563  -2.844   9.863  1.00  0.00    -0.294 OA
BRANCH  11  13
ATOM     13  C   UNL     1      -8.036  -1.230   8.195  1.00  0.00    -0.002 C 
ATOM     14  C   UNL     1      -8.143  -1.222   6.832  1.00  0.00    -0.069 C 
ATOM     15  C   UNL     1      -7.857  -2.463   6.014  1.00  0.00     0.039 C 
ATOM     16  C   UNL     1      -8.551   0.020   6.069  1.00  0.00     0.039 C 
BRANCH  13  17
ATOM     17  C   UNL     1      -8.258   0.023   9.027  1.00  0.00     0.066 CG0
ATOM     18  G   UNL     1      -7.354   0.076  10.242  1.00  0.00     0.000 G0
ENDBRANCH  13  17
ENDBRANCH  11  13
ENDBRANCH  10  11
ENDBRANCH   1  10
TORSDOF 0
ENDMDL
MODEL 9
REMARK VINA RESULT:    -2.325      2.053      3.741
REMARK INTER + INTRA:          -1.954
REMARK INTER:                  -4.106
REMARK INTRA:                   2.151
REMARK UNBOUND:                 1.322
REMARK SMILES CC1=CCC(=C(C)C)C(=O)CC(C)=CCC1
REMARK SMILES IDX 12 1 14 2 13 3 15 4 16 5 2 6 1 7 3 8 11 10 9 11 10 12 5 13
REMARK SMILES IDX 6 14 7 15 8 16 4 17
REMARK H PARENT
REMARK Flexibility Score: 60.00
ROOT
ATOM      1  C   UNL     1      -7.906  -1.156   9.594  1.00  0.00    -0.070 C 
ATOM      2  C   UNL     1      -7.820  -2.159  10.497  1.00  0.00    -0.027 C 
ATOM      3  C   UNL     1      -8.612   0.110  10.012  1.00  0.00     0.039 C 
ENDROOT
BRANCH   2   4
ATOM      4  C   UNL     1      -7.071  -3.460  10.301  1.00  0.00     0.032 C 
BRANCH   4   5
ATOM      5  C   UNL     1      -5.825  -3.631  11.194  1.00  0.00     0.034 C 
BRANCH   5   6
ATOM      6  C   UNL     1      -4.851  -4.670  10.668  1.00  0.00    -0.077 C 
ATOM      7  C   UNL     1      -4.809  -6.007  11.364  1.00  0.00     0.039 C 
ATOM      8  C   UNL     1      -4.067  -4.498   9.576  1.00  0.00    -0.023 CG0
ATOM      9  G   UNL     1      -3.930  -3.243   8.737  1.00  0.00     0.000 G0
ENDBRANCH   5   6
ENDBRANCH   4   5
ENDBRANCH   2   4
BRANCH   1  10
ATOM     10  C   UNL     1      -7.250  -1.206   8.230  1.00  0.00     0.111 C 
BRANCH  10  11
ATOM     11  C   UNL     1      -5.778  -1.509   8.331  1.00  0.00     0.163 C 
ATOM     12  O   UNL     1      -5.012  -0.598   8.745  1.00  0.00    -0.294 OA
BRANCH  11  13
ATOM     13  C   UNL     1      -5.214  -2.855   8.019  1.00  0.00    -0.002 C 
ATOM     14  C   UNL     1      -5.796  -3.655   7.076  1.00  0.00    -0.069 C 
ATOM     15  C   UNL     1      -7.112  -3.278   6.431  1.00  0.00     0.039 C 
ATOM     16  C   UNL     1      -5.162  -4.953   6.624  1.00  0.00     0.039 C 
BRANCH  13  17
ATOM     17  C   UNL     1      -3.924  -3.249   8.722  1.00  0.00     0.066 CG0
ATOM     18  G   UNL     1      -4.088  -4.493   9.572  1.00  0.00     0.000 G0
ENDBRANCH  13  17
ENDBRANCH  11  13
ENDBRANCH  10  11
ENDBRANCH   1  10
TORSDOF 0
ENDMDL
