MODEL 1
REMARK VINA RESULT:    -7.434      0.000      0.000
REMARK INTER + INTRA:          -9.537
REMARK INTER:                  -9.173
REMARK INTRA:                  -0.365
REMARK UNBOUND:                -0.365
REMARK SMILES COc1ccc(-c2cc3cc(O)c(OC)cc3o2)c(O)c1
REMARK SMILES IDX 7 1 8 2 9 3 10 4 11 5 13 6 16 7 17 8 18 9 6 10 3 11 21 12
REMARK SMILES IDX 4 13 19 14 5 15 2 16 1 17 20 18 12 20 14 22 15 23
REMARK H PARENT 20 19 12 21
REMARK Flexibility Score: inf
ROOT
ATOM      1  C   UNL     1       2.231  45.790   2.836  1.00  0.00     0.139 A 
ATOM      2  C   UNL     1       1.231  46.182   3.728  1.00  0.00     0.060 A 
ATOM      3  C   UNL     1       0.068  45.710   3.168  1.00  0.00     0.025 A 
ATOM      4  C   UNL     1      -1.252  45.798   3.599  1.00  0.00     0.062 A 
ATOM      5  C   UNL     1      -2.249  45.205   2.797  1.00  0.00     0.158 A 
ATOM      6  C   UNL     1      -1.904  44.543   1.592  1.00  0.00     0.164 A 
ATOM      7  C   UNL     1      -0.545  44.476   1.191  1.00  0.00     0.098 A 
ATOM      8  C   UNL     1       0.409  45.074   2.009  1.00  0.00     0.138 A 
ATOM      9  O   UNL     1       1.705  45.126   1.821  1.00  0.00    -0.456 OA
ENDROOT
BRANCH   1  10
ATOM     10  C   UNL     1       3.681  46.041   3.001  1.00  0.00     0.059 A 
ATOM     11  C   UNL     1       6.408  46.685   3.355  1.00  0.00     0.122 A 
ATOM     12  C   UNL     1       5.812  45.666   4.119  1.00  0.00     0.093 A 
ATOM     13  C   UNL     1       5.637  47.365   2.410  1.00  0.00     0.047 A 
ATOM     14  C   UNL     1       4.466  45.327   3.938  1.00  0.00     0.130 A 
ATOM     15  C   UNL     1       4.289  47.050   2.233  1.00  0.00     0.020 A 
BRANCH  11  16
ATOM     16  O   UNL     1       7.754  47.048   3.502  1.00  0.00    -0.497 OA
ATOM     17  C   UNL     1       8.795  46.660   2.612  1.00  0.00     0.278 C 
ENDBRANCH  11  16
BRANCH  14  18
ATOM     18  O   UNL     1       3.960  44.258   4.682  1.00  0.00    -0.507 OA
ATOM     19  H   UNL     1       3.752  44.315   5.670  1.00  0.00     0.293 HD
ENDBRANCH  14  18
ENDBRANCH   1  10
BRANCH   5  20
ATOM     20  O   UNL     1      -3.586  45.267   3.187  1.00  0.00    -0.504 OA
ATOM     21  H   UNL     1      -3.925  44.765   3.998  1.00  0.00     0.293 HD
ENDBRANCH   5  20
BRANCH   6  22
ATOM     22  O   UNL     1      -2.932  43.968   0.829  1.00  0.00    -0.493 OA
ATOM     23  C   UNL     1      -3.662  44.654  -0.183  1.00  0.00     0.278 C 
ENDBRANCH   6  22
TORSDOF 5
ENDMDL
MODEL 2
REMARK VINA RESULT:    -7.401      1.746      2.756
REMARK INTER + INTRA:          -9.496
REMARK INTER:                  -9.116
REMARK INTRA:                  -0.380
REMARK UNBOUND:                -0.365
REMARK SMILES COc1ccc(-c2cc3cc(O)c(OC)cc3o2)c(O)c1
REMARK SMILES IDX 7 1 8 2 9 3 10 4 11 5 13 6 16 7 17 8 18 9 6 10 3 11 21 12
REMARK SMILES IDX 4 13 19 14 5 15 2 16 1 17 20 18 12 20 14 22 15 23
REMARK H PARENT 20 19 12 21
REMARK Flexibility Score: inf
ROOT
ATOM      1  C   UNL     1       2.285  45.380   2.467  1.00  0.00     0.139 A 
ATOM      2  C   UNL     1       2.173  44.841   1.184  1.00  0.00     0.060 A 
ATOM      3  C   UNL     1       0.843  44.985   0.868  1.00  0.00     0.025 A 
ATOM      4  C   UNL     1       0.135  44.629  -0.276  1.00  0.00     0.062 A 
ATOM      5  C   UNL     1      -1.247  44.910  -0.310  1.00  0.00     0.158 A 
ATOM      6  C   UNL     1      -1.883  45.534   0.792  1.00  0.00     0.164 A 
ATOM      7  C   UNL     1      -1.122  45.880   1.938  1.00  0.00     0.098 A 
ATOM      8  C   UNL     1       0.239  45.587   1.934  1.00  0.00     0.138 A 
ATOM      9  O   UNL     1       1.111  45.821   2.883  1.00  0.00    -0.456 OA
ENDROOT
BRANCH   1  10
ATOM     10  C   UNL     1       3.537  45.485   3.251  1.00  0.00     0.059 A 
ATOM     11  C   UNL     1       5.958  45.519   4.705  1.00  0.00     0.122 A 
ATOM     12  C   UNL     1       5.742  46.437   3.662  1.00  0.00     0.093 A 
ATOM     13  C   UNL     1       4.955  44.600   5.022  1.00  0.00     0.047 A 
ATOM     14  C   UNL     1       4.538  46.440   2.948  1.00  0.00     0.130 A 
ATOM     15  C   UNL     1       3.758  44.580   4.304  1.00  0.00     0.020 A 
BRANCH  11  16
ATOM     16  O   UNL     1       7.147  45.490   5.449  1.00  0.00    -0.497 OA
ATOM     17  C   UNL     1       7.228  45.736   6.848  1.00  0.00     0.278 C 
ENDBRANCH  11  16
BRANCH  14  18
ATOM     18  O   UNL     1       4.365  47.423   1.971  1.00  0.00    -0.507 OA
ATOM     19  H   UNL     1       5.132  47.869   1.486  1.00  0.00     0.293 HD
ENDBRANCH  14  18
ENDBRANCH   1  10
BRANCH   5  20
ATOM     20  O   UNL     1      -1.999  44.572  -1.434  1.00  0.00    -0.504 OA
ATOM     21  H   UNL     1      -2.425  43.658  -1.532  1.00  0.00     0.293 HD
ENDBRANCH   5  20
BRANCH   6  22
ATOM     22  O   UNL     1      -3.259  45.793   0.710  1.00  0.00    -0.493 OA
ATOM     23  C   UNL     1      -4.273  44.900   1.160  1.00  0.00     0.278 C 
ENDBRANCH   6  22
TORSDOF 5
ENDMDL
MODEL 3
REMARK VINA RESULT:    -7.324      1.285      2.443
REMARK INTER + INTRA:          -9.401
REMARK INTER:                  -9.043
REMARK INTRA:                  -0.359
REMARK UNBOUND:                -0.365
REMARK SMILES COc1ccc(-c2cc3cc(O)c(OC)cc3o2)c(O)c1
REMARK SMILES IDX 7 1 8 2 9 3 10 4 11 5 13 6 16 7 17 8 18 9 6 10 3 11 21 12
REMARK SMILES IDX 4 13 19 14 5 15 2 16 1 17 20 18 12 20 14 22 15 23
REMARK H PARENT 20 19 12 21
REMARK Flexibility Score: inf
ROOT
ATOM      1  C   UNL     1       2.923  45.678   2.842  1.00  0.00     0.139 A 
ATOM      2  C   UNL     1       2.549  45.085   1.634  1.00  0.00     0.060 A 
ATOM      3  C   UNL     1       1.176  45.047   1.682  1.00  0.00     0.025 A 
ATOM      4  C   UNL     1       0.246  44.564   0.767  1.00  0.00     0.062 A 
ATOM      5  C   UNL     1      -1.121  44.664   1.100  1.00  0.00     0.158 A 
ATOM      6  C   UNL     1      -1.521  45.241   2.332  1.00  0.00     0.164 A 
ATOM      7  C   UNL     1      -0.539  45.721   3.236  1.00  0.00     0.098 A 
ATOM      8  C   UNL     1       0.799  45.603   2.871  1.00  0.00     0.138 A 
ATOM      9  O   UNL     1       1.851  45.980   3.555  1.00  0.00    -0.456 OA
ENDROOT
BRANCH   1  10
ATOM     10  C   UNL     1       4.311  45.969   3.267  1.00  0.00     0.059 A 
ATOM     11  C   UNL     1       6.998  46.357   4.045  1.00  0.00     0.122 A 
ATOM     12  C   UNL     1       6.443  47.118   3.001  1.00  0.00     0.093 A 
ATOM     13  C   UNL     1       6.199  45.417   4.701  1.00  0.00     0.047 A 
ATOM     14  C   UNL     1       5.107  46.946   2.620  1.00  0.00     0.130 A 
ATOM     15  C   UNL     1       4.872  45.222   4.318  1.00  0.00     0.020 A 
BRANCH  11  16
ATOM     16  O   UNL     1       8.330  46.505   4.460  1.00  0.00    -0.497 OA
ATOM     17  C   UNL     1       9.453  46.474   3.587  1.00  0.00     0.278 C 
ENDBRANCH  11  16
BRANCH  14  18
ATOM     18  O   UNL     1       4.603  47.783   1.622  1.00  0.00    -0.507 OA
ATOM     19  H   UNL     1       3.654  47.734   1.279  1.00  0.00     0.293 HD
ENDBRANCH  14  18
ENDBRANCH   1  10
BRANCH   5  20
ATOM     20  O   UNL     1      -2.090  44.195   0.216  1.00  0.00    -0.504 OA
ATOM     21  H   UNL     1      -1.979  43.316  -0.273  1.00  0.00     0.293 HD
ENDBRANCH   5  20
BRANCH   6  22
ATOM     22  O   UNL     1      -2.893  45.319   2.618  1.00  0.00    -0.493 OA
ATOM     23  C   UNL     1      -3.499  44.801   3.798  1.00  0.00     0.278 C 
ENDBRANCH   6  22
TORSDOF 5
ENDMDL
MODEL 4
REMARK VINA RESULT:    -7.308      1.365      7.865
REMARK INTER + INTRA:          -9.381
REMARK INTER:                  -8.921
REMARK INTRA:                  -0.460
REMARK UNBOUND:                -0.365
REMARK SMILES COc1ccc(-c2cc3cc(O)c(OC)cc3o2)c(O)c1
REMARK SMILES IDX 7 1 8 2 9 3 10 4 11 5 13 6 16 7 17 8 18 9 6 10 3 11 21 12
REMARK SMILES IDX 4 13 19 14 5 15 2 16 1 17 20 18 12 20 14 22 15 23
REMARK H PARENT 20 19 12 21
REMARK Flexibility Score: inf
ROOT
ATOM      1  C   UNL     1       2.503  45.631   2.655  1.00  0.00     0.139 A 
ATOM      2  C   UNL     1       3.405  46.495   2.030  1.00  0.00     0.060 A 
ATOM      3  C   UNL     1       4.549  46.399   2.786  1.00  0.00     0.025 A 
ATOM      4  C   UNL     1       5.783  47.029   2.654  1.00  0.00     0.062 A 
ATOM      5  C   UNL     1       6.784  46.723   3.599  1.00  0.00     0.158 A 
ATOM      6  C   UNL     1       6.528  45.801   4.646  1.00  0.00     0.164 A 
ATOM      7  C   UNL     1       5.256  45.182   4.742  1.00  0.00     0.098 A 
ATOM      8  C   UNL     1       4.295  45.510   3.791  1.00  0.00     0.138 A 
ATOM      9  O   UNL     1       3.069  45.055   3.701  1.00  0.00    -0.456 OA
ENDROOT
BRANCH   1  10
ATOM     10  C   UNL     1       1.119  45.358   2.206  1.00  0.00     0.059 A 
ATOM     11  C   UNL     1      -1.483  44.668   1.349  1.00  0.00     0.122 A 
ATOM     12  C   UNL     1      -1.294  45.391   2.540  1.00  0.00     0.093 A 
ATOM     13  C   UNL     1      -0.368  44.308   0.588  1.00  0.00     0.047 A 
ATOM     14  C   UNL     1      -0.010  45.753   2.964  1.00  0.00     0.130 A 
ATOM     15  C   UNL     1       0.919  44.646   1.010  1.00  0.00     0.020 A 
BRANCH  11  16
ATOM     16  O   UNL     1      -2.753  44.293   0.888  1.00  0.00    -0.497 OA
ATOM     17  C   UNL     1      -3.824  45.200   0.651  1.00  0.00     0.278 C 
ENDBRANCH  11  16
BRANCH  14  18
ATOM     18  O   UNL     1       0.096  46.530   4.120  1.00  0.00    -0.507 OA
ATOM     19  H   UNL     1       0.979  46.834   4.508  1.00  0.00     0.293 HD
ENDBRANCH  14  18
ENDBRANCH   1  10
BRANCH   5  20
ATOM     20  O   UNL     1       8.036  47.328   3.510  1.00  0.00    -0.504 OA
ATOM     21  H   UNL     1       8.135  48.335   3.458  1.00  0.00     0.293 HD
ENDBRANCH   5  20
BRANCH   6  22
ATOM     22  O   UNL     1       7.557  45.529   5.561  1.00  0.00    -0.493 OA
ATOM     23  C   UNL     1       7.517  45.879   6.941  1.00  0.00     0.278 C 
ENDBRANCH   6  22
TORSDOF 5
ENDMDL
MODEL 5
REMARK VINA RESULT:    -7.193      1.234      7.799
REMARK INTER + INTRA:          -9.239
REMARK INTER:                  -8.761
REMARK INTRA:                  -0.479
REMARK UNBOUND:                -0.365
REMARK SMILES COc1ccc(-c2cc3cc(O)c(OC)cc3o2)c(O)c1
REMARK SMILES IDX 7 1 8 2 9 3 10 4 11 5 13 6 16 7 17 8 18 9 6 10 3 11 21 12
REMARK SMILES IDX 4 13 19 14 5 15 2 16 1 17 20 18 12 20 14 22 15 23
REMARK H PARENT 20 19 12 21
REMARK Flexibility Score: inf
ROOT
ATOM      1  C   UNL     1       2.494  45.580   2.902  1.00  0.00     0.139 A 
ATOM      2  C   UNL     1       2.999  44.918   4.023  1.00  0.00     0.060 A 
ATOM      3  C   UNL     1       4.308  45.332   4.104  1.00  0.00     0.025 A 
ATOM      4  C   UNL     1       5.311  45.007   5.012  1.00  0.00     0.062 A 
ATOM      5  C   UNL     1       6.578  45.603   4.835  1.00  0.00     0.158 A 
ATOM      6  C   UNL     1       6.808  46.502   3.764  1.00  0.00     0.164 A 
ATOM      7  C   UNL     1       5.756  46.804   2.862  1.00  0.00     0.098 A 
ATOM      8  C   UNL     1       4.521  46.197   3.069  1.00  0.00     0.138 A 
ATOM      9  O   UNL     1       3.429  46.340   2.358  1.00  0.00    -0.456 OA
ENDROOT
BRANCH   1  10
ATOM     10  C   UNL     1       1.105  45.486   2.398  1.00  0.00     0.059 A 
ATOM     11  C   UNL     1      -1.555  45.480   1.450  1.00  0.00     0.122 A 
ATOM     12  C   UNL     1      -0.521  44.928   0.673  1.00  0.00     0.093 A 
ATOM     13  C   UNL     1      -1.251  46.019   2.702  1.00  0.00     0.047 A 
ATOM     14  C   UNL     1       0.797  44.910   1.142  1.00  0.00     0.130 A 
ATOM     15  C   UNL     1       0.062  46.025   3.173  1.00  0.00     0.020 A 
BRANCH  11  16
ATOM     16  O   UNL     1      -2.889  45.511   1.018  1.00  0.00    -0.497 OA
ATOM     17  C   UNL     1      -3.507  44.491   0.239  1.00  0.00     0.278 C 
ENDBRANCH  11  16
BRANCH  14  18
ATOM     18  O   UNL     1       1.761  44.284   0.348  1.00  0.00    -0.507 OA
ATOM     19  H   UNL     1       1.621  44.063  -0.629  1.00  0.00     0.293 HD
ENDBRANCH  14  18
ENDBRANCH   1  10
BRANCH   5  20
ATOM     20  O   UNL     1       7.615  45.309   5.719  1.00  0.00    -0.504 OA
ATOM     21  H   UNL     1       8.583  45.321   5.421  1.00  0.00     0.293 HD
ENDBRANCH   5  20
BRANCH   6  22
ATOM     22  O   UNL     1       8.085  47.068   3.631  1.00  0.00    -0.493 OA
ATOM     23  C   UNL     1       8.994  46.764   2.578  1.00  0.00     0.278 C 
ENDBRANCH   6  22
TORSDOF 5
ENDMDL
MODEL 6
REMARK VINA RESULT:    -7.138      4.645      6.962
REMARK INTER + INTRA:          -9.172
REMARK INTER:                  -9.557
REMARK INTRA:                   0.385
REMARK UNBOUND:                -0.365
REMARK SMILES COc1ccc(-c2cc3cc(O)c(OC)cc3o2)c(O)c1
REMARK SMILES IDX 7 1 8 2 9 3 10 4 11 5 13 6 16 7 17 8 18 9 6 10 3 11 21 12
REMARK SMILES IDX 4 13 19 14 5 15 2 16 1 17 20 18 12 20 14 22 15 23
REMARK H PARENT 20 19 12 21
REMARK Flexibility Score: inf
ROOT
ATOM      1  C   UNL     1      -1.592  45.237   1.656  1.00  0.00     0.139 A 
ATOM      2  C   UNL     1      -2.351  45.444   0.502  1.00  0.00     0.060 A 
ATOM      3  C   UNL     1      -1.489  45.156  -0.530  1.00  0.00     0.025 A 
ATOM      4  C   UNL     1      -1.676  45.186  -1.908  1.00  0.00     0.062 A 
ATOM      5  C   UNL     1      -0.586  44.831  -2.729  1.00  0.00     0.158 A 
ATOM      6  C   UNL     1       0.656  44.457  -2.157  1.00  0.00     0.164 A 
ATOM      7  C   UNL     1       0.802  44.440  -0.746  1.00  0.00     0.098 A 
ATOM      8  C   UNL     1      -0.297  44.797   0.031  1.00  0.00     0.138 A 
ATOM      9  O   UNL     1      -0.370  44.846   1.338  1.00  0.00    -0.456 OA
ENDROOT
BRANCH   1  10
ATOM     10  C   UNL     1      -2.078  45.392   3.046  1.00  0.00     0.059 A 
ATOM     11  C   UNL     1      -3.027  45.517   5.704  1.00  0.00     0.122 A 
ATOM     12  C   UNL     1      -1.750  46.010   5.380  1.00  0.00     0.093 A 
ATOM     13  C   UNL     1      -3.824  44.977   4.692  1.00  0.00     0.047 A 
ATOM     14  C   UNL     1      -1.279  45.969   4.063  1.00  0.00     0.130 A 
ATOM     15  C   UNL     1      -3.358  44.914   3.378  1.00  0.00     0.020 A 
BRANCH  11  16
ATOM     16  O   UNL     1      -3.538  45.546   7.010  1.00  0.00    -0.497 OA
ATOM     17  C   UNL     1      -2.825  46.032   8.142  1.00  0.00     0.278 C 
ENDBRANCH  11  16
BRANCH  14  18
ATOM     18  O   UNL     1      -0.030  46.539   3.803  1.00  0.00    -0.507 OA
ATOM     19  H   UNL     1       0.392  46.565   2.884  1.00  0.00     0.293 HD
ENDBRANCH  14  18
ENDBRANCH   1  10
BRANCH   5  20
ATOM     20  O   UNL     1      -0.724  44.847  -4.116  1.00  0.00    -0.504 OA
ATOM     21  H   UNL     1       0.035  44.572  -4.727  1.00  0.00     0.293 HD
ENDBRANCH   5  20
BRANCH   6  22
ATOM     22  O   UNL     1       1.710  44.112  -3.016  1.00  0.00    -0.493 OA
ATOM     23  C   UNL     1       1.751  44.427  -4.404  1.00  0.00     0.278 C 
ENDBRANCH   6  22
TORSDOF 5
ENDMDL
MODEL 7
REMARK VINA RESULT:    -7.093      7.654      9.180
REMARK INTER + INTRA:          -9.116
REMARK INTER:                  -8.713
REMARK INTRA:                  -0.402
REMARK UNBOUND:                -0.365
REMARK SMILES COc1ccc(-c2cc3cc(O)c(OC)cc3o2)c(O)c1
REMARK SMILES IDX 7 1 8 2 9 3 10 4 11 5 13 6 16 7 17 8 18 9 6 10 3 11 21 12
REMARK SMILES IDX 4 13 19 14 5 15 2 16 1 17 20 18 12 20 14 22 15 23
REMARK H PARENT 20 19 12 21
REMARK Flexibility Score: inf
ROOT
ATOM      1  C   UNL     1       7.187  49.196  -1.809  1.00  0.00     0.139 A 
ATOM      2  C   UNL     1       8.335  48.403  -1.863  1.00  0.00     0.060 A 
ATOM      3  C   UNL     1       8.011  47.393  -2.738  1.00  0.00     0.025 A 
ATOM      4  C   UNL     1       8.753  46.303  -3.184  1.00  0.00     0.062 A 
ATOM      5  C   UNL     1       8.141  45.420  -4.098  1.00  0.00     0.158 A 
ATOM      6  C   UNL     1       6.814  45.647  -4.541  1.00  0.00     0.164 A 
ATOM      7  C   UNL     1       6.095  46.771  -4.060  1.00  0.00     0.098 A 
ATOM      8  C   UNL     1       6.732  47.619  -3.158  1.00  0.00     0.138 A 
ATOM      9  O   UNL     1       6.250  48.701  -2.599  1.00  0.00    -0.456 OA
ENDROOT
BRANCH   1  10
ATOM     10  C   UNL     1       7.032  50.436  -1.015  1.00  0.00     0.059 A 
ATOM     11  C   UNL     1       6.652  52.872   0.364  1.00  0.00     0.122 A 
ATOM     12  C   UNL     1       6.176  51.665   0.907  1.00  0.00     0.093 A 
ATOM     13  C   UNL     1       7.326  52.849  -0.859  1.00  0.00     0.047 A 
ATOM     14  C   UNL     1       6.376  50.450   0.239  1.00  0.00     0.130 A 
ATOM     15  C   UNL     1       7.515  51.647  -1.543  1.00  0.00     0.020 A 
BRANCH  11  16
ATOM     16  O   UNL     1       6.478  54.107   1.006  1.00  0.00    -0.497 OA
ATOM     17  C   UNL     1       5.879  55.249   0.404  1.00  0.00     0.278 C 
ENDBRANCH  11  16
BRANCH  14  18
ATOM     18  O   UNL     1       5.938  49.284   0.870  1.00  0.00    -0.507 OA
ATOM     19  H   UNL     1       6.243  48.357   0.604  1.00  0.00     0.293 HD
ENDBRANCH  14  18
ENDBRANCH   1  10
BRANCH   5  20
ATOM     20  O   UNL     1       8.843  44.314  -4.575  1.00  0.00    -0.504 OA
ATOM     21  H   UNL     1       9.447  44.379  -5.385  1.00  0.00     0.293 HD
ENDBRANCH   5  20
BRANCH   6  22
ATOM     22  O   UNL     1       6.250  44.741  -5.452  1.00  0.00    -0.493 OA
ATOM     23  C   UNL     1       4.852  44.596  -5.680  1.00  0.00     0.278 C 
ENDBRANCH   6  22
TORSDOF 5
ENDMDL
MODEL 8
REMARK VINA RESULT:    -7.060      4.558      7.255
REMARK INTER + INTRA:          -9.075
REMARK INTER:                  -8.482
REMARK INTRA:                  -0.593
REMARK UNBOUND:                -0.365
REMARK SMILES COc1ccc(-c2cc3cc(O)c(OC)cc3o2)c(O)c1
REMARK SMILES IDX 7 1 8 2 9 3 10 4 11 5 13 6 16 7 17 8 18 9 6 10 3 11 21 12
REMARK SMILES IDX 4 13 19 14 5 15 2 16 1 17 20 18 12 20 14 22 15 23
REMARK H PARENT 20 19 12 21
REMARK Flexibility Score: inf
ROOT
ATOM      1  C   UNL     1       4.984  45.145   5.011  1.00  0.00     0.139 A 
ATOM      2  C   UNL     1       4.078  44.125   5.309  1.00  0.00     0.060 A 
ATOM      3  C   UNL     1       4.431  43.712   6.572  1.00  0.00     0.025 A 
ATOM      4  C   UNL     1       3.892  42.723   7.390  1.00  0.00     0.062 A 
ATOM      5  C   UNL     1       4.478  42.526   8.658  1.00  0.00     0.158 A 
ATOM      6  C   UNL     1       5.579  43.317   9.073  1.00  0.00     0.164 A 
ATOM      7  C   UNL     1       6.095  44.313   8.206  1.00  0.00     0.098 A 
ATOM      8  C   UNL     1       5.491  44.477   6.963  1.00  0.00     0.138 A 
ATOM      9  O   UNL     1       5.812  45.332   6.024  1.00  0.00    -0.456 OA
ENDROOT
BRANCH   1  10
ATOM     10  C   UNL     1       5.009  45.938   3.761  1.00  0.00     0.059 A 
ATOM     11  C   UNL     1       4.917  47.537   1.435  1.00  0.00     0.122 A 
ATOM     12  C   UNL     1       6.071  47.515   2.238  1.00  0.00     0.093 A 
ATOM     13  C   UNL     1       3.822  46.749   1.795  1.00  0.00     0.047 A 
ATOM     14  C   UNL     1       6.133  46.711   3.382  1.00  0.00     0.130 A 
ATOM     15  C   UNL     1       3.864  45.958   2.944  1.00  0.00     0.020 A 
BRANCH  11  16
ATOM     16  O   UNL     1       4.820  48.323   0.277  1.00  0.00    -0.497 OA
ATOM     17  C   UNL     1       5.909  48.618  -0.590  1.00  0.00     0.278 C 
ENDBRANCH  11  16
BRANCH  14  18
ATOM     18  O   UNL     1       7.335  46.686   4.094  1.00  0.00    -0.507 OA
ATOM     19  H   UNL     1       8.239  46.833   3.666  1.00  0.00     0.293 HD
ENDBRANCH  14  18
ENDBRANCH   1  10
BRANCH   5  20
ATOM     20  O   UNL     1       3.974  41.549   9.514  1.00  0.00    -0.504 OA
ATOM     21  H   UNL     1       2.984  41.476   9.710  1.00  0.00     0.293 HD
ENDBRANCH   5  20
BRANCH   6  22
ATOM     22  O   UNL     1       6.126  43.083  10.344  1.00  0.00    -0.493 OA
ATOM     23  C   UNL     1       7.233  43.797  10.887  1.00  0.00     0.278 C 
ENDBRANCH   6  22
TORSDOF 5
ENDMDL
MODEL 9
REMARK VINA RESULT:    -6.934      6.384      8.317
REMARK INTER + INTRA:          -8.920
REMARK INTER:                  -8.348
REMARK INTRA:                  -0.572
REMARK UNBOUND:                -0.365
REMARK SMILES COc1ccc(-c2cc3cc(O)c(OC)cc3o2)c(O)c1
REMARK SMILES IDX 7 1 8 2 9 3 10 4 11 5 13 6 16 7 17 8 18 9 6 10 3 11 21 12
REMARK SMILES IDX 4 13 19 14 5 15 2 16 1 17 20 18 12 20 14 22 15 23
REMARK H PARENT 20 19 12 21
REMARK Flexibility Score: inf
ROOT
ATOM      1  C   UNL     1       7.074  46.147   5.127  1.00  0.00     0.139 A 
ATOM      2  C   UNL     1       6.094  45.262   5.578  1.00  0.00     0.060 A 
ATOM      3  C   UNL     1       6.275  45.215   6.940  1.00  0.00     0.025 A 
ATOM      4  C   UNL     1       5.598  44.501   7.924  1.00  0.00     0.062 A 
ATOM      5  C   UNL     1       6.020  44.660   9.261  1.00  0.00     0.158 A 
ATOM      6  C   UNL     1       7.099  45.523   9.578  1.00  0.00     0.164 A 
ATOM      7  C   UNL     1       7.759  46.232   8.542  1.00  0.00     0.098 A 
ATOM      8  C   UNL     1       7.315  46.048   7.236  1.00  0.00     0.138 A 
ATOM      9  O   UNL     1       7.784  46.602   6.146  1.00  0.00    -0.456 OA
ENDROOT
BRANCH   1  10
ATOM     10  C   UNL     1       7.284  46.558   3.721  1.00  0.00     0.059 A 
ATOM     11  C   UNL     1       7.625  47.502   1.080  1.00  0.00     0.122 A 
ATOM     12  C   UNL     1       8.717  46.978   1.795  1.00  0.00     0.093 A 
ATOM     13  C   UNL     1       6.368  47.537   1.688  1.00  0.00     0.047 A 
ATOM     14  C   UNL     1       8.554  46.491   3.098  1.00  0.00     0.130 A 
ATOM     15  C   UNL     1       6.196  47.072   2.992  1.00  0.00     0.020 A 
BRANCH  11  16
ATOM     16  O   UNL     1       7.747  47.992  -0.228  1.00  0.00    -0.497 OA
ATOM     17  C   UNL     1       8.558  47.401  -1.237  1.00  0.00     0.278 C 
ENDBRANCH  11  16
BRANCH  14  18
ATOM     18  O   UNL     1       9.666  45.923   3.722  1.00  0.00    -0.507 OA
ATOM     19  H   UNL     1      10.276  46.431   4.348  1.00  0.00     0.293 HD
ENDBRANCH  14  18
ENDBRANCH   1  10
BRANCH   5  20
ATOM     20  O   UNL     1       5.374  43.966  10.283  1.00  0.00    -0.504 OA
ATOM     21  H   UNL     1       4.513  44.307  10.692  1.00  0.00     0.293 HD
ENDBRANCH   5  20
BRANCH   6  22
ATOM     22  O   UNL     1       7.480  45.649  10.923  1.00  0.00    -0.493 OA
ATOM     23  C   UNL     1       8.584  44.969  11.512  1.00  0.00     0.278 C 
ENDBRANCH   6  22
TORSDOF 5
ENDMDL
