MODEL 1
REMARK VINA RESULT:    -6.652      0.000      0.000
REMARK INTER + INTRA:          -8.421
REMARK INTER:                  -8.013
REMARK INTRA:                  -0.408
REMARK UNBOUND:                -0.408
REMARK SMILES O=c1c(O)c(-c2ccc(O)cc2O)oc2cc(O)cc(O)c12
REMARK SMILES IDX 5 1 3 2 2 3 1 4 22 5 20 6 19 7 17 8 16 9 15 10 14 11 6 12
REMARK SMILES IDX 8 13 7 14 9 15 11 16 12 17 10 18 13 20 4 22 21 24 18 26
REMARK H PARENT 10 19 13 21 4 23 21 25 18 27
REMARK Flexibility Score: inf
ROOT
ATOM      1  C   UNL     1      -6.133   6.941 -39.585  1.00  0.00     0.184 A 
ATOM      2  C   UNL     1      -6.439   5.958 -38.627  1.00  0.00     0.208 A 
ATOM      3  C   UNL     1      -5.513   4.931 -38.389  1.00  0.00     0.238 A 
ATOM      4  O   UNL     1      -5.782   4.037 -37.541  1.00  0.00    -0.285 OA
ATOM      5  C   UNL     1      -4.292   4.917 -39.095  1.00  0.00     0.111 A 
ATOM      6  C   UNL     1      -3.303   3.921 -38.912  1.00  0.00     0.134 A 
ATOM      7  C   UNL     1      -2.110   3.982 -39.647  1.00  0.00     0.093 A 
ATOM      8  C   UNL     1      -1.887   5.020 -40.560  1.00  0.00     0.123 A 
ATOM      9  C   UNL     1      -2.860   6.005 -40.744  1.00  0.00     0.094 A 
ATOM     10  C   UNL     1      -4.056   5.960 -40.022  1.00  0.00     0.146 A 
ATOM     11  O   UNL     1      -4.967   6.908 -40.221  1.00  0.00    -0.451 OA
ENDROOT
BRANCH   1  12
ATOM     12  C   UNL     1      -7.068   8.043 -39.892  1.00  0.00     0.063 A 
ATOM     13  C   UNL     1      -8.136  10.114 -39.200  1.00  0.00     0.047 A 
ATOM     14  C   UNL     1      -7.264   9.054 -38.939  1.00  0.00     0.020 A 
ATOM     15  C   UNL     1      -8.813  10.184 -40.420  1.00  0.00     0.119 A 
ATOM     16  C   UNL     1      -8.607   9.191 -41.387  1.00  0.00     0.093 A 
ATOM     17  C   UNL     1      -7.728   8.128 -41.135  1.00  0.00     0.130 A 
BRANCH  15  18
ATOM     18  O   UNL     1      -9.683  11.244 -40.665  1.00  0.00    -0.508 OA
ATOM     19  H   UNL     1     -10.234  11.292 -41.513  1.00  0.00     0.293 HD
ENDBRANCH  15  18
BRANCH  17  20
ATOM     20  O   UNL     1      -7.493   7.172 -42.125  1.00  0.00    -0.507 OA
ATOM     21  H   UNL     1      -7.777   6.206 -42.008  1.00  0.00     0.293 HD
ENDBRANCH  17  20
ENDBRANCH   1  12
BRANCH   2  22
ATOM     22  O   UNL     1      -7.638   6.025 -37.911  1.00  0.00    -0.502 OA
ATOM     23  H   UNL     1      -8.474   6.452 -38.294  1.00  0.00     0.293 HD
ENDBRANCH   2  22
BRANCH   6  24
ATOM     24  O   UNL     1      -3.496   2.875 -38.009  1.00  0.00    -0.507 OA
ATOM     25  H   UNL     1      -4.263   2.219 -38.110  1.00  0.00     0.293 HD
ENDBRANCH   6  24
BRANCH   8  26
ATOM     26  O   UNL     1      -0.702   5.082 -41.288  1.00  0.00    -0.508 OA
ATOM     27  H   UNL     1       0.055   4.427 -41.126  1.00  0.00     0.293 HD
ENDBRANCH   8  26
TORSDOF 6
ENDMDL
MODEL 2
REMARK VINA RESULT:    -6.350      2.196      4.154
REMARK INTER + INTRA:          -8.057
REMARK INTER:                  -7.659
REMARK INTRA:                  -0.398
REMARK UNBOUND:                -0.408
REMARK SMILES O=c1c(O)c(-c2ccc(O)cc2O)oc2cc(O)cc(O)c12
REMARK SMILES IDX 5 1 3 2 2 3 1 4 22 5 20 6 19 7 17 8 16 9 15 10 14 11 6 12
REMARK SMILES IDX 8 13 7 14 9 15 11 16 12 17 10 18 13 20 4 22 21 24 18 26
REMARK H PARENT 10 19 13 21 4 23 21 25 18 27
REMARK Flexibility Score: inf
ROOT
ATOM      1  C   UNL     1      -3.849   5.809 -39.564  1.00  0.00     0.184 A 
ATOM      2  C   UNL     1      -2.784   5.614 -40.461  1.00  0.00     0.208 A 
ATOM      3  C   UNL     1      -1.565   5.122 -39.969  1.00  0.00     0.238 A 
ATOM      4  O   UNL     1      -0.599   4.954 -40.762  1.00  0.00    -0.285 OA
ATOM      5  C   UNL     1      -1.440   4.817 -38.597  1.00  0.00     0.111 A 
ATOM      6  C   UNL     1      -0.249   4.314 -38.021  1.00  0.00     0.134 A 
ATOM      7  C   UNL     1      -0.207   4.027 -36.649  1.00  0.00     0.093 A 
ATOM      8  C   UNL     1      -1.333   4.231 -35.843  1.00  0.00     0.123 A 
ATOM      9  C   UNL     1      -2.510   4.727 -36.407  1.00  0.00     0.094 A 
ATOM     10  C   UNL     1      -2.572   5.021 -37.772  1.00  0.00     0.146 A 
ATOM     11  O   UNL     1      -3.703   5.496 -38.281  1.00  0.00    -0.451 OA
ENDROOT
BRANCH   1  12
ATOM     12  C   UNL     1      -5.155   6.334 -40.015  1.00  0.00     0.063 A 
ATOM     13  C   UNL     1      -7.210   5.993 -41.268  1.00  0.00     0.047 A 
ATOM     14  C   UNL     1      -5.966   5.530 -40.830  1.00  0.00     0.020 A 
ATOM     15  C   UNL     1      -7.664   7.258 -40.886  1.00  0.00     0.119 A 
ATOM     16  C   UNL     1      -6.872   8.058 -40.053  1.00  0.00     0.093 A 
ATOM     17  C   UNL     1      -5.626   7.598 -39.604  1.00  0.00     0.130 A 
BRANCH  15  18
ATOM     18  O   UNL     1      -8.904   7.707 -41.334  1.00  0.00    -0.508 OA
ATOM     19  H   UNL     1      -9.394   8.461 -40.867  1.00  0.00     0.293 HD
ENDBRANCH  15  18
BRANCH  17  20
ATOM     20  O   UNL     1      -4.868   8.384 -38.734  1.00  0.00    -0.507 OA
ATOM     21  H   UNL     1      -5.145   9.329 -38.493  1.00  0.00     0.293 HD
ENDBRANCH  17  20
ENDBRANCH   1  12
BRANCH   2  22
ATOM     22  O   UNL     1      -2.954   5.882 -41.822  1.00  0.00    -0.502 OA
ATOM     23  H   UNL     1      -2.902   6.822 -42.199  1.00  0.00     0.293 HD
ENDBRANCH   2  22
BRANCH   6  24
ATOM     24  O   UNL     1       0.890   4.100 -38.800  1.00  0.00    -0.507 OA
ATOM     25  H   UNL     1       0.994   4.516 -39.718  1.00  0.00     0.293 HD
ENDBRANCH   6  24
BRANCH   8  26
ATOM     26  O   UNL     1      -1.292   3.944 -34.481  1.00  0.00    -0.508 OA
ATOM     27  H   UNL     1      -1.620   4.609 -33.789  1.00  0.00     0.293 HD
ENDBRANCH   8  26
TORSDOF 6
ENDMDL
MODEL 3
REMARK VINA RESULT:    -6.337     15.215     18.579
REMARK INTER + INTRA:          -8.041
REMARK INTER:                  -7.648
REMARK INTRA:                  -0.393
REMARK UNBOUND:                -0.408
REMARK SMILES O=c1c(O)c(-c2ccc(O)cc2O)oc2cc(O)cc(O)c12
REMARK SMILES IDX 5 1 3 2 2 3 1 4 22 5 20 6 19 7 17 8 16 9 15 10 14 11 6 12
REMARK SMILES IDX 8 13 7 14 9 15 11 16 12 17 10 18 13 20 4 22 21 24 18 26
REMARK H PARENT 10 19 13 21 4 23 21 25 18 27
REMARK Flexibility Score: inf
ROOT
ATOM      1  C   UNL     1     -14.691  13.236 -26.683  1.00  0.00     0.184 A 
ATOM      2  C   UNL     1     -14.805  13.058 -25.293  1.00  0.00     0.208 A 
ATOM      3  C   UNL     1     -15.153  14.159 -24.494  1.00  0.00     0.238 A 
ATOM      4  O   UNL     1     -15.246  14.014 -23.245  1.00  0.00    -0.285 OA
ATOM      5  C   UNL     1     -15.400  15.408 -25.101  1.00  0.00     0.111 A 
ATOM      6  C   UNL     1     -15.760  16.566 -24.370  1.00  0.00     0.134 A 
ATOM      7  C   UNL     1     -15.999  17.770 -25.048  1.00  0.00     0.093 A 
ATOM      8  C   UNL     1     -15.886  17.839 -26.441  1.00  0.00     0.123 A 
ATOM      9  C   UNL     1     -15.531  16.700 -27.167  1.00  0.00     0.094 A 
ATOM     10  C   UNL     1     -15.288  15.490 -26.510  1.00  0.00     0.146 A 
ATOM     11  O   UNL     1     -14.948  14.423 -27.224  1.00  0.00    -0.451 OA
ENDROOT
BRANCH   1  12
ATOM     12  C   UNL     1     -14.318  12.122 -27.580  1.00  0.00     0.063 A 
ATOM     13  C   UNL     1     -15.007  10.404 -29.155  1.00  0.00     0.047 A 
ATOM     14  C   UNL     1     -15.326  11.457 -28.294  1.00  0.00     0.020 A 
ATOM     15  C   UNL     1     -13.677  10.011 -29.323  1.00  0.00     0.119 A 
ATOM     16  C   UNL     1     -12.661  10.685 -28.633  1.00  0.00     0.093 A 
ATOM     17  C   UNL     1     -12.972  11.747 -27.772  1.00  0.00     0.130 A 
BRANCH  15  18
ATOM     18  O   UNL     1     -13.374   8.958 -30.182  1.00  0.00    -0.508 OA
ATOM     19  H   UNL     1     -12.423   8.634 -30.308  1.00  0.00     0.293 HD
ENDBRANCH  15  18
BRANCH  17  20
ATOM     20  O   UNL     1     -11.948  12.442 -27.128  1.00  0.00    -0.507 OA
ATOM     21  H   UNL     1     -12.033  12.739 -26.162  1.00  0.00     0.293 HD
ENDBRANCH  17  20
ENDBRANCH   1  12
BRANCH   2  22
ATOM     22  O   UNL     1     -14.598  11.797 -24.728  1.00  0.00    -0.502 OA
ATOM     23  H   UNL     1     -14.796  11.601 -23.753  1.00  0.00     0.293 HD
ENDBRANCH   2  22
BRANCH   6  24
ATOM     24  O   UNL     1     -15.881  16.528 -22.980  1.00  0.00    -0.507 OA
ATOM     25  H   UNL     1     -16.706  16.881 -22.507  1.00  0.00     0.293 HD
ENDBRANCH   6  24
BRANCH   8  26
ATOM     26  O   UNL     1     -16.124  19.034 -27.115  1.00  0.00    -0.508 OA
ATOM     27  H   UNL     1     -16.946  19.596 -26.924  1.00  0.00     0.293 HD
ENDBRANCH   8  26
TORSDOF 6
ENDMDL
MODEL 4
REMARK VINA RESULT:    -6.316      2.104      6.564
REMARK INTER + INTRA:          -8.017
REMARK INTER:                  -7.676
REMARK INTRA:                  -0.341
REMARK UNBOUND:                -0.408
REMARK SMILES O=c1c(O)c(-c2ccc(O)cc2O)oc2cc(O)cc(O)c12
REMARK SMILES IDX 5 1 3 2 2 3 1 4 22 5 20 6 19 7 17 8 16 9 15 10 14 11 6 12
REMARK SMILES IDX 8 13 7 14 9 15 11 16 12 17 10 18 13 20 4 22 21 24 18 26
REMARK H PARENT 10 19 13 21 4 23 21 25 18 27
REMARK Flexibility Score: inf
ROOT
ATOM      1  C   UNL     1      -4.357   6.482 -39.485  1.00  0.00     0.184 A 
ATOM      2  C   UNL     1      -4.700   7.721 -38.916  1.00  0.00     0.208 A 
ATOM      3  C   UNL     1      -5.992   8.228 -39.123  1.00  0.00     0.238 A 
ATOM      4  O   UNL     1      -6.307   9.344 -38.628  1.00  0.00    -0.285 OA
ATOM      5  C   UNL     1      -6.921   7.480 -39.876  1.00  0.00     0.111 A 
ATOM      6  C   UNL     1      -8.244   7.917 -40.128  1.00  0.00     0.134 A 
ATOM      7  C   UNL     1      -9.112   7.110 -40.879  1.00  0.00     0.093 A 
ATOM      8  C   UNL     1      -8.683   5.876 -41.381  1.00  0.00     0.123 A 
ATOM      9  C   UNL     1      -7.379   5.441 -41.135  1.00  0.00     0.094 A 
ATOM     10  C   UNL     1      -6.499   6.231 -40.390  1.00  0.00     0.146 A 
ATOM     11  O   UNL     1      -5.262   5.794 -40.175  1.00  0.00    -0.451 OA
ENDROOT
BRANCH   1  12
ATOM     12  C   UNL     1      -3.011   5.895 -39.315  1.00  0.00     0.063 A 
ATOM     13  C   UNL     1      -1.305   5.009 -37.828  1.00  0.00     0.047 A 
ATOM     14  C   UNL     1      -2.569   5.571 -38.024  1.00  0.00     0.020 A 
ATOM     15  C   UNL     1      -0.472   4.753 -38.921  1.00  0.00     0.119 A 
ATOM     16  C   UNL     1      -0.914   5.052 -40.216  1.00  0.00     0.093 A 
ATOM     17  C   UNL     1      -2.184   5.610 -40.421  1.00  0.00     0.130 A 
BRANCH  15  18
ATOM     18  O   UNL     1       0.787   4.196 -38.710  1.00  0.00    -0.508 OA
ATOM     19  H   UNL     1       1.461   4.113 -39.461  1.00  0.00     0.293 HD
ENDBRANCH  15  18
BRANCH  17  20
ATOM     20  O   UNL     1      -2.633   5.857 -41.719  1.00  0.00    -0.507 OA
ATOM     21  H   UNL     1      -2.157   5.474 -42.528  1.00  0.00     0.293 HD
ENDBRANCH  17  20
ENDBRANCH   1  12
BRANCH   2  22
ATOM     22  O   UNL     1      -3.771   8.416 -38.137  1.00  0.00    -0.502 OA
ATOM     23  H   UNL     1      -3.950   8.661 -37.170  1.00  0.00     0.293 HD
ENDBRANCH   2  22
BRANCH   6  24
ATOM     24  O   UNL     1      -8.700   9.142 -39.640  1.00  0.00    -0.507 OA
ATOM     25  H   UNL     1      -8.060   9.878 -39.365  1.00  0.00     0.293 HD
ENDBRANCH   6  24
BRANCH   8  26
ATOM     26  O   UNL     1      -9.545   5.074 -42.125  1.00  0.00    -0.508 OA
ATOM     27  H   UNL     1      -9.809   5.317 -43.073  1.00  0.00     0.293 HD
ENDBRANCH   8  26
TORSDOF 6
ENDMDL
MODEL 5
REMARK VINA RESULT:    -6.316      2.698      2.826
REMARK INTER + INTRA:          -8.016
REMARK INTER:                  -7.595
REMARK INTRA:                  -0.421
REMARK UNBOUND:                -0.408
REMARK SMILES O=c1c(O)c(-c2ccc(O)cc2O)oc2cc(O)cc(O)c12
REMARK SMILES IDX 5 1 3 2 2 3 1 4 22 5 20 6 19 7 17 8 16 9 15 10 14 11 6 12
REMARK SMILES IDX 8 13 7 14 9 15 11 16 12 17 10 18 13 20 4 22 21 24 18 26
REMARK H PARENT 10 19 13 21 4 23 21 25 18 27
REMARK Flexibility Score: inf
ROOT
ATOM      1  C   UNL     1      -6.805   5.434 -38.024  1.00  0.00     0.184 A 
ATOM      2  C   UNL     1      -6.238   4.511 -37.127  1.00  0.00     0.208 A 
ATOM      3  C   UNL     1      -4.980   3.963 -37.422  1.00  0.00     0.238 A 
ATOM      4  O   UNL     1      -4.467   3.125 -36.631  1.00  0.00    -0.285 OA
ATOM      5  C   UNL     1      -4.305   4.363 -38.594  1.00  0.00     0.111 A 
ATOM      6  C   UNL     1      -3.032   3.863 -38.963  1.00  0.00     0.134 A 
ATOM      7  C   UNL     1      -2.421   4.318 -40.141  1.00  0.00     0.093 A 
ATOM      8  C   UNL     1      -3.057   5.262 -40.955  1.00  0.00     0.123 A 
ATOM      9  C   UNL     1      -4.312   5.758 -40.596  1.00  0.00     0.094 A 
ATOM     10  C   UNL     1      -4.938   5.317 -39.426  1.00  0.00     0.146 A 
ATOM     11  O   UNL     1      -6.134   5.802 -39.110  1.00  0.00    -0.451 OA
ENDROOT
BRANCH   1  12
ATOM     12  C   UNL     1      -8.130   6.040 -37.779  1.00  0.00     0.063 A 
ATOM     13  C   UNL     1      -9.494   7.615 -36.527  1.00  0.00     0.047 A 
ATOM     14  C   UNL     1      -8.257   7.017 -36.780  1.00  0.00     0.020 A 
ATOM     15  C   UNL     1     -10.617   7.253 -37.277  1.00  0.00     0.119 A 
ATOM     16  C   UNL     1     -10.495   6.295 -38.292  1.00  0.00     0.093 A 
ATOM     17  C   UNL     1      -9.255   5.696 -38.556  1.00  0.00     0.130 A 
BRANCH  15  18
ATOM     18  O   UNL     1     -11.845   7.855 -37.011  1.00  0.00    -0.508 OA
ATOM     19  H   UNL     1     -12.373   7.632 -36.176  1.00  0.00     0.293 HD
ENDBRANCH  15  18
BRANCH  17  20
ATOM     20  O   UNL     1      -9.136   4.779 -39.602  1.00  0.00    -0.507 OA
ATOM     21  H   UNL     1      -9.028   3.786 -39.429  1.00  0.00     0.293 HD
ENDBRANCH  17  20
ENDBRANCH   1  12
BRANCH   2  22
ATOM     22  O   UNL     1      -6.913   4.170 -35.952  1.00  0.00    -0.502 OA
ATOM     23  H   UNL     1      -7.108   4.847 -35.223  1.00  0.00     0.293 HD
ENDBRANCH   2  22
BRANCH   6  24
ATOM     24  O   UNL     1      -2.374   2.921 -38.171  1.00  0.00    -0.507 OA
ATOM     25  H   UNL     1      -1.706   2.268 -38.564  1.00  0.00     0.293 HD
ENDBRANCH   6  24
BRANCH   8  26
ATOM     26  O   UNL     1      -2.450   5.715 -42.124  1.00  0.00    -0.508 OA
ATOM     27  H   UNL     1      -1.507   6.087 -42.122  1.00  0.00     0.293 HD
ENDBRANCH   8  26
TORSDOF 6
ENDMDL
MODEL 6
REMARK VINA RESULT:    -6.248     16.245     18.618
REMARK INTER + INTRA:          -7.935
REMARK INTER:                  -7.555
REMARK INTRA:                  -0.380
REMARK UNBOUND:                -0.408
REMARK SMILES O=c1c(O)c(-c2ccc(O)cc2O)oc2cc(O)cc(O)c12
REMARK SMILES IDX 5 1 3 2 2 3 1 4 22 5 20 6 19 7 17 8 16 9 15 10 14 11 6 12
REMARK SMILES IDX 8 13 7 14 9 15 11 16 12 17 10 18 13 20 4 22 21 24 18 26
REMARK H PARENT 10 19 13 21 4 23 21 25 18 27
REMARK Flexibility Score: inf
ROOT
ATOM      1  C   UNL     1     -14.663  16.254 -26.320  1.00  0.00     0.184 A 
ATOM      2  C   UNL     1     -14.216  15.997 -25.013  1.00  0.00     0.208 A 
ATOM      3  C   UNL     1     -14.035  14.666 -24.607  1.00  0.00     0.238 A 
ATOM      4  O   UNL     1     -13.646  14.423 -23.432  1.00  0.00    -0.285 OA
ATOM      5  C   UNL     1     -14.284  13.620 -25.520  1.00  0.00     0.111 A 
ATOM      6  C   UNL     1     -14.122  12.252 -25.193  1.00  0.00     0.134 A 
ATOM      7  C   UNL     1     -14.381  11.270 -26.161  1.00  0.00     0.093 A 
ATOM      8  C   UNL     1     -14.798  11.630 -27.448  1.00  0.00     0.123 A 
ATOM      9  C   UNL     1     -14.958  12.978 -27.775  1.00  0.00     0.094 A 
ATOM     10  C   UNL     1     -14.706  13.971 -26.824  1.00  0.00     0.146 A 
ATOM     11  O   UNL     1     -14.872  15.246 -27.161  1.00  0.00    -0.451 OA
ENDROOT
BRANCH   1  12
ATOM     12  C   UNL     1     -14.884  17.632 -26.808  1.00  0.00     0.063 A 
ATOM     13  C   UNL     1     -16.125  19.716 -26.652  1.00  0.00     0.047 A 
ATOM     14  C   UNL     1     -15.894  18.407 -26.219  1.00  0.00     0.020 A 
ATOM     15  C   UNL     1     -15.342  20.269 -27.669  1.00  0.00     0.119 A 
ATOM     16  C   UNL     1     -14.316  19.510 -28.246  1.00  0.00     0.093 A 
ATOM     17  C   UNL     1     -14.073  18.199 -27.813  1.00  0.00     0.130 A 
BRANCH  15  18
ATOM     18  O   UNL     1     -15.586  21.573 -28.092  1.00  0.00    -0.508 OA
ATOM     19  H   UNL     1     -16.390  21.802 -28.665  1.00  0.00     0.293 HD
ENDBRANCH  15  18
BRANCH  17  20
ATOM     20  O   UNL     1     -13.017  17.471 -28.361  1.00  0.00    -0.507 OA
ATOM     21  H   UNL     1     -13.157  16.548 -28.759  1.00  0.00     0.293 HD
ENDBRANCH  17  20
ENDBRANCH   1  12
BRANCH   2  22
ATOM     22  O   UNL     1     -13.935  17.057 -24.146  1.00  0.00    -0.502 OA
ATOM     23  H   UNL     1     -13.517  16.914 -23.234  1.00  0.00     0.293 HD
ENDBRANCH   2  22
BRANCH   6  24
ATOM     24  O   UNL     1     -13.708  11.863 -23.918  1.00  0.00    -0.507 OA
ATOM     25  H   UNL     1     -12.856  11.333 -23.774  1.00  0.00     0.293 HD
ENDBRANCH   6  24
BRANCH   8  26
ATOM     26  O   UNL     1     -15.054  10.656 -28.409  1.00  0.00    -0.508 OA
ATOM     27  H   UNL     1     -14.348   9.981 -28.682  1.00  0.00     0.293 HD
ENDBRANCH   8  26
TORSDOF 6
ENDMDL
MODEL 7
REMARK VINA RESULT:    -6.244     15.853     19.408
REMARK INTER + INTRA:          -7.929
REMARK INTER:                  -7.513
REMARK INTRA:                  -0.416
REMARK UNBOUND:                -0.408
REMARK SMILES O=c1c(O)c(-c2ccc(O)cc2O)oc2cc(O)cc(O)c12
REMARK SMILES IDX 5 1 3 2 2 3 1 4 22 5 20 6 19 7 17 8 16 9 15 10 14 11 6 12
REMARK SMILES IDX 8 13 7 14 9 15 11 16 12 17 10 18 13 20 4 22 21 24 18 26
REMARK H PARENT 10 19 13 21 4 23 21 25 18 27
REMARK Flexibility Score: inf
ROOT
ATOM      1  C   UNL     1     -14.530  14.926 -26.221  1.00  0.00     0.184 A 
ATOM      2  C   UNL     1     -15.209  15.177 -25.015  1.00  0.00     0.208 A 
ATOM      3  C   UNL     1     -15.527  16.501 -24.678  1.00  0.00     0.238 A 
ATOM      4  O   UNL     1     -16.125  16.739 -23.594  1.00  0.00    -0.285 OA
ATOM      5  C   UNL     1     -15.181  17.546 -25.561  1.00  0.00     0.111 A 
ATOM      6  C   UNL     1     -15.469  18.907 -25.299  1.00  0.00     0.134 A 
ATOM      7  C   UNL     1     -15.100  19.888 -26.231  1.00  0.00     0.093 A 
ATOM      8  C   UNL     1     -14.450  19.533 -27.419  1.00  0.00     0.123 A 
ATOM      9  C   UNL     1     -14.163  18.192 -27.682  1.00  0.00     0.094 A 
ATOM     10  C   UNL     1     -14.522  17.200 -26.764  1.00  0.00     0.146 A 
ATOM     11  O   UNL     1     -14.234  15.932 -27.037  1.00  0.00    -0.451 OA
ENDROOT
BRANCH   1  12
ATOM     12  C   UNL     1     -14.156  13.557 -26.630  1.00  0.00     0.063 A 
ATOM     13  C   UNL     1     -14.687  11.547 -27.890  1.00  0.00     0.047 A 
ATOM     14  C   UNL     1     -15.015  12.841 -27.478  1.00  0.00     0.020 A 
ATOM     15  C   UNL     1     -13.492  10.956 -27.470  1.00  0.00     0.119 A 
ATOM     16  C   UNL     1     -12.617  11.671 -26.642  1.00  0.00     0.093 A 
ATOM     17  C   UNL     1     -12.935  12.973 -26.231  1.00  0.00     0.130 A 
BRANCH  15  18
ATOM     18  O   UNL     1     -13.181   9.663 -27.885  1.00  0.00    -0.508 OA
ATOM     19  H   UNL     1     -12.224   9.335 -27.922  1.00  0.00     0.293 HD
ENDBRANCH  15  18
BRANCH  17  20
ATOM     20  O   UNL     1     -12.033  13.694 -25.447  1.00  0.00    -0.507 OA
ATOM     21  H   UNL     1     -12.294  14.065 -24.540  1.00  0.00     0.293 HD
ENDBRANCH  17  20
ENDBRANCH   1  12
BRANCH   2  22
ATOM     22  O   UNL     1     -15.578  14.115 -24.185  1.00  0.00    -0.502 OA
ATOM     23  H   UNL     1     -16.525  14.000 -23.841  1.00  0.00     0.293 HD
ENDBRANCH   2  22
BRANCH   6  24
ATOM     24  O   UNL     1     -16.116  19.291 -24.124  1.00  0.00    -0.507 OA
ATOM     25  H   UNL     1     -17.099  19.095 -23.968  1.00  0.00     0.293 HD
ENDBRANCH   6  24
BRANCH   8  26
ATOM     26  O   UNL     1     -14.084  20.507 -28.346  1.00  0.00    -0.508 OA
ATOM     27  H   UNL     1     -13.988  21.481 -28.081  1.00  0.00     0.293 HD
ENDBRANCH   8  26
TORSDOF 6
ENDMDL
MODEL 8
REMARK VINA RESULT:    -6.228      4.721      6.456
REMARK INTER + INTRA:          -7.910
REMARK INTER:                  -7.523
REMARK INTRA:                  -0.387
REMARK UNBOUND:                -0.408
REMARK SMILES O=c1c(O)c(-c2ccc(O)cc2O)oc2cc(O)cc(O)c12
REMARK SMILES IDX 5 1 3 2 2 3 1 4 22 5 20 6 19 7 17 8 16 9 15 10 14 11 6 12
REMARK SMILES IDX 8 13 7 14 9 15 11 16 12 17 10 18 13 20 4 22 21 24 18 26
REMARK H PARENT 10 19 13 21 4 23 21 25 18 27
REMARK Flexibility Score: inf
ROOT
ATOM      1  C   UNL     1      -9.058   9.956 -38.551  1.00  0.00     0.184 A 
ATOM      2  C   UNL     1      -8.735   9.257 -39.727  1.00  0.00     0.208 A 
ATOM      3  C   UNL     1      -8.993   7.879 -39.789  1.00  0.00     0.238 A 
ATOM      4  O   UNL     1      -8.697   7.239 -40.834  1.00  0.00    -0.285 OA
ATOM      5  C   UNL     1      -9.588   7.232 -38.685  1.00  0.00     0.111 A 
ATOM      6  C   UNL     1      -9.885   5.847 -38.668  1.00  0.00     0.134 A 
ATOM      7  C   UNL     1     -10.485   5.279 -37.535  1.00  0.00     0.093 A 
ATOM      8  C   UNL     1     -10.794   6.068 -36.421  1.00  0.00     0.123 A 
ATOM      9  C   UNL     1     -10.502   7.434 -36.433  1.00  0.00     0.094 A 
ATOM     10  C   UNL     1      -9.903   8.018 -37.552  1.00  0.00     0.146 A 
ATOM     11  O   UNL     1      -9.632   9.319 -37.536  1.00  0.00    -0.451 OA
ENDROOT
BRANCH   1  12
ATOM     12  C   UNL     1      -8.802  11.405 -38.415  1.00  0.00     0.063 A 
ATOM     13  C   UNL     1      -7.200  13.228 -38.284  1.00  0.00     0.047 A 
ATOM     14  C   UNL     1      -7.476  11.864 -38.405  1.00  0.00     0.020 A 
ATOM     15  C   UNL     1      -8.244  14.152 -38.186  1.00  0.00     0.119 A 
ATOM     16  C   UNL     1      -9.571  13.706 -38.220  1.00  0.00     0.093 A 
ATOM     17  C   UNL     1      -9.857  12.339 -38.347  1.00  0.00     0.130 A 
BRANCH  15  18
ATOM     18  O   UNL     1      -7.953  15.508 -38.063  1.00  0.00    -0.508 OA
ATOM     19  H   UNL     1      -8.530  16.125 -37.504  1.00  0.00     0.293 HD
ENDBRANCH  15  18
BRANCH  17  20
ATOM     20  O   UNL     1     -11.183  11.912 -38.428  1.00  0.00    -0.507 OA
ATOM     21  H   UNL     1     -11.506  11.323 -39.188  1.00  0.00     0.293 HD
ENDBRANCH  17  20
ENDBRANCH   1  12
BRANCH   2  22
ATOM     22  O   UNL     1      -8.189   9.936 -40.820  1.00  0.00    -0.502 OA
ATOM     23  H   UNL     1      -7.454  10.627 -40.716  1.00  0.00     0.293 HD
ENDBRANCH   2  22
BRANCH   6  24
ATOM     24  O   UNL     1      -9.589   5.036 -39.765  1.00  0.00    -0.507 OA
ATOM     25  H   UNL     1      -8.744   5.163 -40.309  1.00  0.00     0.293 HD
ENDBRANCH   6  24
BRANCH   8  26
ATOM     26  O   UNL     1     -11.391   5.504 -35.296  1.00  0.00    -0.508 OA
ATOM     27  H   UNL     1     -11.881   6.073 -34.614  1.00  0.00     0.293 HD
ENDBRANCH   8  26
TORSDOF 6
ENDMDL
MODEL 9
REMARK VINA RESULT:    -6.198      4.641      6.174
REMARK INTER + INTRA:          -7.875
REMARK INTER:                  -7.470
REMARK INTRA:                  -0.405
REMARK UNBOUND:                -0.408
REMARK SMILES O=c1c(O)c(-c2ccc(O)cc2O)oc2cc(O)cc(O)c12
REMARK SMILES IDX 5 1 3 2 2 3 1 4 22 5 20 6 19 7 17 8 16 9 15 10 14 11 6 12
REMARK SMILES IDX 8 13 7 14 9 15 11 16 12 17 10 18 13 20 4 22 21 24 18 26
REMARK H PARENT 10 19 13 21 4 23 21 25 18 27
REMARK Flexibility Score: inf
ROOT
ATOM      1  C   UNL     1      -9.007   9.725 -38.862  1.00  0.00     0.184 A 
ATOM      2  C   UNL     1      -8.729   9.036 -40.055  1.00  0.00     0.208 A 
ATOM      3  C   UNL     1      -8.954   7.651 -40.108  1.00  0.00     0.238 A 
ATOM      4  O   UNL     1      -8.696   7.021 -41.169  1.00  0.00    -0.285 OA
ATOM      5  C   UNL     1      -9.472   6.988 -38.976  1.00  0.00     0.111 A 
ATOM      6  C   UNL     1      -9.731   5.596 -38.946  1.00  0.00     0.134 A 
ATOM      7  C   UNL     1     -10.255   5.011 -37.784  1.00  0.00     0.093 A 
ATOM      8  C   UNL     1     -10.525   5.790 -36.653  1.00  0.00     0.123 A 
ATOM      9  C   UNL     1     -10.270   7.163 -36.677  1.00  0.00     0.094 A 
ATOM     10  C   UNL     1      -9.747   7.764 -37.825  1.00  0.00     0.146 A 
ATOM     11  O   UNL     1      -9.510   9.072 -37.820  1.00  0.00    -0.451 OA
ENDROOT
BRANCH   1  12
ATOM     12  C   UNL     1      -8.783  11.180 -38.737  1.00  0.00     0.063 A 
ATOM     13  C   UNL     1      -9.694  13.433 -38.780  1.00  0.00     0.047 A 
ATOM     14  C   UNL     1      -9.870  12.053 -38.899  1.00  0.00     0.020 A 
ATOM     15  C   UNL     1      -8.433  13.959 -38.485  1.00  0.00     0.119 A 
ATOM     16  C   UNL     1      -7.347  13.095 -38.298  1.00  0.00     0.093 A 
ATOM     17  C   UNL     1      -7.516  11.707 -38.409  1.00  0.00     0.130 A 
BRANCH  15  18
ATOM     18  O   UNL     1      -8.272  15.338 -38.374  1.00  0.00    -0.508 OA
ATOM     19  H   UNL     1      -8.270  15.938 -39.189  1.00  0.00     0.293 HD
ENDBRANCH  15  18
BRANCH  17  20
ATOM     20  O   UNL     1      -6.438  10.854 -38.172  1.00  0.00    -0.507 OA
ATOM     21  H   UNL     1      -5.928  10.872 -37.295  1.00  0.00     0.293 HD
ENDBRANCH  17  20
ENDBRANCH   1  12
BRANCH   2  22
ATOM     22  O   UNL     1      -8.260   9.730 -41.174  1.00  0.00    -0.502 OA
ATOM     23  H   UNL     1      -8.699  10.581 -41.507  1.00  0.00     0.293 HD
ENDBRANCH   2  22
BRANCH   6  24
ATOM     24  O   UNL     1      -9.473   4.794 -40.059  1.00  0.00    -0.507 OA
ATOM     25  H   UNL     1      -9.432   3.783 -39.989  1.00  0.00     0.293 HD
ENDBRANCH   6  24
BRANCH   8  26
ATOM     26  O   UNL     1     -11.046   5.210 -35.499  1.00  0.00    -0.508 OA
ATOM     27  H   UNL     1     -11.822   4.558 -35.538  1.00  0.00     0.293 HD
ENDBRANCH   8  26
TORSDOF 6
ENDMDL
