MODEL 1
REMARK VINA RESULT:    -6.365      0.000      0.000
REMARK INTER + INTRA:         -10.564
REMARK INTER:                  -9.900
REMARK INTRA:                  -0.663
REMARK UNBOUND:                -0.663
REMARK SMILES COc1cc(CNC(=O)CCCCC=CC(C)C)ccc1O
REMARK SMILES IDX 11 1 12 2 13 3 14 4 15 5 16 6 17 7 18 8 10 9 8 10 9 11 7 12
REMARK SMILES IDX 6 14 5 15 4 16 19 17 3 18 20 19 21 20 2 21 1 22 22 23
REMARK H PARENT 7 13 22 24
REMARK Flexibility Score: inf
ROOT
ATOM      1  C   UNL     1      54.193  13.451  88.856  1.00  0.00     0.010 C 
ENDROOT
BRANCH   1   2
ATOM      2  C   UNL     1      54.087  14.837  88.193  1.00  0.00     0.005 C 
BRANCH   2   3
ATOM      3  C   UNL     1      52.804  15.038  87.366  1.00  0.00     0.027 C 
BRANCH   3   4
ATOM      4  C   UNL     1      52.584  13.936  86.358  1.00  0.00    -0.031 C 
ATOM      5  C   UNL     1      52.852  14.021  85.040  1.00  0.00    -0.028 C 
BRANCH   5   6
ATOM      6  C   UNL     1      53.425  15.237  84.338  1.00  0.00     0.005 C 
ATOM      7  C   UNL     1      52.307  16.241  84.046  1.00  0.00     0.012 C 
ATOM      8  C   UNL     1      54.111  14.805  83.039  1.00  0.00     0.012 C 
ENDBRANCH   5   6
ENDBRANCH   3   4
ENDBRANCH   2   3
ENDBRANCH   1   2
BRANCH   1   9
ATOM      9  C   UNL     1      55.094  13.460  90.097  1.00  0.00     0.100 C 
BRANCH   9  10
ATOM     10  C   UNL     1      54.311  13.074  91.316  1.00  0.00     0.220 C 
ATOM     11  O   UNL     1      54.275  13.857  92.303  1.00  0.00    -0.275 OA
ATOM     12  N   UNL     1      53.578  11.843  91.340  1.00  0.00    -0.352 N 
ATOM     13  H   UNL     1      53.571  11.240  90.486  1.00  0.00     0.163 HD
BRANCH  12  14
ATOM     14  C   UNL     1      52.837  11.392  92.516  1.00  0.00     0.151 C 
BRANCH  14  15
ATOM     15  C   UNL     1      52.912   9.894  92.638  1.00  0.00    -0.025 A 
ATOM     16  C   UNL     1      52.025   9.212  93.489  1.00  0.00     0.056 A 
ATOM     17  C   UNL     1      53.843   9.163  91.884  1.00  0.00     0.009 A 
ATOM     18  C   UNL     1      52.066   7.807  93.590  1.00  0.00     0.160 A 
ATOM     19  C   UNL     1      53.890   7.771  91.983  1.00  0.00     0.050 A 
ATOM     20  C   UNL     1      53.004   7.091  92.831  1.00  0.00     0.157 A 
BRANCH  18  21
ATOM     21  O   UNL     1      51.194   7.091  94.425  1.00  0.00    -0.493 OA
ATOM     22  C   UNL     1      51.313   7.018  95.843  1.00  0.00     0.278 C 
ENDBRANCH  18  21
BRANCH  20  23
ATOM     23  O   UNL     1      53.050   5.701  92.927  1.00  0.00    -0.504 OA
ATOM     24  H   UNL     1      53.397   5.129  92.166  1.00  0.00     0.293 HD
ENDBRANCH  20  23
ENDBRANCH  14  15
ENDBRANCH  12  14
ENDBRANCH   9  10
ENDBRANCH   1   9
TORSDOF 10
ENDMDL
MODEL 2
REMARK VINA RESULT:    -6.309      1.497      1.875
REMARK INTER + INTRA:         -10.476
REMARK INTER:                  -9.591
REMARK INTRA:                  -0.885
REMARK UNBOUND:                -0.663
REMARK SMILES COc1cc(CNC(=O)CCCCC=CC(C)C)ccc1O
REMARK SMILES IDX 11 1 12 2 13 3 14 4 15 5 16 6 17 7 18 8 10 9 8 10 9 11 7 12
REMARK SMILES IDX 6 14 5 15 4 16 19 17 3 18 20 19 21 20 2 21 1 22 22 23
REMARK H PARENT 7 13 22 24
REMARK Flexibility Score: inf
ROOT
ATOM      1  C   UNL     1      54.859  14.786  88.470  1.00  0.00     0.010 C 
ENDROOT
BRANCH   1   2
ATOM      2  C   UNL     1      53.671  15.762  88.557  1.00  0.00     0.005 C 
BRANCH   2   3
ATOM      3  C   UNL     1      52.860  15.877  87.253  1.00  0.00     0.027 C 
BRANCH   3   4
ATOM      4  C   UNL     1      52.716  14.553  86.541  1.00  0.00    -0.031 C 
ATOM      5  C   UNL     1      52.957  14.342  85.232  1.00  0.00    -0.028 C 
BRANCH   5   6
ATOM      6  C   UNL     1      53.422  15.395  84.245  1.00  0.00     0.005 C 
ATOM      7  C   UNL     1      52.234  16.262  83.816  1.00  0.00     0.012 C 
ATOM      8  C   UNL     1      54.058  14.716  83.029  1.00  0.00     0.012 C 
ENDBRANCH   5   6
ENDBRANCH   3   4
ENDBRANCH   2   3
ENDBRANCH   1   2
BRANCH   1   9
ATOM      9  C   UNL     1      55.044  13.967  89.753  1.00  0.00     0.100 C 
BRANCH   9  10
ATOM     10  C   UNL     1      54.054  12.843  89.804  1.00  0.00     0.220 C 
ATOM     11  O   UNL     1      53.046  12.937  90.555  1.00  0.00    -0.275 OA
ATOM     12  N   UNL     1      54.233  11.688  88.974  1.00  0.00    -0.352 N 
ATOM     13  H   UNL     1      55.042  11.660  88.312  1.00  0.00     0.163 HD
BRANCH  12  14
ATOM     14  C   UNL     1      53.328  10.541  89.016  1.00  0.00     0.151 C 
BRANCH  14  15
ATOM     15  C   UNL     1      53.736   9.593  90.112  1.00  0.00    -0.025 A 
ATOM     16  C   UNL     1      52.898   9.401  91.223  1.00  0.00     0.056 A 
ATOM     17  C   UNL     1      54.936   8.872  90.020  1.00  0.00     0.009 A 
ATOM     18  C   UNL     1      53.255   8.494  92.241  1.00  0.00     0.160 A 
ATOM     19  C   UNL     1      55.296   7.975  91.027  1.00  0.00     0.050 A 
ATOM     20  C   UNL     1      54.460   7.783  92.136  1.00  0.00     0.157 A 
BRANCH  18  21
ATOM     21  O   UNL     1      52.443   8.272  93.365  1.00  0.00    -0.493 OA
ATOM     22  C   UNL     1      51.314   9.068  93.714  1.00  0.00     0.278 C 
ENDBRANCH  18  21
BRANCH  20  23
ATOM     23  O   UNL     1      54.819   6.885  93.140  1.00  0.00    -0.504 OA
ATOM     24  H   UNL     1      55.640   7.033  93.715  1.00  0.00     0.293 HD
ENDBRANCH  20  23
ENDBRANCH  14  15
ENDBRANCH  12  14
ENDBRANCH   9  10
ENDBRANCH   1   9
TORSDOF 10
ENDMDL
MODEL 3
REMARK VINA RESULT:    -6.303      1.377      2.042
REMARK INTER + INTRA:         -10.467
REMARK INTER:                  -9.758
REMARK INTRA:                  -0.709
REMARK UNBOUND:                -0.663
REMARK SMILES COc1cc(CNC(=O)CCCCC=CC(C)C)ccc1O
REMARK SMILES IDX 11 1 12 2 13 3 14 4 15 5 16 6 17 7 18 8 10 9 8 10 9 11 7 12
REMARK SMILES IDX 6 14 5 15 4 16 19 17 3 18 20 19 21 20 2 21 1 22 22 23
REMARK H PARENT 7 13 22 24
REMARK Flexibility Score: inf
ROOT
ATOM      1  C   UNL     1      54.634  14.577  88.392  1.00  0.00     0.010 C 
ENDROOT
BRANCH   1   2
ATOM      2  C   UNL     1      53.823  15.878  88.251  1.00  0.00     0.005 C 
BRANCH   2   3
ATOM      3  C   UNL     1      52.681  15.794  87.221  1.00  0.00     0.027 C 
BRANCH   3   4
ATOM      4  C   UNL     1      52.660  14.477  86.484  1.00  0.00    -0.031 C 
ATOM      5  C   UNL     1      52.982  14.305  85.186  1.00  0.00    -0.028 C 
BRANCH   5   6
ATOM      6  C   UNL     1      53.426  15.403  84.240  1.00  0.00     0.005 C 
ATOM      7  C   UNL     1      52.222  16.262  83.843  1.00  0.00     0.012 C 
ATOM      8  C   UNL     1      54.074  14.783  83.000  1.00  0.00     0.012 C 
ENDBRANCH   5   6
ENDBRANCH   3   4
ENDBRANCH   2   3
ENDBRANCH   1   2
BRANCH   1   9
ATOM      9  C   UNL     1      54.533  13.969  89.796  1.00  0.00     0.100 C 
BRANCH   9  10
ATOM     10  C   UNL     1      54.300  12.491  89.711  1.00  0.00     0.220 C 
ATOM     11  O   UNL     1      53.697  12.015  88.711  1.00  0.00    -0.275 OA
ATOM     12  N   UNL     1      54.794  11.623  90.740  1.00  0.00    -0.352 N 
ATOM     13  H   UNL     1      55.346  12.034  91.527  1.00  0.00     0.163 HD
BRANCH  12  14
ATOM     14  C   UNL     1      54.555  10.182  90.734  1.00  0.00     0.151 C 
BRANCH  14  15
ATOM     15  C   UNL     1      53.613   9.804  91.845  1.00  0.00    -0.025 A 
ATOM     16  C   UNL     1      53.368   8.449  92.129  1.00  0.00     0.056 A 
ATOM     17  C   UNL     1      52.999  10.794  92.627  1.00  0.00     0.009 A 
ATOM     18  C   UNL     1      52.511   8.083  93.186  1.00  0.00     0.160 A 
ATOM     19  C   UNL     1      52.147  10.436  93.673  1.00  0.00     0.050 A 
ATOM     20  C   UNL     1      51.902   9.085  93.956  1.00  0.00     0.157 A 
BRANCH  18  21
ATOM     21  O   UNL     1      52.244   6.741  93.502  1.00  0.00    -0.493 OA
ATOM     22  C   UNL     1      51.163   5.985  92.963  1.00  0.00     0.278 C 
ENDBRANCH  18  21
BRANCH  20  23
ATOM     23  O   UNL     1      51.053   8.728  95.003  1.00  0.00    -0.504 OA
ATOM     24  H   UNL     1      50.055   8.903  94.959  1.00  0.00     0.293 HD
ENDBRANCH  20  23
ENDBRANCH  14  15
ENDBRANCH  12  14
ENDBRANCH   9  10
ENDBRANCH   1   9
TORSDOF 10
ENDMDL
MODEL 4
REMARK VINA RESULT:    -6.254      1.103      2.288
REMARK INTER + INTRA:         -10.391
REMARK INTER:                  -9.631
REMARK INTRA:                  -0.760
REMARK UNBOUND:                -0.663
REMARK SMILES COc1cc(CNC(=O)CCCCC=CC(C)C)ccc1O
REMARK SMILES IDX 11 1 12 2 13 3 14 4 15 5 16 6 17 7 18 8 10 9 8 10 9 11 7 12
REMARK SMILES IDX 6 14 5 15 4 16 19 17 3 18 20 19 21 20 2 21 1 22 22 23
REMARK H PARENT 7 13 22 24
REMARK Flexibility Score: inf
ROOT
ATOM      1  C   UNL     1      54.441  13.934  88.816  1.00  0.00     0.010 C 
ENDROOT
BRANCH   1   2
ATOM      2  C   UNL     1      54.278  15.365  88.271  1.00  0.00     0.005 C 
BRANCH   2   3
ATOM      3  C   UNL     1      53.054  15.549  87.354  1.00  0.00     0.027 C 
BRANCH   3   4
ATOM      4  C   UNL     1      52.771  14.327  86.514  1.00  0.00    -0.031 C 
ATOM      5  C   UNL     1      52.943  14.240  85.179  1.00  0.00    -0.028 C 
BRANCH   5   6
ATOM      6  C   UNL     1      53.458  15.354  84.288  1.00  0.00     0.005 C 
ATOM      7  C   UNL     1      52.302  16.281  83.898  1.00  0.00     0.012 C 
ATOM      8  C   UNL     1      54.110  14.754  83.040  1.00  0.00     0.012 C 
ENDBRANCH   5   6
ENDBRANCH   3   4
ENDBRANCH   2   3
ENDBRANCH   1   2
BRANCH   1   9
ATOM      9  C   UNL     1      55.318  13.879  90.072  1.00  0.00     0.100 C 
BRANCH   9  10
ATOM     10  C   UNL     1      54.519  13.409  91.250  1.00  0.00     0.220 C 
ATOM     11  O   UNL     1      54.723  13.922  92.383  1.00  0.00    -0.275 OA
ATOM     12  N   UNL     1      53.504  12.411  91.078  1.00  0.00    -0.352 N 
ATOM     13  H   UNL     1      53.309  12.046  90.118  1.00  0.00     0.163 HD
BRANCH  12  14
ATOM     14  C   UNL     1      52.726  11.881  92.196  1.00  0.00     0.151 C 
BRANCH  14  15
ATOM     15  C   UNL     1      52.959  10.400  92.337  1.00  0.00    -0.025 A 
ATOM     16  C   UNL     1      53.958   9.770  91.576  1.00  0.00     0.056 A 
ATOM     17  C   UNL     1      52.205   9.644  93.248  1.00  0.00     0.009 A 
ATOM     18  C   UNL     1      54.204   8.389  91.720  1.00  0.00     0.160 A 
ATOM     19  C   UNL     1      52.443   8.276  93.392  1.00  0.00     0.050 A 
ATOM     20  C   UNL     1      53.440   7.647  92.633  1.00  0.00     0.157 A 
BRANCH  18  21
ATOM     21  O   UNL     1      55.195   7.724  90.980  1.00  0.00    -0.493 OA
ATOM     22  C   UNL     1      55.530   8.024  89.629  1.00  0.00     0.278 C 
ENDBRANCH  18  21
BRANCH  20  23
ATOM     23  O   UNL     1      53.679   6.281  92.780  1.00  0.00    -0.504 OA
ATOM     24  H   UNL     1      53.292   5.603  92.135  1.00  0.00     0.293 HD
ENDBRANCH  20  23
ENDBRANCH  14  15
ENDBRANCH  12  14
ENDBRANCH   9  10
ENDBRANCH   1   9
TORSDOF 10
ENDMDL
MODEL 5
REMARK VINA RESULT:    -6.106      1.300      2.508
REMARK INTER + INTRA:         -10.161
REMARK INTER:                  -9.399
REMARK INTRA:                  -0.762
REMARK UNBOUND:                -0.663
REMARK SMILES COc1cc(CNC(=O)CCCCC=CC(C)C)ccc1O
REMARK SMILES IDX 11 1 12 2 13 3 14 4 15 5 16 6 17 7 18 8 10 9 8 10 9 11 7 12
REMARK SMILES IDX 6 14 5 15 4 16 19 17 3 18 20 19 21 20 2 21 1 22 22 23
REMARK H PARENT 7 13 22 24
REMARK Flexibility Score: inf
ROOT
ATOM      1  C   UNL     1      54.458  12.901  89.973  1.00  0.00     0.010 C 
ENDROOT
BRANCH   1   2
ATOM      2  C   UNL     1      53.905  13.368  88.613  1.00  0.00     0.005 C 
BRANCH   2   3
ATOM      3  C   UNL     1      54.297  14.810  88.241  1.00  0.00     0.027 C 
BRANCH   3   4
ATOM      4  C   UNL     1      53.105  15.657  87.867  1.00  0.00    -0.031 C 
ATOM      5  C   UNL     1      52.584  15.768  86.629  1.00  0.00    -0.028 C 
BRANCH   5   6
ATOM      6  C   UNL     1      53.102  15.056  85.394  1.00  0.00     0.005 C 
ATOM      7  C   UNL     1      52.724  15.852  84.141  1.00  0.00     0.012 C 
ATOM      8  C   UNL     1      52.514  13.644  85.330  1.00  0.00     0.012 C 
ENDBRANCH   5   6
ENDBRANCH   3   4
ENDBRANCH   2   3
ENDBRANCH   1   2
BRANCH   1   9
ATOM      9  C   UNL     1      53.829  13.651  91.153  1.00  0.00     0.100 C 
BRANCH   9  10
ATOM     10  C   UNL     1      52.724  12.840  91.760  1.00  0.00     0.220 C 
ATOM     11  O   UNL     1      51.600  12.798  91.189  1.00  0.00    -0.275 OA
ATOM     12  N   UNL     1      52.956  12.088  92.958  1.00  0.00    -0.352 N 
ATOM     13  H   UNL     1      53.914  12.088  93.378  1.00  0.00     0.163 HD
BRANCH  12  14
ATOM     14  C   UNL     1      51.905  11.319  93.620  1.00  0.00     0.151 C 
BRANCH  14  15
ATOM     15  C   UNL     1      52.156   9.844  93.457  1.00  0.00    -0.025 A 
ATOM     16  C   UNL     1      53.163   9.394  92.586  1.00  0.00     0.056 A 
ATOM     17  C   UNL     1      51.413   8.909  94.193  1.00  0.00     0.009 A 
ATOM     18  C   UNL     1      53.427   8.017  92.447  1.00  0.00     0.160 A 
ATOM     19  C   UNL     1      51.668   7.543  94.057  1.00  0.00     0.050 A 
ATOM     20  C   UNL     1      52.673   7.094  93.188  1.00  0.00     0.157 A 
BRANCH  18  21
ATOM     21  O   UNL     1      54.427   7.529  91.590  1.00  0.00    -0.493 OA
ATOM     22  C   UNL     1      55.219   8.342  90.730  1.00  0.00     0.278 C 
ENDBRANCH  18  21
BRANCH  20  23
ATOM     23  O   UNL     1      52.930   5.730  93.055  1.00  0.00    -0.504 OA
ATOM     24  H   UNL     1      53.709   5.289  93.530  1.00  0.00     0.293 HD
ENDBRANCH  20  23
ENDBRANCH  14  15
ENDBRANCH  12  14
ENDBRANCH   9  10
ENDBRANCH   1   9
TORSDOF 10
ENDMDL
MODEL 6
REMARK VINA RESULT:    -6.075      2.606      3.499
REMARK INTER + INTRA:         -10.112
REMARK INTER:                  -9.061
REMARK INTRA:                  -1.051
REMARK UNBOUND:                -0.663
REMARK SMILES COc1cc(CNC(=O)CCCCC=CC(C)C)ccc1O
REMARK SMILES IDX 11 1 12 2 13 3 14 4 15 5 16 6 17 7 18 8 10 9 8 10 9 11 7 12
REMARK SMILES IDX 6 14 5 15 4 16 19 17 3 18 20 19 21 20 2 21 1 22 22 23
REMARK H PARENT 7 13 22 24
REMARK Flexibility Score: inf
ROOT
ATOM      1  C   UNL     1      52.656  16.633  88.580  1.00  0.00     0.010 C 
ENDROOT
BRANCH   1   2
ATOM      2  C   UNL     1      52.433  15.990  87.198  1.00  0.00     0.005 C 
BRANCH   2   3
ATOM      3  C   UNL     1      53.378  14.812  86.897  1.00  0.00     0.027 C 
BRANCH   3   4
ATOM      4  C   UNL     1      52.811  13.862  85.870  1.00  0.00    -0.031 C 
ATOM      5  C   UNL     1      52.852  14.041  84.534  1.00  0.00    -0.028 C 
BRANCH   5   6
ATOM      6  C   UNL     1      53.479  15.228  83.828  1.00  0.00     0.005 C 
ATOM      7  C   UNL     1      52.447  16.349  83.682  1.00  0.00     0.012 C 
ATOM      8  C   UNL     1      53.998  14.793  82.455  1.00  0.00     0.012 C 
ENDBRANCH   5   6
ENDBRANCH   3   4
ENDBRANCH   2   3
ENDBRANCH   1   2
BRANCH   1   9
ATOM      9  C   UNL     1      51.478  16.403  89.533  1.00  0.00     0.100 C 
BRANCH   9  10
ATOM     10  C   UNL     1      51.823  15.359  90.552  1.00  0.00     0.220 C 
ATOM     11  O   UNL     1      51.633  15.600  91.775  1.00  0.00    -0.275 OA
ATOM     12  N   UNL     1      52.329  14.085  90.134  1.00  0.00    -0.352 N 
ATOM     13  H   UNL     1      52.419  13.885  89.111  1.00  0.00     0.163 HD
BRANCH  12  14
ATOM     14  C   UNL     1      52.727  13.048  91.083  1.00  0.00     0.151 C 
BRANCH  14  15
ATOM     15  C   UNL     1      53.301  11.863  90.352  1.00  0.00    -0.025 A 
ATOM     16  C   UNL     1      54.017  10.881  91.057  1.00  0.00     0.056 A 
ATOM     17  C   UNL     1      53.099  11.712  88.971  1.00  0.00     0.009 A 
ATOM     18  C   UNL     1      54.534   9.753  90.388  1.00  0.00     0.160 A 
ATOM     19  C   UNL     1      53.611  10.598  88.304  1.00  0.00     0.050 A 
ATOM     20  C   UNL     1      54.327   9.618  89.008  1.00  0.00     0.157 A 
BRANCH  18  21
ATOM     21  O   UNL     1      55.253   8.750  91.059  1.00  0.00    -0.493 OA
ATOM     22  C   UNL     1      54.657   7.690  91.800  1.00  0.00     0.278 C 
ENDBRANCH  18  21
BRANCH  20  23
ATOM     23  O   UNL     1      54.835   8.504  88.341  1.00  0.00    -0.504 OA
ATOM     24  H   UNL     1      55.787   8.483  87.994  1.00  0.00     0.293 HD
ENDBRANCH  20  23
ENDBRANCH  14  15
ENDBRANCH  12  14
ENDBRANCH   9  10
ENDBRANCH   1   9
TORSDOF 10
ENDMDL
MODEL 7
REMARK VINA RESULT:    -5.965      2.379      7.960
REMARK INTER + INTRA:          -9.942
REMARK INTER:                  -8.438
REMARK INTRA:                  -1.504
REMARK UNBOUND:                -0.663
REMARK SMILES COc1cc(CNC(=O)CCCCC=CC(C)C)ccc1O
REMARK SMILES IDX 11 1 12 2 13 3 14 4 15 5 16 6 17 7 18 8 10 9 8 10 9 11 7 12
REMARK SMILES IDX 6 14 5 15 4 16 19 17 3 18 20 19 21 20 2 21 1 22 22 23
REMARK H PARENT 7 13 22 24
REMARK Flexibility Score: inf
ROOT
ATOM      1  C   UNL     1      51.415   8.771  93.450  1.00  0.00     0.010 C 
ENDROOT
BRANCH   1   2
ATOM      2  C   UNL     1      52.260   7.515  93.733  1.00  0.00     0.005 C 
BRANCH   2   3
ATOM      3  C   UNL     1      52.891   6.890  92.474  1.00  0.00     0.027 C 
BRANCH   3   4
ATOM      4  C   UNL     1      54.389   7.070  92.425  1.00  0.00    -0.031 C 
ATOM      5  C   UNL     1      55.047   7.904  91.595  1.00  0.00    -0.028 C 
BRANCH   5   6
ATOM      6  C   UNL     1      54.398   8.810  90.567  1.00  0.00     0.005 C 
ATOM      7  C   UNL     1      54.586   8.222  89.166  1.00  0.00     0.012 C 
ATOM      8  C   UNL     1      55.017  10.208  90.650  1.00  0.00     0.012 C 
ENDBRANCH   5   6
ENDBRANCH   3   4
ENDBRANCH   2   3
ENDBRANCH   1   2
BRANCH   1   9
ATOM      9  C   UNL     1      52.221  10.067  93.591  1.00  0.00     0.100 C 
BRANCH   9  10
ATOM     10  C   UNL     1      51.815  11.054  92.538  1.00  0.00     0.220 C 
ATOM     11  O   UNL     1      51.002  10.703  91.640  1.00  0.00    -0.275 OA
ATOM     12  N   UNL     1      52.317  12.396  92.577  1.00  0.00    -0.352 N 
ATOM     13  H   UNL     1      52.940  12.681  93.366  1.00  0.00     0.163 HD
BRANCH  12  14
ATOM     14  C   UNL     1      51.994  13.385  91.551  1.00  0.00     0.151 C 
BRANCH  14  15
ATOM     15  C   UNL     1      53.222  13.728  90.751  1.00  0.00    -0.025 A 
ATOM     16  C   UNL     1      53.095  14.165  89.421  1.00  0.00     0.056 A 
ATOM     17  C   UNL     1      54.498  13.645  91.331  1.00  0.00     0.009 A 
ATOM     18  C   UNL     1      54.236  14.516  88.671  1.00  0.00     0.160 A 
ATOM     19  C   UNL     1      55.630  13.988  90.591  1.00  0.00     0.050 A 
ATOM     20  C   UNL     1      55.504  14.425  89.264  1.00  0.00     0.157 A 
BRANCH  18  21
ATOM     21  O   UNL     1      54.149  14.961  87.342  1.00  0.00    -0.493 OA
ATOM     22  C   UNL     1      52.931  15.112  86.619  1.00  0.00     0.278 C 
ENDBRANCH  18  21
BRANCH  20  23
ATOM     23  O   UNL     1      56.635  14.771  88.527  1.00  0.00    -0.504 OA
ATOM     24  H   UNL     1      57.546  14.859  88.963  1.00  0.00     0.293 HD
ENDBRANCH  20  23
ENDBRANCH  14  15
ENDBRANCH  12  14
ENDBRANCH   9  10
ENDBRANCH   1   9
TORSDOF 10
ENDMDL
MODEL 8
REMARK VINA RESULT:    -5.941      1.463      2.081
REMARK INTER + INTRA:          -9.904
REMARK INTER:                  -8.834
REMARK INTRA:                  -1.069
REMARK UNBOUND:                -0.663
REMARK SMILES COc1cc(CNC(=O)CCCCC=CC(C)C)ccc1O
REMARK SMILES IDX 11 1 12 2 13 3 14 4 15 5 16 6 17 7 18 8 10 9 8 10 9 11 7 12
REMARK SMILES IDX 6 14 5 15 4 16 19 17 3 18 20 19 21 20 2 21 1 22 22 23
REMARK H PARENT 7 13 22 24
REMARK Flexibility Score: inf
ROOT
ATOM      1  C   UNL     1      54.895  12.725  90.595  1.00  0.00     0.010 C 
ENDROOT
BRANCH   1   2
ATOM      2  C   UNL     1      54.137  11.949  89.502  1.00  0.00     0.005 C 
BRANCH   2   3
ATOM      3  C   UNL     1      53.811  12.787  88.252  1.00  0.00     0.027 C 
BRANCH   3   4
ATOM      4  C   UNL     1      52.351  13.164  88.171  1.00  0.00    -0.031 C 
ATOM      5  C   UNL     1      51.876  14.360  87.772  1.00  0.00    -0.028 C 
BRANCH   5   6
ATOM      6  C   UNL     1      52.724  15.537  87.329  1.00  0.00     0.005 C 
ATOM      7  C   UNL     1      52.205  16.823  87.981  1.00  0.00     0.012 C 
ATOM      8  C   UNL     1      52.684  15.655  85.803  1.00  0.00     0.012 C 
ENDBRANCH   5   6
ENDBRANCH   3   4
ENDBRANCH   2   3
ENDBRANCH   1   2
BRANCH   1   9
ATOM      9  C   UNL     1      53.981  13.665  91.391  1.00  0.00     0.100 C 
BRANCH   9  10
ATOM     10  C   UNL     1      52.862  12.895  92.025  1.00  0.00     0.220 C 
ATOM     11  O   UNL     1      51.693  13.007  91.564  1.00  0.00    -0.275 OA
ATOM     12  N   UNL     1      53.127  12.009  93.120  1.00  0.00    -0.352 N 
ATOM     13  H   UNL     1      54.114  11.884  93.443  1.00  0.00     0.163 HD
BRANCH  12  14
ATOM     14  C   UNL     1      52.070  11.270  93.807  1.00  0.00     0.151 C 
BRANCH  14  15
ATOM     15  C   UNL     1      52.254   9.789  93.608  1.00  0.00    -0.025 A 
ATOM     16  C   UNL     1      51.591   8.879  94.448  1.00  0.00     0.056 A 
ATOM     17  C   UNL     1      53.061   9.305  92.566  1.00  0.00     0.009 A 
ATOM     18  C   UNL     1      51.732   7.490  94.253  1.00  0.00     0.160 A 
ATOM     19  C   UNL     1      53.206   7.930  92.372  1.00  0.00     0.050 A 
ATOM     20  C   UNL     1      52.544   7.022  93.210  1.00  0.00     0.157 A 
BRANCH  18  21
ATOM     21  O   UNL     1      51.083   6.550  95.070  1.00  0.00    -0.493 OA
ATOM     22  C   UNL     1      50.875   6.705  96.471  1.00  0.00     0.278 C 
ENDBRANCH  18  21
BRANCH  20  23
ATOM     23  O   UNL     1      52.688   5.649  93.013  1.00  0.00    -0.504 OA
ATOM     24  H   UNL     1      53.587   5.191  93.108  1.00  0.00     0.293 HD
ENDBRANCH  20  23
ENDBRANCH  14  15
ENDBRANCH  12  14
ENDBRANCH   9  10
ENDBRANCH   1   9
TORSDOF 10
ENDMDL
MODEL 9
REMARK VINA RESULT:    -5.901      2.591      9.146
REMARK INTER + INTRA:          -9.842
REMARK INTER:                  -8.959
REMARK INTRA:                  -0.883
REMARK UNBOUND:                -0.663
REMARK SMILES COc1cc(CNC(=O)CCCCC=CC(C)C)ccc1O
REMARK SMILES IDX 11 1 12 2 13 3 14 4 15 5 16 6 17 7 18 8 10 9 8 10 9 11 7 12
REMARK SMILES IDX 6 14 5 15 4 16 19 17 3 18 20 19 21 20 2 21 1 22 22 23
REMARK H PARENT 7 13 22 24
REMARK Flexibility Score: inf
ROOT
ATOM      1  C   UNL     1      53.005  10.781  92.753  1.00  0.00     0.010 C 
ENDROOT
BRANCH   1   2
ATOM      2  C   UNL     1      51.999  10.754  93.919  1.00  0.00     0.005 C 
BRANCH   2   3
ATOM      3  C   UNL     1      50.908   9.677  93.778  1.00  0.00     0.027 C 
BRANCH   3   4
ATOM      4  C   UNL     1      51.138   8.496  94.690  1.00  0.00    -0.031 C 
ATOM      5  C   UNL     1      51.608   7.293  94.305  1.00  0.00    -0.028 C 
BRANCH   5   6
ATOM      6  C   UNL     1      51.994   6.915  92.887  1.00  0.00     0.005 C 
ATOM      7  C   UNL     1      51.404   5.546  92.537  1.00  0.00     0.012 C 
ATOM      8  C   UNL     1      53.520   6.891  92.759  1.00  0.00     0.012 C 
ENDBRANCH   5   6
ENDBRANCH   3   4
ENDBRANCH   2   3
ENDBRANCH   1   2
BRANCH   1   9
ATOM      9  C   UNL     1      52.915  12.071  91.928  1.00  0.00     0.100 C 
BRANCH   9  10
ATOM     10  C   UNL     1      53.622  11.903  90.617  1.00  0.00     0.220 C 
ATOM     11  O   UNL     1      54.866  11.695  90.605  1.00  0.00    -0.275 OA
ATOM     12  N   UNL     1      52.882  11.942  89.390  1.00  0.00    -0.352 N 
ATOM     13  H   UNL     1      51.843  12.053  89.427  1.00  0.00     0.163 HD
BRANCH  12  14
ATOM     14  C   UNL     1      53.524  11.833  88.081  1.00  0.00     0.151 C 
BRANCH  14  15
ATOM     15  C   UNL     1      53.140  13.001  87.213  1.00  0.00    -0.025 A 
ATOM     16  C   UNL     1      52.899  14.258  87.793  1.00  0.00     0.056 A 
ATOM     17  C   UNL     1      53.053  12.856  85.820  1.00  0.00     0.009 A 
ATOM     18  C   UNL     1      52.568  15.367  86.987  1.00  0.00     0.160 A 
ATOM     19  C   UNL     1      52.722  13.949  85.018  1.00  0.00     0.050 A 
ATOM     20  C   UNL     1      52.481  15.204  85.597  1.00  0.00     0.157 A 
BRANCH  18  21
ATOM     21  O   UNL     1      52.322  16.639  87.529  1.00  0.00    -0.493 OA
ATOM     22  C   UNL     1      52.004  16.886  88.895  1.00  0.00     0.278 C 
ENDBRANCH  18  21
BRANCH  20  23
ATOM     23  O   UNL     1      52.154  16.297  84.795  1.00  0.00    -0.504 OA
ATOM     24  H   UNL     1      52.847  16.752  84.212  1.00  0.00     0.293 HD
ENDBRANCH  20  23
ENDBRANCH  14  15
ENDBRANCH  12  14
ENDBRANCH   9  10
ENDBRANCH   1   9
TORSDOF 10
ENDMDL
