MODEL 1
REMARK VINA RESULT:    -3.414      0.000      0.000
REMARK INTER + INTRA:          -5.858
REMARK INTER:                  -4.612
REMARK INTRA:                  -1.246
REMARK UNBOUND:                -1.246
REMARK SMILES O=c1c(-c2ccc(O)cc2)coc2c([C@@H]3O[C@@H](CO)[C@H](O)[C@@H](O)[C@@H]3O)c(O)ccc12
REMARK SMILES IDX 3 1 11 2 12 3 13 4 30 5 2 6 1 7 29 8 28 9 26 10 14 11 4 12
REMARK SMILES IDX 5 13 6 14 7 15 10 16 9 17 8 18 15 20 24 21 16 22 22 23 17 24
REMARK SMILES IDX 20 25 25 26 23 28 18 30 19 31 21 33 27 35
REMARK H PARENT 8 19 25 27 23 29 19 32 21 34 27 36
REMARK Flexibility Score: inf
ROOT
ATOM      1  C   UNL     1       2.546  -3.697  19.049  1.00  0.00     0.065 A 
ATOM      2  C   UNL     1       3.019  -2.385  18.909  1.00  0.00     0.208 A 
ATOM      3  O   UNL     1       4.153  -2.004  19.484  1.00  0.00    -0.463 OA
ATOM      4  C   UNL     1       4.908  -2.818  20.219  1.00  0.00     0.147 A 
ATOM      5  C   UNL     1       4.498  -4.157  20.422  1.00  0.00     0.066 A 
ATOM      6  C   UNL     1       3.300  -4.593  19.829  1.00  0.00     0.200 A 
ATOM      7  O   UNL     1       2.892  -5.774  20.011  1.00  0.00    -0.288 OA
ATOM      8  C   UNL     1       5.284  -5.009  21.212  1.00  0.00     0.020 A 
ATOM      9  C   UNL     1       6.453  -4.537  21.803  1.00  0.00     0.047 A 
ATOM     10  C   UNL     1       6.868  -3.213  21.613  1.00  0.00     0.125 A 
ATOM     11  C   UNL     1       6.108  -2.341  20.796  1.00  0.00     0.069 A 
ENDROOT
BRANCH   1  12
ATOM     12  C   UNL     1       1.279  -4.102  18.390  1.00  0.00    -0.011 A 
ATOM     13  C   UNL     1       1.281  -4.591  17.071  1.00  0.00     0.013 A 
ATOM     14  C   UNL     1       0.084  -4.962  16.452  1.00  0.00     0.047 A 
ATOM     15  C   UNL     1      -1.129  -4.845  17.138  1.00  0.00     0.115 A 
ATOM     16  C   UNL     1       0.055  -3.981  19.071  1.00  0.00     0.013 A 
ATOM     17  C   UNL     1      -1.141  -4.354  18.450  1.00  0.00     0.047 A 
BRANCH  15  18
ATOM     18  O   UNL     1      -2.315  -5.220  16.509  1.00  0.00    -0.508 OA
ATOM     19  H   UNL     1      -3.193  -5.252  17.012  1.00  0.00     0.293 HD
ENDBRANCH  15  18
ENDBRANCH   1  12
BRANCH  11  20
ATOM     20  C   UNL     1       6.511  -0.884  20.586  1.00  0.00     0.188 C 
ATOM     21  C   UNL     1       5.945   0.002  21.721  1.00  0.00     0.179 C 
ATOM     22  O   UNL     1       7.923  -0.764  20.486  1.00  0.00    -0.362 OA
ATOM     23  C   UNL     1       6.350   1.476  21.512  1.00  0.00     0.177 C 
ATOM     24  C   UNL     1       8.344   0.557  20.167  1.00  0.00     0.176 C 
ATOM     25  C   UNL     1       7.852   1.616  21.192  1.00  0.00     0.177 C 
BRANCH  21  26
ATOM     26  O   UNL     1       6.329  -0.454  22.996  1.00  0.00    -0.387 OA
ATOM     27  H   UNL     1       5.547  -0.892  23.418  1.00  0.00     0.211 HD
ENDBRANCH  21  26
BRANCH  23  28
ATOM     28  O   UNL     1       5.598   2.036  20.465  1.00  0.00    -0.387 OA
ATOM     29  H   UNL     1       5.849   1.553  19.636  1.00  0.00     0.211 HD
ENDBRANCH  23  28
BRANCH  24  30
ATOM     30  C   UNL     1       8.053   0.941  18.702  1.00  0.00     0.191 C 
BRANCH  30  31
ATOM     31  O   UNL     1       7.950   2.334  18.591  1.00  0.00    -0.394 OA
ATOM     32  H   UNL     1       7.687   2.663  19.489  1.00  0.00     0.210 HD
ENDBRANCH  30  31
ENDBRANCH  24  30
BRANCH  25  33
ATOM     33  O   UNL     1       8.589   1.500  22.384  1.00  0.00    -0.388 OA
ATOM     34  H   UNL     1       7.936   1.341  23.116  1.00  0.00     0.211 HD
ENDBRANCH  25  33
ENDBRANCH  11  20
BRANCH  10  35
ATOM     35  O   UNL     1       8.033  -2.771  22.240  1.00  0.00    -0.507 OA
ATOM     36  H   UNL     1       8.027  -1.996  22.894  1.00  0.00     0.293 HD
ENDBRANCH  10  35
TORSDOF 9
ENDMDL
MODEL 2
REMARK VINA RESULT:    -3.323      4.443      8.119
REMARK INTER + INTRA:          -5.735
REMARK INTER:                  -4.690
REMARK INTRA:                  -1.044
REMARK UNBOUND:                -1.246
REMARK SMILES O=c1c(-c2ccc(O)cc2)coc2c([C@@H]3O[C@@H](CO)[C@H](O)[C@@H](O)[C@@H]3O)c(O)ccc12
REMARK SMILES IDX 3 1 11 2 12 3 13 4 30 5 2 6 1 7 29 8 28 9 26 10 14 11 4 12
REMARK SMILES IDX 5 13 6 14 7 15 10 16 9 17 8 18 15 20 24 21 16 22 22 23 17 24
REMARK SMILES IDX 20 25 25 26 23 28 18 30 19 31 21 33 27 35
REMARK H PARENT 8 19 25 27 23 29 19 32 21 34 27 36
REMARK Flexibility Score: inf
ROOT
ATOM      1  C   UNL     1       1.994  -3.729  19.324  1.00  0.00     0.065 A 
ATOM      2  C   UNL     1       1.784  -2.441  18.813  1.00  0.00     0.208 A 
ATOM      3  O   UNL     1       0.600  -1.849  18.921  1.00  0.00    -0.463 OA
ATOM      4  C   UNL     1      -0.449  -2.421  19.507  1.00  0.00     0.147 A 
ATOM      5  C   UNL     1      -0.329  -3.726  20.040  1.00  0.00     0.066 A 
ATOM      6  C   UNL     1       0.911  -4.382  19.940  1.00  0.00     0.200 A 
ATOM      7  O   UNL     1       1.046  -5.558  20.381  1.00  0.00    -0.288 OA
ATOM      8  C   UNL     1      -1.441  -4.335  20.639  1.00  0.00     0.020 A 
ATOM      9  C   UNL     1      -2.660  -3.663  20.699  1.00  0.00     0.047 A 
ATOM     10  C   UNL     1      -2.794  -2.372  20.173  1.00  0.00     0.125 A 
ATOM     11  C   UNL     1      -1.679  -1.725  19.588  1.00  0.00     0.069 A 
ENDROOT
BRANCH   1  12
ATOM     12  C   UNL     1       3.329  -4.367  19.199  1.00  0.00    -0.011 A 
ATOM     13  C   UNL     1       4.291  -4.222  20.214  1.00  0.00     0.013 A 
ATOM     14  C   UNL     1       5.550  -4.817  20.086  1.00  0.00     0.047 A 
ATOM     15  C   UNL     1       5.866  -5.559  18.944  1.00  0.00     0.115 A 
ATOM     16  C   UNL     1       3.656  -5.109  18.049  1.00  0.00     0.013 A 
ATOM     17  C   UNL     1       4.915  -5.703  17.925  1.00  0.00     0.047 A 
BRANCH  15  18
ATOM     18  O   UNL     1       7.123  -6.147  18.831  1.00  0.00    -0.508 OA
ATOM     19  H   UNL     1       7.951  -5.703  19.209  1.00  0.00     0.293 HD
ENDBRANCH  15  18
ENDBRANCH   1  12
BRANCH  11  20
ATOM     20  C   UNL     1      -1.790  -0.329  18.980  1.00  0.00     0.188 C 
ATOM     21  C   UNL     1      -2.268  -0.418  17.512  1.00  0.00     0.179 C 
ATOM     22  O   UNL     1      -2.649   0.490  19.759  1.00  0.00    -0.362 OA
ATOM     23  C   UNL     1      -2.381   0.991  16.892  1.00  0.00     0.177 C 
ATOM     24  C   UNL     1      -2.690   1.837  19.304  1.00  0.00     0.176 C 
ATOM     25  C   UNL     1      -3.136   1.964  17.821  1.00  0.00     0.177 C 
BRANCH  21  26
ATOM     26  O   UNL     1      -3.478  -1.127  17.385  1.00  0.00    -0.387 OA
ATOM     27  H   UNL     1      -4.201  -0.582  17.787  1.00  0.00     0.211 HD
ENDBRANCH  21  26
BRANCH  23  28
ATOM     28  O   UNL     1      -1.100   1.502  16.625  1.00  0.00    -0.387 OA
ATOM     29  H   UNL     1      -1.100   1.808  15.681  1.00  0.00     0.211 HD
ENDBRANCH  23  28
BRANCH  24  30
ATOM     30  C   UNL     1      -1.400   2.618  19.625  1.00  0.00     0.191 C 
BRANCH  30  31
ATOM     31  O   UNL     1      -1.251   2.734  21.013  1.00  0.00    -0.394 OA
ATOM     32  H   UNL     1      -0.276   2.684  21.191  1.00  0.00     0.210 HD
ENDBRANCH  30  31
ENDBRANCH  24  30
BRANCH  25  33
ATOM     33  O   UNL     1      -4.517   1.722  17.717  1.00  0.00    -0.388 OA
ATOM     34  H   UNL     1      -4.627   0.765  17.472  1.00  0.00     0.211 HD
ENDBRANCH  25  33
ENDBRANCH  11  20
BRANCH  10  35
ATOM     35  O   UNL     1      -4.036  -1.743  20.233  1.00  0.00    -0.507 OA
ATOM     36  H   UNL     1      -4.676  -1.894  21.005  1.00  0.00     0.293 HD
ENDBRANCH  10  35
TORSDOF 9
ENDMDL
MODEL 3
REMARK VINA RESULT:    -3.270      1.512      1.914
REMARK INTER + INTRA:          -5.663
REMARK INTER:                  -4.459
REMARK INTRA:                  -1.203
REMARK UNBOUND:                -1.246
REMARK SMILES O=c1c(-c2ccc(O)cc2)coc2c([C@@H]3O[C@@H](CO)[C@H](O)[C@@H](O)[C@@H]3O)c(O)ccc12
REMARK SMILES IDX 3 1 11 2 12 3 13 4 30 5 2 6 1 7 29 8 28 9 26 10 14 11 4 12
REMARK SMILES IDX 5 13 6 14 7 15 10 16 9 17 8 18 15 20 24 21 16 22 22 23 17 24
REMARK SMILES IDX 20 25 25 26 23 28 18 30 19 31 21 33 27 35
REMARK H PARENT 8 19 25 27 23 29 19 32 21 34 27 36
REMARK Flexibility Score: inf
ROOT
ATOM      1  C   UNL     1       0.943  -3.441  18.963  1.00  0.00     0.065 A 
ATOM      2  C   UNL     1       1.699  -2.265  18.862  1.00  0.00     0.208 A 
ATOM      3  O   UNL     1       2.987  -2.252  19.186  1.00  0.00    -0.463 OA
ATOM      4  C   UNL     1       3.640  -3.327  19.621  1.00  0.00     0.147 A 
ATOM      5  C   UNL     1       2.950  -4.554  19.764  1.00  0.00     0.066 A 
ATOM      6  C   UNL     1       1.584  -4.602  19.432  1.00  0.00     0.200 A 
ATOM      7  O   UNL     1       0.932  -5.675  19.573  1.00  0.00    -0.288 OA
ATOM      8  C   UNL     1       3.635  -5.682  20.241  1.00  0.00     0.020 A 
ATOM      9  C   UNL     1       4.982  -5.591  20.582  1.00  0.00     0.047 A 
ATOM     10  C   UNL     1       5.676  -4.382  20.448  1.00  0.00     0.125 A 
ATOM     11  C   UNL     1       5.015  -3.236  19.942  1.00  0.00     0.069 A 
ENDROOT
BRANCH   1  12
ATOM     12  C   UNL     1      -0.492  -3.434  18.587  1.00  0.00    -0.011 A 
ATOM     13  C   UNL     1      -0.897  -3.803  17.291  1.00  0.00     0.013 A 
ATOM     14  C   UNL     1      -2.250  -3.785  16.940  1.00  0.00     0.047 A 
ATOM     15  C   UNL     1      -3.215  -3.393  17.873  1.00  0.00     0.115 A 
ATOM     16  C   UNL     1      -1.468  -3.034  19.518  1.00  0.00     0.013 A 
ATOM     17  C   UNL     1      -2.820  -3.018  19.164  1.00  0.00     0.047 A 
BRANCH  15  18
ATOM     18  O   UNL     1      -4.560  -3.381  17.510  1.00  0.00    -0.508 OA
ATOM     19  H   UNL     1      -4.893  -2.820  16.735  1.00  0.00     0.293 HD
ENDBRANCH  15  18
ENDBRANCH   1  12
BRANCH  11  20
ATOM     20  C   UNL     1       5.728  -1.894  19.807  1.00  0.00     0.188 C 
ATOM     21  C   UNL     1       5.698  -1.129  21.151  1.00  0.00     0.179 C 
ATOM     22  O   UNL     1       7.057  -2.077  19.341  1.00  0.00    -0.362 OA
ATOM     23  C   UNL     1       6.417   0.230  21.018  1.00  0.00     0.177 C 
ATOM     24  C   UNL     1       7.725  -0.849  19.080  1.00  0.00     0.176 C 
ATOM     25  C   UNL     1       7.784   0.086  20.320  1.00  0.00     0.177 C 
BRANCH  21  26
ATOM     26  O   UNL     1       6.234  -1.886  22.209  1.00  0.00    -0.387 OA
ATOM     27  H   UNL     1       6.876  -2.538  21.829  1.00  0.00     0.211 HD
ENDBRANCH  21  26
BRANCH  23  28
ATOM     28  O   UNL     1       5.616   1.128  20.291  1.00  0.00    -0.387 OA
ATOM     29  H   UNL     1       6.140   1.405  19.494  1.00  0.00     0.211 HD
ENDBRANCH  23  28
BRANCH  24  30
ATOM     30  C   UNL     1       7.212  -0.146  17.807  1.00  0.00     0.191 C 
BRANCH  30  31
ATOM     31  O   UNL     1       7.252   1.243  17.986  1.00  0.00    -0.394 OA
ATOM     32  H   UNL     1       6.848   1.418  18.875  1.00  0.00     0.210 HD
ENDBRANCH  30  31
ENDBRANCH  24  30
BRANCH  25  33
ATOM     33  O   UNL     1       8.722  -0.409  21.243  1.00  0.00    -0.388 OA
ATOM     34  H   UNL     1       8.313  -1.205  21.675  1.00  0.00     0.211 HD
ENDBRANCH  25  33
ENDBRANCH  11  20
BRANCH  10  35
ATOM     35  O   UNL     1       7.018  -4.326  20.822  1.00  0.00    -0.507 OA
ATOM     36  H   UNL     1       7.311  -4.457  21.784  1.00  0.00     0.293 HD
ENDBRANCH  10  35
TORSDOF 9
ENDMDL
MODEL 4
REMARK VINA RESULT:    -3.151      2.625      3.922
REMARK INTER + INTRA:          -5.502
REMARK INTER:                  -4.387
REMARK INTRA:                  -1.115
REMARK UNBOUND:                -1.246
REMARK SMILES O=c1c(-c2ccc(O)cc2)coc2c([C@@H]3O[C@@H](CO)[C@H](O)[C@@H](O)[C@@H]3O)c(O)ccc12
REMARK SMILES IDX 3 1 11 2 12 3 13 4 30 5 2 6 1 7 29 8 28 9 26 10 14 11 4 12
REMARK SMILES IDX 5 13 6 14 7 15 10 16 9 17 8 18 15 20 24 21 16 22 22 23 17 24
REMARK SMILES IDX 20 25 25 26 23 28 18 30 19 31 21 33 27 35
REMARK H PARENT 8 19 25 27 23 29 19 32 21 34 27 36
REMARK Flexibility Score: inf
ROOT
ATOM      1  C   UNL     1      -0.492  -2.736  19.123  1.00  0.00     0.065 A 
ATOM      2  C   UNL     1       0.594  -1.874  18.919  1.00  0.00     0.208 A 
ATOM      3  O   UNL     1       1.842  -2.301  19.076  1.00  0.00    -0.463 OA
ATOM      4  C   UNL     1       2.147  -3.547  19.432  1.00  0.00     0.147 A 
ATOM      5  C   UNL     1       1.111  -4.480  19.670  1.00  0.00     0.066 A 
ATOM      6  C   UNL     1      -0.223  -4.060  19.515  1.00  0.00     0.200 A 
ATOM      7  O   UNL     1      -1.173  -4.860  19.745  1.00  0.00    -0.288 OA
ATOM      8  C   UNL     1       1.433  -5.787  20.064  1.00  0.00     0.020 A 
ATOM      9  C   UNL     1       2.765  -6.161  20.229  1.00  0.00     0.047 A 
ATOM     10  C   UNL     1       3.800  -5.246  20.000  1.00  0.00     0.125 A 
ATOM     11  C   UNL     1       3.502  -3.929  19.575  1.00  0.00     0.069 A 
ENDROOT
BRANCH   1  12
ATOM     12  C   UNL     1      -1.878  -2.239  18.933  1.00  0.00    -0.011 A 
ATOM     13  C   UNL     1      -2.584  -1.657  20.001  1.00  0.00     0.013 A 
ATOM     14  C   UNL     1      -3.892  -1.199  19.818  1.00  0.00     0.047 A 
ATOM     15  C   UNL     1      -4.514  -1.322  18.572  1.00  0.00     0.115 A 
ATOM     16  C   UNL     1      -2.512  -2.366  17.684  1.00  0.00     0.013 A 
ATOM     17  C   UNL     1      -3.820  -1.906  17.504  1.00  0.00     0.047 A 
BRANCH  15  18
ATOM     18  O   UNL     1      -5.818  -0.860  18.404  1.00  0.00    -0.508 OA
ATOM     19  H   UNL     1      -6.110   0.042  18.761  1.00  0.00     0.293 HD
ENDBRANCH  15  18
ENDBRANCH   1  12
BRANCH  11  20
ATOM     20  C   UNL     1       4.600  -2.895  19.340  1.00  0.00     0.188 C 
ATOM     21  C   UNL     1       5.096  -2.319  20.688  1.00  0.00     0.179 C 
ATOM     22  O   UNL     1       5.666  -3.457  18.590  1.00  0.00    -0.362 OA
ATOM     23  C   UNL     1       6.206  -1.272  20.455  1.00  0.00     0.177 C 
ATOM     24  C   UNL     1       6.659  -2.501  18.238  1.00  0.00     0.176 C 
ATOM     25  C   UNL     1       7.277  -1.785  19.472  1.00  0.00     0.177 C 
BRANCH  21  26
ATOM     26  O   UNL     1       5.525  -3.326  21.573  1.00  0.00    -0.387 OA
ATOM     27  H   UNL     1       4.740  -3.642  22.088  1.00  0.00     0.211 HD
ENDBRANCH  21  26
BRANCH  23  28
ATOM     28  O   UNL     1       5.646  -0.084  19.956  1.00  0.00    -0.387 OA
ATOM     29  H   UNL     1       4.703  -0.055  20.263  1.00  0.00     0.211 HD
ENDBRANCH  23  28
BRANCH  24  30
ATOM     30  C   UNL     1       6.192  -1.529  17.136  1.00  0.00     0.191 C 
BRANCH  30  31
ATOM     31  O   UNL     1       6.815  -0.286  17.307  1.00  0.00    -0.394 OA
ATOM     32  H   UNL     1       7.620  -0.455  17.861  1.00  0.00     0.210 HD
ENDBRANCH  30  31
ENDBRANCH  24  30
BRANCH  25  33
ATOM     33  O   UNL     1       8.139  -2.665  20.148  1.00  0.00    -0.388 OA
ATOM     34  H   UNL     1       7.905  -3.585  19.856  1.00  0.00     0.211 HD
ENDBRANCH  25  33
ENDBRANCH  11  20
BRANCH  10  35
ATOM     35  O   UNL     1       5.119  -5.653  20.199  1.00  0.00    -0.507 OA
ATOM     36  H   UNL     1       5.522  -6.430  19.688  1.00  0.00     0.293 HD
ENDBRANCH  10  35
TORSDOF 9
ENDMDL
MODEL 5
REMARK VINA RESULT:    -3.060      7.099     10.203
REMARK INTER + INTRA:          -5.380
REMARK INTER:                  -4.150
REMARK INTRA:                  -1.230
REMARK UNBOUND:                -1.246
REMARK SMILES O=c1c(-c2ccc(O)cc2)coc2c([C@@H]3O[C@@H](CO)[C@H](O)[C@@H](O)[C@@H]3O)c(O)ccc12
REMARK SMILES IDX 3 1 11 2 12 3 13 4 30 5 2 6 1 7 29 8 28 9 26 10 14 11 4 12
REMARK SMILES IDX 5 13 6 14 7 15 10 16 9 17 8 18 15 20 24 21 16 22 22 23 17 24
REMARK SMILES IDX 20 25 25 26 23 28 18 30 19 31 21 33 27 35
REMARK H PARENT 8 19 25 27 23 29 19 32 21 34 27 36
REMARK Flexibility Score: inf
ROOT
ATOM      1  C   UNL     1      -2.704   0.053  23.283  1.00  0.00     0.065 A 
ATOM      2  C   UNL     1      -3.192   0.919  22.294  1.00  0.00     0.208 A 
ATOM      3  O   UNL     1      -3.072   0.618  21.006  1.00  0.00    -0.463 OA
ATOM      4  C   UNL     1      -2.495  -0.498  20.568  1.00  0.00     0.147 A 
ATOM      5  C   UNL     1      -1.964  -1.422  21.499  1.00  0.00     0.066 A 
ATOM      6  C   UNL     1      -2.071  -1.134  22.871  1.00  0.00     0.200 A 
ATOM      7  O   UNL     1      -1.585  -1.924  23.728  1.00  0.00    -0.288 OA
ATOM      8  C   UNL     1      -1.338  -2.589  21.036  1.00  0.00     0.020 A 
ATOM      9  C   UNL     1      -1.230  -2.831  19.668  1.00  0.00     0.047 A 
ATOM     10  C   UNL     1      -1.749  -1.923  18.737  1.00  0.00     0.125 A 
ATOM     11  C   UNL     1      -2.410  -0.751  19.179  1.00  0.00     0.069 A 
ENDROOT
BRANCH   1  12
ATOM     12  C   UNL     1      -2.856   0.406  24.717  1.00  0.00    -0.011 A 
ATOM     13  C   UNL     1      -3.948  -0.073  25.462  1.00  0.00     0.013 A 
ATOM     14  C   UNL     1      -4.091   0.271  26.810  1.00  0.00     0.047 A 
ATOM     15  C   UNL     1      -3.151   1.100  27.429  1.00  0.00     0.115 A 
ATOM     16  C   UNL     1      -1.917   1.245  25.344  1.00  0.00     0.013 A 
ATOM     17  C   UNL     1      -2.063   1.587  26.692  1.00  0.00     0.047 A 
BRANCH  15  18
ATOM     18  O   UNL     1      -3.306   1.433  28.773  1.00  0.00    -0.508 OA
ATOM     19  H   UNL     1      -4.223   1.564  29.183  1.00  0.00     0.293 HD
ENDBRANCH  15  18
ENDBRANCH   1  12
BRANCH  11  20
ATOM     20  C   UNL     1      -2.964   0.276  18.196  1.00  0.00     0.188 C 
ATOM     21  C   UNL     1      -1.873   1.305  17.818  1.00  0.00     0.179 C 
ATOM     22  O   UNL     1      -3.495  -0.367  17.046  1.00  0.00    -0.362 OA
ATOM     23  C   UNL     1      -2.430   2.346  16.825  1.00  0.00     0.177 C 
ATOM     24  C   UNL     1      -4.136   0.537  16.154  1.00  0.00     0.176 C 
ATOM     25  C   UNL     1      -3.198   1.677  15.667  1.00  0.00     0.177 C 
BRANCH  21  26
ATOM     26  O   UNL     1      -0.712   0.691  17.313  1.00  0.00    -0.387 OA
ATOM     27  H   UNL     1      -0.985  -0.099  16.781  1.00  0.00     0.211 HD
ENDBRANCH  21  26
BRANCH  23  28
ATOM     28  O   UNL     1      -3.284   3.239  17.494  1.00  0.00    -0.387 OA
ATOM     29  H   UNL     1      -2.708   3.849  18.025  1.00  0.00     0.211 HD
ENDBRANCH  23  28
BRANCH  24  30
ATOM     30  C   UNL     1      -5.491   1.045  16.685  1.00  0.00     0.191 C 
BRANCH  30  31
ATOM     31  O   UNL     1      -5.800   2.277  16.093  1.00  0.00    -0.394 OA
ATOM     32  H   UNL     1      -6.722   2.189  15.738  1.00  0.00     0.210 HD
ENDBRANCH  30  31
ENDBRANCH  24  30
BRANCH  25  33
ATOM     33  O   UNL     1      -2.275   1.167  14.737  1.00  0.00    -0.388 OA
ATOM     34  H   UNL     1      -1.778   0.436  15.190  1.00  0.00     0.211 HD
ENDBRANCH  25  33
ENDBRANCH  11  20
BRANCH  10  35
ATOM     35  O   UNL     1      -1.600  -2.190  17.376  1.00  0.00    -0.507 OA
ATOM     36  H   UNL     1      -1.864  -1.515  16.667  1.00  0.00     0.293 HD
ENDBRANCH  10  35
TORSDOF 9
ENDMDL
MODEL 6
REMARK VINA RESULT:    -3.001      3.505      5.119
REMARK INTER + INTRA:          -5.300
REMARK INTER:                  -4.126
REMARK INTRA:                  -1.174
REMARK UNBOUND:                -1.246
REMARK SMILES O=c1c(-c2ccc(O)cc2)coc2c([C@@H]3O[C@@H](CO)[C@H](O)[C@@H](O)[C@@H]3O)c(O)ccc12
REMARK SMILES IDX 3 1 11 2 12 3 13 4 30 5 2 6 1 7 29 8 28 9 26 10 14 11 4 12
REMARK SMILES IDX 5 13 6 14 7 15 10 16 9 17 8 18 15 20 24 21 16 22 22 23 17 24
REMARK SMILES IDX 20 25 25 26 23 28 18 30 19 31 21 33 27 35
REMARK H PARENT 8 19 25 27 23 29 19 32 21 34 27 36
REMARK Flexibility Score: inf
ROOT
ATOM      1  C   UNL     1       4.172  -3.584  19.017  1.00  0.00     0.065 A 
ATOM      2  C   UNL     1       4.248  -3.303  17.645  1.00  0.00     0.208 A 
ATOM      3  O   UNL     1       5.168  -2.471  17.170  1.00  0.00    -0.463 OA
ATOM      4  C   UNL     1       6.063  -1.857  17.940  1.00  0.00     0.147 A 
ATOM      5  C   UNL     1       6.050  -2.075  19.338  1.00  0.00     0.066 A 
ATOM      6  C   UNL     1       5.087  -2.948  19.875  1.00  0.00     0.200 A 
ATOM      7  O   UNL     1       5.030  -3.145  21.121  1.00  0.00    -0.288 OA
ATOM      8  C   UNL     1       6.981  -1.411  20.151  1.00  0.00     0.020 A 
ATOM      9  C   UNL     1       7.905  -0.536  19.587  1.00  0.00     0.047 A 
ATOM     10  C   UNL     1       7.927  -0.309  18.205  1.00  0.00     0.125 A 
ATOM     11  C   UNL     1       7.016  -0.988  17.360  1.00  0.00     0.069 A 
ENDROOT
BRANCH   1  12
ATOM     12  C   UNL     1       3.141  -4.524  19.524  1.00  0.00    -0.011 A 
ATOM     13  C   UNL     1       3.496  -5.815  19.955  1.00  0.00     0.013 A 
ATOM     14  C   UNL     1       2.519  -6.699  20.422  1.00  0.00     0.047 A 
ATOM     15  C   UNL     1       1.177  -6.309  20.461  1.00  0.00     0.115 A 
ATOM     16  C   UNL     1       1.788  -4.141  19.558  1.00  0.00     0.013 A 
ATOM     17  C   UNL     1       0.813  -5.027  20.027  1.00  0.00     0.047 A 
BRANCH  15  18
ATOM     18  O   UNL     1       0.214  -7.200  20.930  1.00  0.00    -0.508 OA
ATOM     19  H   UNL     1       0.024  -8.073  20.453  1.00  0.00     0.293 HD
ENDBRANCH  15  18
ENDBRANCH   1  12
BRANCH  11  20
ATOM     20  C   UNL     1       6.990  -0.747  15.853  1.00  0.00     0.188 C 
ATOM     21  C   UNL     1       6.122   0.488  15.518  1.00  0.00     0.179 C 
ATOM     22  O   UNL     1       8.309  -0.611  15.344  1.00  0.00    -0.362 OA
ATOM     23  C   UNL     1       6.091   0.734  13.995  1.00  0.00     0.177 C 
ATOM     24  C   UNL     1       8.346  -0.508  13.925  1.00  0.00     0.176 C 
ATOM     25  C   UNL     1       7.505   0.679  13.380  1.00  0.00     0.177 C 
BRANCH  21  26
ATOM     26  O   UNL     1       6.542   1.639  16.210  1.00  0.00    -0.387 OA
ATOM     27  H   UNL     1       5.849   2.339  16.099  1.00  0.00     0.211 HD
ENDBRANCH  21  26
BRANCH  23  28
ATOM     28  O   UNL     1       5.275  -0.225  13.370  1.00  0.00    -0.387 OA
ATOM     29  H   UNL     1       5.596  -1.116  13.666  1.00  0.00     0.211 HD
ENDBRANCH  23  28
BRANCH  24  30
ATOM     30  C   UNL     1       8.047  -1.846  13.219  1.00  0.00     0.191 C 
BRANCH  30  31
ATOM     31  O   UNL     1       7.557  -1.601  11.930  1.00  0.00    -0.394 OA
ATOM     32  H   UNL     1       7.086  -2.429  11.652  1.00  0.00     0.210 HD
ENDBRANCH  30  31
ENDBRANCH  24  30
BRANCH  25  33
ATOM     33  O   UNL     1       8.168   1.891  13.642  1.00  0.00    -0.388 OA
ATOM     34  H   UNL     1       7.744   2.286  14.449  1.00  0.00     0.211 HD
ENDBRANCH  25  33
ENDBRANCH  11  20
BRANCH  10  35
ATOM     35  O   UNL     1       8.853   0.593  17.682  1.00  0.00    -0.507 OA
ATOM     36  H   UNL     1       9.528   1.068  18.270  1.00  0.00     0.293 HD
ENDBRANCH  10  35
TORSDOF 9
ENDMDL
MODEL 7
REMARK VINA RESULT:    -2.979      5.188      8.360
REMARK INTER + INTRA:          -5.270
REMARK INTER:                  -4.049
REMARK INTRA:                  -1.221
REMARK UNBOUND:                -1.246
REMARK SMILES O=c1c(-c2ccc(O)cc2)coc2c([C@@H]3O[C@@H](CO)[C@H](O)[C@@H](O)[C@@H]3O)c(O)ccc12
REMARK SMILES IDX 3 1 11 2 12 3 13 4 30 5 2 6 1 7 29 8 28 9 26 10 14 11 4 12
REMARK SMILES IDX 5 13 6 14 7 15 10 16 9 17 8 18 15 20 24 21 16 22 22 23 17 24
REMARK SMILES IDX 20 25 25 26 23 28 18 30 19 31 21 33 27 35
REMARK H PARENT 8 19 25 27 23 29 19 32 21 34 27 36
REMARK Flexibility Score: inf
ROOT
ATOM      1  C   UNL     1       7.032   0.888  20.699  1.00  0.00     0.065 A 
ATOM      2  C   UNL     1       7.384   0.420  19.425  1.00  0.00     0.208 A 
ATOM      3  O   UNL     1       7.299   1.210  18.361  1.00  0.00    -0.463 OA
ATOM      4  C   UNL     1       6.883   2.472  18.422  1.00  0.00     0.147 A 
ATOM      5  C   UNL     1       6.497   3.022  19.667  1.00  0.00     0.066 A 
ATOM      6  C   UNL     1       6.572   2.212  20.814  1.00  0.00     0.200 A 
ATOM      7  O   UNL     1       6.210   2.663  21.937  1.00  0.00    -0.288 OA
ATOM      8  C   UNL     1       6.040   4.347  19.727  1.00  0.00     0.020 A 
ATOM      9  C   UNL     1       5.956   5.113  18.566  1.00  0.00     0.047 A 
ATOM     10  C   UNL     1       6.333   4.580  17.327  1.00  0.00     0.125 A 
ATOM     11  C   UNL     1       6.824   3.254  17.244  1.00  0.00     0.069 A 
ENDROOT
BRANCH   1  12
ATOM     12  C   UNL     1       7.144  -0.011  21.875  1.00  0.00    -0.011 A 
ATOM     13  C   UNL     1       8.257   0.063  22.732  1.00  0.00     0.013 A 
ATOM     14  C   UNL     1       8.361  -0.792  23.832  1.00  0.00     0.047 A 
ATOM     15  C   UNL     1       7.360  -1.735  24.089  1.00  0.00     0.115 A 
ATOM     16  C   UNL     1       6.144  -0.966  22.135  1.00  0.00     0.013 A 
ATOM     17  C   UNL     1       6.251  -1.819  23.238  1.00  0.00     0.047 A 
BRANCH  15  18
ATOM     18  O   UNL     1       7.477  -2.580  25.191  1.00  0.00    -0.508 OA
ATOM     19  H   UNL     1       8.274  -3.195  25.304  1.00  0.00     0.293 HD
ENDBRANCH  15  18
ENDBRANCH   1  12
BRANCH  11  20
ATOM     20  C   UNL     1       7.218   2.628  15.909  1.00  0.00     0.188 C 
ATOM     21  C   UNL     1       5.984   1.994  15.225  1.00  0.00     0.179 C 
ATOM     22  O   UNL     1       7.844   3.588  15.071  1.00  0.00    -0.362 OA
ATOM     23  C   UNL     1       6.379   1.358  13.875  1.00  0.00     0.177 C 
ATOM     24  C   UNL     1       8.342   3.025  13.863  1.00  0.00     0.176 C 
ATOM     25  C   UNL     1       7.243   2.313  13.026  1.00  0.00     0.177 C 
BRANCH  21  26
ATOM     26  O   UNL     1       4.931   2.914  15.064  1.00  0.00    -0.387 OA
ATOM     27  H   UNL     1       5.118   3.462  14.260  1.00  0.00     0.211 HD
ENDBRANCH  21  26
BRANCH  23  28
ATOM     28  O   UNL     1       7.085   0.164  14.096  1.00  0.00    -0.387 OA
ATOM     29  H   UNL     1       6.501  -0.422  14.644  1.00  0.00     0.211 HD
ENDBRANCH  23  28
BRANCH  24  30
ATOM     30  C   UNL     1       9.603   2.163  14.077  1.00  0.00     0.191 C 
BRANCH  30  31
ATOM     31  O   UNL     1       9.721   1.231  13.038  1.00  0.00    -0.394 OA
ATOM     32  H   UNL     1       8.812   0.859  12.897  1.00  0.00     0.210 HD
ENDBRANCH  30  31
ENDBRANCH  24  30
BRANCH  25  33
ATOM     33  O   UNL     1       6.411   3.271  12.421  1.00  0.00    -0.388 OA
ATOM     34  H   UNL     1       5.538   2.830  12.247  1.00  0.00     0.211 HD
ENDBRANCH  25  33
ENDBRANCH  11  20
BRANCH  10  35
ATOM     35  O   UNL     1       6.213   5.371  16.185  1.00  0.00    -0.507 OA
ATOM     36  H   UNL     1       5.377   5.359  15.612  1.00  0.00     0.293 HD
ENDBRANCH  10  35
TORSDOF 9
ENDMDL
MODEL 8
REMARK VINA RESULT:    -2.979      7.385      9.673
REMARK INTER + INTRA:          -5.270
REMARK INTER:                  -4.033
REMARK INTRA:                  -1.236
REMARK UNBOUND:                -1.246
REMARK SMILES O=c1c(-c2ccc(O)cc2)coc2c([C@@H]3O[C@@H](CO)[C@H](O)[C@@H](O)[C@@H]3O)c(O)ccc12
REMARK SMILES IDX 3 1 11 2 12 3 13 4 30 5 2 6 1 7 29 8 28 9 26 10 14 11 4 12
REMARK SMILES IDX 5 13 6 14 7 15 10 16 9 17 8 18 15 20 24 21 16 22 22 23 17 24
REMARK SMILES IDX 20 25 25 26 23 28 18 30 19 31 21 33 27 35
REMARK H PARENT 8 19 25 27 23 29 19 32 21 34 27 36
REMARK Flexibility Score: inf
ROOT
ATOM      1  C   UNL     1      -2.383  -1.351  22.493  1.00  0.00     0.065 A 
ATOM      2  C   UNL     1      -2.611  -0.033  22.074  1.00  0.00     0.208 A 
ATOM      3  O   UNL     1      -2.683   0.270  20.783  1.00  0.00    -0.463 OA
ATOM      4  C   UNL     1      -2.546  -0.632  19.814  1.00  0.00     0.147 A 
ATOM      5  C   UNL     1      -2.301  -1.985  20.148  1.00  0.00     0.066 A 
ATOM      6  C   UNL     1      -2.217  -2.340  21.507  1.00  0.00     0.200 A 
ATOM      7  O   UNL     1      -1.973  -3.534  21.839  1.00  0.00    -0.288 OA
ATOM      8  C   UNL     1      -2.137  -2.932  19.126  1.00  0.00     0.020 A 
ATOM      9  C   UNL     1      -2.205  -2.540  17.791  1.00  0.00     0.047 A 
ATOM     10  C   UNL     1      -2.444  -1.204  17.447  1.00  0.00     0.125 A 
ATOM     11  C   UNL     1      -2.640  -0.234  18.460  1.00  0.00     0.069 A 
ENDROOT
BRANCH   1  12
ATOM     12  C   UNL     1      -2.315  -1.667  23.942  1.00  0.00    -0.011 A 
ATOM     13  C   UNL     1      -1.078  -1.717  24.608  1.00  0.00     0.013 A 
ATOM     14  C   UNL     1      -1.020  -2.025  25.971  1.00  0.00     0.047 A 
ATOM     15  C   UNL     1      -2.193  -2.291  26.683  1.00  0.00     0.115 A 
ATOM     16  C   UNL     1      -3.491  -1.942  24.663  1.00  0.00     0.013 A 
ATOM     17  C   UNL     1      -3.430  -2.248  26.026  1.00  0.00     0.047 A 
BRANCH  15  18
ATOM     18  O   UNL     1      -2.120  -2.594  28.041  1.00  0.00    -0.508 OA
ATOM     19  H   UNL     1      -2.430  -1.938  28.748  1.00  0.00     0.293 HD
ENDBRANCH  15  18
ENDBRANCH   1  12
BRANCH  11  20
ATOM     20  C   UNL     1      -2.875   1.236  18.127  1.00  0.00     0.188 C 
ATOM     21  C   UNL     1      -1.527   1.966  17.923  1.00  0.00     0.179 C 
ATOM     22  O   UNL     1      -3.714   1.364  16.988  1.00  0.00    -0.362 OA
ATOM     23  C   UNL     1      -1.760   3.454  17.587  1.00  0.00     0.177 C 
ATOM     24  C   UNL     1      -4.065   2.714  16.709  1.00  0.00     0.176 C 
ATOM     25  C   UNL     1      -2.829   3.630  16.490  1.00  0.00     0.177 C 
BRANCH  21  26
ATOM     26  O   UNL     1      -0.725   1.345  16.947  1.00  0.00    -0.387 OA
ATOM     27  H   UNL     1      -0.397   0.486  17.316  1.00  0.00     0.211 HD
ENDBRANCH  21  26
BRANCH  23  28
ATOM     28  O   UNL     1      -2.160   4.149  18.741  1.00  0.00    -0.387 OA
ATOM     29  H   UNL     1      -2.015   5.115  18.563  1.00  0.00     0.211 HD
ENDBRANCH  23  28
BRANCH  24  30
ATOM     30  C   UNL     1      -5.083   3.289  17.715  1.00  0.00     0.191 C 
BRANCH  30  31
ATOM     31  O   UNL     1      -4.982   4.687  17.742  1.00  0.00    -0.394 OA
ATOM     32  H   UNL     1      -5.630   5.023  17.070  1.00  0.00     0.210 HD
ENDBRANCH  30  31
ENDBRANCH  24  30
BRANCH  25  33
ATOM     33  O   UNL     1      -2.252   3.356  15.237  1.00  0.00    -0.388 OA
ATOM     34  H   UNL     1      -2.381   4.165  14.674  1.00  0.00     0.211 HD
ENDBRANCH  25  33
ENDBRANCH  11  20
BRANCH  10  35
ATOM     35  O   UNL     1      -2.480  -0.848  16.099  1.00  0.00    -0.507 OA
ATOM     36  H   UNL     1      -2.291  -1.520  15.363  1.00  0.00     0.293 HD
ENDBRANCH  10  35
TORSDOF 9
ENDMDL
MODEL 9
REMARK VINA RESULT:    -2.822      8.247     10.164
REMARK INTER + INTRA:          -5.058
REMARK INTER:                  -3.861
REMARK INTRA:                  -1.197
REMARK UNBOUND:                -1.246
REMARK SMILES O=c1c(-c2ccc(O)cc2)coc2c([C@@H]3O[C@@H](CO)[C@H](O)[C@@H](O)[C@@H]3O)c(O)ccc12
REMARK SMILES IDX 3 1 11 2 12 3 13 4 30 5 2 6 1 7 29 8 28 9 26 10 14 11 4 12
REMARK SMILES IDX 5 13 6 14 7 15 10 16 9 17 8 18 15 20 24 21 16 22 22 23 17 24
REMARK SMILES IDX 20 25 25 26 23 28 18 30 19 31 21 33 27 35
REMARK H PARENT 8 19 25 27 23 29 19 32 21 34 27 36
REMARK Flexibility Score: inf
ROOT
ATOM      1  C   UNL     1      -3.192   1.384  20.496  1.00  0.00     0.065 A 
ATOM      2  C   UNL     1      -3.533   0.255  21.254  1.00  0.00     0.208 A 
ATOM      3  O   UNL     1      -3.188   0.164  22.533  1.00  0.00    -0.463 OA
ATOM      4  C   UNL     1      -2.511   1.112  23.176  1.00  0.00     0.147 A 
ATOM      5  C   UNL     1      -2.116   2.280  22.483  1.00  0.00     0.066 A 
ATOM      6  C   UNL     1      -2.461   2.409  21.126  1.00  0.00     0.200 A 
ATOM      7  O   UNL     1      -2.102   3.427  20.471  1.00  0.00    -0.288 OA
ATOM      8  C   UNL     1      -1.384   3.270  23.156  1.00  0.00     0.020 A 
ATOM      9  C   UNL     1      -1.039   3.098  24.495  1.00  0.00     0.047 A 
ATOM     10  C   UNL     1      -1.422   1.945  25.191  1.00  0.00     0.125 A 
ATOM     11  C   UNL     1      -2.184   0.944  24.542  1.00  0.00     0.069 A 
ENDROOT
BRANCH   1  12
ATOM     12  C   UNL     1      -3.594   1.469  19.070  1.00  0.00    -0.011 A 
ATOM     13  C   UNL     1      -2.758   0.966  18.057  1.00  0.00     0.013 A 
ATOM     14  C   UNL     1      -3.138   1.057  16.715  1.00  0.00     0.047 A 
ATOM     15  C   UNL     1      -4.353   1.655  16.366  1.00  0.00     0.115 A 
ATOM     16  C   UNL     1      -4.812   2.075  18.712  1.00  0.00     0.013 A 
ATOM     17  C   UNL     1      -5.190   2.163  17.368  1.00  0.00     0.047 A 
BRANCH  15  18
ATOM     18  O   UNL     1      -4.720   1.737  15.025  1.00  0.00    -0.508 OA
ATOM     19  H   UNL     1      -5.584   1.331  14.686  1.00  0.00     0.293 HD
ENDBRANCH  15  18
ENDBRANCH   1  12
BRANCH  11  20
ATOM     20  C   UNL     1      -2.597  -0.339  25.258  1.00  0.00     0.188 C 
ATOM     21  C   UNL     1      -1.524  -1.436  25.062  1.00  0.00     0.179 C 
ATOM     22  O   UNL     1      -2.841  -0.089  26.635  1.00  0.00    -0.362 OA
ATOM     23  C   UNL     1      -1.938  -2.735  25.784  1.00  0.00     0.177 C 
ATOM     24  C   UNL     1      -3.348  -1.227  27.322  1.00  0.00     0.176 C 
ATOM     25  C   UNL     1      -2.410  -2.462  27.226  1.00  0.00     0.177 C 
BRANCH  21  26
ATOM     26  O   UNL     1      -0.246  -1.011  25.473  1.00  0.00    -0.387 OA
ATOM     27  H   UNL     1      -0.353  -0.205  26.038  1.00  0.00     0.211 HD
ENDBRANCH  21  26
BRANCH  23  28
ATOM     28  O   UNL     1      -2.967  -3.373  25.070  1.00  0.00    -0.387 OA
ATOM     29  H   UNL     1      -3.513  -2.660  24.649  1.00  0.00     0.211 HD
ENDBRANCH  23  28
BRANCH  24  30
ATOM     30  C   UNL     1      -4.814  -1.542  26.961  1.00  0.00     0.191 C 
BRANCH  30  31
ATOM     31  O   UNL     1      -5.079  -2.896  27.202  1.00  0.00    -0.394 OA
ATOM     32  H   UNL     1      -5.261  -3.304  26.316  1.00  0.00     0.210 HD
ENDBRANCH  30  31
ENDBRANCH  24  30
BRANCH  25  33
ATOM     33  O   UNL     1      -1.287  -2.269  28.049  1.00  0.00    -0.388 OA
ATOM     34  H   UNL     1      -0.487  -2.518  27.514  1.00  0.00     0.211 HD
ENDBRANCH  25  33
ENDBRANCH  11  20
BRANCH  10  35
ATOM     35  O   UNL     1      -1.037   1.800  26.524  1.00  0.00    -0.507 OA
ATOM     36  H   UNL     1      -0.119   1.456  26.781  1.00  0.00     0.293 HD
ENDBRANCH  10  35
TORSDOF 9
ENDMDL
