MODEL 1
REMARK VINA RESULT:    -2.072      0.000      0.000
REMARK INTER + INTRA:          -2.072
REMARK INTER:                  -2.072
REMARK INTRA:                   0.000
REMARK UNBOUND:                 0.000
REMARK SMILES CC(=O)[O-]
REMARK SMILES IDX 1 1 2 2 3 3 4 4
REMARK H PARENT
REMARK Flexibility Score: inf
ROOT
ATOM      1  C   UNL     1      -1.017  27.220 -19.450  1.00  0.00     0.063 C 
ATOM      2  C   UNL     1      -1.928  26.078 -19.149  1.00  0.00     0.038 C 
ATOM      3  O   UNL     1      -2.615  26.080 -18.095  1.00  0.00    -0.550 OA
ATOM      4  O   UNL     1      -2.059  25.034 -20.056  1.00  0.00    -0.550 OA
ENDROOT
TORSDOF 0
ENDMDL
MODEL 2
REMARK VINA RESULT:    -1.972      2.453      2.701
REMARK INTER + INTRA:          -1.972
REMARK INTER:                  -1.972
REMARK INTRA:                   0.000
REMARK UNBOUND:                 0.000
REMARK SMILES CC(=O)[O-]
REMARK SMILES IDX 1 1 2 2 3 3 4 4
REMARK H PARENT
REMARK Flexibility Score: inf
ROOT
ATOM      1  C   UNL     1      -2.146  25.952 -20.740  1.00  0.00     0.063 C 
ATOM      2  C   UNL     1      -3.548  25.573 -21.080  1.00  0.00     0.038 C 
ATOM      3  O   UNL     1      -4.307  25.102 -20.193  1.00  0.00    -0.550 OA
ATOM      4  O   UNL     1      -4.036  25.788 -22.363  1.00  0.00    -0.550 OA
ENDROOT
TORSDOF 0
ENDMDL
MODEL 3
REMARK VINA RESULT:    -1.913     22.631     22.802
REMARK INTER + INTRA:          -1.913
REMARK INTER:                  -1.913
REMARK INTRA:                   0.000
REMARK UNBOUND:                 0.000
REMARK SMILES CC(=O)[O-]
REMARK SMILES IDX 1 1 2 2 3 3 4 4
REMARK H PARENT
REMARK Flexibility Score: inf
ROOT
ATOM      1  C   UNL     1     -19.082  27.199  -3.924  1.00  0.00     0.063 C 
ATOM      2  C   UNL     1     -19.702  27.870  -5.102  1.00  0.00     0.038 C 
ATOM      3  O   UNL     1     -19.759  29.127  -5.155  1.00  0.00    -0.550 OA
ATOM      4  O   UNL     1     -20.172  27.113  -6.168  1.00  0.00    -0.550 OA
ENDROOT
TORSDOF 0
ENDMDL
MODEL 4
REMARK VINA RESULT:    -1.880     22.634     22.842
REMARK INTER + INTRA:          -1.880
REMARK INTER:                  -1.880
REMARK INTRA:                   0.000
REMARK UNBOUND:                 0.000
REMARK SMILES CC(=O)[O-]
REMARK SMILES IDX 1 1 2 2 3 3 4 4
REMARK H PARENT
REMARK Flexibility Score: inf
ROOT
ATOM      1  C   UNL     1     -20.337  29.099  -4.973  1.00  0.00     0.063 C 
ATOM      2  C   UNL     1     -19.786  27.726  -5.155  1.00  0.00     0.038 C 
ATOM      3  O   UNL     1     -18.980  27.252  -4.313  1.00  0.00    -0.550 OA
ATOM      4  O   UNL     1     -20.202  26.945  -6.227  1.00  0.00    -0.550 OA
ENDROOT
TORSDOF 0
ENDMDL
MODEL 5
REMARK VINA RESULT:    -1.869      2.864      3.461
REMARK INTER + INTRA:          -1.869
REMARK INTER:                  -1.869
REMARK INTRA:                   0.000
REMARK UNBOUND:                 0.000
REMARK SMILES CC(=O)[O-]
REMARK SMILES IDX 1 1 2 2 3 3 4 4
REMARK H PARENT
REMARK Flexibility Score: inf
ROOT
ATOM      1  C   UNL     1      -4.277  25.625 -22.626  1.00  0.00     0.063 C 
ATOM      2  C   UNL     1      -3.574  25.281 -21.357  1.00  0.00     0.038 C 
ATOM      3  O   UNL     1      -2.319  25.187 -21.337  1.00  0.00    -0.550 OA
ATOM      4  O   UNL     1      -4.297  25.117 -20.183  1.00  0.00    -0.550 OA
ENDROOT
TORSDOF 0
ENDMDL
MODEL 6
REMARK VINA RESULT:    -1.847     22.770     22.838
REMARK INTER + INTRA:          -1.847
REMARK INTER:                  -1.847
REMARK INTRA:                   0.000
REMARK UNBOUND:                 0.000
REMARK SMILES CC(=O)[O-]
REMARK SMILES IDX 1 1 2 2 3 3 4 4
REMARK H PARENT
REMARK Flexibility Score: inf
ROOT
ATOM      1  C   UNL     1     -20.341  26.864  -5.902  1.00  0.00     0.063 C 
ATOM      2  C   UNL     1     -19.600  27.757  -4.965  1.00  0.00     0.038 C 
ATOM      3  O   UNL     1     -18.851  27.263  -4.083  1.00  0.00    -0.550 OA
ATOM      4  O   UNL     1     -19.694  29.137  -5.098  1.00  0.00    -0.550 OA
ENDROOT
TORSDOF 0
ENDMDL
MODEL 7
REMARK VINA RESULT:    -1.840     22.775     22.828
REMARK INTER + INTRA:          -1.840
REMARK INTER:                  -1.840
REMARK INTRA:                   0.000
REMARK UNBOUND:                 0.000
REMARK SMILES CC(=O)[O-]
REMARK SMILES IDX 1 1 2 2 3 3 4 4
REMARK H PARENT
REMARK Flexibility Score: inf
ROOT
ATOM      1  C   UNL     1     -20.349  26.892  -5.942  1.00  0.00     0.063 C 
ATOM      2  C   UNL     1     -19.606  27.802  -5.023  1.00  0.00     0.038 C 
ATOM      3  O   UNL     1     -19.725  29.050  -5.139  1.00  0.00    -0.550 OA
ATOM      4  O   UNL     1     -18.822  27.275  -4.005  1.00  0.00    -0.550 OA
ENDROOT
TORSDOF 0
ENDMDL
MODEL 8
REMARK VINA RESULT:    -1.801      1.553      2.027
REMARK INTER + INTRA:          -1.801
REMARK INTER:                  -1.801
REMARK INTRA:                   0.000
REMARK UNBOUND:                 0.000
REMARK SMILES CC(=O)[O-]
REMARK SMILES IDX 1 1 2 2 3 3 4 4
REMARK H PARENT
REMARK Flexibility Score: inf
ROOT
ATOM      1  C   UNL     1      -3.833  25.217 -20.582  1.00  0.00     0.063 C 
ATOM      2  C   UNL     1      -2.506  25.599 -20.018  1.00  0.00     0.038 C 
ATOM      3  O   UNL     1      -2.405  25.918 -18.805  1.00  0.00    -0.550 OA
ATOM      4  O   UNL     1      -1.371  25.554 -20.818  1.00  0.00    -0.550 OA
ENDROOT
TORSDOF 0
ENDMDL
MODEL 9
REMARK VINA RESULT:    -1.436     22.710     23.130
REMARK INTER + INTRA:          -1.436
REMARK INTER:                  -1.436
REMARK INTRA:                   0.000
REMARK UNBOUND:                 0.000
REMARK SMILES CC(=O)[O-]
REMARK SMILES IDX 1 1 2 2 3 3 4 4
REMARK H PARENT
REMARK Flexibility Score: inf
ROOT
ATOM      1  C   UNL     1     -19.459  27.677  -4.648  1.00  0.00     0.063 C 
ATOM      2  C   UNL     1     -19.005  26.677  -3.639  1.00  0.00     0.038 C 
ATOM      3  O   UNL     1     -19.790  25.773  -3.250  1.00  0.00    -0.550 OA
ATOM      4  O   UNL     1     -17.700  26.709  -3.166  1.00  0.00    -0.550 OA
ENDROOT
TORSDOF 0
ENDMDL
