MODEL 1
REMARK VINA RESULT:    -7.050      0.000      0.000
REMARK INTER + INTRA:         -12.671
REMARK INTER:                 -10.965
REMARK INTRA:                  -1.706
REMARK UNBOUND:                -1.706
REMARK SMILES C[C@]12C[C@]3(O)O[C@H](O1)[C@@]1(COC(=O)c4ccccc4)[C@@H]3C[C@]12O[C@H]1O[C@@H](CO)[C@@H](O)[C@@H](O)[C@H]1O
REMARK SMILES IDX 1 1 2 2 3 3 4 4 20 5 21 6 22 7 9 8 7 9 8 10 6 11 23 12 24 13
REMARK SMILES IDX 33 14 25 15 31 16 26 17 29 18 34 19 32 21 27 23 28 24 30 26
REMARK SMILES IDX 5 28 10 30 11 31 12 32 13 33 14 34 15 35 19 36 16 37 18 38
REMARK SMILES IDX 17 39
REMARK H PARENT 34 20 32 22 28 25 30 27 5 29
REMARK Flexibility Score: inf
ROOT
ATOM      1  C   UNL     1      -1.251  23.295  26.276  1.00  0.00     0.046 C 
ATOM      2  C   UNL     1      -1.716  23.856  27.638  1.00  0.00     0.104 C 
ATOM      3  C   UNL     1      -2.366  22.680  28.477  1.00  0.00     0.104 C 
ATOM      4  C   UNL     1      -2.820  23.358  29.809  1.00  0.00     0.175 C 
ATOM      5  C   UNL     1      -1.652  24.208  30.412  1.00  0.00     0.070 C 
ATOM      6  C   UNL     1      -0.289  23.846  29.815  1.00  0.00     0.050 C 
ATOM      7  C   UNL     1      -0.670  24.665  28.566  1.00  0.00     0.115 C 
ATOM      8  C   UNL     1      -1.707  25.394  29.449  1.00  0.00     0.096 C 
ATOM      9  C   UNL     1      -3.060  25.266  28.725  1.00  0.00     0.267 C 
ATOM     10  O   UNL     1      -2.781  24.758  27.433  1.00  0.00    -0.342 OA
ATOM     11  O   UNL     1      -3.792  24.299  29.439  1.00  0.00    -0.320 OA
ENDROOT
BRANCH   7  12
ATOM     12  O   UNL     1       0.489  25.381  28.109  1.00  0.00    -0.339 OA
BRANCH  12  13
ATOM     13  C   UNL     1       1.142  24.927  26.939  1.00  0.00     0.282 C 
ATOM     14  C   UNL     1       2.595  24.501  27.299  1.00  0.00     0.202 C 
ATOM     15  O   UNL     1       1.027  25.865  25.896  1.00  0.00    -0.341 OA
ATOM     16  C   UNL     1       3.578  25.700  27.411  1.00  0.00     0.179 C 
ATOM     17  C   UNL     1       2.132  26.741  25.667  1.00  0.00     0.178 C 
ATOM     18  C   UNL     1       3.040  27.026  26.875  1.00  0.00     0.177 C 
BRANCH  14  19
ATOM     19  O   UNL     1       2.606  23.726  28.477  1.00  0.00    -0.385 OA
ATOM     20  H   UNL     1       3.027  24.279  29.201  1.00  0.00     0.211 HD
ENDBRANCH  14  19
BRANCH  16  21
ATOM     21  O   UNL     1       4.146  25.855  28.682  1.00  0.00    -0.387 OA
ATOM     22  H   UNL     1       5.121  25.788  28.561  1.00  0.00     0.211 HD
ENDBRANCH  16  21
BRANCH  17  23
ATOM     23  C   UNL     1       1.533  28.016  25.052  1.00  0.00     0.191 C 
BRANCH  23  24
ATOM     24  O   UNL     1       1.455  27.902  23.654  1.00  0.00    -0.394 OA
ATOM     25  H   UNL     1       1.339  26.949  23.449  1.00  0.00     0.210 HD
ENDBRANCH  23  24
ENDBRANCH  17  23
BRANCH  18  26
ATOM     26  O   UNL     1       2.461  27.828  27.889  1.00  0.00    -0.387 OA
ATOM     27  H   UNL     1       1.724  27.306  28.275  1.00  0.00     0.211 HD
ENDBRANCH  18  26
ENDBRANCH  12  13
ENDBRANCH   7  12
BRANCH   4  28
ATOM     28  O   UNL     1      -3.344  22.437  30.712  1.00  0.00    -0.365 OA
ATOM     29  H   UNL     1      -2.897  21.553  30.530  1.00  0.00     0.214 HD
ENDBRANCH   4  28
BRANCH   8  30
ATOM     30  C   UNL     1      -1.503  26.748  30.148  1.00  0.00     0.249 C 
BRANCH  30  31
ATOM     31  O   UNL     1      -1.921  27.840  29.350  1.00  0.00    -0.461 OA
BRANCH  31  32
ATOM     32  C   UNL     1      -1.046  28.545  28.530  1.00  0.00     0.338 C 
ATOM     33  O   UNL     1       0.057  28.981  28.972  1.00  0.00    -0.246 OA
BRANCH  32  34
ATOM     34  C   UNL     1      -1.406  28.738  27.126  1.00  0.00     0.060 A 
ATOM     35  C   UNL     1      -1.996  27.685  26.413  1.00  0.00     0.015 A 
ATOM     36  C   UNL     1      -1.118  29.949  26.492  1.00  0.00     0.015 A 
ATOM     37  C   UNL     1      -2.275  27.843  25.058  1.00  0.00     0.001 A 
ATOM     38  C   UNL     1      -1.456  30.125  25.143  1.00  0.00     0.001 A 
ATOM     39  C   UNL     1      -2.039  29.077  24.427  1.00  0.00     0.000 A 
ENDBRANCH  32  34
ENDBRANCH  31  32
ENDBRANCH  30  31
ENDBRANCH   8  30
TORSDOF 12
ENDMDL
MODEL 2
REMARK VINA RESULT:    -6.701      1.938      3.847
REMARK INTER + INTRA:         -12.128
REMARK INTER:                 -10.430
REMARK INTRA:                  -1.698
REMARK UNBOUND:                -1.706
REMARK SMILES C[C@]12C[C@]3(O)O[C@H](O1)[C@@]1(COC(=O)c4ccccc4)[C@@H]3C[C@]12O[C@H]1O[C@@H](CO)[C@@H](O)[C@@H](O)[C@H]1O
REMARK SMILES IDX 1 1 2 2 3 3 4 4 20 5 21 6 22 7 9 8 7 9 8 10 6 11 23 12 24 13
REMARK SMILES IDX 33 14 25 15 31 16 26 17 29 18 34 19 32 21 27 23 28 24 30 26
REMARK SMILES IDX 5 28 10 30 11 31 12 32 13 33 14 34 15 35 19 36 16 37 18 38
REMARK SMILES IDX 17 39
REMARK H PARENT 34 20 32 22 28 25 30 27 5 29
REMARK Flexibility Score: inf
ROOT
ATOM      1  C   UNL     1      -1.147  23.366  26.211  1.00  0.00     0.046 C 
ATOM      2  C   UNL     1      -1.691  23.887  27.559  1.00  0.00     0.104 C 
ATOM      3  C   UNL     1      -2.324  22.672  28.355  1.00  0.00     0.104 C 
ATOM      4  C   UNL     1      -2.861  23.311  29.676  1.00  0.00     0.175 C 
ATOM      5  C   UNL     1      -1.757  24.201  30.338  1.00  0.00     0.070 C 
ATOM      6  C   UNL     1      -0.356  23.908  29.794  1.00  0.00     0.050 C 
ATOM      7  C   UNL     1      -0.720  24.727  28.541  1.00  0.00     0.115 C 
ATOM      8  C   UNL     1      -1.823  25.398  29.389  1.00  0.00     0.096 C 
ATOM      9  C   UNL     1      -3.139  25.223  28.607  1.00  0.00     0.267 C 
ATOM     10  O   UNL     1      -2.785  24.746  27.322  1.00  0.00    -0.342 OA
ATOM     11  O   UNL     1      -3.857  24.214  29.277  1.00  0.00    -0.320 OA
ENDROOT
BRANCH   7  12
ATOM     12  O   UNL     1       0.424  25.499  28.142  1.00  0.00    -0.339 OA
BRANCH  12  13
ATOM     13  C   UNL     1       0.999  25.243  26.875  1.00  0.00     0.282 C 
ATOM     14  C   UNL     1       2.489  24.836  27.063  1.00  0.00     0.202 C 
ATOM     15  O   UNL     1       0.771  26.312  25.988  1.00  0.00    -0.341 OA
ATOM     16  C   UNL     1       3.436  26.050  27.275  1.00  0.00     0.179 C 
ATOM     17  C   UNL     1       1.825  27.260  25.808  1.00  0.00     0.178 C 
ATOM     18  C   UNL     1       2.814  27.413  26.975  1.00  0.00     0.177 C 
BRANCH  14  19
ATOM     19  O   UNL     1       2.618  23.905  28.115  1.00  0.00    -0.385 OA
ATOM     20  H   UNL     1       1.898  24.102  28.786  1.00  0.00     0.211 HD
ENDBRANCH  14  19
BRANCH  16  21
ATOM     21  O   UNL     1       4.097  26.051  28.511  1.00  0.00    -0.387 OA
ATOM     22  H   UNL     1       3.673  26.756  29.052  1.00  0.00     0.211 HD
ENDBRANCH  16  21
BRANCH  17  23
ATOM     23  C   UNL     1       1.136  28.581  25.427  1.00  0.00     0.191 C 
BRANCH  23  24
ATOM     24  O   UNL     1       1.950  29.677  25.758  1.00  0.00    -0.394 OA
ATOM     25  H   UNL     1       2.249  29.545  26.683  1.00  0.00     0.210 HD
ENDBRANCH  23  24
ENDBRANCH  17  23
BRANCH  18  26
ATOM     26  O   UNL     1       2.289  28.038  28.133  1.00  0.00    -0.387 OA
ATOM     27  H   UNL     1       1.718  28.775  27.823  1.00  0.00     0.211 HD
ENDBRANCH  18  26
ENDBRANCH  12  13
ENDBRANCH   7  12
BRANCH   4  28
ATOM     28  O   UNL     1      -3.381  22.355  30.545  1.00  0.00    -0.365 OA
ATOM     29  H   UNL     1      -3.067  22.593  31.472  1.00  0.00     0.214 HD
ENDBRANCH   4  28
BRANCH   8  30
ATOM     30  C   UNL     1      -1.708  26.749  30.114  1.00  0.00     0.249 C 
BRANCH  30  31
ATOM     31  O   UNL     1      -2.971  27.305  30.429  1.00  0.00    -0.461 OA
BRANCH  31  32
ATOM     32  C   UNL     1      -3.504  27.269  31.713  1.00  0.00     0.338 C 
ATOM     33  O   UNL     1      -3.261  28.189  32.548  1.00  0.00    -0.246 OA
BRANCH  32  34
ATOM     34  C   UNL     1      -4.392  26.164  32.071  1.00  0.00     0.060 A 
ATOM     35  C   UNL     1      -3.949  25.188  32.975  1.00  0.00     0.015 A 
ATOM     36  C   UNL     1      -5.652  26.060  31.478  1.00  0.00     0.015 A 
ATOM     37  C   UNL     1      -4.765  24.096  33.263  1.00  0.00     0.001 A 
ATOM     38  C   UNL     1      -6.495  24.992  31.817  1.00  0.00     0.001 A 
ATOM     39  C   UNL     1      -6.056  24.014  32.712  1.00  0.00     0.000 A 
ENDBRANCH  32  34
ENDBRANCH  31  32
ENDBRANCH  30  31
ENDBRANCH   8  30
TORSDOF 12
ENDMDL
MODEL 3
REMARK VINA RESULT:    -6.561      2.321      4.543
REMARK INTER + INTRA:         -11.910
REMARK INTER:                 -10.696
REMARK INTRA:                  -1.214
REMARK UNBOUND:                -1.706
REMARK SMILES C[C@]12C[C@]3(O)O[C@H](O1)[C@@]1(COC(=O)c4ccccc4)[C@@H]3C[C@]12O[C@H]1O[C@@H](CO)[C@@H](O)[C@@H](O)[C@H]1O
REMARK SMILES IDX 1 1 2 2 3 3 4 4 20 5 21 6 22 7 9 8 7 9 8 10 6 11 23 12 24 13
REMARK SMILES IDX 33 14 25 15 31 16 26 17 29 18 34 19 32 21 27 23 28 24 30 26
REMARK SMILES IDX 5 28 10 30 11 31 12 32 13 33 14 34 15 35 19 36 16 37 18 38
REMARK SMILES IDX 17 39
REMARK H PARENT 34 20 32 22 28 25 30 27 5 29
REMARK Flexibility Score: inf
ROOT
ATOM      1  C   UNL     1      -2.017  27.106  26.269  1.00  0.00     0.046 C 
ATOM      2  C   UNL     1      -2.386  26.557  27.665  1.00  0.00     0.104 C 
ATOM      3  C   UNL     1      -3.873  26.012  27.620  1.00  0.00     0.104 C 
ATOM      4  C   UNL     1      -4.148  25.511  29.074  1.00  0.00     0.175 C 
ATOM      5  C   UNL     1      -2.981  24.588  29.561  1.00  0.00     0.070 C 
ATOM      6  C   UNL     1      -2.112  24.078  28.408  1.00  0.00     0.050 C 
ATOM      7  C   UNL     1      -1.432  25.459  28.369  1.00  0.00     0.115 C 
ATOM      8  C   UNL     1      -1.926  25.663  29.818  1.00  0.00     0.096 C 
ATOM      9  C   UNL     1      -2.698  26.996  29.830  1.00  0.00     0.267 C 
ATOM     10  O   UNL     1      -2.442  27.623  28.587  1.00  0.00    -0.342 OA
ATOM     11  O   UNL     1      -4.062  26.652  29.885  1.00  0.00    -0.320 OA
ENDROOT
BRANCH   7  12
ATOM     12  O   UNL     1      -0.027  25.279  28.125  1.00  0.00    -0.339 OA
BRANCH  12  13
ATOM     13  C   UNL     1       0.374  24.698  26.900  1.00  0.00     0.282 C 
ATOM     14  C   UNL     1       1.497  23.656  27.174  1.00  0.00     0.202 C 
ATOM     15  O   UNL     1       0.684  25.685  25.946  1.00  0.00    -0.341 OA
ATOM     16  C   UNL     1       2.901  24.298  27.357  1.00  0.00     0.179 C 
ATOM     17  C   UNL     1       2.061  26.016  25.757  1.00  0.00     0.178 C 
ATOM     18  C   UNL     1       2.994  25.770  26.954  1.00  0.00     0.177 C 
BRANCH  14  19
ATOM     19  O   UNL     1       1.164  22.848  28.280  1.00  0.00    -0.385 OA
ATOM     20  H   UNL     1       1.909  22.190  28.412  1.00  0.00     0.211 HD
ENDBRANCH  14  19
BRANCH  16  21
ATOM     21  O   UNL     1       3.471  24.076  28.617  1.00  0.00    -0.387 OA
ATOM     22  H   UNL     1       3.321  24.898  29.138  1.00  0.00     0.211 HD
ENDBRANCH  16  21
BRANCH  17  23
ATOM     23  C   UNL     1       2.076  27.475  25.274  1.00  0.00     0.191 C 
BRANCH  23  24
ATOM     24  O   UNL     1       1.468  27.586  24.012  1.00  0.00    -0.394 OA
ATOM     25  H   UNL     1       1.510  26.700  23.594  1.00  0.00     0.210 HD
ENDBRANCH  23  24
ENDBRANCH  17  23
BRANCH  18  26
ATOM     26  O   UNL     1       2.811  26.645  28.052  1.00  0.00    -0.387 OA
ATOM     27  H   UNL     1       2.072  26.279  28.586  1.00  0.00     0.211 HD
ENDBRANCH  18  26
ENDBRANCH  12  13
ENDBRANCH   7  12
BRANCH   4  28
ATOM     28  O   UNL     1      -5.400  24.913  29.193  1.00  0.00    -0.365 OA
ATOM     29  H   UNL     1      -5.935  25.178  28.382  1.00  0.00     0.214 HD
ENDBRANCH   4  28
BRANCH   8  30
ATOM     30  C   UNL     1      -1.106  25.410  31.094  1.00  0.00     0.249 C 
BRANCH  30  31
ATOM     31  O   UNL     1      -1.750  25.896  32.258  1.00  0.00    -0.461 OA
BRANCH  31  32
ATOM     32  C   UNL     1      -2.360  25.054  33.182  1.00  0.00     0.338 C 
ATOM     33  O   UNL     1      -1.697  24.529  34.125  1.00  0.00    -0.246 OA
BRANCH  32  34
ATOM     34  C   UNL     1      -3.798  24.817  33.070  1.00  0.00     0.060 A 
ATOM     35  C   UNL     1      -4.270  23.509  32.893  1.00  0.00     0.015 A 
ATOM     36  C   UNL     1      -4.687  25.894  33.092  1.00  0.00     0.015 A 
ATOM     37  C   UNL     1      -5.634  23.288  32.716  1.00  0.00     0.001 A 
ATOM     38  C   UNL     1      -6.064  25.662  32.973  1.00  0.00     0.001 A 
ATOM     39  C   UNL     1      -6.540  24.361  32.791  1.00  0.00     0.000 A 
ENDBRANCH  32  34
ENDBRANCH  31  32
ENDBRANCH  30  31
ENDBRANCH   8  30
TORSDOF 12
ENDMDL
MODEL 4
REMARK VINA RESULT:    -6.502      2.214      5.254
REMARK INTER + INTRA:         -11.819
REMARK INTER:                  -9.815
REMARK INTRA:                  -2.004
REMARK UNBOUND:                -1.706
REMARK SMILES C[C@]12C[C@]3(O)O[C@H](O1)[C@@]1(COC(=O)c4ccccc4)[C@@H]3C[C@]12O[C@H]1O[C@@H](CO)[C@@H](O)[C@@H](O)[C@H]1O
REMARK SMILES IDX 1 1 2 2 3 3 4 4 20 5 21 6 22 7 9 8 7 9 8 10 6 11 23 12 24 13
REMARK SMILES IDX 33 14 25 15 31 16 26 17 29 18 34 19 32 21 27 23 28 24 30 26
REMARK SMILES IDX 5 28 10 30 11 31 12 32 13 33 14 34 15 35 19 36 16 37 18 38
REMARK SMILES IDX 17 39
REMARK H PARENT 34 20 32 22 28 25 30 27 5 29
REMARK Flexibility Score: inf
ROOT
ATOM      1  C   UNL     1      -2.851  28.678  27.218  1.00  0.00     0.046 C 
ATOM      2  C   UNL     1      -2.838  27.473  28.183  1.00  0.00     0.104 C 
ATOM      3  C   UNL     1      -4.282  26.822  28.202  1.00  0.00     0.104 C 
ATOM      4  C   UNL     1      -4.164  25.642  29.219  1.00  0.00     0.175 C 
ATOM      5  C   UNL     1      -2.906  24.768  28.894  1.00  0.00     0.070 C 
ATOM      6  C   UNL     1      -2.368  25.011  27.482  1.00  0.00     0.050 C 
ATOM      7  C   UNL     1      -1.728  26.313  27.998  1.00  0.00     0.115 C 
ATOM      8  C   UNL     1      -1.825  25.713  29.418  1.00  0.00     0.096 C 
ATOM      9  C   UNL     1      -2.573  26.750  30.277  1.00  0.00     0.267 C 
ATOM     10  O   UNL     1      -2.654  27.933  29.504  1.00  0.00    -0.342 OA
ATOM     11  O   UNL     1      -3.873  26.240  30.454  1.00  0.00    -0.320 OA
ENDROOT
BRANCH   7  12
ATOM     12  O   UNL     1      -0.436  26.470  27.389  1.00  0.00    -0.339 OA
BRANCH  12  13
ATOM     13  C   UNL     1       0.209  27.724  27.492  1.00  0.00     0.282 C 
ATOM     14  C   UNL     1       0.625  28.202  26.070  1.00  0.00     0.202 C 
ATOM     15  O   UNL     1       1.243  27.688  28.446  1.00  0.00    -0.341 OA
ATOM     16  C   UNL     1       1.937  27.543  25.560  1.00  0.00     0.179 C 
ATOM     17  C   UNL     1       2.579  27.513  27.969  1.00  0.00     0.178 C 
ATOM     18  C   UNL     1       2.734  26.787  26.623  1.00  0.00     0.177 C 
BRANCH  14  19
ATOM     19  O   UNL     1      -0.428  28.005  25.154  1.00  0.00    -0.385 OA
ATOM     20  H   UNL     1      -0.473  27.025  24.947  1.00  0.00     0.211 HD
ENDBRANCH  14  19
BRANCH  16  21
ATOM     21  O   UNL     1       1.777  26.775  24.399  1.00  0.00    -0.387 OA
ATOM     22  H   UNL     1       2.487  26.093  24.417  1.00  0.00     0.211 HD
ENDBRANCH  16  21
BRANCH  17  23
ATOM     23  C   UNL     1       3.343  26.827  29.113  1.00  0.00     0.191 C 
BRANCH  23  24
ATOM     24  O   UNL     1       4.382  26.029  28.605  1.00  0.00    -0.394 OA
ATOM     25  H   UNL     1       5.114  26.634  28.358  1.00  0.00     0.210 HD
ENDBRANCH  23  24
ENDBRANCH  17  23
BRANCH  18  26
ATOM     26  O   UNL     1       2.434  25.403  26.645  1.00  0.00    -0.387 OA
ATOM     27  H   UNL     1       1.468  25.321  26.486  1.00  0.00     0.211 HD
ENDBRANCH  18  26
ENDBRANCH  12  13
ENDBRANCH   7  12
BRANCH   4  28
ATOM     28  O   UNL     1      -5.338  24.897  29.296  1.00  0.00    -0.365 OA
ATOM     29  H   UNL     1      -5.528  24.741  30.273  1.00  0.00     0.214 HD
ENDBRANCH   4  28
BRANCH   8  30
ATOM     30  C   UNL     1      -0.698  24.984  30.168  1.00  0.00     0.249 C 
BRANCH  30  31
ATOM     31  O   UNL     1      -0.737  25.214  31.564  1.00  0.00    -0.461 OA
BRANCH  31  32
ATOM     32  C   UNL     1      -1.171  24.252  32.469  1.00  0.00     0.338 C 
ATOM     33  O   UNL     1      -0.350  23.480  33.047  1.00  0.00    -0.246 OA
BRANCH  32  34
ATOM     34  C   UNL     1      -2.598  24.173  32.776  1.00  0.00     0.060 A 
ATOM     35  C   UNL     1      -3.156  25.071  33.697  1.00  0.00     0.015 A 
ATOM     36  C   UNL     1      -3.385  23.179  32.190  1.00  0.00     0.015 A 
ATOM     37  C   UNL     1      -4.501  24.953  34.044  1.00  0.00     0.001 A 
ATOM     38  C   UNL     1      -4.751  23.102  32.497  1.00  0.00     0.001 A 
ATOM     39  C   UNL     1      -5.311  23.991  33.418  1.00  0.00     0.000 A 
ENDBRANCH  32  34
ENDBRANCH  31  32
ENDBRANCH  30  31
ENDBRANCH   8  30
TORSDOF 12
ENDMDL
MODEL 5
REMARK VINA RESULT:    -6.350      1.967      3.485
REMARK INTER + INTRA:         -11.583
REMARK INTER:                  -9.951
REMARK INTRA:                  -1.632
REMARK UNBOUND:                -1.706
REMARK SMILES C[C@]12C[C@]3(O)O[C@H](O1)[C@@]1(COC(=O)c4ccccc4)[C@@H]3C[C@]12O[C@H]1O[C@@H](CO)[C@@H](O)[C@@H](O)[C@H]1O
REMARK SMILES IDX 1 1 2 2 3 3 4 4 20 5 21 6 22 7 9 8 7 9 8 10 6 11 23 12 24 13
REMARK SMILES IDX 33 14 25 15 31 16 26 17 29 18 34 19 32 21 27 23 28 24 30 26
REMARK SMILES IDX 5 28 10 30 11 31 12 32 13 33 14 34 15 35 19 36 16 37 18 38
REMARK SMILES IDX 17 39
REMARK H PARENT 34 20 32 22 28 25 30 27 5 29
REMARK Flexibility Score: inf
ROOT
ATOM      1  C   UNL     1      -1.806  23.377  26.458  1.00  0.00     0.046 C 
ATOM      2  C   UNL     1      -2.033  24.068  27.820  1.00  0.00     0.104 C 
ATOM      3  C   UNL     1      -2.335  22.958  28.909  1.00  0.00     0.104 C 
ATOM      4  C   UNL     1      -2.573  23.762  30.227  1.00  0.00     0.175 C 
ATOM      5  C   UNL     1      -1.419  24.796  30.450  1.00  0.00     0.070 C 
ATOM      6  C   UNL     1      -0.182  24.492  29.599  1.00  0.00     0.050 C 
ATOM      7  C   UNL     1      -0.922  25.093  28.389  1.00  0.00     0.115 C 
ATOM      8  C   UNL     1      -1.828  25.830  29.401  1.00  0.00     0.096 C 
ATOM      9  C   UNL     1      -3.278  25.474  29.024  1.00  0.00     0.267 C 
ATOM     10  O   UNL     1      -3.222  24.826  27.767  1.00  0.00    -0.342 OA
ATOM     11  O   UNL     1      -3.712  24.545  29.989  1.00  0.00    -0.320 OA
ENDROOT
BRANCH   7  12
ATOM     12  O   UNL     1       0.012  25.851  27.603  1.00  0.00    -0.339 OA
BRANCH  12  13
ATOM     13  C   UNL     1      -0.181  25.912  26.203  1.00  0.00     0.282 C 
ATOM     14  C   UNL     1       1.201  26.054  25.503  1.00  0.00     0.202 C 
ATOM     15  O   UNL     1      -1.136  26.889  25.863  1.00  0.00    -0.341 OA
ATOM     16  C   UNL     1       1.750  27.508  25.514  1.00  0.00     0.179 C 
ATOM     17  C   UNL     1      -0.655  28.162  25.428  1.00  0.00     0.178 C 
ATOM     18  C   UNL     1       0.738  28.575  25.932  1.00  0.00     0.177 C 
BRANCH  14  19
ATOM     19  O   UNL     1       2.134  25.158  26.064  1.00  0.00    -0.385 OA
ATOM     20  H   UNL     1       1.795  24.892  26.970  1.00  0.00     0.211 HD
ENDBRANCH  14  19
BRANCH  16  21
ATOM     21  O   UNL     1       2.962  27.656  26.201  1.00  0.00    -0.387 OA
ATOM     22  H   UNL     1       2.906  27.072  26.992  1.00  0.00     0.211 HD
ENDBRANCH  16  21
BRANCH  17  23
ATOM     23  C   UNL     1      -1.752  29.171  25.802  1.00  0.00     0.191 C 
BRANCH  23  24
ATOM     24  O   UNL     1      -2.017  29.126  27.181  1.00  0.00    -0.394 OA
ATOM     25  H   UNL     1      -1.275  29.583  27.632  1.00  0.00     0.210 HD
ENDBRANCH  23  24
ENDBRANCH  17  23
BRANCH  18  26
ATOM     26  O   UNL     1       0.814  28.884  27.313  1.00  0.00    -0.387 OA
ATOM     27  H   UNL     1      -0.068  28.683  27.696  1.00  0.00     0.211 HD
ENDBRANCH  18  26
ENDBRANCH  12  13
ENDBRANCH   7  12
BRANCH   4  28
ATOM     28  O   UNL     1      -2.770  22.925  31.322  1.00  0.00    -0.365 OA
ATOM     29  H   UNL     1      -2.024  23.106  31.974  1.00  0.00     0.214 HD
ENDBRANCH   4  28
BRANCH   8  30
ATOM     30  C   UNL     1      -1.650  27.280  29.882  1.00  0.00     0.249 C 
BRANCH  30  31
ATOM     31  O   UNL     1      -0.339  27.767  29.663  1.00  0.00    -0.461 OA
BRANCH  31  32
ATOM     32  C   UNL     1       0.593  27.893  30.688  1.00  0.00     0.338 C 
ATOM     33  O   UNL     1       0.238  27.859  31.902  1.00  0.00    -0.246 OA
BRANCH  32  34
ATOM     34  C   UNL     1       2.006  28.023  30.336  1.00  0.00     0.060 A 
ATOM     35  C   UNL     1       2.636  26.996  29.618  1.00  0.00     0.015 A 
ATOM     36  C   UNL     1       2.730  29.141  30.755  1.00  0.00     0.015 A 
ATOM     37  C   UNL     1       3.999  27.085  29.342  1.00  0.00     0.001 A 
ATOM     38  C   UNL     1       4.088  29.255  30.424  1.00  0.00     0.001 A 
ATOM     39  C   UNL     1       4.721  28.233  29.714  1.00  0.00     0.000 A 
ENDBRANCH  32  34
ENDBRANCH  31  32
ENDBRANCH  30  31
ENDBRANCH   8  30
TORSDOF 12
ENDMDL
MODEL 6
REMARK VINA RESULT:    -6.311      2.276      5.657
REMARK INTER + INTRA:         -11.521
REMARK INTER:                  -9.380
REMARK INTRA:                  -2.141
REMARK UNBOUND:                -1.706
REMARK SMILES C[C@]12C[C@]3(O)O[C@H](O1)[C@@]1(COC(=O)c4ccccc4)[C@@H]3C[C@]12O[C@H]1O[C@@H](CO)[C@@H](O)[C@@H](O)[C@H]1O
REMARK SMILES IDX 1 1 2 2 3 3 4 4 20 5 21 6 22 7 9 8 7 9 8 10 6 11 23 12 24 13
REMARK SMILES IDX 33 14 25 15 31 16 26 17 29 18 34 19 32 21 27 23 28 24 30 26
REMARK SMILES IDX 5 28 10 30 11 31 12 32 13 33 14 34 15 35 19 36 16 37 18 38
REMARK SMILES IDX 17 39
REMARK H PARENT 34 20 32 22 28 25 30 27 5 29
REMARK Flexibility Score: inf
ROOT
ATOM      1  C   UNL     1      -2.426  22.253  28.602  1.00  0.00     0.046 C 
ATOM      2  C   UNL     1      -1.474  23.432  28.303  1.00  0.00     0.104 C 
ATOM      3  C   UNL     1      -1.500  23.723  26.746  1.00  0.00     0.104 C 
ATOM      4  C   UNL     1      -0.494  24.902  26.554  1.00  0.00     0.175 C 
ATOM      5  C   UNL     1      -0.795  26.047  27.578  1.00  0.00     0.070 C 
ATOM      6  C   UNL     1      -2.191  25.932  28.198  1.00  0.00     0.050 C 
ATOM      7  C   UNL     1      -1.644  24.820  29.113  1.00  0.00     0.115 C 
ATOM      8  C   UNL     1      -0.233  25.387  28.837  1.00  0.00     0.096 C 
ATOM      9  C   UNL     1       0.618  24.207  28.331  1.00  0.00     0.267 C 
ATOM     10  O   UNL     1      -0.144  23.035  28.553  1.00  0.00    -0.342 OA
ATOM     11  O   UNL     1       0.755  24.396  26.943  1.00  0.00    -0.320 OA
ENDROOT
BRANCH   7  12
ATOM     12  O   UNL     1      -2.216  24.971  30.422  1.00  0.00    -0.339 OA
BRANCH  12  13
ATOM     13  C   UNL     1      -1.904  24.007  31.408  1.00  0.00     0.282 C 
ATOM     14  C   UNL     1      -3.223  23.480  32.043  1.00  0.00     0.202 C 
ATOM     15  O   UNL     1      -0.949  24.500  32.317  1.00  0.00    -0.341 OA
ATOM     16  C   UNL     1      -3.808  24.431  33.125  1.00  0.00     0.179 C 
ATOM     17  C   UNL     1      -1.423  25.009  33.565  1.00  0.00     0.178 C 
ATOM     18  C   UNL     1      -2.864  25.543  33.583  1.00  0.00     0.177 C 
BRANCH  14  19
ATOM     19  O   UNL     1      -4.178  23.205  31.043  1.00  0.00    -0.385 OA
ATOM     20  H   UNL     1      -4.546  24.082  30.723  1.00  0.00     0.211 HD
ENDBRANCH  14  19
BRANCH  16  21
ATOM     21  O   UNL     1      -5.079  24.934  32.817  1.00  0.00    -0.387 OA
ATOM     22  H   UNL     1      -5.017  25.306  31.907  1.00  0.00     0.211 HD
ENDBRANCH  16  21
BRANCH  17  23
ATOM     23  C   UNL     1      -0.388  26.056  34.008  1.00  0.00     0.191 C 
BRANCH  23  24
ATOM     24  O   UNL     1      -0.262  27.066  33.039  1.00  0.00    -0.394 OA
ATOM     25  H   UNL     1       0.297  27.772  33.431  1.00  0.00     0.210 HD
ENDBRANCH  23  24
ENDBRANCH  17  23
BRANCH  18  26
ATOM     26  O   UNL     1      -3.068  26.754  32.876  1.00  0.00    -0.387 OA
ATOM     27  H   UNL     1      -3.898  26.645  32.363  1.00  0.00     0.211 HD
ENDBRANCH  18  26
ENDBRANCH  12  13
ENDBRANCH   7  12
BRANCH   4  28
ATOM     28  O   UNL     1      -0.456  25.349  25.236  1.00  0.00    -0.365 OA
ATOM     29  H   UNL     1      -0.549  26.352  25.258  1.00  0.00     0.214 HD
ENDBRANCH   4  28
BRANCH   8  30
ATOM     30  C   UNL     1       0.537  26.366  29.738  1.00  0.00     0.249 C 
BRANCH  30  31
ATOM     31  O   UNL     1       1.919  26.413  29.431  1.00  0.00    -0.461 OA
BRANCH  31  32
ATOM     32  C   UNL     1       2.526  27.540  28.886  1.00  0.00     0.338 C 
ATOM     33  O   UNL     1       3.408  28.182  29.528  1.00  0.00    -0.246 OA
BRANCH  32  34
ATOM     34  C   UNL     1       2.154  27.949  27.533  1.00  0.00     0.060 A 
ATOM     35  C   UNL     1       1.368  29.095  27.350  1.00  0.00     0.015 A 
ATOM     36  C   UNL     1       2.541  27.173  26.438  1.00  0.00     0.015 A 
ATOM     37  C   UNL     1       0.954  29.447  26.067  1.00  0.00     0.001 A 
ATOM     38  C   UNL     1       2.173  27.564  25.143  1.00  0.00     0.001 A 
ATOM     39  C   UNL     1       1.385  28.702  24.955  1.00  0.00     0.000 A 
ENDBRANCH  32  34
ENDBRANCH  31  32
ENDBRANCH  30  31
ENDBRANCH   8  30
TORSDOF 12
ENDMDL
MODEL 7
REMARK VINA RESULT:    -6.274      3.132      6.856
REMARK INTER + INTRA:         -11.464
REMARK INTER:                 -10.029
REMARK INTRA:                  -1.435
REMARK UNBOUND:                -1.706
REMARK SMILES C[C@]12C[C@]3(O)O[C@H](O1)[C@@]1(COC(=O)c4ccccc4)[C@@H]3C[C@]12O[C@H]1O[C@@H](CO)[C@@H](O)[C@@H](O)[C@H]1O
REMARK SMILES IDX 1 1 2 2 3 3 4 4 20 5 21 6 22 7 9 8 7 9 8 10 6 11 23 12 24 13
REMARK SMILES IDX 33 14 25 15 31 16 26 17 29 18 34 19 32 21 27 23 28 24 30 26
REMARK SMILES IDX 5 28 10 30 11 31 12 32 13 33 14 34 15 35 19 36 16 37 18 38
REMARK SMILES IDX 17 39
REMARK H PARENT 34 20 32 22 28 25 30 27 5 29
REMARK Flexibility Score: inf
ROOT
ATOM      1  C   UNL     1      -0.142  24.190  25.878  1.00  0.00     0.046 C 
ATOM      2  C   UNL     1       0.662  25.352  26.503  1.00  0.00     0.104 C 
ATOM      3  C   UNL     1       1.139  26.320  25.343  1.00  0.00     0.104 C 
ATOM      4  C   UNL     1       1.957  27.431  26.076  1.00  0.00     0.175 C 
ATOM      5  C   UNL     1       1.144  27.992  27.291  1.00  0.00     0.070 C 
ATOM      6  C   UNL     1      -0.345  27.643  27.217  1.00  0.00     0.050 C 
ATOM      7  C   UNL     1       0.010  26.223  27.697  1.00  0.00     0.115 C 
ATOM      8  C   UNL     1       1.323  26.817  28.253  1.00  0.00     0.096 C 
ATOM      9  C   UNL     1       2.467  25.975  27.656  1.00  0.00     0.267 C 
ATOM     10  O   UNL     1       1.864  24.850  27.044  1.00  0.00    -0.342 OA
ATOM     11  O   UNL     1       3.052  26.772  26.653  1.00  0.00    -0.320 OA
ENDROOT
BRANCH   7  12
ATOM     12  O   UNL     1      -1.001  25.776  28.615  1.00  0.00    -0.339 OA
BRANCH  12  13
ATOM     13  C   UNL     1      -0.935  24.447  29.094  1.00  0.00     0.282 C 
ATOM     14  C   UNL     1      -2.301  23.745  28.842  1.00  0.00     0.202 C 
ATOM     15  O   UNL     1      -0.469  24.407  30.421  1.00  0.00    -0.341 OA
ATOM     16  C   UNL     1      -3.379  24.099  29.904  1.00  0.00     0.179 C 
ATOM     17  C   UNL     1      -1.442  24.287  31.462  1.00  0.00     0.178 C 
ATOM     18  C   UNL     1      -2.850  24.817  31.145  1.00  0.00     0.177 C 
BRANCH  14  19
ATOM     19  O   UNL     1      -2.765  24.019  27.539  1.00  0.00    -0.385 OA
ATOM     20  H   UNL     1      -3.282  23.219  27.225  1.00  0.00     0.211 HD
ENDBRANCH  14  19
BRANCH  16  21
ATOM     21  O   UNL     1      -4.506  24.746  29.380  1.00  0.00    -0.387 OA
ATOM     22  H   UNL     1      -4.400  24.739  28.401  1.00  0.00     0.211 HD
ENDBRANCH  16  21
BRANCH  17  23
ATOM     23  C   UNL     1      -0.814  24.953  32.697  1.00  0.00     0.191 C 
BRANCH  23  24
ATOM     24  O   UNL     1      -0.469  26.286  32.420  1.00  0.00    -0.394 OA
ATOM     25  H   UNL     1      -0.824  26.833  33.153  1.00  0.00     0.210 HD
ENDBRANCH  23  24
ENDBRANCH  17  23
BRANCH  18  26
ATOM     26  O   UNL     1      -2.956  26.226  31.044  1.00  0.00    -0.387 OA
ATOM     27  H   UNL     1      -2.831  26.452  30.096  1.00  0.00     0.211 HD
ENDBRANCH  18  26
ENDBRANCH  12  13
ENDBRANCH   7  12
BRANCH   4  28
ATOM     28  O   UNL     1       2.385  28.428  25.203  1.00  0.00    -0.365 OA
ATOM     29  H   UNL     1       2.477  29.275  25.741  1.00  0.00     0.214 HD
ENDBRANCH   4  28
BRANCH   8  30
ATOM     30  C   UNL     1       1.570  27.258  29.705  1.00  0.00     0.249 C 
BRANCH  30  31
ATOM     31  O   UNL     1       2.942  27.234  30.053  1.00  0.00    -0.461 OA
BRANCH  31  32
ATOM     32  C   UNL     1       3.713  28.389  30.136  1.00  0.00     0.338 C 
ATOM     33  O   UNL     1       3.510  29.367  29.359  1.00  0.00    -0.246 OA
BRANCH  32  34
ATOM     34  C   UNL     1       4.742  28.470  31.172  1.00  0.00     0.060 A 
ATOM     35  C   UNL     1       4.360  28.573  32.517  1.00  0.00     0.015 A 
ATOM     36  C   UNL     1       6.092  28.494  30.815  1.00  0.00     0.015 A 
ATOM     37  C   UNL     1       5.337  28.722  33.500  1.00  0.00     0.001 A 
ATOM     38  C   UNL     1       7.074  28.583  31.812  1.00  0.00     0.001 A 
ATOM     39  C   UNL     1       6.699  28.691  33.153  1.00  0.00     0.000 A 
ENDBRANCH  32  34
ENDBRANCH  31  32
ENDBRANCH  30  31
ENDBRANCH   8  30
TORSDOF 12
ENDMDL
MODEL 8
REMARK VINA RESULT:    -6.157      2.341      4.559
REMARK INTER + INTRA:         -11.282
REMARK INTER:                  -9.269
REMARK INTRA:                  -2.013
REMARK UNBOUND:                -1.706
REMARK SMILES C[C@]12C[C@]3(O)O[C@H](O1)[C@@]1(COC(=O)c4ccccc4)[C@@H]3C[C@]12O[C@H]1O[C@@H](CO)[C@@H](O)[C@@H](O)[C@H]1O
REMARK SMILES IDX 1 1 2 2 3 3 4 4 20 5 21 6 22 7 9 8 7 9 8 10 6 11 23 12 24 13
REMARK SMILES IDX 33 14 25 15 31 16 26 17 29 18 34 19 32 21 27 23 28 24 30 26
REMARK SMILES IDX 5 28 10 30 11 31 12 32 13 33 14 34 15 35 19 36 16 37 18 38
REMARK SMILES IDX 17 39
REMARK H PARENT 34 20 32 22 28 25 30 27 5 29
REMARK Flexibility Score: inf
ROOT
ATOM      1  C   UNL     1      -4.305  25.987  27.397  1.00  0.00     0.046 C 
ATOM      2  C   UNL     1      -3.513  26.932  28.327  1.00  0.00     0.104 C 
ATOM      3  C   UNL     1      -4.529  27.635  29.320  1.00  0.00     0.104 C 
ATOM      4  C   UNL     1      -3.635  28.578  30.187  1.00  0.00     0.175 C 
ATOM      5  C   UNL     1      -2.398  27.796  30.743  1.00  0.00     0.070 C 
ATOM      6  C   UNL     1      -2.576  26.277  30.665  1.00  0.00     0.050 C 
ATOM      7  C   UNL     1      -2.253  26.361  29.161  1.00  0.00     0.115 C 
ATOM      8  C   UNL     1      -1.576  27.718  29.456  1.00  0.00     0.096 C 
ATOM      9  C   UNL     1      -2.218  28.741  28.501  1.00  0.00     0.267 C 
ATOM     10  O   UNL     1      -2.985  27.999  27.570  1.00  0.00    -0.342 OA
ATOM     11  O   UNL     1      -3.094  29.511  29.290  1.00  0.00    -0.320 OA
ENDROOT
BRANCH   7  12
ATOM     12  O   UNL     1      -1.438  25.235  28.797  1.00  0.00    -0.339 OA
BRANCH  12  13
ATOM     13  C   UNL     1      -1.619  24.660  27.518  1.00  0.00     0.282 C 
ATOM     14  C   UNL     1      -1.170  23.171  27.559  1.00  0.00     0.202 C 
ATOM     15  O   UNL     1      -1.016  25.446  26.517  1.00  0.00    -0.341 OA
ATOM     16  C   UNL     1       0.370  22.989  27.451  1.00  0.00     0.179 C 
ATOM     17  C   UNL     1       0.275  25.049  26.050  1.00  0.00     0.178 C 
ATOM     18  C   UNL     1       1.138  24.242  27.033  1.00  0.00     0.177 C 
BRANCH  14  19
ATOM     19  O   UNL     1      -1.674  22.535  28.713  1.00  0.00    -0.385 OA
ATOM     20  H   UNL     1      -2.229  21.755  28.413  1.00  0.00     0.211 HD
ENDBRANCH  14  19
BRANCH  16  21
ATOM     21  O   UNL     1       0.954  22.379  28.569  1.00  0.00    -0.387 OA
ATOM     22  H   UNL     1       0.468  21.535  28.710  1.00  0.00     0.211 HD
ENDBRANCH  16  21
BRANCH  17  23
ATOM     23  C   UNL     1       0.958  26.340  25.570  1.00  0.00     0.191 C 
BRANCH  23  24
ATOM     24  O   UNL     1       0.040  27.403  25.533  1.00  0.00    -0.394 OA
ATOM     25  H   UNL     1      -0.653  27.207  26.200  1.00  0.00     0.210 HD
ENDBRANCH  23  24
ENDBRANCH  17  23
BRANCH  18  26
ATOM     26  O   UNL     1       1.632  24.971  28.143  1.00  0.00    -0.387 OA
ATOM     27  H   UNL     1       1.381  25.910  27.999  1.00  0.00     0.211 HD
ENDBRANCH  18  26
ENDBRANCH  12  13
ENDBRANCH   7  12
BRANCH   4  28
ATOM     28  O   UNL     1      -4.365  29.219  31.185  1.00  0.00    -0.365 OA
ATOM     29  H   UNL     1      -4.325  28.636  32.004  1.00  0.00     0.214 HD
ENDBRANCH   4  28
BRANCH   8  30
ATOM     30  C   UNL     1      -0.072  27.944  29.687  1.00  0.00     0.249 C 
BRANCH  30  31
ATOM     31  O   UNL     1       0.682  27.840  28.493  1.00  0.00    -0.461 OA
BRANCH  31  32
ATOM     32  C   UNL     1       1.781  28.650  28.230  1.00  0.00     0.338 C 
ATOM     33  O   UNL     1       1.783  29.449  27.248  1.00  0.00    -0.246 OA
BRANCH  32  34
ATOM     34  C   UNL     1       2.926  28.593  29.137  1.00  0.00     0.060 A 
ATOM     35  C   UNL     1       3.741  27.452  29.148  1.00  0.00     0.015 A 
ATOM     36  C   UNL     1       3.172  29.648  30.018  1.00  0.00     0.015 A 
ATOM     37  C   UNL     1       4.790  27.365  30.061  1.00  0.00     0.001 A 
ATOM     38  C   UNL     1       4.266  29.582  30.893  1.00  0.00     0.001 A 
ATOM     39  C   UNL     1       5.078  28.446  30.912  1.00  0.00     0.000 A 
ENDBRANCH  32  34
ENDBRANCH  31  32
ENDBRANCH  30  31
ENDBRANCH   8  30
TORSDOF 12
ENDMDL
MODEL 9
REMARK VINA RESULT:    -6.104      2.425      6.073
REMARK INTER + INTRA:         -11.199
REMARK INTER:                  -9.042
REMARK INTRA:                  -2.157
REMARK UNBOUND:                -1.706
REMARK SMILES C[C@]12C[C@]3(O)O[C@H](O1)[C@@]1(COC(=O)c4ccccc4)[C@@H]3C[C@]12O[C@H]1O[C@@H](CO)[C@@H](O)[C@@H](O)[C@H]1O
REMARK SMILES IDX 1 1 2 2 3 3 4 4 20 5 21 6 22 7 9 8 7 9 8 10 6 11 23 12 24 13
REMARK SMILES IDX 33 14 25 15 31 16 26 17 29 18 34 19 32 21 27 23 28 24 30 26
REMARK SMILES IDX 5 28 10 30 11 31 12 32 13 33 14 34 15 35 19 36 16 37 18 38
REMARK SMILES IDX 17 39
REMARK H PARENT 34 20 32 22 28 25 30 27 5 29
REMARK Flexibility Score: inf
ROOT
ATOM      1  C   UNL     1      -3.112  22.311  29.674  1.00  0.00     0.046 C 
ATOM      2  C   UNL     1      -2.382  23.464  28.951  1.00  0.00     0.104 C 
ATOM      3  C   UNL     1      -1.924  22.957  27.521  1.00  0.00     0.104 C 
ATOM      4  C   UNL     1      -1.181  24.180  26.895  1.00  0.00     0.175 C 
ATOM      5  C   UNL     1      -2.050  25.475  27.034  1.00  0.00     0.070 C 
ATOM      6  C   UNL     1      -3.518  25.170  27.346  1.00  0.00     0.050 C 
ATOM      7  C   UNL     1      -3.105  24.901  28.806  1.00  0.00     0.115 C 
ATOM      8  C   UNL     1      -1.837  25.738  28.525  1.00  0.00     0.096 C 
ATOM      9  C   UNL     1      -0.639  24.857  28.926  1.00  0.00     0.267 C 
ATOM     10  O   UNL     1      -1.170  23.742  29.618  1.00  0.00    -0.342 OA
ATOM     11  O   UNL     1      -0.069  24.406  27.720  1.00  0.00    -0.320 OA
ENDROOT
BRANCH   7  12
ATOM     12  O   UNL     1      -4.116  25.431  29.679  1.00  0.00    -0.339 OA
BRANCH  12  13
ATOM     13  C   UNL     1      -4.195  24.929  30.999  1.00  0.00     0.282 C 
ATOM     14  C   UNL     1      -5.596  25.262  31.588  1.00  0.00     0.202 C 
ATOM     15  O   UNL     1      -3.097  25.351  31.771  1.00  0.00    -0.341 OA
ATOM     16  C   UNL     1      -5.712  26.721  32.112  1.00  0.00     0.179 C 
ATOM     17  C   UNL     1      -3.287  26.473  32.636  1.00  0.00     0.178 C 
ATOM     18  C   UNL     1      -4.385  27.470  32.230  1.00  0.00     0.177 C 
BRANCH  14  19
ATOM     19  O   UNL     1      -6.608  24.981  30.648  1.00  0.00    -0.385 OA
ATOM     20  H   UNL     1      -6.190  25.000  29.736  1.00  0.00     0.211 HD
ENDBRANCH  14  19
BRANCH  16  21
ATOM     21  O   UNL     1      -6.676  27.492  31.448  1.00  0.00    -0.387 OA
ATOM     22  H   UNL     1      -6.482  28.431  31.669  1.00  0.00     0.211 HD
ENDBRANCH  16  21
BRANCH  17  23
ATOM     23  C   UNL     1      -1.904  27.128  32.779  1.00  0.00     0.191 C 
BRANCH  23  24
ATOM     24  O   UNL     1      -0.905  26.298  32.241  1.00  0.00    -0.394 OA
ATOM     25  H   UNL     1      -1.192  25.372  32.388  1.00  0.00     0.210 HD
ENDBRANCH  23  24
ENDBRANCH  17  23
BRANCH  18  26
ATOM     26  O   UNL     1      -4.098  28.251  31.084  1.00  0.00    -0.387 OA
ATOM     27  H   UNL     1      -4.656  27.900  30.356  1.00  0.00     0.211 HD
ENDBRANCH  18  26
ENDBRANCH  12  13
ENDBRANCH   7  12
BRANCH   4  28
ATOM     28  O   UNL     1      -0.780  23.934  25.584  1.00  0.00    -0.365 OA
ATOM     29  H   UNL     1      -0.262  24.740  25.274  1.00  0.00     0.214 HD
ENDBRANCH   4  28
BRANCH   8  30
ATOM     30  C   UNL     1      -1.648  27.228  28.854  1.00  0.00     0.249 C 
BRANCH  30  31
ATOM     31  O   UNL     1      -0.507  27.466  29.657  1.00  0.00    -0.461 OA
BRANCH  31  32
ATOM     32  C   UNL     1       0.533  28.296  29.252  1.00  0.00     0.338 C 
ATOM     33  O   UNL     1       0.441  29.555  29.349  1.00  0.00    -0.246 OA
BRANCH  32  34
ATOM     34  C   UNL     1       1.760  27.683  28.747  1.00  0.00     0.060 A 
ATOM     35  C   UNL     1       1.841  27.310  27.398  1.00  0.00     0.015 A 
ATOM     36  C   UNL     1       2.823  27.429  29.616  1.00  0.00     0.015 A 
ATOM     37  C   UNL     1       2.982  26.661  26.930  1.00  0.00     0.001 A 
ATOM     38  C   UNL     1       3.993  26.830  29.129  1.00  0.00     0.001 A 
ATOM     39  C   UNL     1       4.077  26.452  27.787  1.00  0.00     0.000 A 
ENDBRANCH  32  34
ENDBRANCH  31  32
ENDBRANCH  30  31
ENDBRANCH   8  30
TORSDOF 12
ENDMDL
