MODEL 1
REMARK VINA RESULT:    -4.154      0.000      0.000
REMARK INTER + INTRA:          -5.735
REMARK INTER:                  -5.126
REMARK INTRA:                  -0.609
REMARK UNBOUND:                -0.609
REMARK SMILES CCCCC=CC(C)=O
REMARK SMILES IDX 4 1 3 2 2 3 1 4 5 5 6 6 7 7 9 8 8 9
REMARK H PARENT
REMARK Flexibility Score: inf
ROOT
ATOM      1  C   UNL     1     -12.711 -16.425  31.532  1.00  0.00     0.027 C 
ENDROOT
BRANCH   1   2
ATOM      2  C   UNL     1     -13.676 -15.738  30.561  1.00  0.00     0.004 C 
BRANCH   2   3
ATOM      3  C   UNL     1     -13.079 -15.670  29.150  1.00  0.00    -0.003 C 
ATOM      4  C   UNL     1     -11.574 -15.922  29.177  1.00  0.00     0.004 C 
ENDBRANCH   2   3
ENDBRANCH   1   2
BRANCH   1   5
ATOM      5  C   UNL     1     -13.371 -17.608  32.186  1.00  0.00    -0.023 C 
ATOM      6  C   UNL     1     -13.360 -18.867  31.718  1.00  0.00     0.042 C 
BRANCH   6   7
ATOM      7  C   UNL     1     -12.622 -19.339  30.531  1.00  0.00     0.152 C 
ATOM      8  O   UNL     1     -11.376 -19.506  30.620  1.00  0.00    -0.295 OA
ATOM      9  C   UNL     1     -13.282 -19.540  29.200  1.00  0.00     0.093 C 
ENDBRANCH   6   7
ENDBRANCH   1   5
TORSDOF 4
ENDMDL
MODEL 2
REMARK VINA RESULT:    -4.150      2.269      3.538
REMARK INTER + INTRA:          -5.730
REMARK INTER:                  -5.669
REMARK INTRA:                  -0.062
REMARK UNBOUND:                -0.609
REMARK SMILES CCCCC=CC(C)=O
REMARK SMILES IDX 4 1 3 2 2 3 1 4 5 5 6 6 7 7 9 8 8 9
REMARK H PARENT
REMARK Flexibility Score: inf
ROOT
ATOM      1  C   UNL     1     -13.250 -15.651  29.616  1.00  0.00     0.027 C 
ENDROOT
BRANCH   1   2
ATOM      2  C   UNL     1     -13.657 -15.900  31.072  1.00  0.00     0.004 C 
BRANCH   2   3
ATOM      3  C   UNL     1     -14.727 -14.899  31.521  1.00  0.00    -0.003 C 
ATOM      4  C   UNL     1     -14.828 -14.845  33.042  1.00  0.00     0.004 C 
ENDBRANCH   2   3
ENDBRANCH   1   2
BRANCH   1   5
ATOM      5  C   UNL     1     -11.755 -15.741  29.462  1.00  0.00    -0.023 C 
ATOM      6  C   UNL     1     -11.104 -16.567  28.629  1.00  0.00     0.042 C 
BRANCH   6   7
ATOM      7  C   UNL     1     -11.731 -17.472  27.646  1.00  0.00     0.152 C 
ATOM      8  O   UNL     1     -12.487 -18.388  28.064  1.00  0.00    -0.295 OA
ATOM      9  C   UNL     1     -11.431 -17.398  26.179  1.00  0.00     0.093 C 
ENDBRANCH   6   7
ENDBRANCH   1   5
TORSDOF 4
ENDMDL
MODEL 3
REMARK VINA RESULT:    -4.117      1.566      2.291
REMARK INTER + INTRA:          -5.690
REMARK INTER:                  -5.339
REMARK INTRA:                  -0.351
REMARK UNBOUND:                -0.609
REMARK SMILES CCCCC=CC(C)=O
REMARK SMILES IDX 4 1 3 2 2 3 1 4 5 5 6 6 7 7 9 8 8 9
REMARK H PARENT
REMARK Flexibility Score: inf
ROOT
ATOM      1  C   UNL     1     -13.638 -18.197  32.064  1.00  0.00     0.027 C 
ENDROOT
BRANCH   1   2
ATOM      2  C   UNL     1     -13.015 -16.797  32.035  1.00  0.00     0.004 C 
BRANCH   2   3
ATOM      3  C   UNL     1     -13.839 -15.849  31.157  1.00  0.00    -0.003 C 
ATOM      4  C   UNL     1     -14.802 -15.017  31.998  1.00  0.00     0.004 C 
ENDBRANCH   2   3
ENDBRANCH   1   2
BRANCH   1   5
ATOM      5  C   UNL     1     -12.590 -19.247  31.809  1.00  0.00    -0.023 C 
ATOM      6  C   UNL     1     -12.322 -19.810  30.620  1.00  0.00     0.042 C 
BRANCH   6   7
ATOM      7  C   UNL     1     -12.936 -19.438  29.331  1.00  0.00     0.152 C 
ATOM      8  O   UNL     1     -12.458 -18.463  28.693  1.00  0.00    -0.295 OA
ATOM      9  C   UNL     1     -14.161 -20.118  28.797  1.00  0.00     0.093 C 
ENDBRANCH   6   7
ENDBRANCH   1   5
TORSDOF 4
ENDMDL
MODEL 4
REMARK VINA RESULT:    -4.074      1.363      1.762
REMARK INTER + INTRA:          -5.636
REMARK INTER:                  -5.043
REMARK INTRA:                  -0.593
REMARK UNBOUND:                -0.609
REMARK SMILES CCCCC=CC(C)=O
REMARK SMILES IDX 4 1 3 2 2 3 1 4 5 5 6 6 7 7 9 8 8 9
REMARK H PARENT
REMARK Flexibility Score: inf
ROOT
ATOM      1  C   UNL     1     -12.359 -16.041  29.382  1.00  0.00     0.027 C 
ENDROOT
BRANCH   1   2
ATOM      2  C   UNL     1     -13.382 -15.603  28.328  1.00  0.00     0.004 C 
BRANCH   2   3
ATOM      3  C   UNL     1     -13.436 -16.604  27.168  1.00  0.00    -0.003 C 
ATOM      4  C   UNL     1     -12.044 -17.128  26.827  1.00  0.00     0.004 C 
ENDBRANCH   2   3
ENDBRANCH   1   2
BRANCH   1   5
ATOM      5  C   UNL     1     -13.056 -16.567  30.608  1.00  0.00    -0.023 C 
ATOM      6  C   UNL     1     -13.221 -17.863  30.917  1.00  0.00     0.042 C 
BRANCH   6   7
ATOM      7  C   UNL     1     -12.671 -19.007  30.163  1.00  0.00     0.152 C 
ATOM      8  O   UNL     1     -11.454 -19.297  30.309  1.00  0.00    -0.295 OA
ATOM      9  C   UNL     1     -13.481 -19.777  29.165  1.00  0.00     0.093 C 
ENDBRANCH   6   7
ENDBRANCH   1   5
TORSDOF 4
ENDMDL
MODEL 5
REMARK VINA RESULT:    -3.998      2.533      3.909
REMARK INTER + INTRA:          -5.543
REMARK INTER:                  -5.200
REMARK INTRA:                  -0.343
REMARK UNBOUND:                -0.609
REMARK SMILES CCCCC=CC(C)=O
REMARK SMILES IDX 4 1 3 2 2 3 1 4 5 5 6 6 7 7 9 8 8 9
REMARK H PARENT
REMARK Flexibility Score: inf
ROOT
ATOM      1  C   UNL     1     -13.259 -17.340  30.808  1.00  0.00     0.027 C 
ENDROOT
BRANCH   1   2
ATOM      2  C   UNL     1     -13.705 -16.731  32.142  1.00  0.00     0.004 C 
BRANCH   2   3
ATOM      3  C   UNL     1     -14.476 -15.425  31.918  1.00  0.00    -0.003 C 
ATOM      4  C   UNL     1     -15.580 -15.252  32.957  1.00  0.00     0.004 C 
ENDBRANCH   2   3
ENDBRANCH   1   2
BRANCH   1   5
ATOM      5  C   UNL     1     -12.077 -16.591  30.254  1.00  0.00    -0.023 C 
ATOM      6  C   UNL     1     -12.069 -15.870  29.122  1.00  0.00     0.042 C 
BRANCH   6   7
ATOM      7  C   UNL     1     -13.239 -15.602  28.262  1.00  0.00     0.152 C 
ATOM      8  O   UNL     1     -13.973 -14.614  28.531  1.00  0.00    -0.295 OA
ATOM      9  C   UNL     1     -13.636 -16.511  27.139  1.00  0.00     0.093 C 
ENDBRANCH   6   7
ENDBRANCH   1   5
TORSDOF 4
ENDMDL
MODEL 6
REMARK VINA RESULT:    -3.950      1.140      2.378
REMARK INTER + INTRA:          -5.483
REMARK INTER:                  -4.875
REMARK INTRA:                  -0.608
REMARK UNBOUND:                -0.609
REMARK SMILES CCCCC=CC(C)=O
REMARK SMILES IDX 4 1 3 2 2 3 1 4 5 5 6 6 7 7 9 8 8 9
REMARK H PARENT
REMARK Flexibility Score: inf
ROOT
ATOM      1  C   UNL     1     -12.825 -16.221  30.307  1.00  0.00     0.027 C 
ENDROOT
BRANCH   1   2
ATOM      2  C   UNL     1     -13.942 -15.967  31.325  1.00  0.00     0.004 C 
BRANCH   2   3
ATOM      3  C   UNL     1     -13.552 -16.495  32.710  1.00  0.00    -0.003 C 
ATOM      4  C   UNL     1     -12.051 -16.356  32.950  1.00  0.00     0.004 C 
ENDBRANCH   2   3
ENDBRANCH   1   2
BRANCH   1   5
ATOM      5  C   UNL     1     -13.233 -17.289  29.329  1.00  0.00    -0.023 C 
ATOM      6  C   UNL     1     -12.920 -18.591  29.419  1.00  0.00     0.042 C 
BRANCH   6   7
ATOM      7  C   UNL     1     -12.202 -19.231  30.539  1.00  0.00     0.152 C 
ATOM      8  O   UNL     1     -10.946 -19.140  30.581  1.00  0.00    -0.295 OA
ATOM      9  C   UNL     1     -12.900 -20.059  31.575  1.00  0.00     0.093 C 
ENDBRANCH   6   7
ENDBRANCH   1   5
TORSDOF 4
ENDMDL
MODEL 7
REMARK VINA RESULT:    -3.932      1.651      3.429
REMARK INTER + INTRA:          -5.461
REMARK INTER:                  -4.968
REMARK INTRA:                  -0.493
REMARK UNBOUND:                -0.609
REMARK SMILES CCCCC=CC(C)=O
REMARK SMILES IDX 4 1 3 2 2 3 1 4 5 5 6 6 7 7 9 8 8 9
REMARK H PARENT
REMARK Flexibility Score: inf
ROOT
ATOM      1  C   UNL     1     -12.801 -16.977  31.708  1.00  0.00     0.027 C 
ENDROOT
BRANCH   1   2
ATOM      2  C   UNL     1     -13.628 -18.208  32.093  1.00  0.00     0.004 C 
BRANCH   2   3
ATOM      3  C   UNL     1     -12.971 -19.493  31.576  1.00  0.00    -0.003 C 
ATOM      4  C   UNL     1     -13.567 -19.915  30.236  1.00  0.00     0.004 C 
ENDBRANCH   2   3
ENDBRANCH   1   2
BRANCH   1   5
ATOM      5  C   UNL     1     -13.542 -16.135  30.704  1.00  0.00    -0.023 C 
ATOM      6  C   UNL     1     -13.117 -15.842  29.466  1.00  0.00     0.042 C 
BRANCH   6   7
ATOM      7  C   UNL     1     -11.893 -16.365  28.827  1.00  0.00     0.152 C 
ATOM      8  O   UNL     1     -10.801 -15.774  29.038  1.00  0.00    -0.295 OA
ATOM      9  C   UNL     1     -11.917 -17.515  27.866  1.00  0.00     0.093 C 
ENDBRANCH   6   7
ENDBRANCH   1   5
TORSDOF 4
ENDMDL
MODEL 8
REMARK VINA RESULT:    -3.919      1.895      3.113
REMARK INTER + INTRA:          -5.445
REMARK INTER:                  -5.039
REMARK INTRA:                  -0.407
REMARK UNBOUND:                -0.609
REMARK SMILES CCCCC=CC(C)=O
REMARK SMILES IDX 4 1 3 2 2 3 1 4 5 5 6 6 7 7 9 8 8 9
REMARK H PARENT
REMARK Flexibility Score: inf
ROOT
ATOM      1  C   UNL     1     -13.363 -16.774  32.638  1.00  0.00     0.027 C 
ENDROOT
BRANCH   1   2
ATOM      2  C   UNL     1     -14.771 -16.632  33.225  1.00  0.00     0.004 C 
BRANCH   2   3
ATOM      3  C   UNL     1     -15.264 -15.185  33.122  1.00  0.00    -0.003 C 
ATOM      4  C   UNL     1     -15.032 -14.621  31.723  1.00  0.00     0.004 C 
ENDBRANCH   2   3
ENDBRANCH   1   2
BRANCH   1   5
ATOM      5  C   UNL     1     -13.307 -17.926  31.671  1.00  0.00    -0.023 C 
ATOM      6  C   UNL     1     -12.822 -17.873  30.420  1.00  0.00     0.042 C 
BRANCH   6   7
ATOM      7  C   UNL     1     -12.170 -16.705  29.796  1.00  0.00     0.152 C 
ATOM      8  O   UNL     1     -10.954 -16.488  30.042  1.00  0.00    -0.295 OA
ATOM      9  C   UNL     1     -12.923 -15.718  28.956  1.00  0.00     0.093 C 
ENDBRANCH   6   7
ENDBRANCH   1   5
TORSDOF 4
ENDMDL
MODEL 9
REMARK VINA RESULT:    -3.857      2.270      3.136
REMARK INTER + INTRA:          -5.368
REMARK INTER:                  -4.945
REMARK INTRA:                  -0.423
REMARK UNBOUND:                -0.609
REMARK SMILES CCCCC=CC(C)=O
REMARK SMILES IDX 4 1 3 2 2 3 1 4 5 5 6 6 7 7 9 8 8 9
REMARK H PARENT
REMARK Flexibility Score: inf
ROOT
ATOM      1  C   UNL     1     -11.887 -16.949  30.096  1.00  0.00     0.027 C 
ENDROOT
BRANCH   1   2
ATOM      2  C   UNL     1     -11.825 -15.739  29.159  1.00  0.00     0.004 C 
BRANCH   2   3
ATOM      3  C   UNL     1     -13.220 -15.377  28.637  1.00  0.00    -0.003 C 
ATOM      4  C   UNL     1     -13.624 -16.280  27.475  1.00  0.00     0.004 C 
ENDBRANCH   2   3
ENDBRANCH   1   2
BRANCH   1   5
ATOM      5  C   UNL     1     -11.451 -16.567  31.484  1.00  0.00    -0.023 C 
ATOM      6  C   UNL     1     -12.269 -16.294  32.513  1.00  0.00     0.042 C 
BRANCH   6   7
ATOM      7  C   UNL     1     -13.740 -16.410  32.500  1.00  0.00     0.152 C 
ATOM      8  O   UNL     1     -14.262 -17.518  32.792  1.00  0.00    -0.295 OA
ATOM      9  C   UNL     1     -14.631 -15.286  32.064  1.00  0.00     0.093 C 
ENDBRANCH   6   7
ENDBRANCH   1   5
TORSDOF 4
ENDMDL
