MODEL 1
REMARK VINA RESULT:    -1.946      0.000      0.000
REMARK INTER + INTRA:          -1.946
REMARK INTER:                  -1.946
REMARK INTRA:                   0.000
REMARK UNBOUND:                 0.000
REMARK SMILES CC(=O)[O-]
REMARK SMILES IDX 1 1 2 2 3 3 4 4
REMARK H PARENT
REMARK Flexibility Score: inf
ROOT
ATOM      1  C   UNL     1       3.066   8.260  28.005  1.00  0.00     0.063 C 
ATOM      2  C   UNL     1       3.862   9.519  28.054  1.00  0.00     0.038 C 
ATOM      3  O   UNL     1       4.154  10.124  26.990  1.00  0.00    -0.550 OA
ATOM      4  O   UNL     1       4.240  10.056  29.278  1.00  0.00    -0.550 OA
ENDROOT
TORSDOF 0
ENDMDL
MODEL 2
REMARK VINA RESULT:    -1.896     13.552     14.130
REMARK INTER + INTRA:          -1.896
REMARK INTER:                  -1.896
REMARK INTRA:                   0.000
REMARK UNBOUND:                 0.000
REMARK SMILES CC(=O)[O-]
REMARK SMILES IDX 1 1 2 2 3 3 4 4
REMARK H PARENT
REMARK Flexibility Score: inf
ROOT
ATOM      1  C   UNL     1      -2.531   8.594  39.158  1.00  0.00     0.063 C 
ATOM      2  C   UNL     1      -3.077   7.580  40.104  1.00  0.00     0.038 C 
ATOM      3  O   UNL     1      -3.193   7.855  41.327  1.00  0.00    -0.550 OA
ATOM      4  O   UNL     1      -3.509   6.349  39.631  1.00  0.00    -0.550 OA
ENDROOT
TORSDOF 0
ENDMDL
MODEL 3
REMARK VINA RESULT:    -1.867     11.827     12.312
REMARK INTER + INTRA:          -1.867
REMARK INTER:                  -1.867
REMARK INTRA:                   0.000
REMARK UNBOUND:                 0.000
REMARK SMILES CC(=O)[O-]
REMARK SMILES IDX 1 1 2 2 3 3 4 4
REMARK H PARENT
REMARK Flexibility Score: inf
ROOT
ATOM      1  C   UNL     1      -2.958   7.959  39.759  1.00  0.00     0.063 C 
ATOM      2  C   UNL     1      -2.161   8.597  38.673  1.00  0.00     0.038 C 
ATOM      3  O   UNL     1      -2.500   9.720  38.216  1.00  0.00    -0.550 OA
ATOM      4  O   UNL     1      -1.011   7.979  38.199  1.00  0.00    -0.550 OA
ENDROOT
TORSDOF 0
ENDMDL
MODEL 4
REMARK VINA RESULT:    -1.844     13.486     14.090
REMARK INTER + INTRA:          -1.844
REMARK INTER:                  -1.844
REMARK INTRA:                   0.000
REMARK UNBOUND:                 0.000
REMARK SMILES CC(=O)[O-]
REMARK SMILES IDX 1 1 2 2 3 3 4 4
REMARK H PARENT
REMARK Flexibility Score: inf
ROOT
ATOM      1  C   UNL     1      -3.314   6.165  39.645  1.00  0.00     0.063 C 
ATOM      2  C   UNL     1      -3.097   7.558  40.126  1.00  0.00     0.038 C 
ATOM      3  O   UNL     1      -3.187   7.825  41.353  1.00  0.00    -0.550 OA
ATOM      4  O   UNL     1      -2.743   8.557  39.229  1.00  0.00    -0.550 OA
ENDROOT
TORSDOF 0
ENDMDL
MODEL 5
REMARK VINA RESULT:    -1.843     11.810     12.376
REMARK INTER + INTRA:          -1.843
REMARK INTER:                  -1.843
REMARK INTRA:                   0.000
REMARK UNBOUND:                 0.000
REMARK SMILES CC(=O)[O-]
REMARK SMILES IDX 1 1 2 2 3 3 4 4
REMARK H PARENT
REMARK Flexibility Score: inf
ROOT
ATOM      1  C   UNL     1      -2.222   9.894  37.996  1.00  0.00     0.063 C 
ATOM      2  C   UNL     1      -2.205   8.575  38.690  1.00  0.00     0.038 C 
ATOM      3  O   UNL     1      -1.400   7.679  38.325  1.00  0.00    -0.550 OA
ATOM      4  O   UNL     1      -3.040   8.350  39.776  1.00  0.00    -0.550 OA
ENDROOT
TORSDOF 0
ENDMDL
MODEL 6
REMARK VINA RESULT:    -1.842      1.672      2.160
REMARK INTER + INTRA:          -1.842
REMARK INTER:                  -1.842
REMARK INTRA:                   0.000
REMARK UNBOUND:                 0.000
REMARK SMILES CC(=O)[O-]
REMARK SMILES IDX 1 1 2 2 3 3 4 4
REMARK H PARENT
REMARK Flexibility Score: inf
ROOT
ATOM      1  C   UNL     1       4.112  10.048  28.871  1.00  0.00     0.063 C 
ATOM      2  C   UNL     1       3.395   9.848  27.580  1.00  0.00     0.038 C 
ATOM      3  O   UNL     1       2.189   9.487  27.575  1.00  0.00    -0.550 OA
ATOM      4  O   UNL     1       4.039  10.112  26.378  1.00  0.00    -0.550 OA
ENDROOT
TORSDOF 0
ENDMDL
MODEL 7
REMARK VINA RESULT:    -1.836      2.201      2.834
REMARK INTER + INTRA:          -1.836
REMARK INTER:                  -1.836
REMARK INTRA:                   0.000
REMARK UNBOUND:                 0.000
REMARK SMILES CC(=O)[O-]
REMARK SMILES IDX 1 1 2 2 3 3 4 4
REMARK H PARENT
REMARK Flexibility Score: inf
ROOT
ATOM      1  C   UNL     1       3.947   9.989  29.077  1.00  0.00     0.063 C 
ATOM      2  C   UNL     1       2.458  10.037  29.117  1.00  0.00     0.038 C 
ATOM      3  O   UNL     1       1.855  10.046  30.222  1.00  0.00    -0.550 OA
ATOM      4  O   UNL     1       1.732  10.125  27.936  1.00  0.00    -0.550 OA
ENDROOT
TORSDOF 0
ENDMDL
MODEL 8
REMARK VINA RESULT:    -1.819     11.971     12.589
REMARK INTER + INTRA:          -1.819
REMARK INTER:                  -1.819
REMARK INTRA:                   0.000
REMARK UNBOUND:                 0.000
REMARK SMILES CC(=O)[O-]
REMARK SMILES IDX 1 1 2 2 3 3 4 4
REMARK H PARENT
REMARK Flexibility Score: inf
ROOT
ATOM      1  C   UNL     1      -2.237   9.741  38.050  1.00  0.00     0.063 C 
ATOM      2  C   UNL     1      -2.100   8.621  39.023  1.00  0.00     0.038 C 
ATOM      3  O   UNL     1      -3.065   8.309  39.769  1.00  0.00    -0.550 OA
ATOM      4  O   UNL     1      -0.924   7.882  39.073  1.00  0.00    -0.550 OA
ENDROOT
TORSDOF 0
ENDMDL
MODEL 9
REMARK VINA RESULT:    -1.705      1.854      2.253
REMARK INTER + INTRA:          -1.705
REMARK INTER:                  -1.705
REMARK INTRA:                   0.000
REMARK UNBOUND:                 0.000
REMARK SMILES CC(=O)[O-]
REMARK SMILES IDX 1 1 2 2 3 3 4 4
REMARK H PARENT
REMARK Flexibility Score: inf
ROOT
ATOM      1  C   UNL     1       3.678  10.040  25.558  1.00  0.00     0.063 C 
ATOM      2  C   UNL     1       3.335   9.870  26.999  1.00  0.00     0.038 C 
ATOM      3  O   UNL     1       4.226   9.547  27.827  1.00  0.00    -0.550 OA
ATOM      4  O   UNL     1       2.042  10.120  27.440  1.00  0.00    -0.550 OA
ENDROOT
TORSDOF 0
ENDMDL
