MODEL 1
REMARK VINA RESULT:     2.689      0.000      0.000
REMARK INTER + INTRA:           3.144
REMARK INTER:                   3.160
REMARK INTRA:                  -0.016
REMARK UNBOUND:                -0.016
REMARK SMILES CCCCC(=O)[O-]
REMARK SMILES IDX 4 1 5 2 6 3 7 4 3 5 2 6 1 7
REMARK H PARENT
REMARK Flexibility Score: inf
ROOT
ATOM      1  C   UNL     1     -10.466  -0.989 -17.972  1.00  0.00     0.053 C 
ENDROOT
BRANCH   1   2
ATOM      2  C   UNL     1     -11.840  -0.546 -17.573  1.00  0.00     0.041 C 
ATOM      3  O   UNL     1     -12.110   0.681 -17.489  1.00  0.00    -0.550 OA
ATOM      4  O   UNL     1     -12.812  -1.488 -17.261  1.00  0.00    -0.550 OA
ENDBRANCH   1   2
BRANCH   1   5
ATOM      5  C   UNL     1      -9.395  -0.463 -17.009  1.00  0.00     0.006 C 
BRANCH   5   6
ATOM      6  C   UNL     1      -8.093  -1.274 -17.088  1.00  0.00    -0.003 C 
ATOM      7  C   UNL     1      -7.180  -0.967 -15.905  1.00  0.00     0.004 C 
ENDBRANCH   5   6
ENDBRANCH   1   5
TORSDOF 3
ENDMDL
MODEL 2
REMARK VINA RESULT:     2.701      3.071      4.282
REMARK INTER + INTRA:           3.159
REMARK INTER:                   3.175
REMARK INTRA:                  -0.017
REMARK UNBOUND:                -0.016
REMARK SMILES CCCCC(=O)[O-]
REMARK SMILES IDX 4 1 5 2 6 3 7 4 3 5 2 6 1 7
REMARK H PARENT
REMARK Flexibility Score: inf
ROOT
ATOM      1  C   UNL     1      -8.960  -1.394 -17.128  1.00  0.00     0.053 C 
ENDROOT
BRANCH   1   2
ATOM      2  C   UNL     1      -7.638  -0.953 -16.578  1.00  0.00     0.041 C 
ATOM      3  O   UNL     1      -6.875  -0.229 -17.270  1.00  0.00    -0.550 OA
ATOM      4  O   UNL     1      -7.236  -1.369 -15.315  1.00  0.00    -0.550 OA
ENDBRANCH   1   2
BRANCH   1   5
ATOM      5  C   UNL     1      -9.985  -0.253 -17.133  1.00  0.00     0.006 C 
BRANCH   5   6
ATOM      6  C   UNL     1     -11.302  -0.657 -17.812  1.00  0.00    -0.003 C 
ATOM      7  C   UNL     1     -12.413   0.339 -17.497  1.00  0.00     0.004 C 
ENDBRANCH   5   6
ENDBRANCH   1   5
TORSDOF 3
ENDMDL
MODEL 3
REMARK VINA RESULT:     3.526      2.830      4.034
REMARK INTER + INTRA:           4.129
REMARK INTER:                   4.163
REMARK INTRA:                  -0.034
REMARK UNBOUND:                -0.016
REMARK SMILES CCCCC(=O)[O-]
REMARK SMILES IDX 4 1 5 2 6 3 7 4 3 5 2 6 1 7
REMARK H PARENT
REMARK Flexibility Score: inf
ROOT
ATOM      1  C   UNL     1     -12.080   0.764 -17.213  1.00  0.00     0.053 C 
ENDROOT
BRANCH   1   2
ATOM      2  C   UNL     1     -11.950  -0.646 -17.702  1.00  0.00     0.041 C 
ATOM      3  O   UNL     1     -11.067  -0.943 -18.549  1.00  0.00    -0.550 OA
ATOM      4  O   UNL     1     -12.826  -1.624 -17.247  1.00  0.00    -0.550 OA
ENDBRANCH   1   2
BRANCH   1   5
ATOM      5  C   UNL     1     -13.112   1.556 -18.025  1.00  0.00     0.006 C 
BRANCH   5   6
ATOM      6  C   UNL     1     -12.763   3.049 -18.109  1.00  0.00    -0.003 C 
ATOM      7  C   UNL     1     -11.821   3.459 -16.982  1.00  0.00     0.004 C 
ENDBRANCH   5   6
ENDBRANCH   1   5
TORSDOF 3
ENDMDL
MODEL 4
REMARK VINA RESULT:     3.658      3.132      4.038
REMARK INTER + INTRA:           4.284
REMARK INTER:                   4.321
REMARK INTRA:                  -0.038
REMARK UNBOUND:                -0.016
REMARK SMILES CCCCC(=O)[O-]
REMARK SMILES IDX 4 1 5 2 6 3 7 4 3 5 2 6 1 7
REMARK H PARENT
REMARK Flexibility Score: inf
ROOT
ATOM      1  C   UNL     1     -11.800   1.478 -17.113  1.00  0.00     0.053 C 
ENDROOT
BRANCH   1   2
ATOM      2  C   UNL     1     -12.146   2.902 -17.427  1.00  0.00     0.041 C 
ATOM      3  O   UNL     1     -12.928   3.168 -18.376  1.00  0.00    -0.550 OA
ATOM      4  O   UNL     1     -11.576   3.934 -16.692  1.00  0.00    -0.550 OA
ENDBRANCH   1   2
BRANCH   1   5
ATOM      5  C   UNL     1     -12.945   0.522 -17.470  1.00  0.00     0.006 C 
BRANCH   5   6
ATOM      6  C   UNL     1     -12.489  -0.944 -17.502  1.00  0.00    -0.003 C 
ATOM      7  C   UNL     1     -11.157  -1.090 -18.230  1.00  0.00     0.004 C 
ENDBRANCH   5   6
ENDBRANCH   1   5
TORSDOF 3
ENDMDL
MODEL 5
REMARK VINA RESULT:     4.949     17.727     18.431
REMARK INTER + INTRA:           5.801
REMARK INTER:                   5.831
REMARK INTRA:                  -0.030
REMARK UNBOUND:                -0.016
REMARK SMILES CCCCC(=O)[O-]
REMARK SMILES IDX 4 1 5 2 6 3 7 4 3 5 2 6 1 7
REMARK H PARENT
REMARK Flexibility Score: inf
ROOT
ATOM      1  C   UNL     1     -25.995   7.267 -13.734  1.00  0.00     0.053 C 
ENDROOT
BRANCH   1   2
ATOM      2  C   UNL     1     -26.097   8.544 -14.509  1.00  0.00     0.041 C 
ATOM      3  O   UNL     1     -25.303   8.774 -15.458  1.00  0.00    -0.550 OA
ATOM      4  O   UNL     1     -27.049   9.495 -14.162  1.00  0.00    -0.550 OA
ENDBRANCH   1   2
BRANCH   1   5
ATOM      5  C   UNL     1     -26.909   6.177 -14.307  1.00  0.00     0.006 C 
BRANCH   5   6
ATOM      6  C   UNL     1     -27.124   5.020 -13.320  1.00  0.00    -0.003 C 
ATOM      7  C   UNL     1     -26.041   5.004 -12.246  1.00  0.00     0.004 C 
ENDBRANCH   5   6
ENDBRANCH   1   5
TORSDOF 3
ENDMDL
MODEL 6
REMARK VINA RESULT:     5.260      2.711      3.912
REMARK INTER + INTRA:           6.167
REMARK INTER:                   6.185
REMARK INTRA:                  -0.018
REMARK UNBOUND:                -0.016
REMARK SMILES CCCCC(=O)[O-]
REMARK SMILES IDX 4 1 5 2 6 3 7 4 3 5 2 6 1 7
REMARK H PARENT
REMARK Flexibility Score: inf
ROOT
ATOM      1  C   UNL     1     -11.547  -0.571 -17.697  1.00  0.00     0.053 C 
ENDROOT
BRANCH   1   2
ATOM      2  C   UNL     1     -12.253   0.749 -17.747  1.00  0.00     0.041 C 
ATOM      3  O   UNL     1     -11.971   1.650 -16.914  1.00  0.00    -0.550 OA
ATOM      4  O   UNL     1     -13.245   0.972 -18.693  1.00  0.00    -0.550 OA
ENDBRANCH   1   2
BRANCH   1   5
ATOM      5  C   UNL     1     -12.529  -1.737 -17.524  1.00  0.00     0.006 C 
BRANCH   5   6
ATOM      6  C   UNL     1     -13.570  -1.463 -16.429  1.00  0.00    -0.003 C 
ATOM      7  C   UNL     1     -14.168  -2.763 -15.900  1.00  0.00     0.004 C 
ENDBRANCH   5   6
ENDBRANCH   1   5
TORSDOF 3
ENDMDL
