MODEL 1
REMARK VINA RESULT:     1.060      0.000      0.000
REMARK INTER + INTRA:           0.896
REMARK INTER:                   1.122
REMARK INTRA:                  -0.226
REMARK UNBOUND:                -0.226
REMARK SMILES O=c1cc(-c2ccccc2)oc2ccccc12
REMARK SMILES IDX 4 1 3 2 2 3 1 4 17 5 16 6 15 7 14 8 13 9 12 10 11 11 5 12
REMARK SMILES IDX 8 13 7 14 9 15 6 16 10 17
REMARK H PARENT
REMARK Flexibility Score: inf
ROOT
ATOM      1  C   UNL     1     142.273 174.178 174.642  1.00  0.00     0.138 A 
ATOM      2  C   UNL     1     142.024 174.874 175.843  1.00  0.00     0.100 A 
ATOM      3  C   UNL     1     141.618 174.167 176.977  1.00  0.00     0.193 A 
ATOM      4  O   UNL     1     141.396 174.789 178.051  1.00  0.00    -0.289 OA
ATOM      5  C   UNL     1     141.464 172.776 176.904  1.00  0.00     0.065 A 
ATOM      6  C   UNL     1     141.059 172.003 178.009  1.00  0.00     0.016 A 
ATOM      7  C   UNL     1     140.921 170.617 177.881  1.00  0.00     0.001 A 
ATOM      8  C   UNL     1     141.184 169.994 176.657  1.00  0.00     0.004 A 
ATOM      9  C   UNL     1     141.588 170.754 175.555  1.00  0.00     0.048 A 
ATOM     10  C   UNL     1     141.729 172.141 175.672  1.00  0.00     0.138 A 
ATOM     11  O   UNL     1     142.113 172.854 174.618  1.00  0.00    -0.456 OA
ENDROOT
BRANCH   1  12
ATOM     12  C   UNL     1     142.710 174.857 173.383  1.00  0.00     0.017 A 
ATOM     13  C   UNL     1     143.446 176.125 170.971  1.00  0.00     0.000 A 
ATOM     14  C   UNL     1     142.159 175.613 171.125  1.00  0.00     0.001 A 
ATOM     15  C   UNL     1     144.371 176.010 172.008  1.00  0.00     0.001 A 
ATOM     16  C   UNL     1     141.792 174.986 172.319  1.00  0.00     0.012 A 
ATOM     17  C   UNL     1     144.011 175.383 173.206  1.00  0.00     0.012 A 
ENDBRANCH   1  12
TORSDOF 1
ENDMDL
MODEL 2
REMARK VINA RESULT:     1.185      0.107      1.176
REMARK INTER + INTRA:           1.028
REMARK INTER:                   1.252
REMARK INTRA:                  -0.223
REMARK UNBOUND:                -0.226
REMARK SMILES O=c1cc(-c2ccccc2)oc2ccccc12
REMARK SMILES IDX 4 1 3 2 2 3 1 4 17 5 16 6 15 7 14 8 13 9 12 10 11 11 5 12
REMARK SMILES IDX 8 13 7 14 9 15 6 16 10 17
REMARK H PARENT
REMARK Flexibility Score: inf
ROOT
ATOM      1  C   UNL     1     142.253 174.209 174.618  1.00  0.00     0.138 A 
ATOM      2  C   UNL     1     141.980 174.927 175.802  1.00  0.00     0.100 A 
ATOM      3  C   UNL     1     141.563 174.238 176.943  1.00  0.00     0.193 A 
ATOM      4  O   UNL     1     141.320 174.880 178.001  1.00  0.00    -0.289 OA
ATOM      5  C   UNL     1     141.421 172.845 176.895  1.00  0.00     0.065 A 
ATOM      6  C   UNL     1     141.006 172.091 178.008  1.00  0.00     0.016 A 
ATOM      7  C   UNL     1     140.880 170.702 177.906  1.00  0.00     0.001 A 
ATOM      8  C   UNL     1     141.167 170.057 176.699  1.00  0.00     0.004 A 
ATOM      9  C   UNL     1     141.581 170.798 175.589  1.00  0.00     0.048 A 
ATOM     10  C   UNL     1     141.710 172.188 175.680  1.00  0.00     0.138 A 
ATOM     11  O   UNL     1     142.104 172.884 174.618  1.00  0.00    -0.456 OA
ENDROOT
BRANCH   1  12
ATOM     12  C   UNL     1     142.704 174.867 173.353  1.00  0.00     0.017 A 
ATOM     13  C   UNL     1     143.640 176.124 171.005  1.00  0.00     0.000 A 
ATOM     14  C   UNL     1     144.478 176.002 172.113  1.00  0.00     0.001 A 
ATOM     15  C   UNL     1     142.339 175.626 171.058  1.00  0.00     0.001 A 
ATOM     16  C   UNL     1     144.017 175.379 173.276  1.00  0.00     0.012 A 
ATOM     17  C   UNL     1     141.870 175.002 172.218  1.00  0.00     0.012 A 
ENDBRANCH   1  12
TORSDOF 1
ENDMDL
MODEL 3
REMARK VINA RESULT:     3.095      1.594      6.112
REMARK INTER + INTRA:           3.050
REMARK INTER:                   3.275
REMARK INTRA:                  -0.225
REMARK UNBOUND:                -0.226
REMARK SMILES O=c1cc(-c2ccccc2)oc2ccccc12
REMARK SMILES IDX 4 1 3 2 2 3 1 4 17 5 16 6 15 7 14 8 13 9 12 10 11 11 5 12
REMARK SMILES IDX 8 13 7 14 9 15 6 16 10 17
REMARK H PARENT
REMARK Flexibility Score: inf
ROOT
ATOM      1  C   UNL     1     142.510 174.429 174.355  1.00  0.00     0.138 A 
ATOM      2  C   UNL     1     143.779 175.010 174.147  1.00  0.00     0.100 A 
ATOM      3  C   UNL     1     144.080 175.579 172.908  1.00  0.00     0.193 A 
ATOM      4  O   UNL     1     145.214 176.099 172.723  1.00  0.00    -0.289 OA
ATOM      5  C   UNL     1     143.118 175.565 171.890  1.00  0.00     0.065 A 
ATOM      6  C   UNL     1     143.357 176.122 170.620  1.00  0.00     0.016 A 
ATOM      7  C   UNL     1     142.361 176.080 169.638  1.00  0.00     0.001 A 
ATOM      8  C   UNL     1     141.125 175.486 169.915  1.00  0.00     0.004 A 
ATOM      9  C   UNL     1     140.880 174.932 171.174  1.00  0.00     0.048 A 
ATOM     10  C   UNL     1     141.869 174.968 172.163  1.00  0.00     0.138 A 
ATOM     11  O   UNL     1     141.625 174.437 173.358  1.00  0.00    -0.456 OA
ENDROOT
BRANCH   1  12
ATOM     12  C   UNL     1     142.106 173.798 175.650  1.00  0.00     0.017 A 
ATOM     13  C   UNL     1     141.360 172.521 178.054  1.00  0.00     0.000 A 
ATOM     14  C   UNL     1     141.762 171.761 176.956  1.00  0.00     0.001 A 
ATOM     15  C   UNL     1     141.326 173.912 177.964  1.00  0.00     0.001 A 
ATOM     16  C   UNL     1     142.132 172.392 175.765  1.00  0.00     0.012 A 
ATOM     17  C   UNL     1     141.695 174.550 176.775  1.00  0.00     0.012 A 
ENDBRANCH   1  12
TORSDOF 1
ENDMDL
