MODEL 1
REMARK VINA RESULT:    -5.501      0.000      0.000
REMARK INTER + INTRA:         -11.986
REMARK INTER:                 -10.324
REMARK INTRA:                  -1.662
REMARK UNBOUND:                -1.662
REMARK SMILES CCCCCCCCC=CCCCCCCCC(=O)[O-]
REMARK SMILES IDX 10 1 9 2 11 3 12 4 13 5 14 6 15 7 16 8 17 9 18 10 19 11
REMARK SMILES IDX 20 12 8 13 7 14 6 15 5 16 4 17 3 18 2 19 1 20
REMARK H PARENT
REMARK Flexibility Score: inf
ROOT
ATOM      1  C   UNL     1       4.974  11.070  18.878  1.00  0.00    -0.031 C 
ATOM      2  C   UNL     1       3.694  10.671  18.762  1.00  0.00    -0.031 C 
ENDROOT
BRANCH   1   3
ATOM      3  C   UNL     1       5.988  11.033  17.765  1.00  0.00     0.027 C 
BRANCH   3   4
ATOM      4  C   UNL     1       6.140  12.421  17.127  1.00  0.00     0.004 C 
BRANCH   4   5
ATOM      5  C   UNL     1       5.324  12.573  15.833  1.00  0.00     0.000 C 
BRANCH   5   6
ATOM      6  C   UNL     1       4.037  13.386  16.036  1.00  0.00     0.000 C 
BRANCH   6   7
ATOM      7  C   UNL     1       2.985  13.025  14.980  1.00  0.00     0.000 C 
BRANCH   7   8
ATOM      8  C   UNL     1       3.572  12.087  13.918  1.00  0.00     0.006 C 
BRANCH   8   9
ATOM      9  C   UNL     1       2.777  10.780  13.838  1.00  0.00     0.053 C 
BRANCH   9  10
ATOM     10  C   UNL     1       3.693   9.629  13.561  1.00  0.00     0.041 C 
ATOM     11  O   UNL     1       4.937   9.809  13.495  1.00  0.00    -0.550 OA
ATOM     12  O   UNL     1       3.164   8.367  13.317  1.00  0.00    -0.550 OA
ENDBRANCH   9  10
ENDBRANCH   8   9
ENDBRANCH   7   8
ENDBRANCH   6   7
ENDBRANCH   5   6
ENDBRANCH   4   5
ENDBRANCH   3   4
ENDBRANCH   1   3
BRANCH   2  13
ATOM     13  C   UNL     1       3.050  10.216  17.475  1.00  0.00     0.027 C 
BRANCH  13  14
ATOM     14  C   UNL     1       2.238   8.920  17.655  1.00  0.00     0.004 C 
BRANCH  14  15
ATOM     15  C   UNL     1       2.648   7.778  16.707  1.00  0.00     0.000 C 
BRANCH  15  16
ATOM     16  C   UNL     1       2.301   6.387  17.260  1.00  0.00     0.000 C 
BRANCH  16  17
ATOM     17  C   UNL     1       0.888   6.375  17.859  1.00  0.00    -0.000 C 
BRANCH  17  18
ATOM     18  C   UNL     1       0.848   5.802  19.288  1.00  0.00    -0.000 C 
BRANCH  18  19
ATOM     19  C   UNL     1       1.207   4.309  19.396  1.00  0.00    -0.003 C 
ATOM     20  C   UNL     1       2.687   4.067  19.684  1.00  0.00     0.004 C 
ENDBRANCH  18  19
ENDBRANCH  17  18
ENDBRANCH  16  17
ENDBRANCH  15  16
ENDBRANCH  14  15
ENDBRANCH  13  14
ENDBRANCH   2  13
TORSDOF 15
ENDMDL
MODEL 2
REMARK VINA RESULT:    -5.316      2.714      6.244
REMARK INTER + INTRA:         -11.640
REMARK INTER:                  -9.866
REMARK INTRA:                  -1.774
REMARK UNBOUND:                -1.662
REMARK SMILES CCCCCCCCC=CCCCCCCCC(=O)[O-]
REMARK SMILES IDX 10 1 9 2 11 3 12 4 13 5 14 6 15 7 16 8 17 9 18 10 19 11
REMARK SMILES IDX 20 12 8 13 7 14 6 15 5 16 4 17 3 18 2 19 1 20
REMARK H PARENT
REMARK Flexibility Score: inf
ROOT
ATOM      1  C   UNL     1       5.166  11.459  19.035  1.00  0.00    -0.031 C 
ATOM      2  C   UNL     1       6.078  11.461  18.045  1.00  0.00    -0.031 C 
ENDROOT
BRANCH   1   3
ATOM      3  C   UNL     1       3.674  11.435  18.827  1.00  0.00     0.027 C 
BRANCH   3   4
ATOM      4  C   UNL     1       3.161   9.990  18.763  1.00  0.00     0.004 C 
BRANCH   4   5
ATOM      5  C   UNL     1       2.748   9.567  17.345  1.00  0.00     0.000 C 
BRANCH   5   6
ATOM      6  C   UNL     1       2.372   8.081  17.254  1.00  0.00     0.000 C 
BRANCH   6   7
ATOM      7  C   UNL     1       1.072   7.794  18.014  1.00  0.00     0.000 C 
BRANCH   7   8
ATOM      8  C   UNL     1       0.821   6.285  18.122  1.00  0.00     0.006 C 
BRANCH   8   9
ATOM      9  C   UNL     1       2.141   5.508  18.167  1.00  0.00     0.053 C 
BRANCH   9  10
ATOM     10  C   UNL     1       1.996   4.279  19.008  1.00  0.00     0.041 C 
ATOM     11  O   UNL     1       2.044   4.360  20.264  1.00  0.00    -0.550 OA
ATOM     12  O   UNL     1       1.866   3.036  18.402  1.00  0.00    -0.550 OA
ENDBRANCH   9  10
ENDBRANCH   8   9
ENDBRANCH   7   8
ENDBRANCH   6   7
ENDBRANCH   5   6
ENDBRANCH   4   5
ENDBRANCH   3   4
ENDBRANCH   1   3
BRANCH   2  13
ATOM     13  C   UNL     1       5.751  11.342  16.576  1.00  0.00     0.027 C 
BRANCH  13  14
ATOM     14  C   UNL     1       5.371  12.697  15.951  1.00  0.00     0.004 C 
BRANCH  14  15
ATOM     15  C   UNL     1       3.855  12.916  15.786  1.00  0.00     0.000 C 
BRANCH  15  16
ATOM     16  C   UNL     1       3.404  12.894  14.318  1.00  0.00     0.000 C 
BRANCH  16  17
ATOM     17  C   UNL     1       2.421  11.743  14.065  1.00  0.00    -0.000 C 
BRANCH  17  18
ATOM     18  C   UNL     1       2.986  10.669  13.117  1.00  0.00    -0.000 C 
BRANCH  18  19
ATOM     19  C   UNL     1       3.884   9.618  13.793  1.00  0.00    -0.003 C 
ATOM     20  C   UNL     1       3.421   8.183  13.544  1.00  0.00     0.004 C 
ENDBRANCH  18  19
ENDBRANCH  17  18
ENDBRANCH  16  17
ENDBRANCH  15  16
ENDBRANCH  14  15
ENDBRANCH  13  14
ENDBRANCH   2  13
TORSDOF 15
ENDMDL
MODEL 3
REMARK VINA RESULT:    -5.284      2.835      6.883
REMARK INTER + INTRA:         -11.579
REMARK INTER:                  -9.718
REMARK INTRA:                  -1.861
REMARK UNBOUND:                -1.662
REMARK SMILES CCCCCCCCC=CCCCCCCCC(=O)[O-]
REMARK SMILES IDX 10 1 9 2 11 3 12 4 13 5 14 6 15 7 16 8 17 9 18 10 19 11
REMARK SMILES IDX 20 12 8 13 7 14 6 15 5 16 4 17 3 18 2 19 1 20
REMARK H PARENT
REMARK Flexibility Score: inf
ROOT
ATOM      1  C   UNL     1       3.108  11.264  18.692  1.00  0.00    -0.031 C 
ATOM      2  C   UNL     1       4.188  12.001  19.009  1.00  0.00    -0.031 C 
ENDROOT
BRANCH   1   3
ATOM      3  C   UNL     1       3.069   9.757  18.686  1.00  0.00     0.027 C 
BRANCH   3   4
ATOM      4  C   UNL     1       2.142   9.245  17.575  1.00  0.00     0.004 C 
BRANCH   4   5
ATOM      5  C   UNL     1       2.749   8.074  16.786  1.00  0.00     0.000 C 
BRANCH   5   6
ATOM      6  C   UNL     1       2.109   6.724  17.142  1.00  0.00     0.000 C 
BRANCH   6   7
ATOM      7  C   UNL     1       0.881   6.916  18.040  1.00  0.00     0.000 C 
BRANCH   7   8
ATOM      8  C   UNL     1       0.968   6.026  19.286  1.00  0.00     0.006 C 
BRANCH   8   9
ATOM      9  C   UNL     1       0.672   4.563  18.941  1.00  0.00     0.053 C 
BRANCH   9  10
ATOM     10  C   UNL     1       1.910   3.733  19.082  1.00  0.00     0.041 C 
ATOM     11  O   UNL     1       2.073   2.711  18.365  1.00  0.00    -0.550 OA
ATOM     12  O   UNL     1       2.855   4.057  20.047  1.00  0.00    -0.550 OA
ENDBRANCH   9  10
ENDBRANCH   8   9
ENDBRANCH   7   8
ENDBRANCH   6   7
ENDBRANCH   5   6
ENDBRANCH   4   5
ENDBRANCH   3   4
ENDBRANCH   1   3
BRANCH   2  13
ATOM     13  C   UNL     1       5.499  11.437  19.501  1.00  0.00     0.027 C 
BRANCH  13  14
ATOM     14  C   UNL     1       6.498  11.196  18.354  1.00  0.00     0.004 C 
BRANCH  14  15
ATOM     15  C   UNL     1       6.019  11.702  16.980  1.00  0.00     0.000 C 
BRANCH  15  16
ATOM     16  C   UNL     1       5.565  10.567  16.050  1.00  0.00     0.000 C 
BRANCH  16  17
ATOM     17  C   UNL     1       4.288  10.959  15.292  1.00  0.00    -0.000 C 
BRANCH  17  18
ATOM     18  C   UNL     1       4.366  12.368  14.675  1.00  0.00    -0.000 C 
BRANCH  18  19
ATOM     19  C   UNL     1       3.051  13.166  14.716  1.00  0.00    -0.003 C 
ATOM     20  C   UNL     1       2.804  13.847  16.061  1.00  0.00     0.004 C 
ENDBRANCH  18  19
ENDBRANCH  17  18
ENDBRANCH  16  17
ENDBRANCH  15  16
ENDBRANCH  14  15
ENDBRANCH  13  14
ENDBRANCH   2  13
TORSDOF 15
ENDMDL
MODEL 4
REMARK VINA RESULT:    -5.143      2.458      3.834
REMARK INTER + INTRA:         -11.316
REMARK INTER:                  -9.406
REMARK INTRA:                  -1.910
REMARK UNBOUND:                -1.662
REMARK SMILES CCCCCCCCC=CCCCCCCCC(=O)[O-]
REMARK SMILES IDX 10 1 9 2 11 3 12 4 13 5 14 6 15 7 16 8 17 9 18 10 19 11
REMARK SMILES IDX 20 12 8 13 7 14 6 15 5 16 4 17 3 18 2 19 1 20
REMARK H PARENT
REMARK Flexibility Score: inf
ROOT
ATOM      1  C   UNL     1       3.602  10.006  14.276  1.00  0.00    -0.031 C 
ATOM      2  C   UNL     1       3.504   9.262  15.393  1.00  0.00    -0.031 C 
ENDROOT
BRANCH   1   3
ATOM      3  C   UNL     1       2.788  11.244  13.997  1.00  0.00     0.027 C 
BRANCH   3   4
ATOM      4  C   UNL     1       3.631  12.506  14.224  1.00  0.00     0.004 C 
BRANCH   4   5
ATOM      5  C   UNL     1       3.120  13.360  15.396  1.00  0.00     0.000 C 
BRANCH   5   6
ATOM      6  C   UNL     1       3.863  13.070  16.708  1.00  0.00     0.000 C 
BRANCH   6   7
ATOM      7  C   UNL     1       5.261  12.503  16.437  1.00  0.00     0.000 C 
BRANCH   7   8
ATOM      8  C   UNL     1       5.623  11.420  17.460  1.00  0.00     0.006 C 
BRANCH   8   9
ATOM      9  C   UNL     1       4.596  11.370  18.596  1.00  0.00     0.053 C 
BRANCH   9  10
ATOM     10  C   UNL     1       5.272  11.080  19.899  1.00  0.00     0.041 C 
ATOM     11  O   UNL     1       6.481  11.390  20.069  1.00  0.00    -0.550 OA
ATOM     12  O   UNL     1       4.582  10.415  20.905  1.00  0.00    -0.550 OA
ENDBRANCH   9  10
ENDBRANCH   8   9
ENDBRANCH   7   8
ENDBRANCH   6   7
ENDBRANCH   5   6
ENDBRANCH   4   5
ENDBRANCH   3   4
ENDBRANCH   1   3
BRANCH   2  13
ATOM     13  C   UNL     1       2.637   9.603  16.580  1.00  0.00     0.027 C 
BRANCH  13  14
ATOM     14  C   UNL     1       2.394   8.387  17.494  1.00  0.00     0.004 C 
BRANCH  14  15
ATOM     15  C   UNL     1       2.680   7.027  16.830  1.00  0.00     0.000 C 
BRANCH  15  16
ATOM     16  C   UNL     1       1.608   5.973  17.140  1.00  0.00     0.000 C 
BRANCH  16  17
ATOM     17  C   UNL     1       0.646   6.475  18.227  1.00  0.00    -0.000 C 
BRANCH  17  18
ATOM     18  C   UNL     1       0.839   5.758  19.575  1.00  0.00    -0.000 C 
BRANCH  18  19
ATOM     19  C   UNL     1       1.213   4.269  19.469  1.00  0.00    -0.003 C 
ATOM     20  C   UNL     1       2.679   3.994  19.803  1.00  0.00     0.004 C 
ENDBRANCH  18  19
ENDBRANCH  17  18
ENDBRANCH  16  17
ENDBRANCH  15  16
ENDBRANCH  14  15
ENDBRANCH  13  14
ENDBRANCH   2  13
TORSDOF 15
ENDMDL
MODEL 5
REMARK VINA RESULT:    -5.018      2.676      6.640
REMARK INTER + INTRA:         -11.081
REMARK INTER:                  -9.400
REMARK INTRA:                  -1.681
REMARK UNBOUND:                -1.662
REMARK SMILES CCCCCCCCC=CCCCCCCCC(=O)[O-]
REMARK SMILES IDX 10 1 9 2 11 3 12 4 13 5 14 6 15 7 16 8 17 9 18 10 19 11
REMARK SMILES IDX 20 12 8 13 7 14 6 15 5 16 4 17 3 18 2 19 1 20
REMARK H PARENT
REMARK Flexibility Score: inf
ROOT
ATOM      1  C   UNL     1       3.794   9.671  13.652  1.00  0.00    -0.031 C 
ATOM      2  C   UNL     1       3.113  10.705  13.125  1.00  0.00    -0.031 C 
ENDROOT
BRANCH   1   3
ATOM      3  C   UNL     1       4.132   9.522  15.113  1.00  0.00     0.027 C 
BRANCH   3   4
ATOM      4  C   UNL     1       3.035   8.734  15.843  1.00  0.00     0.004 C 
BRANCH   4   5
ATOM      5  C   UNL     1       2.758   9.271  17.256  1.00  0.00     0.000 C 
BRANCH   5   6
ATOM      6  C   UNL     1       1.911   8.307  18.101  1.00  0.00     0.000 C 
BRANCH   6   7
ATOM      7  C   UNL     1       2.090   6.859  17.631  1.00  0.00     0.000 C 
BRANCH   7   8
ATOM      8  C   UNL     1       0.834   6.028  17.921  1.00  0.00     0.006 C 
BRANCH   8   9
ATOM      9  C   UNL     1       0.918   5.366  19.300  1.00  0.00     0.053 C 
BRANCH   9  10
ATOM     10  C   UNL     1       1.842   4.189  19.259  1.00  0.00     0.041 C 
ATOM     11  O   UNL     1       1.717   3.315  18.362  1.00  0.00    -0.550 OA
ATOM     12  O   UNL     1       2.804   4.030  20.249  1.00  0.00    -0.550 OA
ENDBRANCH   9  10
ENDBRANCH   8   9
ENDBRANCH   7   8
ENDBRANCH   6   7
ENDBRANCH   5   6
ENDBRANCH   4   5
ENDBRANCH   3   4
ENDBRANCH   1   3
BRANCH   2  13
ATOM     13  C   UNL     1       2.498  11.827  13.926  1.00  0.00     0.027 C 
BRANCH  13  14
ATOM     14  C   UNL     1       3.554  12.820  14.445  1.00  0.00     0.004 C 
BRANCH  14  15
ATOM     15  C   UNL     1       3.216  13.449  15.809  1.00  0.00     0.000 C 
BRANCH  15  16
ATOM     16  C   UNL     1       3.788  12.654  16.993  1.00  0.00     0.000 C 
BRANCH  16  17
ATOM     17  C   UNL     1       5.202  12.147  16.679  1.00  0.00    -0.000 C 
BRANCH  17  18
ATOM     18  C   UNL     1       5.816  11.333  17.832  1.00  0.00    -0.000 C 
BRANCH  18  19
ATOM     19  C   UNL     1       5.394  11.787  19.241  1.00  0.00    -0.003 C 
ATOM     20  C   UNL     1       4.670  10.698  20.030  1.00  0.00     0.004 C 
ENDBRANCH  18  19
ENDBRANCH  17  18
ENDBRANCH  16  17
ENDBRANCH  15  16
ENDBRANCH  14  15
ENDBRANCH  13  14
ENDBRANCH   2  13
TORSDOF 15
ENDMDL
MODEL 6
REMARK VINA RESULT:    -4.907      2.742      6.348
REMARK INTER + INTRA:         -10.873
REMARK INTER:                  -9.214
REMARK INTRA:                  -1.659
REMARK UNBOUND:                -1.662
REMARK SMILES CCCCCCCCC=CCCCCCCCC(=O)[O-]
REMARK SMILES IDX 10 1 9 2 11 3 12 4 13 5 14 6 15 7 16 8 17 9 18 10 19 11
REMARK SMILES IDX 20 12 8 13 7 14 6 15 5 16 4 17 3 18 2 19 1 20
REMARK H PARENT
REMARK Flexibility Score: inf
ROOT
ATOM      1  C   UNL     1       3.030  11.527  14.047  1.00  0.00    -0.031 C 
ATOM      2  C   UNL     1       2.921  12.706  14.686  1.00  0.00    -0.031 C 
ENDROOT
BRANCH   1   3
ATOM      3  C   UNL     1       4.033  10.456  14.390  1.00  0.00     0.027 C 
BRANCH   3   4
ATOM      4  C   UNL     1       3.325   9.212  14.946  1.00  0.00     0.004 C 
BRANCH   4   5
ATOM      5  C   UNL     1       3.028   9.320  16.450  1.00  0.00     0.000 C 
BRANCH   5   6
ATOM      6  C   UNL     1       2.647   7.970  17.077  1.00  0.00     0.000 C 
BRANCH   6   7
ATOM      7  C   UNL     1       1.365   8.092  17.909  1.00  0.00     0.000 C 
BRANCH   7   8
ATOM      8  C   UNL     1       1.006   6.753  18.565  1.00  0.00     0.006 C 
BRANCH   8   9
ATOM      9  C   UNL     1       1.893   5.624  18.031  1.00  0.00     0.053 C 
BRANCH   9  10
ATOM     10  C   UNL     1       1.838   4.440  18.946  1.00  0.00     0.041 C 
ATOM     11  O   UNL     1       1.763   3.275  18.472  1.00  0.00    -0.550 OA
ATOM     12  O   UNL     1       1.809   4.629  20.322  1.00  0.00    -0.550 OA
ENDBRANCH   9  10
ENDBRANCH   8   9
ENDBRANCH   7   8
ENDBRANCH   6   7
ENDBRANCH   5   6
ENDBRANCH   4   5
ENDBRANCH   3   4
ENDBRANCH   1   3
BRANCH   2  13
ATOM     13  C   UNL     1       3.719  13.100  15.905  1.00  0.00     0.027 C 
BRANCH  13  14
ATOM     14  C   UNL     1       2.848  13.778  16.979  1.00  0.00     0.004 C 
BRANCH  14  15
ATOM     15  C   UNL     1       2.917  13.111  18.366  1.00  0.00     0.000 C 
BRANCH  15  16
ATOM     16  C   UNL     1       3.396  11.653  18.305  1.00  0.00     0.000 C 
BRANCH  16  17
ATOM     17  C   UNL     1       4.303  11.325  19.499  1.00  0.00    -0.000 C 
BRANCH  17  18
ATOM     18  C   UNL     1       5.798  11.317  19.131  1.00  0.00    -0.000 C 
BRANCH  18  19
ATOM     19  C   UNL     1       6.096  11.505  17.633  1.00  0.00    -0.003 C 
ATOM     20  C   UNL     1       6.678  10.255  16.975  1.00  0.00     0.004 C 
ENDBRANCH  18  19
ENDBRANCH  17  18
ENDBRANCH  16  17
ENDBRANCH  15  16
ENDBRANCH  14  15
ENDBRANCH  13  14
ENDBRANCH   2  13
TORSDOF 15
ENDMDL
MODEL 7
REMARK VINA RESULT:    -4.833      2.671      6.472
REMARK INTER + INTRA:         -10.733
REMARK INTER:                  -9.113
REMARK INTRA:                  -1.619
REMARK UNBOUND:                -1.662
REMARK SMILES CCCCCCCCC=CCCCCCCCC(=O)[O-]
REMARK SMILES IDX 10 1 9 2 11 3 12 4 13 5 14 6 15 7 16 8 17 9 18 10 19 11
REMARK SMILES IDX 20 12 8 13 7 14 6 15 5 16 4 17 3 18 2 19 1 20
REMARK H PARENT
REMARK Flexibility Score: inf
ROOT
ATOM      1  C   UNL     1       2.886  10.983  14.139  1.00  0.00    -0.031 C 
ATOM      2  C   UNL     1       3.205  12.290  14.184  1.00  0.00    -0.031 C 
ENDROOT
BRANCH   1   3
ATOM      3  C   UNL     1       3.877   9.854  14.256  1.00  0.00     0.027 C 
BRANCH   3   4
ATOM      4  C   UNL     1       3.396   8.818  15.282  1.00  0.00     0.004 C 
BRANCH   4   5
ATOM      5  C   UNL     1       2.962   9.456  16.611  1.00  0.00     0.000 C 
BRANCH   5   6
ATOM      6  C   UNL     1       2.194   8.479  17.515  1.00  0.00     0.000 C 
BRANCH   6   7
ATOM      7  C   UNL     1       2.417   7.028  17.073  1.00  0.00     0.000 C 
BRANCH   7   8
ATOM      8  C   UNL     1       1.272   6.127  17.550  1.00  0.00     0.006 C 
BRANCH   8   9
ATOM      9  C   UNL     1       1.294   5.968  19.074  1.00  0.00     0.053 C 
BRANCH   9  10
ATOM     10  C   UNL     1       1.785   4.605  19.450  1.00  0.00     0.041 C 
ATOM     11  O   UNL     1       3.015   4.339  19.408  1.00  0.00    -0.550 OA
ATOM     12  O   UNL     1       0.875   3.612  19.792  1.00  0.00    -0.550 OA
ENDBRANCH   9  10
ENDBRANCH   8   9
ENDBRANCH   7   8
ENDBRANCH   6   7
ENDBRANCH   5   6
ENDBRANCH   4   5
ENDBRANCH   3   4
ENDBRANCH   1   3
BRANCH   2  13
ATOM     13  C   UNL     1       4.590  12.827  14.455  1.00  0.00     0.027 C 
BRANCH  13  14
ATOM     14  C   UNL     1       4.876  12.969  15.961  1.00  0.00     0.004 C 
BRANCH  14  15
ATOM     15  C   UNL     1       6.175  12.284  16.427  1.00  0.00     0.000 C 
BRANCH  15  16
ATOM     16  C   UNL     1       5.921  11.081  17.348  1.00  0.00     0.000 C 
BRANCH  16  17
ATOM     17  C   UNL     1       5.986  11.499  18.824  1.00  0.00    -0.000 C 
BRANCH  17  18
ATOM     18  C   UNL     1       4.694  11.174  19.596  1.00  0.00    -0.000 C 
BRANCH  18  19
ATOM     19  C   UNL     1       3.394  11.595  18.887  1.00  0.00    -0.003 C 
ATOM     20  C   UNL     1       3.181  13.108  18.874  1.00  0.00     0.004 C 
ENDBRANCH  18  19
ENDBRANCH  17  18
ENDBRANCH  16  17
ENDBRANCH  15  16
ENDBRANCH  14  15
ENDBRANCH  13  14
ENDBRANCH   2  13
TORSDOF 15
ENDMDL
MODEL 8
REMARK VINA RESULT:    -4.535      2.763      6.683
REMARK INTER + INTRA:         -10.175
REMARK INTER:                  -8.649
REMARK INTRA:                  -1.526
REMARK UNBOUND:                -1.662
REMARK SMILES CCCCCCCCC=CCCCCCCCC(=O)[O-]
REMARK SMILES IDX 10 1 9 2 11 3 12 4 13 5 14 6 15 7 16 8 17 9 18 10 19 11
REMARK SMILES IDX 20 12 8 13 7 14 6 15 5 16 4 17 3 18 2 19 1 20
REMARK H PARENT
REMARK Flexibility Score: inf
ROOT
ATOM      1  C   UNL     1       5.242  11.531  19.038  1.00  0.00    -0.031 C 
ATOM      2  C   UNL     1       6.081  11.563  17.986  1.00  0.00    -0.031 C 
ENDROOT
BRANCH   1   3
ATOM      3  C   UNL     1       4.213  10.457  19.282  1.00  0.00     0.027 C 
BRANCH   3   4
ATOM      4  C   UNL     1       2.969  10.695  18.416  1.00  0.00     0.004 C 
BRANCH   4   5
ATOM      5  C   UNL     1       2.763   9.599  17.358  1.00  0.00     0.000 C 
BRANCH   5   6
ATOM      6  C   UNL     1       1.696   8.573  17.767  1.00  0.00     0.000 C 
BRANCH   6   7
ATOM      7  C   UNL     1       2.157   7.144  17.458  1.00  0.00     0.000 C 
BRANCH   7   8
ATOM      8  C   UNL     1       1.125   6.117  17.938  1.00  0.00     0.006 C 
BRANCH   8   9
ATOM      9  C   UNL     1       1.367   5.735  19.402  1.00  0.00     0.053 C 
BRANCH   9  10
ATOM     10  C   UNL     1       1.945   4.358  19.494  1.00  0.00     0.041 C 
ATOM     11  O   UNL     1       2.739   4.064  20.426  1.00  0.00    -0.550 OA
ATOM     12  O   UNL     1       1.651   3.416  18.515  1.00  0.00    -0.550 OA
ENDBRANCH   9  10
ENDBRANCH   8   9
ENDBRANCH   7   8
ENDBRANCH   6   7
ENDBRANCH   5   6
ENDBRANCH   4   5
ENDBRANCH   3   4
ENDBRANCH   1   3
BRANCH   2  13
ATOM     13  C   UNL     1       6.189  10.480  16.940  1.00  0.00     0.027 C 
BRANCH  13  14
ATOM     14  C   UNL     1       5.232  10.714  15.757  1.00  0.00     0.004 C 
BRANCH  14  15
ATOM     15  C   UNL     1       4.889  12.193  15.502  1.00  0.00     0.000 C 
BRANCH  15  16
ATOM     16  C   UNL     1       3.731  12.376  14.509  1.00  0.00     0.000 C 
BRANCH  16  17
ATOM     17  C   UNL     1       2.667  13.325  15.080  1.00  0.00    -0.000 C 
BRANCH  17  18
ATOM     18  C   UNL     1       3.130  14.045  16.360  1.00  0.00    -0.000 C 
BRANCH  18  19
ATOM     19  C   UNL     1       1.992  14.525  17.279  1.00  0.00    -0.003 C 
ATOM     20  C   UNL     1       2.262  14.256  18.758  1.00  0.00     0.004 C 
ENDBRANCH  18  19
ENDBRANCH  17  18
ENDBRANCH  16  17
ENDBRANCH  15  16
ENDBRANCH  14  15
ENDBRANCH  13  14
ENDBRANCH   2  13
TORSDOF 15
ENDMDL
MODEL 9
REMARK VINA RESULT:    -4.359      4.827      5.724
REMARK INTER + INTRA:          -9.843
REMARK INTER:                  -8.825
REMARK INTRA:                  -1.018
REMARK UNBOUND:                -1.662
REMARK SMILES CCCCCCCCC=CCCCCCCCC(=O)[O-]
REMARK SMILES IDX 10 1 9 2 11 3 12 4 13 5 14 6 15 7 16 8 17 9 18 10 19 11
REMARK SMILES IDX 20 12 8 13 7 14 6 15 5 16 4 17 3 18 2 19 1 20
REMARK H PARENT
REMARK Flexibility Score: inf
ROOT
ATOM      1  C   UNL     1       4.778  12.302  15.922  1.00  0.00    -0.031 C 
ATOM      2  C   UNL     1       4.860  11.032  16.356  1.00  0.00    -0.031 C 
ENDROOT
BRANCH   1   3
ATOM      3  C   UNL     1       3.614  12.872  15.151  1.00  0.00     0.027 C 
BRANCH   3   4
ATOM      4  C   UNL     1       2.796  13.822  16.035  1.00  0.00     0.004 C 
BRANCH   4   5
ATOM      5  C   UNL     1       3.058  13.613  17.535  1.00  0.00     0.000 C 
BRANCH   5   6
ATOM      6  C   UNL     1       2.037  14.340  18.423  1.00  0.00     0.000 C 
BRANCH   6   7
ATOM      7  C   UNL     1       1.378  15.501  17.669  1.00  0.00     0.000 C 
BRANCH   7   8
ATOM      8  C   UNL     1       0.175  16.048  18.446  1.00  0.00     0.006 C 
BRANCH   8   9
ATOM      9  C   UNL     1       0.263  17.570  18.599  1.00  0.00     0.053 C 
BRANCH   9  10
ATOM     10  C   UNL     1      -0.775  18.060  19.559  1.00  0.00     0.041 C 
ATOM     11  O   UNL     1      -0.717  19.233  20.013  1.00  0.00    -0.550 OA
ATOM     12  O   UNL     1      -1.775  17.200  19.996  1.00  0.00    -0.550 OA
ENDBRANCH   9  10
ENDBRANCH   8   9
ENDBRANCH   7   8
ENDBRANCH   6   7
ENDBRANCH   5   6
ENDBRANCH   4   5
ENDBRANCH   3   4
ENDBRANCH   1   3
BRANCH   2  13
ATOM     13  C   UNL     1       3.761  10.006  16.226  1.00  0.00     0.027 C 
BRANCH  13  14
ATOM     14  C   UNL     1       2.923   9.882  17.512  1.00  0.00     0.004 C 
BRANCH  14  15
ATOM     15  C   UNL     1       2.086   8.591  17.601  1.00  0.00     0.000 C 
BRANCH  15  16
ATOM     16  C   UNL     1       2.671   7.440  16.769  1.00  0.00     0.000 C 
BRANCH  16  17
ATOM     17  C   UNL     1       1.988   6.111  17.120  1.00  0.00    -0.000 C 
BRANCH  17  18
ATOM     18  C   UNL     1       0.971   6.244  18.268  1.00  0.00    -0.000 C 
BRANCH  18  19
ATOM     19  C   UNL     1       1.371   5.532  19.573  1.00  0.00    -0.003 C 
ATOM     20  C   UNL     1       2.202   4.272  19.338  1.00  0.00     0.004 C 
ENDBRANCH  18  19
ENDBRANCH  17  18
ENDBRANCH  16  17
ENDBRANCH  15  16
ENDBRANCH  14  15
ENDBRANCH  13  14
ENDBRANCH   2  13
TORSDOF 15
ENDMDL
