MODEL 1
REMARK VINA RESULT:    -3.258      0.000      0.000
REMARK INTER + INTRA:          -3.651
REMARK INTER:                  -4.020
REMARK INTRA:                   0.369
REMARK UNBOUND:                 0.369
REMARK SMILES O=c1c(O)c(-c2cc(O)c(O)c(O)c2)oc2cc(O)cc(O)c12
REMARK SMILES IDX 5 1 3 2 2 3 1 4 23 5 21 6 20 7 18 8 17 9 16 10 15 11 6 12
REMARK SMILES IDX 7 13 8 14 14 15 10 16 12 17 9 18 11 20 13 22 4 24 22 26
REMARK SMILES IDX 19 28
REMARK H PARENT 9 19 11 21 13 23 4 25 22 27 19 29
REMARK Flexibility Score: inf
ROOT
ATOM      1  C   UNL     1      -1.680   0.358  -9.608  1.00  0.00     0.180 A 
ATOM      2  C   UNL     1      -1.773   1.750  -9.766  1.00  0.00     0.208 A 
ATOM      3  C   UNL     1      -0.621   2.534  -9.593  1.00  0.00     0.238 A 
ATOM      4  O   UNL     1      -0.727   3.787  -9.662  1.00  0.00    -0.285 OA
ATOM      5  C   UNL     1       0.620   1.912  -9.319  1.00  0.00     0.111 A 
ATOM      6  C   UNL     1       1.861   2.603  -9.169  1.00  0.00     0.134 A 
ATOM      7  C   UNL     1       3.008   1.892  -8.793  1.00  0.00     0.093 A 
ATOM      8  C   UNL     1       2.973   0.506  -8.626  1.00  0.00     0.123 A 
ATOM      9  C   UNL     1       1.780  -0.185  -8.824  1.00  0.00     0.094 A 
ATOM     10  C   UNL     1       0.611   0.501  -9.161  1.00  0.00     0.146 A 
ATOM     11  O   UNL     1      -0.508  -0.195  -9.318  1.00  0.00    -0.452 OA
ENDROOT
BRANCH   1  12
ATOM     12  C   UNL     1      -2.853  -0.533  -9.760  1.00  0.00     0.029 A 
ATOM     13  C   UNL     1      -4.163  -0.028  -9.743  1.00  0.00     0.062 A 
ATOM     14  C   UNL     1      -5.262  -0.890  -9.866  1.00  0.00     0.162 A 
ATOM     15  C   UNL     1      -2.657  -1.919  -9.866  1.00  0.00     0.062 A 
ATOM     16  C   UNL     1      -5.055  -2.275  -9.994  1.00  0.00     0.200 A 
ATOM     17  C   UNL     1      -3.747  -2.787  -9.990  1.00  0.00     0.162 A 
BRANCH  14  18
ATOM     18  O   UNL     1      -6.557  -0.376  -9.853  1.00  0.00    -0.504 OA
ATOM     19  H   UNL     1      -7.258  -0.715  -9.204  1.00  0.00     0.293 HD
ENDBRANCH  14  18
BRANCH  16  20
ATOM     20  O   UNL     1      -6.137  -3.147 -10.121  1.00  0.00    -0.502 OA
ATOM     21  H   UNL     1      -6.733  -3.385  -9.337  1.00  0.00     0.293 HD
ENDBRANCH  16  20
BRANCH  17  22
ATOM     22  O   UNL     1      -3.509  -4.156 -10.108  1.00  0.00    -0.504 OA
ATOM     23  H   UNL     1      -3.252  -4.586 -10.988  1.00  0.00     0.293 HD
ENDBRANCH  17  22
ENDBRANCH   1  12
BRANCH   2  24
ATOM     24  O   UNL     1      -2.993   2.339 -10.111  1.00  0.00    -0.502 OA
ATOM     25  H   UNL     1      -3.871   1.838 -10.065  1.00  0.00     0.293 HD
ENDBRANCH   2  24
BRANCH   6  26
ATOM     26  O   UNL     1       2.027   3.973  -9.398  1.00  0.00    -0.507 OA
ATOM     27  H   UNL     1       1.347   4.682  -9.174  1.00  0.00     0.293 HD
ENDBRANCH   6  26
BRANCH   8  28
ATOM     28  O   UNL     1       4.122  -0.196  -8.269  1.00  0.00    -0.508 OA
ATOM     29  H   UNL     1       4.130  -1.209  -8.217  1.00  0.00     0.293 HD
ENDBRANCH   8  28
TORSDOF 7
ENDMDL
MODEL 2
REMARK VINA RESULT:    -3.065      1.241      6.849
REMARK INTER + INTRA:          -3.412
REMARK INTER:                  -3.626
REMARK INTRA:                   0.213
REMARK UNBOUND:                 0.369
REMARK SMILES O=c1c(O)c(-c2cc(O)c(O)c(O)c2)oc2cc(O)cc(O)c12
REMARK SMILES IDX 5 1 3 2 2 3 1 4 23 5 21 6 20 7 18 8 17 9 16 10 15 11 6 12
REMARK SMILES IDX 7 13 8 14 14 15 10 16 12 17 9 18 11 20 13 22 4 24 22 26
REMARK SMILES IDX 19 28
REMARK H PARENT 9 19 11 21 13 23 4 25 22 27 19 29
REMARK Flexibility Score: inf
ROOT
ATOM      1  C   UNL     1      -0.740   0.064  -9.529  1.00  0.00     0.180 A 
ATOM      2  C   UNL     1      -1.398   1.293  -9.694  1.00  0.00     0.208 A 
ATOM      3  C   UNL     1      -2.786   1.301  -9.903  1.00  0.00     0.238 A 
ATOM      4  O   UNL     1      -3.358   2.400 -10.125  1.00  0.00    -0.285 OA
ATOM      5  C   UNL     1      -3.507   0.082  -9.890  1.00  0.00     0.111 A 
ATOM      6  C   UNL     1      -4.923  -0.027 -10.046  1.00  0.00     0.134 A 
ATOM      7  C   UNL     1      -5.514  -1.294 -10.123  1.00  0.00     0.093 A 
ATOM      8  C   UNL     1      -4.750  -2.455  -9.983  1.00  0.00     0.123 A 
ATOM      9  C   UNL     1      -3.378  -2.359  -9.774  1.00  0.00     0.094 A 
ATOM     10  C   UNL     1      -2.753  -1.109  -9.732  1.00  0.00     0.146 A 
ATOM     11  O   UNL     1      -1.438  -1.065  -9.554  1.00  0.00    -0.452 OA
ENDROOT
BRANCH   1  12
ATOM     12  C   UNL     1       0.723  -0.026  -9.319  1.00  0.00     0.029 A 
ATOM     13  C   UNL     1       1.471  -1.102  -9.825  1.00  0.00     0.062 A 
ATOM     14  C   UNL     1       2.852  -1.181  -9.597  1.00  0.00     0.162 A 
ATOM     15  C   UNL     1       1.371   0.953  -8.550  1.00  0.00     0.062 A 
ATOM     16  C   UNL     1       3.496  -0.183  -8.845  1.00  0.00     0.200 A 
ATOM     17  C   UNL     1       2.748   0.884  -8.319  1.00  0.00     0.162 A 
BRANCH  14  18
ATOM     18  O   UNL     1       3.584  -2.250 -10.109  1.00  0.00    -0.504 OA
ATOM     19  H   UNL     1       3.742  -3.094  -9.570  1.00  0.00     0.293 HD
ENDBRANCH  14  18
BRANCH  16  20
ATOM     20  O   UNL     1       4.870  -0.244  -8.611  1.00  0.00    -0.502 OA
ATOM     21  H   UNL     1       5.431   0.588  -8.470  1.00  0.00     0.293 HD
ENDBRANCH  16  20
BRANCH  17  22
ATOM     22  O   UNL     1       3.357   1.885  -7.561  1.00  0.00    -0.504 OA
ATOM     23  H   UNL     1       4.252   2.285  -7.815  1.00  0.00     0.293 HD
ENDBRANCH  17  22
ENDBRANCH   1  12
BRANCH   2  24
ATOM     24  O   UNL     1      -0.679   2.491  -9.629  1.00  0.00    -0.502 OA
ATOM     25  H   UNL     1      -0.347   2.878  -8.754  1.00  0.00     0.293 HD
ENDBRANCH   2  24
BRANCH   6  26
ATOM     26  O   UNL     1      -5.791   1.068 -10.107  1.00  0.00    -0.507 OA
ATOM     27  H   UNL     1      -6.626   1.175  -9.553  1.00  0.00     0.293 HD
ENDBRANCH   6  26
BRANCH   8  28
ATOM     28  O   UNL     1      -5.350  -3.711 -10.042  1.00  0.00    -0.508 OA
ATOM     29  H   UNL     1      -5.929  -4.059  -9.285  1.00  0.00     0.293 HD
ENDBRANCH   8  28
TORSDOF 7
ENDMDL
MODEL 3
REMARK VINA RESULT:    -2.799      1.525      3.121
REMARK INTER + INTRA:          -3.085
REMARK INTER:                  -3.605
REMARK INTRA:                   0.521
REMARK UNBOUND:                 0.369
REMARK SMILES O=c1c(O)c(-c2cc(O)c(O)c(O)c2)oc2cc(O)cc(O)c12
REMARK SMILES IDX 5 1 3 2 2 3 1 4 23 5 21 6 20 7 18 8 17 9 16 10 15 11 6 12
REMARK SMILES IDX 7 13 8 14 14 15 10 16 12 17 9 18 11 20 13 22 4 24 22 26
REMARK SMILES IDX 19 28
REMARK H PARENT 9 19 11 21 13 23 4 25 22 27 19 29
REMARK Flexibility Score: inf
ROOT
ATOM      1  C   UNL     1      -2.246   0.308 -10.065  1.00  0.00     0.180 A 
ATOM      2  C   UNL     1      -0.931  -0.184 -10.035  1.00  0.00     0.208 A 
ATOM      3  C   UNL     1       0.137   0.728 -10.017  1.00  0.00     0.238 A 
ATOM      4  O   UNL     1       1.313   0.281 -10.066  1.00  0.00    -0.285 OA
ATOM      5  C   UNL     1      -0.125   2.118  -9.974  1.00  0.00     0.111 A 
ATOM      6  C   UNL     1       0.879   3.133  -9.909  1.00  0.00     0.134 A 
ATOM      7  C   UNL     1       0.505   4.481  -9.978  1.00  0.00     0.093 A 
ATOM      8  C   UNL     1      -0.840   4.852 -10.045  1.00  0.00     0.123 A 
ATOM      9  C   UNL     1      -1.829   3.873 -10.053  1.00  0.00     0.094 A 
ATOM     10  C   UNL     1      -1.485   2.518 -10.024  1.00  0.00     0.146 A 
ATOM     11  O   UNL     1      -2.460   1.618 -10.057  1.00  0.00    -0.452 OA
ENDROOT
BRANCH   1  12
ATOM     12  C   UNL     1      -3.423  -0.591 -10.100  1.00  0.00     0.029 A 
ATOM     13  C   UNL     1      -4.733  -0.083 -10.076  1.00  0.00     0.062 A 
ATOM     14  C   UNL     1      -5.834  -0.950 -10.086  1.00  0.00     0.162 A 
ATOM     15  C   UNL     1      -3.230  -1.981 -10.099  1.00  0.00     0.062 A 
ATOM     16  C   UNL     1      -5.631  -2.341 -10.109  1.00  0.00     0.200 A 
ATOM     17  C   UNL     1      -4.323  -2.854 -10.112  1.00  0.00     0.162 A 
BRANCH  14  18
ATOM     18  O   UNL     1      -7.129  -0.434 -10.068  1.00  0.00    -0.504 OA
ATOM     19  H   UNL     1      -7.902  -0.921 -10.507  1.00  0.00     0.293 HD
ENDBRANCH  14  18
BRANCH  16  20
ATOM     20  O   UNL     1      -6.716  -3.218 -10.123  1.00  0.00    -0.502 OA
ATOM     21  H   UNL     1      -6.858  -3.913  -9.400  1.00  0.00     0.293 HD
ENDBRANCH  16  20
BRANCH  17  22
ATOM     22  O   UNL     1      -4.088  -4.228 -10.125  1.00  0.00    -0.504 OA
ATOM     23  H   UNL     1      -3.158  -4.618 -10.035  1.00  0.00     0.293 HD
ENDBRANCH  17  22
ENDBRANCH   1  12
BRANCH   2  24
ATOM     24  O   UNL     1      -0.695  -1.562 -10.001  1.00  0.00    -0.502 OA
ATOM     25  H   UNL     1      -1.149  -2.175  -9.336  1.00  0.00     0.293 HD
ENDBRANCH   2  24
BRANCH   6  26
ATOM     26  O   UNL     1       2.244   2.874  -9.752  1.00  0.00    -0.507 OA
ATOM     27  H   UNL     1       2.881   3.440  -9.212  1.00  0.00     0.293 HD
ENDBRANCH   6  26
BRANCH   8  28
ATOM     28  O   UNL     1      -1.204   6.196 -10.096  1.00  0.00    -0.508 OA
ATOM     29  H   UNL     1      -0.990   6.833  -9.335  1.00  0.00     0.293 HD
ENDBRANCH   8  28
TORSDOF 7
ENDMDL
MODEL 4
REMARK VINA RESULT:    -1.974      2.134      7.127
REMARK INTER + INTRA:          -2.067
REMARK INTER:                  -2.509
REMARK INTRA:                   0.442
REMARK UNBOUND:                 0.369
REMARK SMILES O=c1c(O)c(-c2cc(O)c(O)c(O)c2)oc2cc(O)cc(O)c12
REMARK SMILES IDX 5 1 3 2 2 3 1 4 23 5 21 6 20 7 18 8 17 9 16 10 15 11 6 12
REMARK SMILES IDX 7 13 8 14 14 15 10 16 12 17 9 18 11 20 13 22 4 24 22 26
REMARK SMILES IDX 19 28
REMARK H PARENT 9 19 11 21 13 23 4 25 22 27 19 29
REMARK Flexibility Score: inf
ROOT
ATOM      1  C   UNL     1      -2.323   1.130  -9.983  1.00  0.00     0.180 A 
ATOM      2  C   UNL     1      -1.281   0.191  -9.915  1.00  0.00     0.208 A 
ATOM      3  C   UNL     1      -1.597  -1.178  -9.902  1.00  0.00     0.238 A 
ATOM      4  O   UNL     1      -0.664  -2.011  -9.765  1.00  0.00    -0.285 OA
ATOM      5  C   UNL     1      -2.946  -1.591 -10.014  1.00  0.00     0.111 A 
ATOM      6  C   UNL     1      -3.379  -2.951 -10.057  1.00  0.00     0.134 A 
ATOM      7  C   UNL     1      -4.750  -3.241 -10.062  1.00  0.00     0.093 A 
ATOM      8  C   UNL     1      -5.701  -2.219 -10.091  1.00  0.00     0.123 A 
ATOM      9  C   UNL     1      -5.289  -0.889 -10.105  1.00  0.00     0.094 A 
ATOM     10  C   UNL     1      -3.929  -0.568 -10.061  1.00  0.00     0.146 A 
ATOM     11  O   UNL     1      -3.582   0.713 -10.054  1.00  0.00    -0.452 OA
ENDROOT
BRANCH   1  12
ATOM     12  C   UNL     1      -2.071   2.589  -9.985  1.00  0.00     0.029 A 
ATOM     13  C   UNL     1      -0.771   3.107  -9.866  1.00  0.00     0.062 A 
ATOM     14  C   UNL     1      -0.555   4.492  -9.848  1.00  0.00     0.162 A 
ATOM     15  C   UNL     1      -3.157   3.476 -10.050  1.00  0.00     0.062 A 
ATOM     16  C   UNL     1      -1.646   5.373  -9.936  1.00  0.00     0.200 A 
ATOM     17  C   UNL     1      -2.950   4.860 -10.034  1.00  0.00     0.162 A 
BRANCH  14  18
ATOM     18  O   UNL     1       0.741   4.995  -9.735  1.00  0.00    -0.504 OA
ATOM     19  H   UNL     1       1.552   4.429  -9.955  1.00  0.00     0.293 HD
ENDBRANCH  14  18
BRANCH  16  20
ATOM     20  O   UNL     1      -1.448   6.755  -9.923  1.00  0.00    -0.502 OA
ATOM     21  H   UNL     1      -0.573   7.177 -10.208  1.00  0.00     0.293 HD
ENDBRANCH  16  20
BRANCH  17  22
ATOM     22  O   UNL     1      -4.054   5.708 -10.115  1.00  0.00    -0.504 OA
ATOM     23  H   UNL     1      -4.980   5.367 -10.343  1.00  0.00     0.293 HD
ENDBRANCH  17  22
ENDBRANCH   1  12
BRANCH   2  24
ATOM     24  O   UNL     1       0.050   0.617  -9.881  1.00  0.00    -0.502 OA
ATOM     25  H   UNL     1       0.828  -0.030  -9.899  1.00  0.00     0.293 HD
ENDBRANCH   2  24
BRANCH   6  26
ATOM     26  O   UNL     1      -2.513  -4.047 -10.121  1.00  0.00    -0.507 OA
ATOM     27  H   UNL     1      -1.822  -4.278  -9.424  1.00  0.00     0.293 HD
ENDBRANCH   6  26
BRANCH   8  28
ATOM     28  O   UNL     1      -7.062  -2.516 -10.114  1.00  0.00    -0.508 OA
ATOM     29  H   UNL     1      -7.435  -3.251 -10.704  1.00  0.00     0.293 HD
ENDBRANCH   8  28
TORSDOF 7
ENDMDL
MODEL 5
REMARK VINA RESULT:    -1.762      3.054      5.095
REMARK INTER + INTRA:          -1.805
REMARK INTER:                  -2.159
REMARK INTRA:                   0.353
REMARK UNBOUND:                 0.369
REMARK SMILES O=c1c(O)c(-c2cc(O)c(O)c(O)c2)oc2cc(O)cc(O)c12
REMARK SMILES IDX 5 1 3 2 2 3 1 4 23 5 21 6 20 7 18 8 17 9 16 10 15 11 6 12
REMARK SMILES IDX 7 13 8 14 14 15 10 16 12 17 9 18 11 20 13 22 4 24 22 26
REMARK SMILES IDX 19 28
REMARK H PARENT 9 19 11 21 13 23 4 25 22 27 19 29
REMARK Flexibility Score: inf
ROOT
ATOM      1  C   UNL     1       0.197   2.248  -9.177  1.00  0.00     0.180 A 
ATOM      2  C   UNL     1       1.356   2.679  -8.513  1.00  0.00     0.208 A 
ATOM      3  C   UNL     1       2.393   1.759  -8.284  1.00  0.00     0.238 A 
ATOM      4  O   UNL     1       3.397   2.133  -7.623  1.00  0.00    -0.285 OA
ATOM      5  C   UNL     1       2.280   0.435  -8.772  1.00  0.00     0.111 A 
ATOM      6  C   UNL     1       3.287  -0.569  -8.639  1.00  0.00     0.134 A 
ATOM      7  C   UNL     1       3.021  -1.875  -9.068  1.00  0.00     0.093 A 
ATOM      8  C   UNL     1       1.810  -2.198  -9.685  1.00  0.00     0.123 A 
ATOM      9  C   UNL     1       0.843  -1.214  -9.869  1.00  0.00     0.094 A 
ATOM     10  C   UNL     1       1.064   0.090  -9.417  1.00  0.00     0.146 A 
ATOM     11  O   UNL     1       0.106   0.991  -9.594  1.00  0.00    -0.452 OA
ENDROOT
BRANCH   1  12
ATOM     12  C   UNL     1      -0.944   3.155  -9.440  1.00  0.00     0.029 A 
ATOM     13  C   UNL     1      -0.790   4.551  -9.418  1.00  0.00     0.062 A 
ATOM     14  C   UNL     1      -1.887   5.393  -9.647  1.00  0.00     0.162 A 
ATOM     15  C   UNL     1      -2.219   2.612  -9.662  1.00  0.00     0.062 A 
ATOM     16  C   UNL     1      -3.156   4.840  -9.891  1.00  0.00     0.200 A 
ATOM     17  C   UNL     1      -3.319   3.444  -9.894  1.00  0.00     0.162 A 
BRANCH  14  18
ATOM     18  O   UNL     1      -1.721   6.777  -9.628  1.00  0.00    -0.504 OA
ATOM     19  H   UNL     1      -1.624   7.289  -8.759  1.00  0.00     0.293 HD
ENDBRANCH  14  18
BRANCH  16  20
ATOM     20  O   UNL     1      -4.258   5.663 -10.125  1.00  0.00    -0.502 OA
ATOM     21  H   UNL     1      -5.152   5.509  -9.675  1.00  0.00     0.293 HD
ENDBRANCH  16  20
BRANCH  17  22
ATOM     22  O   UNL     1      -4.567   2.866 -10.123  1.00  0.00    -0.504 OA
ATOM     23  H   UNL     1      -5.430   3.311  -9.835  1.00  0.00     0.293 HD
ENDBRANCH  17  22
ENDBRANCH   1  12
BRANCH   2  24
ATOM     24  O   UNL     1       1.481   4.011  -8.105  1.00  0.00    -0.502 OA
ATOM     25  H   UNL     1       2.380   4.455  -7.967  1.00  0.00     0.293 HD
ENDBRANCH   2  24
BRANCH   6  26
ATOM     26  O   UNL     1       4.563  -0.334  -8.119  1.00  0.00    -0.507 OA
ATOM     27  H   UNL     1       5.205   0.366  -8.458  1.00  0.00     0.293 HD
ENDBRANCH   6  26
BRANCH   8  28
ATOM     28  O   UNL     1       1.561  -3.497 -10.124  1.00  0.00    -0.508 OA
ATOM     29  H   UNL     1       1.996  -4.299  -9.682  1.00  0.00     0.293 HD
ENDBRANCH   8  28
TORSDOF 7
ENDMDL
