MODEL 1
REMARK VINA RESULT:    -4.160      0.000      0.000
REMARK INTER + INTRA:          -9.195
REMARK INTER:                  -7.564
REMARK INTRA:                  -1.631
REMARK UNBOUND:                -1.631
REMARK SMILES CCCCCCCCCCCCCCCC(=O)[O-]
REMARK SMILES IDX 9 1 10 2 11 3 12 4 13 5 14 6 15 7 16 8 17 9 18 10 8 11 7 12
REMARK SMILES IDX 6 13 5 14 4 15 3 16 2 17 1 18
REMARK H PARENT
REMARK Flexibility Score: inf
ROOT
ATOM      1  C   UNL     1      36.238  20.352   3.970  1.00  0.00     0.000 C 
ENDROOT
BRANCH   1   2
ATOM      2  C   UNL     1      35.673  20.181   2.550  1.00  0.00     0.000 C 
BRANCH   2   3
ATOM      3  C   UNL     1      34.528  21.165   2.250  1.00  0.00     0.000 C 
BRANCH   3   4
ATOM      4  C   UNL     1      34.887  22.165   1.139  1.00  0.00     0.000 C 
BRANCH   4   5
ATOM      5  C   UNL     1      36.400  22.395   1.012  1.00  0.00     0.000 C 
BRANCH   5   6
ATOM      6  C   UNL     1      36.718  23.892   0.876  1.00  0.00     0.006 C 
BRANCH   6   7
ATOM      7  C   UNL     1      37.930  24.308   1.720  1.00  0.00     0.053 C 
BRANCH   7   8
ATOM      8  C   UNL     1      37.929  25.778   2.005  1.00  0.00     0.041 C 
ATOM      9  O   UNL     1      38.861  26.296   2.674  1.00  0.00    -0.550 OA
ATOM     10  O   UNL     1      36.912  26.582   1.504  1.00  0.00    -0.550 OA
ENDBRANCH   7   8
ENDBRANCH   6   7
ENDBRANCH   5   6
ENDBRANCH   4   5
ENDBRANCH   3   4
ENDBRANCH   2   3
ENDBRANCH   1   2
BRANCH   1  11
ATOM     11  C   UNL     1      37.776  20.423   3.990  1.00  0.00     0.000 C 
BRANCH  11  12
ATOM     12  C   UNL     1      38.301  21.792   4.456  1.00  0.00    -0.000 C 
BRANCH  12  13
ATOM     13  C   UNL     1      39.830  21.973   4.356  1.00  0.00    -0.000 C 
BRANCH  13  14
ATOM     14  C   UNL     1      40.640  21.378   5.522  1.00  0.00    -0.000 C 
BRANCH  14  15
ATOM     15  C   UNL     1      39.788  21.137   6.780  1.00  0.00    -0.000 C 
BRANCH  15  16
ATOM     16  C   UNL     1      39.947  19.712   7.335  1.00  0.00    -0.000 C 
BRANCH  16  17
ATOM     17  C   UNL     1      38.629  18.923   7.331  1.00  0.00    -0.003 C 
ATOM     18  C   UNL     1      37.443  19.835   7.629  1.00  0.00     0.004 C 
ENDBRANCH  16  17
ENDBRANCH  15  16
ENDBRANCH  14  15
ENDBRANCH  13  14
ENDBRANCH  12  13
ENDBRANCH  11  12
ENDBRANCH   1  11
TORSDOF 14
ENDMDL
MODEL 2
REMARK VINA RESULT:    -4.148      2.470      5.208
REMARK INTER + INTRA:          -9.175
REMARK INTER:                  -7.242
REMARK INTRA:                  -1.932
REMARK UNBOUND:                -1.631
REMARK SMILES CCCCCCCCCCCCCCCC(=O)[O-]
REMARK SMILES IDX 9 1 10 2 11 3 12 4 13 5 14 6 15 7 16 8 17 9 18 10 8 11 7 12
REMARK SMILES IDX 6 13 5 14 4 15 3 16 2 17 1 18
REMARK H PARENT
REMARK Flexibility Score: inf
ROOT
ATOM      1  C   UNL     1      34.676  21.304   2.286  1.00  0.00     0.000 C 
ENDROOT
BRANCH   1   2
ATOM      2  C   UNL     1      35.597  20.136   2.678  1.00  0.00     0.000 C 
BRANCH   2   3
ATOM      3  C   UNL     1      35.923  20.123   4.182  1.00  0.00     0.000 C 
BRANCH   3   4
ATOM      4  C   UNL     1      37.435  20.077   4.457  1.00  0.00     0.000 C 
BRANCH   4   5
ATOM      5  C   UNL     1      37.763  19.688   5.906  1.00  0.00     0.000 C 
BRANCH   5   6
ATOM      6  C   UNL     1      39.281  19.612   6.123  1.00  0.00     0.006 C 
BRANCH   6   7
ATOM      7  C   UNL     1      39.733  20.404   7.357  1.00  0.00     0.053 C 
BRANCH   7   8
ATOM      8  C   UNL     1      39.565  21.879   7.162  1.00  0.00     0.041 C 
ATOM      9  O   UNL     1      40.485  22.559   6.638  1.00  0.00    -0.550 OA
ATOM     10  O   UNL     1      38.377  22.498   7.532  1.00  0.00    -0.550 OA
ENDBRANCH   7   8
ENDBRANCH   6   7
ENDBRANCH   5   6
ENDBRANCH   4   5
ENDBRANCH   3   4
ENDBRANCH   2   3
ENDBRANCH   1   2
BRANCH   1  11
ATOM     11  C   UNL     1      35.232  22.130   1.112  1.00  0.00     0.000 C 
BRANCH  11  12
ATOM     12  C   UNL     1      36.758  21.996   0.962  1.00  0.00    -0.000 C 
BRANCH  12  13
ATOM     13  C   UNL     1      37.540  23.322   1.041  1.00  0.00    -0.000 C 
BRANCH  13  14
ATOM     14  C   UNL     1      37.759  23.873   2.462  1.00  0.00    -0.000 C 
BRANCH  14  15
ATOM     15  C   UNL     1      38.570  22.919   3.354  1.00  0.00    -0.000 C 
BRANCH  15  16
ATOM     16  C   UNL     1      40.056  22.865   2.961  1.00  0.00    -0.000 C 
BRANCH  16  17
ATOM     17  C   UNL     1      40.700  21.504   3.262  1.00  0.00    -0.003 C 
ATOM     18  C   UNL     1      40.341  20.479   2.190  1.00  0.00     0.004 C 
ENDBRANCH  16  17
ENDBRANCH  15  16
ENDBRANCH  14  15
ENDBRANCH  13  14
ENDBRANCH  12  13
ENDBRANCH  11  12
ENDBRANCH   1  11
TORSDOF 14
ENDMDL
MODEL 3
REMARK VINA RESULT:    -4.130      3.003      6.924
REMARK INTER + INTRA:          -9.140
REMARK INTER:                  -7.528
REMARK INTRA:                  -1.612
REMARK UNBOUND:                -1.631
REMARK SMILES CCCCCCCCCCCCCCCC(=O)[O-]
REMARK SMILES IDX 9 1 10 2 11 3 12 4 13 5 14 6 15 7 16 8 17 9 18 10 8 11 7 12
REMARK SMILES IDX 6 13 5 14 4 15 3 16 2 17 1 18
REMARK H PARENT
REMARK Flexibility Score: inf
ROOT
ATOM      1  C   UNL     1      37.826  20.433   4.141  1.00  0.00     0.000 C 
ENDROOT
BRANCH   1   2
ATOM      2  C   UNL     1      38.338  21.834   4.515  1.00  0.00     0.000 C 
BRANCH   2   3
ATOM      3  C   UNL     1      39.799  22.060   4.089  1.00  0.00     0.000 C 
BRANCH   3   4
ATOM      4  C   UNL     1      40.804  21.515   5.117  1.00  0.00     0.000 C 
BRANCH   4   5
ATOM      5  C   UNL     1      40.568  22.070   6.530  1.00  0.00     0.000 C 
BRANCH   5   6
ATOM      6  C   UNL     1      40.578  20.941   7.571  1.00  0.00     0.006 C 
BRANCH   6   7
ATOM      7  C   UNL     1      40.081  19.610   6.991  1.00  0.00     0.053 C 
BRANCH   7   8
ATOM      8  C   UNL     1      38.731  19.242   7.526  1.00  0.00     0.041 C 
ATOM      9  O   UNL     1      38.512  18.075   7.944  1.00  0.00    -0.550 OA
ATOM     10  O   UNL     1      37.726  20.198   7.593  1.00  0.00    -0.550 OA
ENDBRANCH   7   8
ENDBRANCH   6   7
ENDBRANCH   5   6
ENDBRANCH   4   5
ENDBRANCH   3   4
ENDBRANCH   2   3
ENDBRANCH   1   2
BRANCH   1  11
ATOM     11  C   UNL     1      36.290  20.360   4.079  1.00  0.00     0.000 C 
BRANCH  11  12
ATOM     12  C   UNL     1      35.756  20.282   2.638  1.00  0.00    -0.000 C 
BRANCH  12  13
ATOM     13  C   UNL     1      34.599  21.249   2.318  1.00  0.00    -0.000 C 
BRANCH  13  14
ATOM     14  C   UNL     1      34.821  22.156   1.094  1.00  0.00    -0.000 C 
BRANCH  14  15
ATOM     15  C   UNL     1      36.300  22.514   0.875  1.00  0.00    -0.000 C 
BRANCH  15  16
ATOM     16  C   UNL     1      36.579  24.014   1.071  1.00  0.00    -0.000 C 
BRANCH  16  17
ATOM     17  C   UNL     1      37.727  24.280   2.056  1.00  0.00    -0.003 C 
ATOM     18  C   UNL     1      38.491  25.546   1.679  1.00  0.00     0.004 C 
ENDBRANCH  16  17
ENDBRANCH  15  16
ENDBRANCH  14  15
ENDBRANCH  13  14
ENDBRANCH  12  13
ENDBRANCH  11  12
ENDBRANCH   1  11
TORSDOF 14
ENDMDL
MODEL 4
REMARK VINA RESULT:    -3.974      1.123      4.576
REMARK INTER + INTRA:          -8.858
REMARK INTER:                  -6.747
REMARK INTRA:                  -2.111
REMARK UNBOUND:                -1.631
REMARK SMILES CCCCCCCCCCCCCCCC(=O)[O-]
REMARK SMILES IDX 9 1 10 2 11 3 12 4 13 5 14 6 15 7 16 8 17 9 18 10 8 11 7 12
REMARK SMILES IDX 6 13 5 14 4 15 3 16 2 17 1 18
REMARK H PARENT
REMARK Flexibility Score: inf
ROOT
ATOM      1  C   UNL     1      40.271  21.248   7.180  1.00  0.00     0.000 C 
ENDROOT
BRANCH   1   2
ATOM      2  C   UNL     1      41.074  21.336   5.872  1.00  0.00     0.000 C 
BRANCH   2   3
ATOM      3  C   UNL     1      40.811  22.645   5.106  1.00  0.00     0.000 C 
BRANCH   3   4
ATOM      4  C   UNL     1      40.857  22.455   3.581  1.00  0.00     0.000 C 
BRANCH   4   5
ATOM      5  C   UNL     1      39.489  22.085   2.988  1.00  0.00     0.000 C 
BRANCH   5   6
ATOM      6  C   UNL     1      38.426  23.124   3.373  1.00  0.00     0.006 C 
BRANCH   6   7
ATOM      7  C   UNL     1      37.917  23.913   2.159  1.00  0.00     0.053 C 
BRANCH   7   8
ATOM      8  C   UNL     1      38.299  25.359   2.237  1.00  0.00     0.041 C 
ATOM      9  O   UNL     1      39.501  25.690   2.410  1.00  0.00    -0.550 OA
ATOM     10  O   UNL     1      37.329  26.343   2.086  1.00  0.00    -0.550 OA
ENDBRANCH   7   8
ENDBRANCH   6   7
ENDBRANCH   5   6
ENDBRANCH   4   5
ENDBRANCH   3   4
ENDBRANCH   2   3
ENDBRANCH   1   2
BRANCH   1  11
ATOM     11  C   UNL     1      39.087  22.230   7.215  1.00  0.00     0.000 C 
BRANCH  11  12
ATOM     12  C   UNL     1      37.733  21.538   6.978  1.00  0.00    -0.000 C 
BRANCH  12  13
ATOM     13  C   UNL     1      37.824  20.070   6.514  1.00  0.00    -0.000 C 
BRANCH  13  14
ATOM     14  C   UNL     1      37.597  19.842   5.008  1.00  0.00    -0.000 C 
BRANCH  14  15
ATOM     15  C   UNL     1      36.216  20.321   4.533  1.00  0.00    -0.000 C 
BRANCH  15  16
ATOM     16  C   UNL     1      36.114  20.399   3.000  1.00  0.00    -0.000 C 
BRANCH  16  17
ATOM     17  C   UNL     1      34.733  20.869   2.521  1.00  0.00    -0.003 C 
ATOM     18  C   UNL     1      34.859  21.831   1.343  1.00  0.00     0.004 C 
ENDBRANCH  16  17
ENDBRANCH  15  16
ENDBRANCH  14  15
ENDBRANCH  13  14
ENDBRANCH  12  13
ENDBRANCH  11  12
ENDBRANCH   1  11
TORSDOF 14
ENDMDL
MODEL 5
REMARK VINA RESULT:    -3.878      3.181      6.381
REMARK INTER + INTRA:          -8.683
REMARK INTER:                  -6.983
REMARK INTRA:                  -1.700
REMARK UNBOUND:                -1.631
REMARK SMILES CCCCCCCCCCCCCCCC(=O)[O-]
REMARK SMILES IDX 9 1 10 2 11 3 12 4 13 5 14 6 15 7 16 8 17 9 18 10 8 11 7 12
REMARK SMILES IDX 6 13 5 14 4 15 3 16 2 17 1 18
REMARK H PARENT
REMARK Flexibility Score: inf
ROOT
ATOM      1  C   UNL     1      40.858  23.143   3.478  1.00  0.00     0.000 C 
ENDROOT
BRANCH   1   2
ATOM      2  C   UNL     1      40.516  21.662   3.245  1.00  0.00     0.000 C 
BRANCH   2   3
ATOM      3  C   UNL     1      40.148  20.931   4.548  1.00  0.00     0.000 C 
BRANCH   3   4
ATOM      4  C   UNL     1      40.898  21.490   5.769  1.00  0.00     0.000 C 
BRANCH   4   5
ATOM      5  C   UNL     1      39.951  22.024   6.854  1.00  0.00     0.000 C 
BRANCH   5   6
ATOM      6  C   UNL     1      38.484  21.844   6.438  1.00  0.00     0.006 C 
BRANCH   6   7
ATOM      7  C   UNL     1      37.609  21.342   7.594  1.00  0.00     0.053 C 
BRANCH   7   8
ATOM      8  C   UNL     1      37.530  19.846   7.621  1.00  0.00     0.041 C 
ATOM      9  O   UNL     1      38.375  19.155   6.994  1.00  0.00    -0.550 OA
ATOM     10  O   UNL     1      36.541  19.216   8.366  1.00  0.00    -0.550 OA
ENDBRANCH   7   8
ENDBRANCH   6   7
ENDBRANCH   5   6
ENDBRANCH   4   5
ENDBRANCH   3   4
ENDBRANCH   2   3
ENDBRANCH   1   2
BRANCH   1  11
ATOM     11  C   UNL     1      40.115  24.082   2.510  1.00  0.00     0.000 C 
BRANCH  11  12
ATOM     12  C   UNL     1      38.591  24.065   2.718  1.00  0.00    -0.000 C 
BRANCH  12  13
ATOM     13  C   UNL     1      37.756  24.312   1.446  1.00  0.00    -0.000 C 
BRANCH  13  14
ATOM     14  C   UNL     1      36.721  23.220   1.117  1.00  0.00    -0.000 C 
BRANCH  14  15
ATOM     15  C   UNL     1      37.075  21.856   1.734  1.00  0.00    -0.000 C 
BRANCH  15  16
ATOM     16  C   UNL     1      35.933  20.835   1.603  1.00  0.00    -0.000 C 
BRANCH  16  17
ATOM     17  C   UNL     1      35.346  20.424   2.961  1.00  0.00    -0.003 C 
ATOM     18  C   UNL     1      36.449  20.218   3.995  1.00  0.00     0.004 C 
ENDBRANCH  16  17
ENDBRANCH  15  16
ENDBRANCH  14  15
ENDBRANCH  13  14
ENDBRANCH  12  13
ENDBRANCH  11  12
ENDBRANCH   1  11
TORSDOF 14
ENDMDL
MODEL 6
REMARK VINA RESULT:    -3.847      2.049      5.856
REMARK INTER + INTRA:          -8.627
REMARK INTER:                  -6.815
REMARK INTRA:                  -1.812
REMARK UNBOUND:                -1.631
REMARK SMILES CCCCCCCCCCCCCCCC(=O)[O-]
REMARK SMILES IDX 9 1 10 2 11 3 12 4 13 5 14 6 15 7 16 8 17 9 18 10 8 11 7 12
REMARK SMILES IDX 6 13 5 14 4 15 3 16 2 17 1 18
REMARK H PARENT
REMARK Flexibility Score: inf
ROOT
ATOM      1  C   UNL     1      36.923  19.580   6.248  1.00  0.00     0.000 C 
ENDROOT
BRANCH   1   2
ATOM      2  C   UNL     1      37.731  20.164   7.419  1.00  0.00     0.000 C 
BRANCH   2   3
ATOM      3  C   UNL     1      37.756  21.702   7.407  1.00  0.00     0.000 C 
BRANCH   3   4
ATOM      4  C   UNL     1      39.176  22.268   7.240  1.00  0.00     0.000 C 
BRANCH   4   5
ATOM      5  C   UNL     1      40.242  21.169   7.114  1.00  0.00     0.000 C 
BRANCH   5   6
ATOM      6  C   UNL     1      41.125  21.401   5.879  1.00  0.00     0.006 C 
BRANCH   6   7
ATOM      7  C   UNL     1      40.414  22.233   4.803  1.00  0.00     0.053 C 
BRANCH   7   8
ATOM      8  C   UNL     1      40.727  21.741   3.424  1.00  0.00     0.041 C 
ATOM      9  O   UNL     1      41.069  22.551   2.524  1.00  0.00    -0.550 OA
ATOM     10  O   UNL     1      40.672  20.381   3.142  1.00  0.00    -0.550 OA
ENDBRANCH   7   8
ENDBRANCH   6   7
ENDBRANCH   5   6
ENDBRANCH   4   5
ENDBRANCH   3   4
ENDBRANCH   2   3
ENDBRANCH   1   2
BRANCH   1  11
ATOM     11  C   UNL     1      37.629  19.760   4.892  1.00  0.00     0.000 C 
BRANCH  11  12
ATOM     12  C   UNL     1      37.015  20.890   4.048  1.00  0.00    -0.000 C 
BRANCH  12  13
ATOM     13  C   UNL     1      35.944  20.439   3.034  1.00  0.00    -0.000 C 
BRANCH  13  14
ATOM     14  C   UNL     1      35.797  21.336   1.791  1.00  0.00    -0.000 C 
BRANCH  14  15
ATOM     15  C   UNL     1      37.134  21.934   1.324  1.00  0.00    -0.000 C 
BRANCH  15  16
ATOM     16  C   UNL     1      37.139  23.471   1.364  1.00  0.00    -0.000 C 
BRANCH  16  17
ATOM     17  C   UNL     1      37.892  24.030   2.579  1.00  0.00    -0.003 C 
ATOM     18  C   UNL     1      38.561  25.361   2.245  1.00  0.00     0.004 C 
ENDBRANCH  16  17
ENDBRANCH  15  16
ENDBRANCH  14  15
ENDBRANCH  13  14
ENDBRANCH  12  13
ENDBRANCH  11  12
ENDBRANCH   1  11
TORSDOF 14
ENDMDL
MODEL 7
REMARK VINA RESULT:    -3.845     18.109     20.278
REMARK INTER + INTRA:          -8.623
REMARK INTER:                  -6.188
REMARK INTRA:                  -2.435
REMARK UNBOUND:                -1.631
REMARK SMILES CCCCCCCCCCCCCCCC(=O)[O-]
REMARK SMILES IDX 9 1 10 2 11 3 12 4 13 5 14 6 15 7 16 8 17 9 18 10 8 11 7 12
REMARK SMILES IDX 6 13 5 14 4 15 3 16 2 17 1 18
REMARK H PARENT
REMARK Flexibility Score: inf
ROOT
ATOM      1  C   UNL     1      21.658  22.492  17.850  1.00  0.00     0.000 C 
ENDROOT
BRANCH   1   2
ATOM      2  C   UNL     1      21.721  23.821  17.080  1.00  0.00     0.000 C 
BRANCH   2   3
ATOM      3  C   UNL     1      21.746  25.042  18.016  1.00  0.00     0.000 C 
BRANCH   3   4
ATOM      4  C   UNL     1      21.850  24.647  19.499  1.00  0.00     0.000 C 
BRANCH   4   5
ATOM      5  C   UNL     1      22.733  25.607  20.308  1.00  0.00     0.000 C 
BRANCH   5   6
ATOM      6  C   UNL     1      23.675  26.396  19.386  1.00  0.00     0.006 C 
BRANCH   6   7
ATOM      7  C   UNL     1      25.114  26.431  19.917  1.00  0.00     0.053 C 
BRANCH   7   8
ATOM      8  C   UNL     1      25.892  27.572  19.337  1.00  0.00     0.041 C 
ATOM      9  O   UNL     1      26.757  27.364  18.447  1.00  0.00    -0.550 OA
ATOM     10  O   UNL     1      25.636  28.872  19.758  1.00  0.00    -0.550 OA
ENDBRANCH   7   8
ENDBRANCH   6   7
ENDBRANCH   5   6
ENDBRANCH   4   5
ENDBRANCH   3   4
ENDBRANCH   2   3
ENDBRANCH   1   2
BRANCH   1  11
ATOM     11  C   UNL     1      22.547  21.402  17.224  1.00  0.00     0.000 C 
BRANCH  11  12
ATOM     12  C   UNL     1      23.744  21.027  18.116  1.00  0.00    -0.000 C 
BRANCH  12  13
ATOM     13  C   UNL     1      24.438  22.216  18.810  1.00  0.00    -0.000 C 
BRANCH  13  14
ATOM     14  C   UNL     1      25.648  22.801  18.057  1.00  0.00    -0.000 C 
BRANCH  14  15
ATOM     15  C   UNL     1      25.290  24.042  17.223  1.00  0.00    -0.000 C 
BRANCH  15  16
ATOM     16  C   UNL     1      25.756  23.925  15.762  1.00  0.00    -0.000 C 
BRANCH  16  17
ATOM     17  C   UNL     1      25.265  22.638  15.084  1.00  0.00    -0.003 C 
ATOM     18  C   UNL     1      24.201  22.943  14.034  1.00  0.00     0.004 C 
ENDBRANCH  16  17
ENDBRANCH  15  16
ENDBRANCH  14  15
ENDBRANCH  13  14
ENDBRANCH  12  13
ENDBRANCH  11  12
ENDBRANCH   1  11
TORSDOF 14
ENDMDL
MODEL 8
REMARK VINA RESULT:    -3.759     18.058     20.296
REMARK INTER + INTRA:          -8.467
REMARK INTER:                  -6.215
REMARK INTRA:                  -2.252
REMARK UNBOUND:                -1.631
REMARK SMILES CCCCCCCCCCCCCCCC(=O)[O-]
REMARK SMILES IDX 9 1 10 2 11 3 12 4 13 5 14 6 15 7 16 8 17 9 18 10 8 11 7 12
REMARK SMILES IDX 6 13 5 14 4 15 3 16 2 17 1 18
REMARK H PARENT
REMARK Flexibility Score: inf
ROOT
ATOM      1  C   UNL     1      22.207  22.052  15.758  1.00  0.00     0.000 C 
ENDROOT
BRANCH   1   2
ATOM      2  C   UNL     1      21.449  21.132  16.730  1.00  0.00     0.000 C 
BRANCH   2   3
ATOM      3  C   UNL     1      22.359  20.564  17.833  1.00  0.00     0.000 C 
BRANCH   3   4
ATOM      4  C   UNL     1      23.802  21.086  17.733  1.00  0.00     0.000 C 
BRANCH   4   5
ATOM      5  C   UNL     1      24.171  22.032  18.885  1.00  0.00     0.000 C 
BRANCH   5   6
ATOM      6  C   UNL     1      25.356  22.930  18.498  1.00  0.00     0.006 C 
BRANCH   6   7
ATOM      7  C   UNL     1      25.870  22.637  17.082  1.00  0.00     0.053 C 
BRANCH   7   8
ATOM      8  C   UNL     1      25.842  23.860  16.218  1.00  0.00     0.041 C 
ATOM      9  O   UNL     1      26.207  24.972  16.680  1.00  0.00    -0.550 OA
ATOM     10  O   UNL     1      25.442  23.764  14.891  1.00  0.00    -0.550 OA
ENDBRANCH   7   8
ENDBRANCH   6   7
ENDBRANCH   5   6
ENDBRANCH   4   5
ENDBRANCH   3   4
ENDBRANCH   2   3
ENDBRANCH   1   2
BRANCH   1  11
ATOM     11  C   UNL     1      21.608  23.468  15.693  1.00  0.00     0.000 C 
BRANCH  11  12
ATOM     12  C   UNL     1      21.422  24.099  17.084  1.00  0.00    -0.000 C 
BRANCH  12  13
ATOM     13  C   UNL     1      22.546  25.061  17.520  1.00  0.00    -0.000 C 
BRANCH  13  14
ATOM     14  C   UNL     1      22.212  25.959  18.726  1.00  0.00    -0.000 C 
BRANCH  14  15
ATOM     15  C   UNL     1      22.882  25.484  20.026  1.00  0.00    -0.000 C 
BRANCH  15  16
ATOM     16  C   UNL     1      23.878  26.513  20.586  1.00  0.00    -0.000 C 
BRANCH  16  17
ATOM     17  C   UNL     1      25.286  26.357  19.995  1.00  0.00    -0.003 C 
ATOM     18  C   UNL     1      25.647  27.550  19.115  1.00  0.00     0.004 C 
ENDBRANCH  16  17
ENDBRANCH  15  16
ENDBRANCH  14  15
ENDBRANCH  13  14
ENDBRANCH  12  13
ENDBRANCH  11  12
ENDBRANCH   1  11
TORSDOF 14
ENDMDL
MODEL 9
REMARK VINA RESULT:    -3.759     17.425     19.417
REMARK INTER + INTRA:          -8.466
REMARK INTER:                  -6.058
REMARK INTRA:                  -2.408
REMARK UNBOUND:                -1.631
REMARK SMILES CCCCCCCCCCCCCCCC(=O)[O-]
REMARK SMILES IDX 9 1 10 2 11 3 12 4 13 5 14 6 15 7 16 8 17 9 18 10 8 11 7 12
REMARK SMILES IDX 6 13 5 14 4 15 3 16 2 17 1 18
REMARK H PARENT
REMARK Flexibility Score: inf
ROOT
ATOM      1  C   UNL     1      21.852  21.879  15.603  1.00  0.00     0.000 C 
ENDROOT
BRANCH   1   2
ATOM      2  C   UNL     1      21.570  22.574  16.946  1.00  0.00     0.000 C 
BRANCH   2   3
ATOM      3  C   UNL     1      21.966  24.061  16.933  1.00  0.00     0.000 C 
BRANCH   3   4
ATOM      4  C   UNL     1      22.565  24.523  18.271  1.00  0.00     0.000 C 
BRANCH   4   5
ATOM      5  C   UNL     1      23.357  25.833  18.146  1.00  0.00     0.000 C 
BRANCH   5   6
ATOM      6  C   UNL     1      24.270  26.040  19.364  1.00  0.00     0.006 C 
BRANCH   6   7
ATOM      7  C   UNL     1      25.749  26.151  18.970  1.00  0.00     0.053 C 
BRANCH   7   8
ATOM      8  C   UNL     1      26.200  27.578  18.904  1.00  0.00     0.041 C 
ATOM      9  O   UNL     1      25.407  28.509  19.200  1.00  0.00    -0.550 OA
ATOM     10  O   UNL     1      27.509  27.876  18.546  1.00  0.00    -0.550 OA
ENDBRANCH   7   8
ENDBRANCH   6   7
ENDBRANCH   5   6
ENDBRANCH   4   5
ENDBRANCH   3   4
ENDBRANCH   2   3
ENDBRANCH   1   2
BRANCH   1  11
ATOM     11  C   UNL     1      21.923  22.869  14.427  1.00  0.00     0.000 C 
BRANCH  11  12
ATOM     12  C   UNL     1      23.227  22.741  13.620  1.00  0.00    -0.000 C 
BRANCH  12  13
ATOM     13  C   UNL     1      24.497  22.514  14.464  1.00  0.00    -0.000 C 
BRANCH  13  14
ATOM     14  C   UNL     1      25.373  23.761  14.682  1.00  0.00    -0.000 C 
BRANCH  14  15
ATOM     15  C   UNL     1      25.904  23.874  16.121  1.00  0.00    -0.000 C 
BRANCH  15  16
ATOM     16  C   UNL     1      26.049  22.504  16.805  1.00  0.00    -0.000 C 
BRANCH  16  17
ATOM     17  C   UNL     1      25.686  22.545  18.297  1.00  0.00    -0.003 C 
ATOM     18  C   UNL     1      24.667  21.464  18.643  1.00  0.00     0.004 C 
ENDBRANCH  16  17
ENDBRANCH  15  16
ENDBRANCH  14  15
ENDBRANCH  13  14
ENDBRANCH  12  13
ENDBRANCH  11  12
ENDBRANCH   1  11
TORSDOF 14
ENDMDL
