MODEL 1
REMARK VINA RESULT:    -6.965      0.000      0.000
REMARK INTER + INTRA:          -8.503
REMARK INTER:                  -8.187
REMARK INTRA:                  -0.317
REMARK UNBOUND:                -0.317
REMARK SMILES O=c1c(O)c(-c2ccc(O)c(O)c2)oc2cc(O)ccc12
REMARK SMILES IDX 5 1 3 2 2 3 1 4 21 5 15 6 14 7 16 8 17 9 19 10 20 11 6 12
REMARK SMILES IDX 7 13 8 14 9 15 13 16 11 17 10 18 12 20 4 22 18 24
REMARK H PARENT 10 19 12 21 4 23 18 25
REMARK Flexibility Score: inf
ROOT
ATOM      1  C   UNL     1     127.474 121.375 137.461  1.00  0.00     0.180 A 
ATOM      2  C   UNL     1     126.673 120.215 137.383  1.00  0.00     0.208 A 
ATOM      3  C   UNL     1     125.730 120.114 136.350  1.00  0.00     0.235 A 
ATOM      4  O   UNL     1     124.995 119.092 136.266  1.00  0.00    -0.285 OA
ATOM      5  C   UNL     1     125.618 121.151 135.412  1.00  0.00     0.069 A 
ATOM      6  C   UNL     1     126.472 122.268 135.545  1.00  0.00     0.142 A 
ATOM      7  O   UNL     1     127.347 122.330 136.542  1.00  0.00    -0.452 OA
ATOM      8  C   UNL     1     126.399 123.318 134.624  1.00  0.00     0.094 A 
ATOM      9  C   UNL     1     125.480 123.271 133.570  1.00  0.00     0.119 A 
ATOM     10  C   UNL     1     124.629 122.164 133.436  1.00  0.00     0.047 A 
ATOM     11  C   UNL     1     124.696 121.109 134.351  1.00  0.00     0.020 A 
ENDROOT
BRANCH   1  12
ATOM     12  C   UNL     1     128.479 121.565 138.532  1.00  0.00     0.025 A 
ATOM     13  C   UNL     1     129.796 121.090 138.393  1.00  0.00     0.016 A 
ATOM     14  C   UNL     1     130.720 121.260 139.427  1.00  0.00     0.051 A 
ATOM     15  C   UNL     1     130.344 121.891 140.616  1.00  0.00     0.157 A 
ATOM     16  C   UNL     1     128.099 122.179 139.736  1.00  0.00     0.062 A 
ATOM     17  C   UNL     1     129.026 122.351 140.774  1.00  0.00     0.158 A 
BRANCH  15  18
ATOM     18  O   UNL     1     131.289 122.048 141.629  1.00  0.00    -0.504 OA
ATOM     19  H   UNL     1     131.348 121.409 142.413  1.00  0.00     0.293 HD
ENDBRANCH  15  18
BRANCH  17  20
ATOM     20  O   UNL     1     128.642 122.975 141.960  1.00  0.00    -0.504 OA
ATOM     21  H   UNL     1     127.952 122.563 142.578  1.00  0.00     0.293 HD
ENDBRANCH  17  20
ENDBRANCH   1  12
BRANCH   2  22
ATOM     22  O   UNL     1     126.842 119.177 138.303  1.00  0.00    -0.502 OA
ATOM     23  H   UNL     1     127.319 119.310 139.187  1.00  0.00     0.293 HD
ENDBRANCH   2  22
BRANCH   9  24
ATOM     24  O   UNL     1     125.420 124.326 132.662  1.00  0.00    -0.508 OA
ATOM     25  H   UNL     1     125.881 125.210 132.847  1.00  0.00     0.293 HD
ENDBRANCH   9  24
TORSDOF 5
ENDMDL
MODEL 2
REMARK VINA RESULT:    -5.933      9.487     11.756
REMARK INTER + INTRA:          -7.290
REMARK INTER:                  -7.018
REMARK INTRA:                  -0.272
REMARK UNBOUND:                -0.317
REMARK SMILES O=c1c(O)c(-c2ccc(O)c(O)c2)oc2cc(O)ccc12
REMARK SMILES IDX 5 1 3 2 2 3 1 4 21 5 15 6 14 7 16 8 17 9 19 10 20 11 6 12
REMARK SMILES IDX 7 13 8 14 9 15 13 16 11 17 10 18 12 20 4 22 18 24
REMARK H PARENT 10 19 12 21 4 23 18 25
REMARK Flexibility Score: inf
ROOT
ATOM      1  C   UNL     1     125.930 132.416 134.433  1.00  0.00     0.180 A 
ATOM      2  C   UNL     1     125.669 131.511 135.484  1.00  0.00     0.208 A 
ATOM      3  C   UNL     1     124.886 130.377 135.220  1.00  0.00     0.235 A 
ATOM      4  O   UNL     1     124.631 129.558 136.145  1.00  0.00    -0.285 OA
ATOM      5  C   UNL     1     124.402 130.160 133.921  1.00  0.00     0.069 A 
ATOM      6  C   UNL     1     124.726 131.100 132.919  1.00  0.00     0.142 A 
ATOM      7  O   UNL     1     125.463 132.166 133.212  1.00  0.00    -0.452 OA
ATOM      8  C   UNL     1     124.270 130.913 131.610  1.00  0.00     0.094 A 
ATOM      9  C   UNL     1     123.489 129.799 131.286  1.00  0.00     0.119 A 
ATOM     10  C   UNL     1     123.163 128.864 132.279  1.00  0.00     0.047 A 
ATOM     11  C   UNL     1     123.616 129.041 133.590  1.00  0.00     0.020 A 
ENDROOT
BRANCH   1  12
ATOM     12  C   UNL     1     126.731 133.645 134.635  1.00  0.00     0.025 A 
ATOM     13  C   UNL     1     128.084 133.708 134.256  1.00  0.00     0.016 A 
ATOM     14  C   UNL     1     128.826 134.870 134.479  1.00  0.00     0.051 A 
ATOM     15  C   UNL     1     128.238 135.979 135.095  1.00  0.00     0.157 A 
ATOM     16  C   UNL     1     126.150 134.753 135.274  1.00  0.00     0.062 A 
ATOM     17  C   UNL     1     126.894 135.920 135.498  1.00  0.00     0.158 A 
BRANCH  15  18
ATOM     18  O   UNL     1     129.004 137.125 135.303  1.00  0.00    -0.504 OA
ATOM     19  H   UNL     1     128.915 137.946 134.716  1.00  0.00     0.293 HD
ENDBRANCH  15  18
BRANCH  17  20
ATOM     20  O   UNL     1     126.303 137.019 136.120  1.00  0.00    -0.504 OA
ATOM     21  H   UNL     1     126.271 137.928 135.672  1.00  0.00     0.293 HD
ENDBRANCH  17  20
ENDBRANCH   1  12
BRANCH   2  22
ATOM     22  O   UNL     1     126.207 131.729 136.755  1.00  0.00    -0.502 OA
ATOM     23  H   UNL     1     127.176 131.526 136.974  1.00  0.00     0.293 HD
ENDBRANCH   2  22
BRANCH   9  24
ATOM     24  O   UNL     1     123.043 129.629 129.978  1.00  0.00    -0.508 OA
ATOM     25  H   UNL     1     123.100 130.379 129.298  1.00  0.00     0.293 HD
ENDBRANCH   9  24
TORSDOF 5
ENDMDL
MODEL 3
REMARK VINA RESULT:    -5.928      1.565      6.780
REMARK INTER + INTRA:          -7.285
REMARK INTER:                  -6.971
REMARK INTRA:                  -0.314
REMARK UNBOUND:                -0.317
REMARK SMILES O=c1c(O)c(-c2ccc(O)c(O)c2)oc2cc(O)ccc12
REMARK SMILES IDX 5 1 3 2 2 3 1 4 21 5 15 6 14 7 16 8 17 9 19 10 20 11 6 12
REMARK SMILES IDX 7 13 8 14 9 15 13 16 11 17 10 18 12 20 4 22 18 24
REMARK H PARENT 10 19 12 21 4 23 18 25
REMARK Flexibility Score: inf
ROOT
ATOM      1  C   UNL     1     126.972 122.037 137.556  1.00  0.00     0.180 A 
ATOM      2  C   UNL     1     126.377 122.149 138.830  1.00  0.00     0.208 A 
ATOM      3  C   UNL     1     127.200 122.116 139.965  1.00  0.00     0.235 A 
ATOM      4  O   UNL     1     126.690 122.204 141.116  1.00  0.00    -0.285 OA
ATOM      5  C   UNL     1     128.589 121.996 139.808  1.00  0.00     0.069 A 
ATOM      6  C   UNL     1     129.110 121.913 138.498  1.00  0.00     0.142 A 
ATOM      7  O   UNL     1     128.296 121.939 137.449  1.00  0.00    -0.452 OA
ATOM      8  C   UNL     1     130.490 121.802 138.300  1.00  0.00     0.094 A 
ATOM      9  C   UNL     1     131.361 121.769 139.394  1.00  0.00     0.119 A 
ATOM     10  C   UNL     1     130.847 121.848 140.696  1.00  0.00     0.047 A 
ATOM     11  C   UNL     1     129.469 121.961 140.905  1.00  0.00     0.020 A 
ENDROOT
BRANCH   1  12
ATOM     12  C   UNL     1     126.170 122.045 136.310  1.00  0.00     0.025 A 
ATOM     13  C   UNL     1     125.904 123.240 135.618  1.00  0.00     0.016 A 
ATOM     14  C   UNL     1     125.125 123.225 134.458  1.00  0.00     0.051 A 
ATOM     15  C   UNL     1     124.589 122.025 133.981  1.00  0.00     0.157 A 
ATOM     16  C   UNL     1     125.612 120.845 135.840  1.00  0.00     0.062 A 
ATOM     17  C   UNL     1     124.830 120.829 134.677  1.00  0.00     0.158 A 
BRANCH  15  18
ATOM     18  O   UNL     1     123.816 122.042 132.820  1.00  0.00    -0.504 OA
ATOM     19  H   UNL     1     124.075 121.517 131.994  1.00  0.00     0.293 HD
ENDBRANCH  15  18
BRANCH  17  20
ATOM     20  O   UNL     1     124.292 119.630 134.210  1.00  0.00    -0.504 OA
ATOM     21  H   UNL     1     123.992 119.522 133.248  1.00  0.00     0.293 HD
ENDBRANCH  17  20
ENDBRANCH   1  12
BRANCH   2  22
ATOM     22  O   UNL     1     124.995 122.318 138.952  1.00  0.00    -0.502 OA
ATOM     23  H   UNL     1     124.541 123.207 138.774  1.00  0.00     0.293 HD
ENDBRANCH   2  22
BRANCH   9  24
ATOM     24  O   UNL     1     132.732 121.657 139.177  1.00  0.00    -0.508 OA
ATOM     25  H   UNL     1     133.220 120.779 139.316  1.00  0.00     0.293 HD
ENDBRANCH   9  24
TORSDOF 5
ENDMDL
MODEL 4
REMARK VINA RESULT:    -5.890      2.262      3.111
REMARK INTER + INTRA:          -7.239
REMARK INTER:                  -6.957
REMARK INTRA:                  -0.282
REMARK UNBOUND:                -0.317
REMARK SMILES O=c1c(O)c(-c2ccc(O)c(O)c2)oc2cc(O)ccc12
REMARK SMILES IDX 5 1 3 2 2 3 1 4 21 5 15 6 14 7 16 8 17 9 19 10 20 11 6 12
REMARK SMILES IDX 7 13 8 14 9 15 13 16 11 17 10 18 12 20 4 22 18 24
REMARK H PARENT 10 19 12 21 4 23 18 25
REMARK Flexibility Score: inf
ROOT
ATOM      1  C   UNL     1     127.244 121.889 137.807  1.00  0.00     0.180 A 
ATOM      2  C   UNL     1     126.583 122.736 138.722  1.00  0.00     0.208 A 
ATOM      3  C   UNL     1     125.632 123.644 138.234  1.00  0.00     0.235 A 
ATOM      4  O   UNL     1     125.035 124.420 139.031  1.00  0.00    -0.285 OA
ATOM      5  C   UNL     1     125.346 123.675 136.861  1.00  0.00     0.069 A 
ATOM      6  C   UNL     1     126.034 122.779 136.014  1.00  0.00     0.142 A 
ATOM      7  O   UNL     1     126.934 121.940 136.513  1.00  0.00    -0.452 OA
ATOM      8  C   UNL     1     125.769 122.772 134.640  1.00  0.00     0.094 A 
ATOM      9  C   UNL     1     124.827 123.653 134.098  1.00  0.00     0.119 A 
ATOM     10  C   UNL     1     124.144 124.546 134.936  1.00  0.00     0.047 A 
ATOM     11  C   UNL     1     124.400 124.559 136.310  1.00  0.00     0.020 A 
ENDROOT
BRANCH   1  12
ATOM     12  C   UNL     1     128.274 120.916 138.240  1.00  0.00     0.025 A 
ATOM     13  C   UNL     1     127.921 119.689 138.829  1.00  0.00     0.016 A 
ATOM     14  C   UNL     1     128.910 118.798 139.252  1.00  0.00     0.051 A 
ATOM     15  C   UNL     1     130.262 119.121 139.106  1.00  0.00     0.157 A 
ATOM     16  C   UNL     1     129.633 121.247 138.115  1.00  0.00     0.062 A 
ATOM     17  C   UNL     1     130.627 120.353 138.538  1.00  0.00     0.158 A 
BRANCH  15  18
ATOM     18  O   UNL     1     131.227 118.211 139.536  1.00  0.00    -0.504 OA
ATOM     19  H   UNL     1     130.989 117.390 140.080  1.00  0.00     0.293 HD
ENDBRANCH  15  18
BRANCH  17  20
ATOM     20  O   UNL     1     131.974 120.684 138.396  1.00  0.00    -0.504 OA
ATOM     21  H   UNL     1     132.280 121.394 137.741  1.00  0.00     0.293 HD
ENDBRANCH  17  20
ENDBRANCH   1  12
BRANCH   2  22
ATOM     22  O   UNL     1     126.854 122.647 140.089  1.00  0.00    -0.502 OA
ATOM     23  H   UNL     1     126.902 123.465 140.686  1.00  0.00     0.293 HD
ENDBRANCH   2  22
BRANCH   9  24
ATOM     24  O   UNL     1     124.577 123.633 132.728  1.00  0.00    -0.508 OA
ATOM     25  H   UNL     1     124.921 124.364 132.116  1.00  0.00     0.293 HD
ENDBRANCH   9  24
TORSDOF 5
ENDMDL
MODEL 5
REMARK VINA RESULT:    -5.871      2.015      2.652
REMARK INTER + INTRA:          -7.217
REMARK INTER:                  -6.923
REMARK INTRA:                  -0.294
REMARK UNBOUND:                -0.317
REMARK SMILES O=c1c(O)c(-c2ccc(O)c(O)c2)oc2cc(O)ccc12
REMARK SMILES IDX 5 1 3 2 2 3 1 4 21 5 15 6 14 7 16 8 17 9 19 10 20 11 6 12
REMARK SMILES IDX 7 13 8 14 9 15 13 16 11 17 10 18 12 20 4 22 18 24
REMARK H PARENT 10 19 12 21 4 23 18 25
REMARK Flexibility Score: inf
ROOT
ATOM      1  C   UNL     1     128.275 120.176 138.283  1.00  0.00     0.180 A 
ATOM      2  C   UNL     1     128.136 118.806 138.591  1.00  0.00     0.208 A 
ATOM      3  C   UNL     1     127.051 118.100 138.053  1.00  0.00     0.235 A 
ATOM      4  O   UNL     1     126.899 116.876 138.322  1.00  0.00    -0.285 OA
ATOM      5  C   UNL     1     126.146 118.761 137.209  1.00  0.00     0.069 A 
ATOM      6  C   UNL     1     126.367 120.128 136.930  1.00  0.00     0.142 A 
ATOM      7  O   UNL     1     127.402 120.763 137.467  1.00  0.00    -0.452 OA
ATOM      8  C   UNL     1     125.493 120.820 136.086  1.00  0.00     0.094 A 
ATOM      9  C   UNL     1     124.395 120.166 135.515  1.00  0.00     0.119 A 
ATOM     10  C   UNL     1     124.171 118.810 135.792  1.00  0.00     0.047 A 
ATOM     11  C   UNL     1     125.040 118.109 136.633  1.00  0.00     0.020 A 
ENDROOT
BRANCH   1  12
ATOM     12  C   UNL     1     129.383 120.996 138.827  1.00  0.00     0.025 A 
ATOM     13  C   UNL     1     130.551 121.234 138.082  1.00  0.00     0.016 A 
ATOM     14  C   UNL     1     131.593 121.989 138.626  1.00  0.00     0.051 A 
ATOM     15  C   UNL     1     131.492 122.506 139.921  1.00  0.00     0.157 A 
ATOM     16  C   UNL     1     129.293 121.497 140.136  1.00  0.00     0.062 A 
ATOM     17  C   UNL     1     130.338 122.257 140.682  1.00  0.00     0.158 A 
BRANCH  15  18
ATOM     18  O   UNL     1     132.547 123.258 140.435  1.00  0.00    -0.504 OA
ATOM     19  H   UNL     1     132.527 123.644 141.371  1.00  0.00     0.293 HD
ENDBRANCH  15  18
BRANCH  17  20
ATOM     20  O   UNL     1     130.234 122.763 141.977  1.00  0.00    -0.504 OA
ATOM     21  H   UNL     1     130.591 123.680 142.219  1.00  0.00     0.293 HD
ENDBRANCH  17  20
ENDBRANCH   1  12
BRANCH   2  22
ATOM     22  O   UNL     1     129.081 118.163 139.394  1.00  0.00    -0.502 OA
ATOM     23  H   UNL     1     128.837 117.735 140.280  1.00  0.00     0.293 HD
ENDBRANCH   2  22
BRANCH   9  24
ATOM     24  O   UNL     1     123.535 120.872 134.678  1.00  0.00    -0.508 OA
ATOM     25  H   UNL     1     122.646 120.483 134.384  1.00  0.00     0.293 HD
ENDBRANCH   9  24
TORSDOF 5
ENDMDL
MODEL 6
REMARK VINA RESULT:    -5.795      1.449      6.539
REMARK INTER + INTRA:          -7.128
REMARK INTER:                  -6.892
REMARK INTRA:                  -0.236
REMARK UNBOUND:                -0.317
REMARK SMILES O=c1c(O)c(-c2ccc(O)c(O)c2)oc2cc(O)ccc12
REMARK SMILES IDX 5 1 3 2 2 3 1 4 21 5 15 6 14 7 16 8 17 9 19 10 20 11 6 12
REMARK SMILES IDX 7 13 8 14 9 15 13 16 11 17 10 18 12 20 4 22 18 24
REMARK H PARENT 10 19 12 21 4 23 18 25
REMARK Flexibility Score: inf
ROOT
ATOM      1  C   UNL     1     126.522 121.677 136.721  1.00  0.00     0.180 A 
ATOM      2  C   UNL     1     126.160 120.314 136.688  1.00  0.00     0.208 A 
ATOM      3  C   UNL     1     126.860 119.410 137.502  1.00  0.00     0.235 A 
ATOM      4  O   UNL     1     126.562 118.184 137.482  1.00  0.00    -0.285 OA
ATOM      5  C   UNL     1     127.881 119.881 138.339  1.00  0.00     0.069 A 
ATOM      6  C   UNL     1     128.168 121.264 138.332  1.00  0.00     0.142 A 
ATOM      7  O   UNL     1     127.489 122.086 137.541  1.00  0.00    -0.452 OA
ATOM      8  C   UNL     1     129.173 121.775 139.161  1.00  0.00     0.094 A 
ATOM      9  C   UNL     1     129.900 120.921 139.997  1.00  0.00     0.119 A 
ATOM     10  C   UNL     1     129.620 119.548 140.005  1.00  0.00     0.047 A 
ATOM     11  C   UNL     1     128.617 119.028 139.182  1.00  0.00     0.020 A 
ENDROOT
BRANCH   1  12
ATOM     12  C   UNL     1     125.845 122.691 135.880  1.00  0.00     0.025 A 
ATOM     13  C   UNL     1     124.925 123.602 136.428  1.00  0.00     0.016 A 
ATOM     14  C   UNL     1     124.280 124.533 135.610  1.00  0.00     0.051 A 
ATOM     15  C   UNL     1     124.532 124.561 134.235  1.00  0.00     0.157 A 
ATOM     16  C   UNL     1     126.079 122.707 134.495  1.00  0.00     0.062 A 
ATOM     17  C   UNL     1     125.433 123.642 133.673  1.00  0.00     0.158 A 
BRANCH  15  18
ATOM     18  O   UNL     1     123.875 125.503 133.444  1.00  0.00    -0.504 OA
ATOM     19  H   UNL     1     122.866 125.599 133.447  1.00  0.00     0.293 HD
ENDBRANCH  15  18
BRANCH  17  20
ATOM     20  O   UNL     1     125.684 123.660 132.301  1.00  0.00    -0.504 OA
ATOM     21  H   UNL     1     126.628 123.697 131.935  1.00  0.00     0.293 HD
ENDBRANCH  17  20
ENDBRANCH   1  12
BRANCH   2  22
ATOM     22  O   UNL     1     125.105 119.882 135.881  1.00  0.00    -0.502 OA
ATOM     23  H   UNL     1     124.967 120.231 134.939  1.00  0.00     0.293 HD
ENDBRANCH   2  22
BRANCH   9  24
ATOM     24  O   UNL     1     130.898 121.447 140.815  1.00  0.00    -0.508 OA
ATOM     25  H   UNL     1     130.755 122.301 141.341  1.00  0.00     0.293 HD
ENDBRANCH   9  24
TORSDOF 5
ENDMDL
MODEL 7
REMARK VINA RESULT:    -5.503     10.235     13.315
REMARK INTER + INTRA:          -6.784
REMARK INTER:                  -6.485
REMARK INTRA:                  -0.300
REMARK UNBOUND:                -0.317
REMARK SMILES O=c1c(O)c(-c2ccc(O)c(O)c2)oc2cc(O)ccc12
REMARK SMILES IDX 5 1 3 2 2 3 1 4 21 5 15 6 14 7 16 8 17 9 19 10 20 11 6 12
REMARK SMILES IDX 7 13 8 14 9 15 13 16 11 17 10 18 12 20 4 22 18 24
REMARK H PARENT 10 19 12 21 4 23 18 25
REMARK Flexibility Score: inf
ROOT
ATOM      1  C   UNL     1     125.383 132.735 133.952  1.00  0.00     0.180 A 
ATOM      2  C   UNL     1     124.902 132.922 135.265  1.00  0.00     0.208 A 
ATOM      3  C   UNL     1     125.625 133.748 136.138  1.00  0.00     0.235 A 
ATOM      4  O   UNL     1     125.221 133.922 137.321  1.00  0.00    -0.285 OA
ATOM      5  C   UNL     1     126.790 134.383 135.682  1.00  0.00     0.069 A 
ATOM      6  C   UNL     1     127.192 134.165 134.346  1.00  0.00     0.142 A 
ATOM      7  O   UNL     1     126.485 133.368 133.554  1.00  0.00    -0.452 OA
ATOM      8  C   UNL     1     128.342 134.788 133.851  1.00  0.00     0.094 A 
ATOM      9  C   UNL     1     129.101 135.628 134.674  1.00  0.00     0.119 A 
ATOM     10  C   UNL     1     128.706 135.845 136.002  1.00  0.00     0.047 A 
ATOM     11  C   UNL     1     127.557 135.228 136.505  1.00  0.00     0.020 A 
ENDROOT
BRANCH   1  12
ATOM     12  C   UNL     1     124.687 131.864 132.976  1.00  0.00     0.025 A 
ATOM     13  C   UNL     1     123.774 132.390 132.045  1.00  0.00     0.016 A 
ATOM     14  C   UNL     1     123.112 131.546 131.151  1.00  0.00     0.051 A 
ATOM     15  C   UNL     1     123.338 130.166 131.181  1.00  0.00     0.157 A 
ATOM     16  C   UNL     1     124.895 130.476 133.018  1.00  0.00     0.062 A 
ATOM     17  C   UNL     1     124.231 129.627 132.121  1.00  0.00     0.158 A 
BRANCH  15  18
ATOM     18  O   UNL     1     122.663 129.349 130.275  1.00  0.00    -0.504 OA
ATOM     19  H   UNL     1     121.688 129.492 130.043  1.00  0.00     0.293 HD
ENDBRANCH  15  18
BRANCH  17  20
ATOM     20  O   UNL     1     124.456 128.252 132.161  1.00  0.00    -0.504 OA
ATOM     21  H   UNL     1     125.258 127.831 131.705  1.00  0.00     0.293 HD
ENDBRANCH  17  20
ENDBRANCH   1  12
BRANCH   2  22
ATOM     22  O   UNL     1     123.712 132.315 135.675  1.00  0.00    -0.502 OA
ATOM     23  H   UNL     1     123.275 132.527 136.564  1.00  0.00     0.293 HD
ENDBRANCH   2  22
BRANCH   9  24
ATOM     24  O   UNL     1     130.244 136.239 134.164  1.00  0.00    -0.508 OA
ATOM     25  H   UNL     1     131.159 135.815 134.260  1.00  0.00     0.293 HD
ENDBRANCH   9  24
TORSDOF 5
ENDMDL
MODEL 8
REMARK VINA RESULT:    -5.421      9.821     12.382
REMARK INTER + INTRA:          -6.688
REMARK INTER:                  -6.374
REMARK INTRA:                  -0.314
REMARK UNBOUND:                -0.317
REMARK SMILES O=c1c(O)c(-c2ccc(O)c(O)c2)oc2cc(O)ccc12
REMARK SMILES IDX 5 1 3 2 2 3 1 4 21 5 15 6 14 7 16 8 17 9 19 10 20 11 6 12
REMARK SMILES IDX 7 13 8 14 9 15 13 16 11 17 10 18 12 20 4 22 18 24
REMARK H PARENT 10 19 12 21 4 23 18 25
REMARK Flexibility Score: inf
ROOT
ATOM      1  C   UNL     1     125.552 133.158 133.822  1.00  0.00     0.180 A 
ATOM      2  C   UNL     1     124.220 133.590 133.994  1.00  0.00     0.208 A 
ATOM      3  C   UNL     1     123.182 132.661 133.827  1.00  0.00     0.235 A 
ATOM      4  O   UNL     1     121.982 133.026 133.964  1.00  0.00    -0.285 OA
ATOM      5  C   UNL     1     123.491 131.329 133.516  1.00  0.00     0.069 A 
ATOM      6  C   UNL     1     124.850 130.970 133.384  1.00  0.00     0.142 A 
ATOM      7  O   UNL     1     125.803 131.880 133.542  1.00  0.00    -0.452 OA
ATOM      8  C   UNL     1     125.199 129.649 133.084  1.00  0.00     0.094 A 
ATOM      9  C   UNL     1     124.207 128.678 132.911  1.00  0.00     0.119 A 
ATOM     10  C   UNL     1     122.856 129.031 133.039  1.00  0.00     0.047 A 
ATOM     11  C   UNL     1     122.497 130.348 133.340  1.00  0.00     0.020 A 
ENDROOT
BRANCH   1  12
ATOM     12  C   UNL     1     126.702 134.080 133.964  1.00  0.00     0.025 A 
ATOM     13  C   UNL     1     127.107 134.914 132.906  1.00  0.00     0.016 A 
ATOM     14  C   UNL     1     128.210 135.758 133.055  1.00  0.00     0.051 A 
ATOM     15  C   UNL     1     128.933 135.774 134.251  1.00  0.00     0.157 A 
ATOM     16  C   UNL     1     127.444 134.083 135.157  1.00  0.00     0.062 A 
ATOM     17  C   UNL     1     128.551 134.930 135.307  1.00  0.00     0.158 A 
BRANCH  15  18
ATOM     18  O   UNL     1     130.028 136.628 134.371  1.00  0.00    -0.504 OA
ATOM     19  H   UNL     1     130.982 136.286 134.363  1.00  0.00     0.293 HD
ENDBRANCH  15  18
BRANCH  17  20
ATOM     20  O   UNL     1     129.272 134.936 136.501  1.00  0.00    -0.504 OA
ATOM     21  H   UNL     1     129.556 135.802 136.945  1.00  0.00     0.293 HD
ENDBRANCH  17  20
ENDBRANCH   1  12
BRANCH   2  22
ATOM     22  O   UNL     1     123.947 134.912 134.353  1.00  0.00    -0.502 OA
ATOM     23  H   UNL     1     123.249 135.151 135.048  1.00  0.00     0.293 HD
ENDBRANCH   2  22
BRANCH   9  24
ATOM     24  O   UNL     1     124.572 127.367 132.612  1.00  0.00    -0.508 OA
ATOM     25  H   UNL     1     124.850 127.096 131.676  1.00  0.00     0.293 HD
ENDBRANCH   9  24
TORSDOF 5
ENDMDL
MODEL 9
REMARK VINA RESULT:    -5.354      9.562     11.801
REMARK INTER + INTRA:          -6.610
REMARK INTER:                  -6.286
REMARK INTRA:                  -0.324
REMARK UNBOUND:                -0.317
REMARK SMILES O=c1c(O)c(-c2ccc(O)c(O)c2)oc2cc(O)ccc12
REMARK SMILES IDX 5 1 3 2 2 3 1 4 21 5 15 6 14 7 16 8 17 9 19 10 20 11 6 12
REMARK SMILES IDX 7 13 8 14 9 15 13 16 11 17 10 18 12 20 4 22 18 24
REMARK H PARENT 10 19 12 21 4 23 18 25
REMARK Flexibility Score: inf
ROOT
ATOM      1  C   UNL     1     125.546 132.466 135.633  1.00  0.00     0.180 A 
ATOM      2  C   UNL     1     124.250 132.603 135.092  1.00  0.00     0.208 A 
ATOM      3  C   UNL     1     123.299 131.606 135.356  1.00  0.00     0.235 A 
ATOM      4  O   UNL     1     122.136 131.701 134.875  1.00  0.00    -0.285 OA
ATOM      5  C   UNL     1     123.649 130.514 136.164  1.00  0.00     0.069 A 
ATOM      6  C   UNL     1     124.960 130.461 136.687  1.00  0.00     0.142 A 
ATOM      7  O   UNL     1     125.833 131.421 136.407  1.00  0.00    -0.452 OA
ATOM      8  C   UNL     1     125.344 129.393 137.505  1.00  0.00     0.094 A 
ATOM      9  C   UNL     1     124.437 128.372 137.807  1.00  0.00     0.119 A 
ATOM     10  C   UNL     1     123.135 128.420 137.287  1.00  0.00     0.047 A 
ATOM     11  C   UNL     1     122.741 129.484 136.470  1.00  0.00     0.020 A 
ENDROOT
BRANCH   1  12
ATOM     12  C   UNL     1     126.611 133.465 135.385  1.00  0.00     0.025 A 
ATOM     13  C   UNL     1     127.471 133.360 134.278  1.00  0.00     0.016 A 
ATOM     14  C   UNL     1     128.484 134.301 134.079  1.00  0.00     0.051 A 
ATOM     15  C   UNL     1     128.663 135.350 134.985  1.00  0.00     0.157 A 
ATOM     16  C   UNL     1     126.807 134.508 136.306  1.00  0.00     0.062 A 
ATOM     17  C   UNL     1     127.823 135.454 136.106  1.00  0.00     0.158 A 
BRANCH  15  18
ATOM     18  O   UNL     1     129.681 136.276 134.759  1.00  0.00    -0.504 OA
ATOM     19  H   UNL     1     130.046 136.866 135.496  1.00  0.00     0.293 HD
ENDBRANCH  15  18
BRANCH  17  20
ATOM     20  O   UNL     1     128.001 136.494 137.018  1.00  0.00    -0.504 OA
ATOM     21  H   UNL     1     128.922 136.762 137.344  1.00  0.00     0.293 HD
ENDBRANCH  17  20
ENDBRANCH   1  12
BRANCH   2  22
ATOM     22  O   UNL     1     123.916 133.727 134.332  1.00  0.00    -0.502 OA
ATOM     23  H   UNL     1     123.378 133.661 133.476  1.00  0.00     0.293 HD
ENDBRANCH   2  22
BRANCH   9  24
ATOM     24  O   UNL     1     124.837 127.316 138.622  1.00  0.00    -0.508 OA
ATOM     25  H   UNL     1     124.295 127.037 139.431  1.00  0.00     0.293 HD
ENDBRANCH   9  24
TORSDOF 5
ENDMDL
