MODEL 1
REMARK VINA RESULT:    -4.431      0.000      0.000
REMARK INTER + INTRA:          -5.411
REMARK INTER:                  -5.338
REMARK INTRA:                  -0.073
REMARK UNBOUND:                -0.073
REMARK SMILES CC[C@H](C)[C@H]([NH3+])C(=O)[O-]
REMARK SMILES IDX 3 1 4 2 5 3 6 4 7 8 8 9 9 10 2 11 1 12
REMARK H PARENT 6 5 6 6 6 7
REMARK Flexibility Score: inf
ROOT
ATOM      1  C   UNL     1       6.278  24.233  20.451  1.00  0.00     0.050 C 
ATOM      2  C   UNL     1       5.300  23.975  19.283  1.00  0.00     0.014 C 
ENDROOT
BRANCH   1   3
ATOM      3  C   UNL     1       7.589  24.906  19.923  1.00  0.00     0.230 C 
BRANCH   3   4
ATOM      4  N   UNL     1       8.797  24.326  20.532  1.00  0.00    -0.350 N 
ATOM      5  H   UNL     1       9.162  24.955  21.282  1.00  0.00     0.345 HD
ATOM      6  H   UNL     1       8.568  23.412  20.989  1.00  0.00     0.345 HD
ATOM      7  H   UNL     1       9.536  24.167  19.809  1.00  0.00     0.345 HD
ENDBRANCH   3   4
BRANCH   3   8
ATOM      8  C   UNL     1       7.571  26.394  20.175  1.00  0.00     0.099 C 
ATOM      9  O   UNL     1       7.629  27.205  19.213  1.00  0.00    -0.544 OA
ATOM     10  O   UNL     1       7.495  26.877  21.476  1.00  0.00    -0.544 OA
ENDBRANCH   3   8
ENDBRANCH   1   3
BRANCH   1  11
ATOM     11  C   UNL     1       6.580  22.914  21.210  1.00  0.00     0.006 C 
ATOM     12  C   UNL     1       5.469  21.868  21.089  1.00  0.00     0.004 C 
ENDBRANCH   1  11
TORSDOF 4
ENDMDL
MODEL 2
REMARK VINA RESULT:    -3.773      2.247      3.985
REMARK INTER + INTRA:          -4.618
REMARK INTER:                  -4.597
REMARK INTRA:                  -0.021
REMARK UNBOUND:                -0.073
REMARK SMILES CC[C@H](C)[C@H]([NH3+])C(=O)[O-]
REMARK SMILES IDX 3 1 4 2 5 3 6 4 7 8 8 9 9 10 2 11 1 12
REMARK H PARENT 6 5 6 6 6 7
REMARK Flexibility Score: inf
ROOT
ATOM      1  C   UNL     1       7.205  26.074  20.815  1.00  0.00     0.050 C 
ATOM      2  C   UNL     1       7.595  27.031  21.963  1.00  0.00     0.014 C 
ENDROOT
BRANCH   1   3
ATOM      3  C   UNL     1       7.618  24.607  21.167  1.00  0.00     0.230 C 
BRANCH   3   4
ATOM      4  N   UNL     1       8.896  24.223  20.545  1.00  0.00    -0.350 N 
ATOM      5  H   UNL     1       9.389  23.517  21.136  1.00  0.00     0.345 HD
ATOM      6  H   UNL     1       8.725  23.773  19.616  1.00  0.00     0.345 HD
ATOM      7  H   UNL     1       9.507  25.061  20.407  1.00  0.00     0.345 HD
ENDBRANCH   3   4
BRANCH   3   8
ATOM      8  C   UNL     1       6.549  23.628  20.747  1.00  0.00     0.099 C 
ATOM      9  O   UNL     1       6.424  22.524  21.341  1.00  0.00    -0.544 OA
ATOM     10  O   UNL     1       5.695  23.941  19.696  1.00  0.00    -0.544 OA
ENDBRANCH   3   8
ENDBRANCH   1   3
BRANCH   1  11
ATOM     11  C   UNL     1       7.838  26.539  19.477  1.00  0.00     0.006 C 
ATOM     12  C   UNL     1       7.493  27.983  19.105  1.00  0.00     0.004 C 
ENDBRANCH   1  11
TORSDOF 4
ENDMDL
MODEL 3
REMARK VINA RESULT:    -3.691      5.545      6.808
REMARK INTER + INTRA:          -4.519
REMARK INTER:                  -4.368
REMARK INTRA:                  -0.151
REMARK UNBOUND:                -0.073
REMARK SMILES CC[C@H](C)[C@H]([NH3+])C(=O)[O-]
REMARK SMILES IDX 3 1 4 2 5 3 6 4 7 8 8 9 9 10 2 11 1 12
REMARK H PARENT 6 5 6 6 6 7
REMARK Flexibility Score: inf
ROOT
ATOM      1  C   UNL     1       2.774  18.982  20.634  1.00  0.00     0.050 C 
ATOM      2  C   UNL     1       3.408  17.642  20.199  1.00  0.00     0.014 C 
ENDROOT
BRANCH   1   3
ATOM      3  C   UNL     1       3.507  19.545  21.896  1.00  0.00     0.230 C 
BRANCH   3   4
ATOM      4  N   UNL     1       2.716  19.368  23.125  1.00  0.00    -0.350 N 
ATOM      5  H   UNL     1       2.107  18.522  23.045  1.00  0.00     0.345 HD
ATOM      6  H   UNL     1       3.349  19.209  23.942  1.00  0.00     0.345 HD
ATOM      7  H   UNL     1       2.127  20.213  23.312  1.00  0.00     0.345 HD
ENDBRANCH   3   4
BRANCH   3   8
ATOM      8  C   UNL     1       3.833  21.009  21.724  1.00  0.00     0.099 C 
ATOM      9  O   UNL     1       2.989  21.892  22.031  1.00  0.00    -0.544 OA
ATOM     10  O   UNL     1       5.071  21.389  21.220  1.00  0.00    -0.544 OA
ENDBRANCH   3   8
ENDBRANCH   1   3
BRANCH   1  11
ATOM     11  C   UNL     1       1.253  18.810  20.886  1.00  0.00     0.006 C 
ATOM     12  C   UNL     1       0.391  19.855  20.173  1.00  0.00     0.004 C 
ENDBRANCH   1  11
TORSDOF 4
ENDMDL
MODEL 4
REMARK VINA RESULT:    -3.659      7.452      8.806
REMARK INTER + INTRA:          -4.481
REMARK INTER:                  -4.560
REMARK INTRA:                   0.079
REMARK UNBOUND:                -0.073
REMARK SMILES CC[C@H](C)[C@H]([NH3+])C(=O)[O-]
REMARK SMILES IDX 3 1 4 2 5 3 6 4 7 8 8 9 9 10 2 11 1 12
REMARK H PARENT 6 5 6 6 6 7
REMARK Flexibility Score: inf
ROOT
ATOM      1  C   UNL     1       2.523  19.134  20.121  1.00  0.00     0.050 C 
ATOM      2  C   UNL     1       0.988  19.144  20.292  1.00  0.00     0.014 C 
ENDROOT
BRANCH   1   3
ATOM      3  C   UNL     1       3.029  17.681  19.835  1.00  0.00     0.230 C 
BRANCH   3   4
ATOM      4  N   UNL     1       2.852  17.298  18.425  1.00  0.00    -0.350 N 
ATOM      5  H   UNL     1       3.469  16.487  18.191  1.00  0.00     0.345 HD
ATOM      6  H   UNL     1       1.867  16.987  18.256  1.00  0.00     0.345 HD
ATOM      7  H   UNL     1       3.067  18.103  17.792  1.00  0.00     0.345 HD
ENDBRANCH   3   4
BRANCH   3   8
ATOM      8  C   UNL     1       2.321  16.679  20.714  1.00  0.00     0.099 C 
ATOM      9  O   UNL     1       2.646  16.550  21.925  1.00  0.00    -0.544 OA
ATOM     10  O   UNL     1       1.305  15.891  20.189  1.00  0.00    -0.544 OA
ENDBRANCH   3   8
ENDBRANCH   1   3
BRANCH   1  11
ATOM     11  C   UNL     1       3.215  19.744  21.369  1.00  0.00     0.006 C 
ATOM     12  C   UNL     1       4.406  20.644  21.031  1.00  0.00     0.004 C 
ENDBRANCH   1  11
TORSDOF 4
ENDMDL
MODEL 5
REMARK VINA RESULT:    -3.635      7.709      8.895
REMARK INTER + INTRA:          -4.451
REMARK INTER:                  -4.381
REMARK INTRA:                  -0.071
REMARK UNBOUND:                -0.073
REMARK SMILES CC[C@H](C)[C@H]([NH3+])C(=O)[O-]
REMARK SMILES IDX 3 1 4 2 5 3 6 4 7 8 8 9 9 10 2 11 1 12
REMARK H PARENT 6 5 6 6 6 7
REMARK Flexibility Score: inf
ROOT
ATOM      1  C   UNL     1       2.846  18.654  20.716  1.00  0.00     0.050 C 
ATOM      2  C   UNL     1       3.821  19.842  20.874  1.00  0.00     0.014 C 
ENDROOT
BRANCH   1   3
ATOM      3  C   UNL     1       3.519  17.505  19.894  1.00  0.00     0.230 C 
BRANCH   3   4
ATOM      4  N   UNL     1       2.882  17.313  18.581  1.00  0.00    -0.350 N 
ATOM      5  H   UNL     1       1.862  17.535  18.637  1.00  0.00     0.345 HD
ATOM      6  H   UNL     1       3.296  17.970  17.879  1.00  0.00     0.345 HD
ATOM      7  H   UNL     1       3.015  16.331  18.245  1.00  0.00     0.345 HD
ENDBRANCH   3   4
BRANCH   3   8
ATOM      8  C   UNL     1       3.485  16.203  20.657  1.00  0.00     0.099 C 
ATOM      9  O   UNL     1       4.530  15.752  21.197  1.00  0.00    -0.544 OA
ATOM     10  O   UNL     1       2.296  15.492  20.765  1.00  0.00    -0.544 OA
ENDBRANCH   3   8
ENDBRANCH   1   3
BRANCH   1  11
ATOM     11  C   UNL     1       1.518  19.120  20.064  1.00  0.00     0.006 C 
ATOM     12  C   UNL     1       0.836  20.268  20.813  1.00  0.00     0.004 C 
ENDBRANCH   1  11
TORSDOF 4
ENDMDL
MODEL 6
REMARK VINA RESULT:    -3.620     14.301     15.494
REMARK INTER + INTRA:          -4.434
REMARK INTER:                  -4.327
REMARK INTRA:                  -0.107
REMARK UNBOUND:                -0.073
REMARK SMILES CC[C@H](C)[C@H]([NH3+])C(=O)[O-]
REMARK SMILES IDX 3 1 4 2 5 3 6 4 7 8 8 9 9 10 2 11 1 12
REMARK H PARENT 6 5 6 6 6 7
REMARK Flexibility Score: inf
ROOT
ATOM      1  C   UNL     1      -5.391  14.983  17.636  1.00  0.00     0.050 C 
ATOM      2  C   UNL     1      -6.476  16.026  17.985  1.00  0.00     0.014 C 
ENDROOT
BRANCH   1   3
ATOM      3  C   UNL     1      -4.026  15.692  17.351  1.00  0.00     0.230 C 
BRANCH   3   4
ATOM      4  N   UNL     1      -3.643  15.613  15.932  1.00  0.00    -0.350 N 
ATOM      5  H   UNL     1      -2.811  16.217  15.747  1.00  0.00     0.345 HD
ATOM      6  H   UNL     1      -3.366  14.634  15.686  1.00  0.00     0.345 HD
ATOM      7  H   UNL     1      -4.437  15.905  15.316  1.00  0.00     0.345 HD
ENDBRANCH   3   4
BRANCH   3   8
ATOM      8  C   UNL     1      -2.924  15.103  18.196  1.00  0.00     0.099 C 
ATOM      9  O   UNL     1      -2.385  15.785  19.108  1.00  0.00    -0.544 OA
ATOM     10  O   UNL     1      -2.495  13.801  17.969  1.00  0.00    -0.544 OA
ENDBRANCH   3   8
ENDBRANCH   1   3
BRANCH   1  11
ATOM     11  C   UNL     1      -5.841  14.109  16.435  1.00  0.00     0.006 C 
ATOM     12  C   UNL     1      -6.220  12.678  16.825  1.00  0.00     0.004 C 
ENDBRANCH   1  11
TORSDOF 4
ENDMDL
MODEL 7
REMARK VINA RESULT:    -3.470      5.929      7.241
REMARK INTER + INTRA:          -4.253
REMARK INTER:                  -4.165
REMARK INTRA:                  -0.087
REMARK UNBOUND:                -0.073
REMARK SMILES CC[C@H](C)[C@H]([NH3+])C(=O)[O-]
REMARK SMILES IDX 3 1 4 2 5 3 6 4 7 8 8 9 9 10 2 11 1 12
REMARK H PARENT 6 5 6 6 6 7
REMARK Flexibility Score: inf
ROOT
ATOM      1  C   UNL     1       3.554  20.770  21.680  1.00  0.00     0.050 C 
ATOM      2  C   UNL     1       3.688  21.320  23.117  1.00  0.00     0.014 C 
ENDROOT
BRANCH   1   3
ATOM      3  C   UNL     1       3.026  19.298  21.709  1.00  0.00     0.230 C 
BRANCH   3   4
ATOM      4  N   UNL     1       3.897  18.379  20.957  1.00  0.00    -0.350 N 
ATOM      5  H   UNL     1       3.403  18.027  20.106  1.00  0.00     0.345 HD
ATOM      6  H   UNL     1       4.752  18.883  20.624  1.00  0.00     0.345 HD
ATOM      7  H   UNL     1       4.191  17.573  21.556  1.00  0.00     0.345 HD
ENDBRANCH   3   4
BRANCH   3   8
ATOM      8  C   UNL     1       1.624  19.215  21.157  1.00  0.00     0.099 C 
ATOM      9  O   UNL     1       0.971  20.265  20.914  1.00  0.00    -0.544 OA
ATOM     10  O   UNL     1       1.044  17.975  20.916  1.00  0.00    -0.544 OA
ENDBRANCH   3   8
ENDBRANCH   1   3
BRANCH   1  11
ATOM     11  C   UNL     1       4.906  20.877  20.927  1.00  0.00     0.006 C 
ATOM     12  C   UNL     1       5.730  22.107  21.317  1.00  0.00     0.004 C 
ENDBRANCH   1  11
TORSDOF 4
ENDMDL
MODEL 8
REMARK VINA RESULT:    -3.431      6.722      8.084
REMARK INTER + INTRA:          -4.206
REMARK INTER:                  -4.115
REMARK INTRA:                  -0.091
REMARK UNBOUND:                -0.073
REMARK SMILES CC[C@H](C)[C@H]([NH3+])C(=O)[O-]
REMARK SMILES IDX 3 1 4 2 5 3 6 4 7 8 8 9 9 10 2 11 1 12
REMARK H PARENT 6 5 6 6 6 7
REMARK Flexibility Score: inf
ROOT
ATOM      1  C   UNL     1       2.800  19.483  20.956  1.00  0.00     0.050 C 
ATOM      2  C   UNL     1       1.304  19.859  20.874  1.00  0.00     0.014 C 
ENDROOT
BRANCH   1   3
ATOM      3  C   UNL     1       2.964  18.016  21.476  1.00  0.00     0.230 C 
BRANCH   3   4
ATOM      4  N   UNL     1       3.984  17.911  22.532  1.00  0.00    -0.350 N 
ATOM      5  H   UNL     1       3.599  18.253  23.442  1.00  0.00     0.345 HD
ATOM      6  H   UNL     1       4.254  16.910  22.676  1.00  0.00     0.345 HD
ATOM      7  H   UNL     1       4.838  18.459  22.279  1.00  0.00     0.345 HD
ENDBRANCH   3   4
BRANCH   3   8
ATOM      8  C   UNL     1       3.321  17.079  20.347  1.00  0.00     0.099 C 
ATOM      9  O   UNL     1       3.807  15.943  20.591  1.00  0.00    -0.544 OA
ATOM     10  O   UNL     1       3.117  17.469  19.030  1.00  0.00    -0.544 OA
ENDBRANCH   3   8
ENDBRANCH   1   3
BRANCH   1  11
ATOM     11  C   UNL     1       3.570  20.494  21.847  1.00  0.00     0.006 C 
ATOM     12  C   UNL     1       4.755  21.156  21.140  1.00  0.00     0.004 C 
ENDBRANCH   1  11
TORSDOF 4
ENDMDL
MODEL 9
REMARK VINA RESULT:    -3.385      8.996      9.915
REMARK INTER + INTRA:          -4.151
REMARK INTER:                  -4.000
REMARK INTRA:                  -0.151
REMARK UNBOUND:                -0.073
REMARK SMILES CC[C@H](C)[C@H]([NH3+])C(=O)[O-]
REMARK SMILES IDX 3 1 4 2 5 3 6 4 7 8 8 9 9 10 2 11 1 12
REMARK H PARENT 6 5 6 6 6 7
REMARK Flexibility Score: inf
ROOT
ATOM      1  C   UNL     1       2.148  18.005  21.273  1.00  0.00     0.050 C 
ATOM      2  C   UNL     1       3.268  18.318  22.289  1.00  0.00     0.014 C 
ENDROOT
BRANCH   1   3
ATOM      3  C   UNL     1       2.460  16.674  20.512  1.00  0.00     0.230 C 
BRANCH   3   4
ATOM      4  N   UNL     1       2.726  16.899  19.082  1.00  0.00    -0.350 N 
ATOM      5  H   UNL     1       2.145  17.691  18.726  1.00  0.00     0.345 HD
ATOM      6  H   UNL     1       3.726  17.169  18.938  1.00  0.00     0.345 HD
ATOM      7  H   UNL     1       2.526  16.034  18.528  1.00  0.00     0.345 HD
ENDBRANCH   3   4
BRANCH   3   8
ATOM      8  C   UNL     1       1.326  15.689  20.658  1.00  0.00     0.099 C 
ATOM      9  O   UNL     1       1.562  14.465  20.836  1.00  0.00    -0.544 OA
ATOM     10  O   UNL     1       0.010  16.131  20.592  1.00  0.00    -0.544 OA
ENDBRANCH   3   8
ENDBRANCH   1   3
BRANCH   1  11
ATOM     11  C   UNL     1       1.955  19.191  20.291  1.00  0.00     0.006 C 
ATOM     12  C   UNL     1       0.499  19.640  20.149  1.00  0.00     0.004 C 
ENDBRANCH   1  11
TORSDOF 4
ENDMDL
