MODEL 1
REMARK VINA RESULT:    -4.484      0.000      0.000
REMARK INTER + INTRA:          -7.539
REMARK INTER:                  -7.106
REMARK INTRA:                  -0.433
REMARK UNBOUND:                -0.433
REMARK SMILES CCCCCCCCCCCC(=O)[O-]
REMARK SMILES IDX 7 1 8 2 9 3 10 4 11 5 12 6 13 7 14 8 6 9 5 10 4 11 3 12 2 13
REMARK SMILES IDX 1 14
REMARK H PARENT
REMARK Flexibility Score: inf
ROOT
ATOM      1  C   UNL     1       4.285  10.425  82.669  1.00  0.00     0.000 C 
ENDROOT
BRANCH   1   2
ATOM      2  C   UNL     1       5.347  10.078  81.612  1.00  0.00     0.000 C 
BRANCH   2   3
ATOM      3  C   UNL     1       6.034   8.730  81.887  1.00  0.00     0.000 C 
BRANCH   3   4
ATOM      4  C   UNL     1       7.191   8.449  80.914  1.00  0.00     0.006 C 
BRANCH   4   5
ATOM      5  C   UNL     1       7.008   7.136  80.140  1.00  0.00     0.053 C 
BRANCH   5   6
ATOM      6  C   UNL     1       8.325   6.642  79.633  1.00  0.00     0.041 C 
ATOM      7  O   UNL     1       9.135   7.439  79.089  1.00  0.00    -0.550 OA
ATOM      8  O   UNL     1       8.642   5.291  79.716  1.00  0.00    -0.550 OA
ENDBRANCH   5   6
ENDBRANCH   4   5
ENDBRANCH   3   4
ENDBRANCH   2   3
ENDBRANCH   1   2
BRANCH   1   9
ATOM      9  C   UNL     1       3.392   9.228  83.030  1.00  0.00     0.000 C 
BRANCH   9  10
ATOM     10  C   UNL     1       2.634   9.486  84.341  1.00  0.00    -0.000 C 
BRANCH  10  11
ATOM     11  C   UNL     1       2.043   8.201  84.945  1.00  0.00    -0.000 C 
BRANCH  11  12
ATOM     12  C   UNL     1       2.386   8.036  86.436  1.00  0.00    -0.000 C 
BRANCH  12  13
ATOM     13  C   UNL     1       3.060   9.285  87.026  1.00  0.00    -0.003 C 
ATOM     14  C   UNL     1       2.329   9.825  88.255  1.00  0.00     0.004 C 
ENDBRANCH  12  13
ENDBRANCH  11  12
ENDBRANCH  10  11
ENDBRANCH   9  10
ENDBRANCH   1   9
TORSDOF 10
ENDMDL
MODEL 2
REMARK VINA RESULT:    -4.391      1.095      2.019
REMARK INTER + INTRA:          -7.391
REMARK INTER:                  -6.951
REMARK INTRA:                  -0.440
REMARK UNBOUND:                -0.433
REMARK SMILES CCCCCCCCCCCC(=O)[O-]
REMARK SMILES IDX 7 1 8 2 9 3 10 4 11 5 12 6 13 7 14 8 6 9 5 10 4 11 3 12 2 13
REMARK SMILES IDX 1 14
REMARK H PARENT
REMARK Flexibility Score: inf
ROOT
ATOM      1  C   UNL     1       5.336   9.839  82.160  1.00  0.00     0.000 C 
ENDROOT
BRANCH   1   2
ATOM      2  C   UNL     1       6.096   8.536  81.860  1.00  0.00     0.000 C 
BRANCH   2   3
ATOM      3  C   UNL     1       7.252   8.742  80.866  1.00  0.00     0.000 C 
BRANCH   3   4
ATOM      4  C   UNL     1       7.132   7.839  79.627  1.00  0.00     0.006 C 
BRANCH   4   5
ATOM      5  C   UNL     1       7.280   6.349  79.965  1.00  0.00     0.053 C 
BRANCH   5   6
ATOM      6  C   UNL     1       8.642   5.862  79.587  1.00  0.00     0.041 C 
ATOM      7  O   UNL     1       9.039   4.729  79.970  1.00  0.00    -0.550 OA
ATOM      8  O   UNL     1       9.496   6.677  78.855  1.00  0.00    -0.550 OA
ENDBRANCH   5   6
ENDBRANCH   4   5
ENDBRANCH   3   4
ENDBRANCH   2   3
ENDBRANCH   1   2
BRANCH   1   9
ATOM      9  C   UNL     1       3.877   9.595  82.574  1.00  0.00     0.000 C 
BRANCH   9  10
ATOM     10  C   UNL     1       3.571  10.265  83.922  1.00  0.00    -0.000 C 
BRANCH  10  11
ATOM     11  C   UNL     1       2.292   9.718  84.578  1.00  0.00    -0.000 C 
BRANCH  11  12
ATOM     12  C   UNL     1       2.587   8.741  85.729  1.00  0.00    -0.000 C 
BRANCH  12  13
ATOM     13  C   UNL     1       1.956   7.358  85.503  1.00  0.00    -0.003 C 
ATOM     14  C   UNL     1       3.000   6.257  85.315  1.00  0.00     0.004 C 
ENDBRANCH  12  13
ENDBRANCH  11  12
ENDBRANCH  10  11
ENDBRANCH   9  10
ENDBRANCH   1   9
TORSDOF 10
ENDMDL
MODEL 3
REMARK VINA RESULT:    -4.390      3.650      7.171
REMARK INTER + INTRA:          -7.389
REMARK INTER:                  -6.966
REMARK INTRA:                  -0.423
REMARK UNBOUND:                -0.433
REMARK SMILES CCCCCCCCCCCC(=O)[O-]
REMARK SMILES IDX 7 1 8 2 9 3 10 4 11 5 12 6 13 7 14 8 6 9 5 10 4 11 3 12 2 13
REMARK SMILES IDX 1 14
REMARK H PARENT
REMARK Flexibility Score: inf
ROOT
ATOM      1  C   UNL     1       3.641  10.222  82.624  1.00  0.00     0.000 C 
ENDROOT
BRANCH   1   2
ATOM      2  C   UNL     1       3.139   8.949  83.327  1.00  0.00     0.000 C 
BRANCH   2   3
ATOM      3  C   UNL     1       2.103   9.250  84.423  1.00  0.00     0.000 C 
BRANCH   3   4
ATOM      4  C   UNL     1       1.626   7.981  85.148  1.00  0.00     0.006 C 
BRANCH   4   5
ATOM      5  C   UNL     1       2.742   6.941  85.317  1.00  0.00     0.053 C 
BRANCH   5   6
ATOM      6  C   UNL     1       2.177   5.644  85.800  1.00  0.00     0.041 C 
ATOM      7  O   UNL     1       1.159   5.633  86.542  1.00  0.00    -0.550 OA
ATOM      8  O   UNL     1       2.802   4.447  85.473  1.00  0.00    -0.550 OA
ENDBRANCH   5   6
ENDBRANCH   4   5
ENDBRANCH   3   4
ENDBRANCH   2   3
ENDBRANCH   1   2
BRANCH   1   9
ATOM      9  C   UNL     1       5.142  10.169  82.300  1.00  0.00     0.000 C 
BRANCH   9  10
ATOM     10  C   UNL     1       5.564   8.749  81.894  1.00  0.00    -0.000 C 
BRANCH  10  11
ATOM     11  C   UNL     1       6.845   8.733  81.043  1.00  0.00    -0.000 C 
BRANCH  11  12
ATOM     12  C   UNL     1       7.075   7.380  80.345  1.00  0.00    -0.000 C 
BRANCH  12  13
ATOM     13  C   UNL     1       8.378   7.353  79.531  1.00  0.00    -0.003 C 
ATOM     14  C   UNL     1       9.288   8.544  79.834  1.00  0.00     0.004 C 
ENDBRANCH  12  13
ENDBRANCH  11  12
ENDBRANCH  10  11
ENDBRANCH   9  10
ENDBRANCH   1   9
TORSDOF 10
ENDMDL
MODEL 4
REMARK VINA RESULT:    -4.385      2.779      4.134
REMARK INTER + INTRA:          -7.381
REMARK INTER:                  -6.586
REMARK INTRA:                  -0.795
REMARK UNBOUND:                -0.433
REMARK SMILES CCCCCCCCCCCC(=O)[O-]
REMARK SMILES IDX 7 1 8 2 9 3 10 4 11 5 12 6 13 7 14 8 6 9 5 10 4 11 3 12 2 13
REMARK SMILES IDX 1 14
REMARK H PARENT
REMARK Flexibility Score: inf
ROOT
ATOM      1  C   UNL     1       4.377   9.490  82.396  1.00  0.00     0.000 C 
ENDROOT
BRANCH   1   2
ATOM      2  C   UNL     1       5.280   8.317  81.980  1.00  0.00     0.000 C 
BRANCH   2   3
ATOM      3  C   UNL     1       6.729   8.756  81.704  1.00  0.00     0.000 C 
BRANCH   3   4
ATOM      4  C   UNL     1       7.211   8.351  80.301  1.00  0.00     0.006 C 
BRANCH   4   5
ATOM      5  C   UNL     1       7.112   6.839  80.055  1.00  0.00     0.053 C 
BRANCH   5   6
ATOM      6  C   UNL     1       8.446   6.285  79.670  1.00  0.00     0.041 C 
ATOM      7  O   UNL     1       9.294   7.017  79.094  1.00  0.00    -0.550 OA
ATOM      8  O   UNL     1       8.738   4.947  79.902  1.00  0.00    -0.550 OA
ENDBRANCH   5   6
ENDBRANCH   4   5
ENDBRANCH   3   4
ENDBRANCH   2   3
ENDBRANCH   1   2
BRANCH   1   9
ATOM      9  C   UNL     1       5.168  10.674  82.972  1.00  0.00     0.000 C 
BRANCH   9  10
ATOM     10  C   UNL     1       4.798  11.981  82.255  1.00  0.00    -0.000 C 
BRANCH  10  11
ATOM     11  C   UNL     1       4.459  11.765  80.771  1.00  0.00    -0.000 C 
BRANCH  11  12
ATOM     12  C   UNL     1       3.483  12.824  80.227  1.00  0.00    -0.000 C 
BRANCH  12  13
ATOM     13  C   UNL     1       2.092  12.241  79.927  1.00  0.00    -0.003 C 
ATOM     14  C   UNL     1       1.460  11.566  81.144  1.00  0.00     0.004 C 
ENDBRANCH  12  13
ENDBRANCH  11  12
ENDBRANCH  10  11
ENDBRANCH   9  10
ENDBRANCH   1   9
TORSDOF 10
ENDMDL
MODEL 5
REMARK VINA RESULT:    -4.274      2.366      3.539
REMARK INTER + INTRA:          -7.205
REMARK INTER:                  -6.721
REMARK INTRA:                  -0.484
REMARK UNBOUND:                -0.433
REMARK SMILES CCCCCCCCCCCC(=O)[O-]
REMARK SMILES IDX 7 1 8 2 9 3 10 4 11 5 12 6 13 7 14 8 6 9 5 10 4 11 3 12 2 13
REMARK SMILES IDX 1 14
REMARK H PARENT
REMARK Flexibility Score: inf
ROOT
ATOM      1  C   UNL     1       2.391   9.222  84.649  1.00  0.00     0.000 C 
ENDROOT
BRANCH   1   2
ATOM      2  C   UNL     1       2.658   9.155  83.136  1.00  0.00     0.000 C 
BRANCH   2   3
ATOM      3  C   UNL     1       4.083   9.600  82.767  1.00  0.00     0.000 C 
BRANCH   3   4
ATOM      4  C   UNL     1       4.914   8.463  82.148  1.00  0.00     0.006 C 
BRANCH   4   5
ATOM      5  C   UNL     1       6.329   8.911  81.755  1.00  0.00     0.053 C 
BRANCH   5   6
ATOM      6  C   UNL     1       6.918   7.962  80.761  1.00  0.00     0.041 C 
ATOM      7  O   UNL     1       6.242   6.987  80.337  1.00  0.00    -0.550 OA
ATOM      8  O   UNL     1       8.231   8.123  80.337  1.00  0.00    -0.550 OA
ENDBRANCH   5   6
ENDBRANCH   4   5
ENDBRANCH   3   4
ENDBRANCH   2   3
ENDBRANCH   1   2
BRANCH   1   9
ATOM      9  C   UNL     1       1.779   7.927  85.203  1.00  0.00     0.000 C 
BRANCH   9  10
ATOM     10  C   UNL     1       2.876   6.953  85.657  1.00  0.00    -0.000 C 
BRANCH  10  11
ATOM     11  C   UNL     1       2.448   5.481  85.535  1.00  0.00    -0.000 C 
BRANCH  11  12
ATOM     12  C   UNL     1       1.538   5.031  86.692  1.00  0.00    -0.000 C 
BRANCH  12  13
ATOM     13  C   UNL     1       2.034   3.739  87.361  1.00  0.00    -0.003 C 
ATOM     14  C   UNL     1       3.318   3.202  86.727  1.00  0.00     0.004 C 
ENDBRANCH  12  13
ENDBRANCH  11  12
ENDBRANCH  10  11
ENDBRANCH   9  10
ENDBRANCH   1   9
TORSDOF 10
ENDMDL
MODEL 6
REMARK VINA RESULT:    -4.243      4.365      7.311
REMARK INTER + INTRA:          -7.157
REMARK INTER:                  -6.625
REMARK INTRA:                  -0.532
REMARK UNBOUND:                -0.433
REMARK SMILES CCCCCCCCCCCC(=O)[O-]
REMARK SMILES IDX 7 1 8 2 9 3 10 4 11 5 12 6 13 7 14 8 6 9 5 10 4 11 3 12 2 13
REMARK SMILES IDX 1 14
REMARK H PARENT
REMARK Flexibility Score: inf
ROOT
ATOM      1  C   UNL     1       5.176   9.817  82.210  1.00  0.00     0.000 C 
ENDROOT
BRANCH   1   2
ATOM      2  C   UNL     1       5.235  10.925  81.145  1.00  0.00     0.000 C 
BRANCH   2   3
ATOM      3  C   UNL     1       4.245  12.068  81.426  1.00  0.00     0.000 C 
BRANCH   3   4
ATOM      4  C   UNL     1       3.236  12.269  80.284  1.00  0.00     0.006 C 
BRANCH   4   5
ATOM      5  C   UNL     1       3.345  13.655  79.634  1.00  0.00     0.053 C 
BRANCH   5   6
ATOM      6  C   UNL     1       3.849  13.534  78.231  1.00  0.00     0.041 C 
ATOM      7  O   UNL     1       5.000  13.072  78.008  1.00  0.00    -0.550 OA
ATOM      8  O   UNL     1       3.069  13.976  77.170  1.00  0.00    -0.550 OA
ENDBRANCH   5   6
ENDBRANCH   4   5
ENDBRANCH   3   4
ENDBRANCH   2   3
ENDBRANCH   1   2
BRANCH   1   9
ATOM      9  C   UNL     1       5.845   8.513  81.749  1.00  0.00     0.000 C 
BRANCH   9  10
ATOM     10  C   UNL     1       7.220   8.794  81.125  1.00  0.00    -0.000 C 
BRANCH  10  11
ATOM     11  C   UNL     1       7.415   8.080  79.777  1.00  0.00    -0.000 C 
BRANCH  11  12
ATOM     12  C   UNL     1       7.287   6.550  79.894  1.00  0.00    -0.000 C 
BRANCH  12  13
ATOM     13  C   UNL     1       8.583   5.820  79.509  1.00  0.00    -0.003 C 
ATOM     14  C   UNL     1       9.677   6.775  79.030  1.00  0.00     0.004 C 
ENDBRANCH  12  13
ENDBRANCH  11  12
ENDBRANCH  10  11
ENDBRANCH   9  10
ENDBRANCH   1   9
TORSDOF 10
ENDMDL
MODEL 7
REMARK VINA RESULT:    -4.221      1.813      2.481
REMARK INTER + INTRA:          -7.122
REMARK INTER:                  -6.852
REMARK INTRA:                  -0.270
REMARK UNBOUND:                -0.433
REMARK SMILES CCCCCCCCCCCC(=O)[O-]
REMARK SMILES IDX 7 1 8 2 9 3 10 4 11 5 12 6 13 7 14 8 6 9 5 10 4 11 3 12 2 13
REMARK SMILES IDX 1 14
REMARK H PARENT
REMARK Flexibility Score: inf
ROOT
ATOM      1  C   UNL     1       4.932  10.098  82.355  1.00  0.00     0.000 C 
ENDROOT
BRANCH   1   2
ATOM      2  C   UNL     1       5.270   8.648  81.970  1.00  0.00     0.000 C 
BRANCH   2   3
ATOM      3  C   UNL     1       6.754   8.463  81.610  1.00  0.00     0.000 C 
BRANCH   3   4
ATOM      4  C   UNL     1       6.955   7.552  80.388  1.00  0.00     0.006 C 
BRANCH   4   5
ATOM      5  C   UNL     1       8.318   7.760  79.712  1.00  0.00     0.053 C 
BRANCH   5   6
ATOM      6  C   UNL     1       8.792   9.164  79.918  1.00  0.00     0.041 C 
ATOM      7  O   UNL     1       9.869   9.385  80.533  1.00  0.00    -0.550 OA
ATOM      8  O   UNL     1       8.022  10.231  79.474  1.00  0.00    -0.550 OA
ENDBRANCH   5   6
ENDBRANCH   4   5
ENDBRANCH   3   4
ENDBRANCH   2   3
ENDBRANCH   1   2
BRANCH   1   9
ATOM      9  C   UNL     1       3.598  10.218  83.107  1.00  0.00     0.000 C 
BRANCH   9  10
ATOM     10  C   UNL     1       3.029   8.830  83.437  1.00  0.00    -0.000 C 
BRANCH  10  11
ATOM     11  C   UNL     1       2.094   8.849  84.658  1.00  0.00    -0.000 C 
BRANCH  11  12
ATOM     12  C   UNL     1       2.519   7.845  85.745  1.00  0.00    -0.000 C 
BRANCH  12  13
ATOM     13  C   UNL     1       3.063   6.534  85.153  1.00  0.00    -0.003 C 
ATOM     14  C   UNL     1       2.387   5.296  85.743  1.00  0.00     0.004 C 
ENDBRANCH  12  13
ENDBRANCH  11  12
ENDBRANCH  10  11
ENDBRANCH   9  10
ENDBRANCH   1   9
TORSDOF 10
ENDMDL
MODEL 8
REMARK VINA RESULT:    -4.132      1.917      3.050
REMARK INTER + INTRA:          -6.980
REMARK INTER:                  -6.286
REMARK INTRA:                  -0.694
REMARK UNBOUND:                -0.433
REMARK SMILES CCCCCCCCCCCC(=O)[O-]
REMARK SMILES IDX 7 1 8 2 9 3 10 4 11 5 12 6 13 7 14 8 6 9 5 10 4 11 3 12 2 13
REMARK SMILES IDX 1 14
REMARK H PARENT
REMARK Flexibility Score: inf
ROOT
ATOM      1  C   UNL     1       5.927   9.253  81.956  1.00  0.00     0.000 C 
ENDROOT
BRANCH   1   2
ATOM      2  C   UNL     1       6.579   8.206  81.038  1.00  0.00     0.000 C 
BRANCH   2   3
ATOM      3  C   UNL     1       7.810   8.755  80.297  1.00  0.00     0.000 C 
BRANCH   3   4
ATOM      4  C   UNL     1       8.208   7.888  79.091  1.00  0.00     0.006 C 
BRANCH   4   5
ATOM      5  C   UNL     1       9.399   6.967  79.390  1.00  0.00     0.053 C 
BRANCH   5   6
ATOM      6  C   UNL     1       8.925   5.576  79.666  1.00  0.00     0.041 C 
ATOM      7  O   UNL     1       9.757   4.655  79.883  1.00  0.00    -0.550 OA
ATOM      8  O   UNL     1       7.567   5.283  79.636  1.00  0.00    -0.550 OA
ENDBRANCH   5   6
ENDBRANCH   4   5
ENDBRANCH   3   4
ENDBRANCH   2   3
ENDBRANCH   1   2
BRANCH   1   9
ATOM      9  C   UNL     1       5.532  10.535  81.207  1.00  0.00     0.000 C 
BRANCH   9  10
ATOM     10  C   UNL     1       4.681  11.451  82.100  1.00  0.00    -0.000 C 
BRANCH  10  11
ATOM     11  C   UNL     1       3.174  11.307  81.829  1.00  0.00    -0.000 C 
BRANCH  11  12
ATOM     12  C   UNL     1       2.349  11.183  83.123  1.00  0.00    -0.000 C 
BRANCH  12  13
ATOM     13  C   UNL     1       3.071  10.360  84.203  1.00  0.00    -0.003 C 
ATOM     14  C   UNL     1       2.836   8.857  84.054  1.00  0.00     0.004 C 
ENDBRANCH  12  13
ENDBRANCH  11  12
ENDBRANCH  10  11
ENDBRANCH   9  10
ENDBRANCH   1   9
TORSDOF 10
ENDMDL
MODEL 9
REMARK VINA RESULT:    -4.037      6.648      8.462
REMARK INTER + INTRA:          -6.830
REMARK INTER:                  -5.915
REMARK INTRA:                  -0.915
REMARK UNBOUND:                -0.433
REMARK SMILES CCCCCCCCCCCC(=O)[O-]
REMARK SMILES IDX 7 1 8 2 9 3 10 4 11 5 12 6 13 7 14 8 6 9 5 10 4 11 3 12 2 13
REMARK SMILES IDX 1 14
REMARK H PARENT
REMARK Flexibility Score: inf
ROOT
ATOM      1  C   UNL     1       0.874   5.933  86.237  1.00  0.00     0.000 C 
ENDROOT
BRANCH   1   2
ATOM      2  C   UNL     1       1.201   7.351  85.738  1.00  0.00     0.000 C 
BRANCH   2   3
ATOM      3  C   UNL     1       2.630   7.790  86.104  1.00  0.00     0.000 C 
BRANCH   3   4
ATOM      4  C   UNL     1       2.677   9.209  86.694  1.00  0.00     0.006 C 
BRANCH   4   5
ATOM      5  C   UNL     1       2.635   9.214  88.228  1.00  0.00     0.053 C 
BRANCH   5   6
ATOM      6  C   UNL     1       1.416   9.932  88.713  1.00  0.00     0.041 C 
ATOM      7  O   UNL     1       0.271   9.447  88.509  1.00  0.00    -0.550 OA
ATOM      8  O   UNL     1       1.538  11.163  89.347  1.00  0.00    -0.550 OA
ENDBRANCH   5   6
ENDBRANCH   4   5
ENDBRANCH   3   4
ENDBRANCH   2   3
ENDBRANCH   1   2
BRANCH   1   9
ATOM      9  C   UNL     1       0.521   5.895  87.732  1.00  0.00     0.000 C 
BRANCH   9  10
ATOM     10  C   UNL     1       0.133   4.475  88.167  1.00  0.00    -0.000 C 
BRANCH  10  11
ATOM     11  C   UNL     1       1.236   3.786  88.988  1.00  0.00    -0.000 C 
BRANCH  11  12
ATOM     12  C   UNL     1       1.710   2.466  88.353  1.00  0.00    -0.000 C 
BRANCH  12  13
ATOM     13  C   UNL     1       3.170   2.534  87.878  1.00  0.00    -0.003 C 
ATOM     14  C   UNL     1       3.320   3.240  86.530  1.00  0.00     0.004 C 
ENDBRANCH  12  13
ENDBRANCH  11  12
ENDBRANCH  10  11
ENDBRANCH   9  10
ENDBRANCH   1   9
TORSDOF 10
ENDMDL
