MODEL 1
REMARK VINA RESULT:    -5.664      0.000      0.000
REMARK INTER + INTRA:         -15.317
REMARK INTER:                 -12.286
REMARK INTRA:                  -3.031
REMARK UNBOUND:                -3.031
REMARK SMILES CCCCCCCCCCCCCCCCCCCCCC(=O)[O-]
REMARK SMILES IDX 12 1 11 2 10 3 9 4 8 5 7 6 6 7 5 8 4 9 3 10 2 11 1 12 13 13
REMARK SMILES IDX 14 14 15 15 16 16 17 17 18 18 19 19 20 20 21 21 22 22 23 23
REMARK SMILES IDX 24 24
REMARK H PARENT
REMARK Flexibility Score: inf
ROOT
ATOM      1  C   UNL     1      55.216  17.440  -1.120  1.00  0.00     0.000 C 
ENDROOT
BRANCH   1   2
ATOM      2  C   UNL     1      55.901  17.360   0.258  1.00  0.00     0.000 C 
BRANCH   2   3
ATOM      3  C   UNL     1      55.035  17.805   1.452  1.00  0.00     0.000 C 
BRANCH   3   4
ATOM      4  C   UNL     1      54.379  16.624   2.188  1.00  0.00    -0.000 C 
BRANCH   4   5
ATOM      5  C   UNL     1      52.845  16.707   2.185  1.00  0.00    -0.000 C 
BRANCH   5   6
ATOM      6  C   UNL     1      52.309  17.861   3.051  1.00  0.00    -0.000 C 
BRANCH   6   7
ATOM      7  C   UNL     1      50.999  18.464   2.508  1.00  0.00    -0.000 C 
BRANCH   7   8
ATOM      8  C   UNL     1      50.739  18.228   1.008  1.00  0.00    -0.000 C 
BRANCH   8   9
ATOM      9  C   UNL     1      50.252  19.487   0.274  1.00  0.00    -0.000 C 
BRANCH   9  10
ATOM     10  C   UNL     1      49.090  19.147  -0.672  1.00  0.00    -0.000 C 
BRANCH  10  11
ATOM     11  C   UNL     1      49.572  18.615  -2.029  1.00  0.00    -0.003 C 
ATOM     12  C   UNL     1      48.431  18.067  -2.887  1.00  0.00     0.004 C 
ENDBRANCH  10  11
ENDBRANCH   9  10
ENDBRANCH   8   9
ENDBRANCH   7   8
ENDBRANCH   6   7
ENDBRANCH   5   6
ENDBRANCH   4   5
ENDBRANCH   3   4
ENDBRANCH   2   3
ENDBRANCH   1   2
BRANCH   1  13
ATOM     13  C   UNL     1      53.734  17.866  -1.102  1.00  0.00     0.000 C 
BRANCH  13  14
ATOM     14  C   UNL     1      52.764  16.783  -1.616  1.00  0.00     0.000 C 
BRANCH  14  15
ATOM     15  C   UNL     1      53.450  15.420  -1.840  1.00  0.00     0.000 C 
BRANCH  15  16
ATOM     16  C   UNL     1      53.263  14.462  -0.646  1.00  0.00     0.000 C 
BRANCH  16  17
ATOM     17  C   UNL     1      54.354  13.377  -0.536  1.00  0.00     0.000 C 
BRANCH  17  18
ATOM     18  C   UNL     1      55.471  13.675   0.477  1.00  0.00     0.000 C 
BRANCH  18  19
ATOM     19  C   UNL     1      56.677  12.735   0.330  1.00  0.00     0.000 C 
BRANCH  19  20
ATOM     20  C   UNL     1      57.911  13.496  -0.177  1.00  0.00     0.006 C 
BRANCH  20  21
ATOM     21  C   UNL     1      58.455  14.475   0.872  1.00  0.00     0.053 C 
BRANCH  21  22
ATOM     22  C   UNL     1      59.278  15.558   0.244  1.00  0.00     0.041 C 
ATOM     23  O   UNL     1      59.434  16.659   0.835  1.00  0.00    -0.550 OA
ATOM     24  O   UNL     1      59.849  15.364  -1.008  1.00  0.00    -0.550 OA
ENDBRANCH  21  22
ENDBRANCH  20  21
ENDBRANCH  19  20
ENDBRANCH  18  19
ENDBRANCH  17  18
ENDBRANCH  16  17
ENDBRANCH  15  16
ENDBRANCH  14  15
ENDBRANCH  13  14
ENDBRANCH   1  13
TORSDOF 20
ENDMDL
MODEL 2
REMARK VINA RESULT:    -5.640      1.702      3.018
REMARK INTER + INTRA:         -15.266
REMARK INTER:                 -12.044
REMARK INTRA:                  -3.222
REMARK UNBOUND:                -3.031
REMARK SMILES CCCCCCCCCCCCCCCCCCCCCC(=O)[O-]
REMARK SMILES IDX 12 1 11 2 10 3 9 4 8 5 7 6 6 7 5 8 4 9 3 10 2 11 1 12 13 13
REMARK SMILES IDX 14 14 15 15 16 16 17 17 18 18 19 19 20 20 21 21 22 22 23 23
REMARK SMILES IDX 24 24
REMARK H PARENT
REMARK Flexibility Score: inf
ROOT
ATOM      1  C   UNL     1      53.554  15.543  -1.881  1.00  0.00     0.000 C 
ENDROOT
BRANCH   1   2
ATOM      2  C   UNL     1      53.146  14.460  -0.863  1.00  0.00     0.000 C 
BRANCH   2   3
ATOM      3  C   UNL     1      54.227  14.084   0.169  1.00  0.00     0.000 C 
BRANCH   3   4
ATOM      4  C   UNL     1      53.817  14.424   1.613  1.00  0.00    -0.000 C 
BRANCH   4   5
ATOM      5  C   UNL     1      52.650  15.421   1.674  1.00  0.00    -0.000 C 
BRANCH   5   6
ATOM      6  C   UNL     1      53.025  16.735   2.381  1.00  0.00    -0.000 C 
BRANCH   6   7
ATOM      7  C   UNL     1      52.033  17.879   2.095  1.00  0.00    -0.000 C 
BRANCH   7   8
ATOM      8  C   UNL     1      50.608  17.433   1.714  1.00  0.00    -0.000 C 
BRANCH   8   9
ATOM      9  C   UNL     1      49.684  18.605   1.353  1.00  0.00    -0.000 C 
BRANCH   9  10
ATOM     10  C   UNL     1      50.303  19.462   0.239  1.00  0.00    -0.000 C 
BRANCH  10  11
ATOM     11  C   UNL     1      49.387  19.584  -0.988  1.00  0.00    -0.003 C 
ATOM     12  C   UNL     1      49.447  18.354  -1.894  1.00  0.00     0.004 C 
ENDBRANCH  10  11
ENDBRANCH   9  10
ENDBRANCH   8   9
ENDBRANCH   7   8
ENDBRANCH   6   7
ENDBRANCH   5   6
ENDBRANCH   4   5
ENDBRANCH   3   4
ENDBRANCH   2   3
ENDBRANCH   1   2
BRANCH   1  13
ATOM     13  C   UNL     1      52.871  16.914  -1.703  1.00  0.00     0.000 C 
BRANCH  13  14
ATOM     14  C   UNL     1      53.796  18.005  -1.123  1.00  0.00     0.000 C 
BRANCH  14  15
ATOM     15  C   UNL     1      55.215  17.487  -0.815  1.00  0.00     0.000 C 
BRANCH  15  16
ATOM     16  C   UNL     1      55.583  17.625   0.676  1.00  0.00     0.000 C 
BRANCH  16  17
ATOM     17  C   UNL     1      56.997  17.115   1.023  1.00  0.00     0.000 C 
BRANCH  17  18
ATOM     18  C   UNL     1      57.440  15.854   0.262  1.00  0.00     0.000 C 
BRANCH  18  19
ATOM     19  C   UNL     1      58.818  15.342   0.709  1.00  0.00     0.000 C 
BRANCH  19  20
ATOM     20  C   UNL     1      58.894  13.811   0.613  1.00  0.00     0.006 C 
BRANCH  20  21
ATOM     21  C   UNL     1      57.657  13.214  -0.072  1.00  0.00     0.053 C 
BRANCH  21  22
ATOM     22  C   UNL     1      57.780  11.731  -0.242  1.00  0.00     0.041 C 
ATOM     23  O   UNL     1      56.820  11.065  -0.714  1.00  0.00    -0.550 OA
ATOM     24  O   UNL     1      58.942  11.077   0.150  1.00  0.00    -0.550 OA
ENDBRANCH  21  22
ENDBRANCH  20  21
ENDBRANCH  19  20
ENDBRANCH  18  19
ENDBRANCH  17  18
ENDBRANCH  16  17
ENDBRANCH  15  16
ENDBRANCH  14  15
ENDBRANCH  13  14
ENDBRANCH   1  13
TORSDOF 20
ENDMDL
MODEL 3
REMARK VINA RESULT:    -5.634      1.481      2.695
REMARK INTER + INTRA:         -15.252
REMARK INTER:                 -12.281
REMARK INTRA:                  -2.970
REMARK UNBOUND:                -3.031
REMARK SMILES CCCCCCCCCCCCCCCCCCCCCC(=O)[O-]
REMARK SMILES IDX 12 1 11 2 10 3 9 4 8 5 7 6 6 7 5 8 4 9 3 10 2 11 1 12 13 13
REMARK SMILES IDX 14 14 15 15 16 16 17 17 18 18 19 19 20 20 21 21 22 22 23 23
REMARK SMILES IDX 24 24
REMARK H PARENT
REMARK Flexibility Score: inf
ROOT
ATOM      1  C   UNL     1      53.019  16.646  -1.574  1.00  0.00     0.000 C 
ENDROOT
BRANCH   1   2
ATOM      2  C   UNL     1      54.006  17.726  -1.089  1.00  0.00     0.000 C 
BRANCH   2   3
ATOM      3  C   UNL     1      55.476  17.275  -0.981  1.00  0.00     0.000 C 
BRANCH   3   4
ATOM      4  C   UNL     1      55.948  17.121   0.475  1.00  0.00    -0.000 C 
BRANCH   4   5
ATOM      5  C   UNL     1      55.109  17.955   1.456  1.00  0.00    -0.000 C 
BRANCH   5   6
ATOM      6  C   UNL     1      54.455  17.100   2.556  1.00  0.00    -0.000 C 
BRANCH   6   7
ATOM      7  C   UNL     1      52.987  16.744   2.250  1.00  0.00    -0.000 C 
BRANCH   7   8
ATOM      8  C   UNL     1      52.004  17.929   2.277  1.00  0.00    -0.000 C 
BRANCH   8   9
ATOM      9  C   UNL     1      50.876  17.803   1.242  1.00  0.00    -0.000 C 
BRANCH   9  10
ATOM     10  C   UNL     1      50.433  19.190   0.751  1.00  0.00    -0.000 C 
BRANCH  10  11
ATOM     11  C   UNL     1      50.631  19.371  -0.761  1.00  0.00    -0.003 C 
ATOM     12  C   UNL     1      49.415  18.924  -1.573  1.00  0.00     0.004 C 
ENDBRANCH  10  11
ENDBRANCH   9  10
ENDBRANCH   8   9
ENDBRANCH   7   8
ENDBRANCH   6   7
ENDBRANCH   5   6
ENDBRANCH   4   5
ENDBRANCH   3   4
ENDBRANCH   2   3
ENDBRANCH   1   2
BRANCH   1  13
ATOM     13  C   UNL     1      53.622  15.243  -1.790  1.00  0.00     0.000 C 
BRANCH  13  14
ATOM     14  C   UNL     1      53.189  14.206  -0.734  1.00  0.00     0.000 C 
BRANCH  14  15
ATOM     15  C   UNL     1      54.266  13.958   0.341  1.00  0.00     0.000 C 
BRANCH  15  16
ATOM     16  C   UNL     1      55.445  13.116  -0.188  1.00  0.00     0.000 C 
BRANCH  16  17
ATOM     17  C   UNL     1      56.701  13.165   0.708  1.00  0.00     0.000 C 
BRANCH  17  18
ATOM     18  C   UNL     1      58.029  13.362  -0.042  1.00  0.00     0.000 C 
BRANCH  18  19
ATOM     19  C   UNL     1      58.487  14.828  -0.066  1.00  0.00     0.000 C 
BRANCH  19  20
ATOM     20  C   UNL     1      59.994  14.929  -0.349  1.00  0.00     0.006 C 
BRANCH  20  21
ATOM     21  C   UNL     1      60.810  13.964   0.521  1.00  0.00     0.053 C 
BRANCH  21  22
ATOM     22  C   UNL     1      61.888  13.286  -0.268  1.00  0.00     0.041 C 
ATOM     23  O   UNL     1      62.793  13.966  -0.822  1.00  0.00    -0.550 OA
ATOM     24  O   UNL     1      61.880  11.904  -0.418  1.00  0.00    -0.550 OA
ENDBRANCH  21  22
ENDBRANCH  20  21
ENDBRANCH  19  20
ENDBRANCH  18  19
ENDBRANCH  17  18
ENDBRANCH  16  17
ENDBRANCH  15  16
ENDBRANCH  14  15
ENDBRANCH  13  14
ENDBRANCH   1  13
TORSDOF 20
ENDMDL
MODEL 4
REMARK VINA RESULT:    -5.604      4.174      8.426
REMARK INTER + INTRA:         -15.188
REMARK INTER:                 -12.402
REMARK INTRA:                  -2.786
REMARK UNBOUND:                -3.031
REMARK SMILES CCCCCCCCCCCCCCCCCCCCCC(=O)[O-]
REMARK SMILES IDX 12 1 11 2 10 3 9 4 8 5 7 6 6 7 5 8 4 9 3 10 2 11 1 12 13 13
REMARK SMILES IDX 14 14 15 15 16 16 17 17 18 18 19 19 20 20 21 21 22 22 23 23
REMARK SMILES IDX 24 24
REMARK H PARENT
REMARK Flexibility Score: inf
ROOT
ATOM      1  C   UNL     1      55.053  17.820   1.494  1.00  0.00     0.000 C 
ENDROOT
BRANCH   1   2
ATOM      2  C   UNL     1      55.991  17.256   0.410  1.00  0.00     0.000 C 
BRANCH   2   3
ATOM      3  C   UNL     1      55.401  17.210  -1.013  1.00  0.00     0.000 C 
BRANCH   3   4
ATOM      4  C   UNL     1      54.051  17.940  -1.124  1.00  0.00    -0.000 C 
BRANCH   4   5
ATOM      5  C   UNL     1      52.917  17.011  -1.586  1.00  0.00    -0.000 C 
BRANCH   5   6
ATOM      6  C   UNL     1      53.406  15.588  -1.910  1.00  0.00    -0.000 C 
BRANCH   6   7
ATOM      7  C   UNL     1      53.166  14.592  -0.760  1.00  0.00    -0.000 C 
BRANCH   7   8
ATOM      8  C   UNL     1      54.215  13.472  -0.630  1.00  0.00    -0.000 C 
BRANCH   8   9
ATOM      9  C   UNL     1      55.155  13.659   0.571  1.00  0.00    -0.000 C 
BRANCH   9  10
ATOM     10  C   UNL     1      56.537  13.057   0.278  1.00  0.00    -0.000 C 
BRANCH  10  11
ATOM     11  C   UNL     1      56.473  11.552  -0.021  1.00  0.00    -0.003 C 
ATOM     12  C   UNL     1      57.638  11.073  -0.888  1.00  0.00     0.004 C 
ENDBRANCH  10  11
ENDBRANCH   9  10
ENDBRANCH   8   9
ENDBRANCH   7   8
ENDBRANCH   6   7
ENDBRANCH   5   6
ENDBRANCH   4   5
ENDBRANCH   3   4
ENDBRANCH   2   3
ENDBRANCH   1   2
BRANCH   1  13
ATOM     13  C   UNL     1      54.363  16.771   2.389  1.00  0.00     0.000 C 
BRANCH  13  14
ATOM     14  C   UNL     1      52.854  16.607   2.113  1.00  0.00     0.000 C 
BRANCH  14  15
ATOM     15  C   UNL     1      52.042  17.874   2.447  1.00  0.00     0.000 C 
BRANCH  15  16
ATOM     16  C   UNL     1      50.667  17.896   1.748  1.00  0.00     0.000 C 
BRANCH  16  17
ATOM     17  C   UNL     1      50.499  19.044   0.731  1.00  0.00     0.000 C 
BRANCH  17  18
ATOM     18  C   UNL     1      49.849  18.643  -0.604  1.00  0.00     0.000 C 
BRANCH  18  19
ATOM     19  C   UNL     1      49.415  19.855  -1.442  1.00  0.00     0.000 C 
BRANCH  19  20
ATOM     20  C   UNL     1      47.900  20.087  -1.330  1.00  0.00     0.006 C 
BRANCH  20  21
ATOM     21  C   UNL     1      47.571  21.437  -0.680  1.00  0.00     0.053 C 
BRANCH  21  22
ATOM     22  C   UNL     1      47.066  21.268   0.721  1.00  0.00     0.041 C 
ATOM     23  O   UNL     1      47.177  22.209   1.552  1.00  0.00    -0.550 OA
ATOM     24  O   UNL     1      46.501  20.063   1.119  1.00  0.00    -0.550 OA
ENDBRANCH  21  22
ENDBRANCH  20  21
ENDBRANCH  19  20
ENDBRANCH  18  19
ENDBRANCH  17  18
ENDBRANCH  16  17
ENDBRANCH  15  16
ENDBRANCH  14  15
ENDBRANCH  13  14
ENDBRANCH   1  13
TORSDOF 20
ENDMDL
MODEL 5
REMARK VINA RESULT:    -5.552      4.733      8.620
REMARK INTER + INTRA:         -15.075
REMARK INTER:                 -11.888
REMARK INTRA:                  -3.187
REMARK UNBOUND:                -3.031
REMARK SMILES CCCCCCCCCCCCCCCCCCCCCC(=O)[O-]
REMARK SMILES IDX 12 1 11 2 10 3 9 4 8 5 7 6 6 7 5 8 4 9 3 10 2 11 1 12 13 13
REMARK SMILES IDX 14 14 15 15 16 16 17 17 18 18 19 19 20 20 21 21 22 22 23 23
REMARK SMILES IDX 24 24
REMARK H PARENT
REMARK Flexibility Score: inf
ROOT
ATOM      1  C   UNL     1      52.929  17.519   2.951  1.00  0.00     0.000 C 
ENDROOT
BRANCH   1   2
ATOM      2  C   UNL     1      54.379  17.124   2.611  1.00  0.00     0.000 C 
BRANCH   2   3
ATOM      3  C   UNL     1      55.052  17.967   1.509  1.00  0.00     0.000 C 
BRANCH   3   4
ATOM      4  C   UNL     1      56.035  17.152   0.651  1.00  0.00    -0.000 C 
BRANCH   4   5
ATOM      5  C   UNL     1      55.644  17.136  -0.835  1.00  0.00    -0.000 C 
BRANCH   5   6
ATOM      6  C   UNL     1      54.232  17.694  -1.086  1.00  0.00    -0.000 C 
BRANCH   6   7
ATOM      7  C   UNL     1      53.325  16.714  -1.855  1.00  0.00    -0.000 C 
BRANCH   7   8
ATOM      8  C   UNL     1      53.537  15.224  -1.525  1.00  0.00    -0.000 C 
BRANCH   8   9
ATOM      9  C   UNL     1      53.003  14.831  -0.139  1.00  0.00    -0.000 C 
BRANCH   9  10
ATOM     10  C   UNL     1      54.083  14.095   0.669  1.00  0.00    -0.000 C 
BRANCH  10  11
ATOM     11  C   UNL     1      55.092  13.362  -0.226  1.00  0.00    -0.003 C 
ATOM     12  C   UNL     1      56.523  13.444   0.308  1.00  0.00     0.004 C 
ENDBRANCH  10  11
ENDBRANCH   9  10
ENDBRANCH   8   9
ENDBRANCH   7   8
ENDBRANCH   6   7
ENDBRANCH   5   6
ENDBRANCH   4   5
ENDBRANCH   3   4
ENDBRANCH   2   3
ENDBRANCH   1   2
BRANCH   1  13
ATOM     13  C   UNL     1      51.990  17.708   1.742  1.00  0.00     0.000 C 
BRANCH  13  14
ATOM     14  C   UNL     1      50.706  18.499   2.064  1.00  0.00     0.000 C 
BRANCH  14  15
ATOM     15  C   UNL     1      49.826  18.746   0.823  1.00  0.00     0.000 C 
BRANCH  15  16
ATOM     16  C   UNL     1      50.509  18.297  -0.485  1.00  0.00     0.000 C 
BRANCH  16  17
ATOM     17  C   UNL     1      49.928  18.954  -1.754  1.00  0.00     0.000 C 
BRANCH  17  18
ATOM     18  C   UNL     1      50.188  20.464  -1.884  1.00  0.00     0.000 C 
BRANCH  18  19
ATOM     19  C   UNL     1      48.895  21.293  -1.888  1.00  0.00     0.000 C 
BRANCH  19  20
ATOM     20  C   UNL     1      47.658  20.384  -1.829  1.00  0.00     0.006 C 
BRANCH  20  21
ATOM     21  C   UNL     1      46.719  20.763  -0.676  1.00  0.00     0.053 C 
BRANCH  21  22
ATOM     22  C   UNL     1      45.498  21.479  -1.168  1.00  0.00     0.041 C 
ATOM     23  O   UNL     1      44.830  22.205  -0.385  1.00  0.00    -0.550 OA
ATOM     24  O   UNL     1      45.079  21.321  -2.484  1.00  0.00    -0.550 OA
ENDBRANCH  21  22
ENDBRANCH  20  21
ENDBRANCH  19  20
ENDBRANCH  18  19
ENDBRANCH  17  18
ENDBRANCH  16  17
ENDBRANCH  15  16
ENDBRANCH  14  15
ENDBRANCH  13  14
ENDBRANCH   1  13
TORSDOF 20
ENDMDL
MODEL 6
REMARK VINA RESULT:    -5.526      3.752      8.404
REMARK INTER + INTRA:         -15.018
REMARK INTER:                 -12.521
REMARK INTRA:                  -2.497
REMARK UNBOUND:                -3.031
REMARK SMILES CCCCCCCCCCCCCCCCCCCCCC(=O)[O-]
REMARK SMILES IDX 12 1 11 2 10 3 9 4 8 5 7 6 6 7 5 8 4 9 3 10 2 11 1 12 13 13
REMARK SMILES IDX 14 14 15 15 16 16 17 17 18 18 19 19 20 20 21 21 22 22 23 23
REMARK SMILES IDX 24 24
REMARK H PARENT
REMARK Flexibility Score: inf
ROOT
ATOM      1  C   UNL     1      51.273  18.770  -1.127  1.00  0.00     0.000 C 
ENDROOT
BRANCH   1   2
ATOM      2  C   UNL     1      52.564  17.929  -1.163  1.00  0.00     0.000 C 
BRANCH   2   3
ATOM      3  C   UNL     1      52.503  16.664  -2.041  1.00  0.00     0.000 C 
BRANCH   3   4
ATOM      4  C   UNL     1      53.660  15.689  -1.764  1.00  0.00    -0.000 C 
BRANCH   4   5
ATOM      5  C   UNL     1      53.225  14.486  -0.912  1.00  0.00    -0.000 C 
BRANCH   5   6
ATOM      6  C   UNL     1      54.266  14.104   0.155  1.00  0.00    -0.000 C 
BRANCH   6   7
ATOM      7  C   UNL     1      53.885  14.587   1.568  1.00  0.00    -0.000 C 
BRANCH   7   8
ATOM      8  C   UNL     1      52.699  15.567   1.631  1.00  0.00    -0.000 C 
BRANCH   8   9
ATOM      9  C   UNL     1      53.071  16.928   2.238  1.00  0.00    -0.000 C 
BRANCH   9  10
ATOM     10  C   UNL     1      54.586  17.024   2.468  1.00  0.00    -0.000 C 
BRANCH  10  11
ATOM     11  C   UNL     1      55.297  17.839   1.378  1.00  0.00    -0.003 C 
ATOM     12  C   UNL     1      56.540  17.135   0.831  1.00  0.00     0.004 C 
ENDBRANCH  10  11
ENDBRANCH   9  10
ENDBRANCH   8   9
ENDBRANCH   7   8
ENDBRANCH   6   7
ENDBRANCH   5   6
ENDBRANCH   4   5
ENDBRANCH   3   4
ENDBRANCH   2   3
ENDBRANCH   1   2
BRANCH   1  13
ATOM     13  C   UNL     1      50.359  18.639  -2.362  1.00  0.00     0.000 C 
BRANCH  13  14
ATOM     14  C   UNL     1      48.904  19.088  -2.116  1.00  0.00     0.000 C 
BRANCH  14  15
ATOM     15  C   UNL     1      48.801  20.286  -1.151  1.00  0.00     0.000 C 
BRANCH  15  16
ATOM     16  C   UNL     1      48.343  21.577  -1.860  1.00  0.00     0.000 C 
BRANCH  16  17
ATOM     17  C   UNL     1      46.875  21.961  -1.578  1.00  0.00     0.000 C 
BRANCH  17  18
ATOM     18  C   UNL     1      46.119  21.003  -0.642  1.00  0.00     0.000 C 
BRANCH  18  19
ATOM     19  C   UNL     1      45.970  21.556   0.783  1.00  0.00     0.000 C 
BRANCH  19  20
ATOM     20  C   UNL     1      46.477  20.545   1.822  1.00  0.00     0.006 C 
BRANCH  20  21
ATOM     21  C   UNL     1      47.666  21.090   2.625  1.00  0.00     0.053 C 
BRANCH  21  22
ATOM     22  C   UNL     1      48.818  20.133   2.626  1.00  0.00     0.041 C 
ATOM     23  O   UNL     1      49.949  20.502   3.040  1.00  0.00    -0.550 OA
ATOM     24  O   UNL     1      48.653  18.840   2.142  1.00  0.00    -0.550 OA
ENDBRANCH  21  22
ENDBRANCH  20  21
ENDBRANCH  19  20
ENDBRANCH  18  19
ENDBRANCH  17  18
ENDBRANCH  16  17
ENDBRANCH  15  16
ENDBRANCH  14  15
ENDBRANCH  13  14
ENDBRANCH   1  13
TORSDOF 20
ENDMDL
MODEL 7
REMARK VINA RESULT:    -5.519      3.352      7.677
REMARK INTER + INTRA:         -15.003
REMARK INTER:                 -12.034
REMARK INTRA:                  -2.968
REMARK UNBOUND:                -3.031
REMARK SMILES CCCCCCCCCCCCCCCCCCCCCC(=O)[O-]
REMARK SMILES IDX 12 1 11 2 10 3 9 4 8 5 7 6 6 7 5 8 4 9 3 10 2 11 1 12 13 13
REMARK SMILES IDX 14 14 15 15 16 16 17 17 18 18 19 19 20 20 21 21 22 22 23 23
REMARK SMILES IDX 24 24
REMARK H PARENT
REMARK Flexibility Score: inf
ROOT
ATOM      1  C   UNL     1      52.958  14.722  -1.055  1.00  0.00     0.000 C 
ENDROOT
BRANCH   1   2
ATOM      2  C   UNL     1      53.633  15.795  -1.931  1.00  0.00     0.000 C 
BRANCH   2   3
ATOM      3  C   UNL     1      53.326  17.254  -1.541  1.00  0.00     0.000 C 
BRANCH   3   4
ATOM      4  C   UNL     1      54.476  17.920  -0.765  1.00  0.00    -0.000 C 
BRANCH   4   5
ATOM      5  C   UNL     1      55.766  17.085  -0.796  1.00  0.00    -0.000 C 
BRANCH   5   6
ATOM      6  C   UNL     1      56.243  16.674   0.609  1.00  0.00    -0.000 C 
BRANCH   6   7
ATOM      7  C   UNL     1      57.772  16.762   0.775  1.00  0.00    -0.000 C 
BRANCH   7   8
ATOM      8  C   UNL     1      58.528  15.428   0.620  1.00  0.00    -0.000 C 
BRANCH   8   9
ATOM      9  C   UNL     1      57.612  14.255   0.243  1.00  0.00    -0.000 C 
BRANCH   9  10
ATOM     10  C   UNL     1      58.266  12.915   0.612  1.00  0.00    -0.000 C 
BRANCH  10  11
ATOM     11  C   UNL     1      57.236  11.843   1.000  1.00  0.00    -0.003 C 
ATOM     12  C   UNL     1      56.379  11.393  -0.185  1.00  0.00     0.004 C 
ENDBRANCH  10  11
ENDBRANCH   9  10
ENDBRANCH   8   9
ENDBRANCH   7   8
ENDBRANCH   6   7
ENDBRANCH   5   6
ENDBRANCH   4   5
ENDBRANCH   3   4
ENDBRANCH   2   3
ENDBRANCH   1   2
BRANCH   1  13
ATOM     13  C   UNL     1      53.910  13.872  -0.191  1.00  0.00     0.000 C 
BRANCH  13  14
ATOM     14  C   UNL     1      53.974  14.309   1.287  1.00  0.00     0.000 C 
BRANCH  14  15
ATOM     15  C   UNL     1      52.857  15.300   1.669  1.00  0.00     0.000 C 
BRANCH  15  16
ATOM     16  C   UNL     1      53.385  16.501   2.480  1.00  0.00     0.000 C 
BRANCH  16  17
ATOM     17  C   UNL     1      52.435  17.717   2.489  1.00  0.00     0.000 C 
BRANCH  17  18
ATOM     18  C   UNL     1      51.352  17.707   1.398  1.00  0.00     0.000 C 
BRANCH  18  19
ATOM     19  C   UNL     1      50.048  18.383   1.848  1.00  0.00     0.000 C 
BRANCH  19  20
ATOM     20  C   UNL     1      49.549  19.377   0.787  1.00  0.00     0.006 C 
BRANCH  20  21
ATOM     21  C   UNL     1      50.361  19.288  -0.512  1.00  0.00     0.053 C 
BRANCH  21  22
ATOM     22  C   UNL     1      49.899  20.293  -1.523  1.00  0.00     0.041 C 
ATOM     23  O   UNL     1      50.739  20.950  -2.193  1.00  0.00    -0.550 OA
ATOM     24  O   UNL     1      48.541  20.527  -1.704  1.00  0.00    -0.550 OA
ENDBRANCH  21  22
ENDBRANCH  20  21
ENDBRANCH  19  20
ENDBRANCH  18  19
ENDBRANCH  17  18
ENDBRANCH  16  17
ENDBRANCH  15  16
ENDBRANCH  14  15
ENDBRANCH  13  14
ENDBRANCH   1  13
TORSDOF 20
ENDMDL
MODEL 8
REMARK VINA RESULT:    -5.484      3.182      7.948
REMARK INTER + INTRA:         -14.927
REMARK INTER:                 -12.212
REMARK INTRA:                  -2.715
REMARK UNBOUND:                -3.031
REMARK SMILES CCCCCCCCCCCCCCCCCCCCCC(=O)[O-]
REMARK SMILES IDX 12 1 11 2 10 3 9 4 8 5 7 6 6 7 5 8 4 9 3 10 2 11 1 12 13 13
REMARK SMILES IDX 14 14 15 15 16 16 17 17 18 18 19 19 20 20 21 21 22 22 23 23
REMARK SMILES IDX 24 24
REMARK H PARENT
REMARK Flexibility Score: inf
ROOT
ATOM      1  C   UNL     1      54.675  16.860   2.345  1.00  0.00     0.000 C 
ENDROOT
BRANCH   1   2
ATOM      2  C   UNL     1      55.280  17.801   1.285  1.00  0.00     0.000 C 
BRANCH   2   3
ATOM      3  C   UNL     1      55.930  17.100   0.076  1.00  0.00     0.000 C 
BRANCH   3   4
ATOM      4  C   UNL     1      55.249  17.455  -1.257  1.00  0.00    -0.000 C 
BRANCH   4   5
ATOM      5  C   UNL     1      53.787  17.892  -1.073  1.00  0.00    -0.000 C 
BRANCH   5   6
ATOM      6  C   UNL     1      52.783  16.796  -1.470  1.00  0.00    -0.000 C 
BRANCH   6   7
ATOM      7  C   UNL     1      53.447  15.424  -1.698  1.00  0.00    -0.000 C 
BRANCH   7   8
ATOM      8  C   UNL     1      53.231  14.394  -0.574  1.00  0.00    -0.000 C 
BRANCH   8   9
ATOM      9  C   UNL     1      54.319  13.311  -0.528  1.00  0.00    -0.000 C 
BRANCH   9  10
ATOM     10  C   UNL     1      55.430  13.699   0.460  1.00  0.00    -0.000 C 
BRANCH  10  11
ATOM     11  C   UNL     1      56.647  12.766   0.374  1.00  0.00    -0.003 C 
ATOM     12  C   UNL     1      56.306  11.407  -0.239  1.00  0.00     0.004 C 
ENDBRANCH  10  11
ENDBRANCH   9  10
ENDBRANCH   8   9
ENDBRANCH   7   8
ENDBRANCH   6   7
ENDBRANCH   5   6
ENDBRANCH   4   5
ENDBRANCH   3   4
ENDBRANCH   2   3
ENDBRANCH   1   2
BRANCH   1  13
ATOM     13  C   UNL     1      53.147  16.671   2.274  1.00  0.00     0.000 C 
BRANCH  13  14
ATOM     14  C   UNL     1      52.341  17.876   2.803  1.00  0.00     0.000 C 
BRANCH  14  15
ATOM     15  C   UNL     1      51.218  18.316   1.843  1.00  0.00     0.000 C 
BRANCH  15  16
ATOM     16  C   UNL     1      50.281  19.367   2.473  1.00  0.00     0.000 C 
BRANCH  16  17
ATOM     17  C   UNL     1      48.791  19.167   2.124  1.00  0.00     0.000 C 
BRANCH  17  18
ATOM     18  C   UNL     1      48.024  20.454   1.779  1.00  0.00     0.000 C 
BRANCH  18  19
ATOM     19  C   UNL     1      47.138  20.304   0.534  1.00  0.00     0.000 C 
BRANCH  19  20
ATOM     20  C   UNL     1      47.729  21.071  -0.658  1.00  0.00     0.006 C 
BRANCH  20  21
ATOM     21  C   UNL     1      48.112  20.136  -1.813  1.00  0.00     0.053 C 
BRANCH  21  22
ATOM     22  C   UNL     1      49.455  19.509  -1.596  1.00  0.00     0.041 C 
ATOM     23  O   UNL     1      49.542  18.303  -1.243  1.00  0.00    -0.550 OA
ATOM     24  O   UNL     1      50.611  20.264  -1.753  1.00  0.00    -0.550 OA
ENDBRANCH  21  22
ENDBRANCH  20  21
ENDBRANCH  19  20
ENDBRANCH  18  19
ENDBRANCH  17  18
ENDBRANCH  16  17
ENDBRANCH  15  16
ENDBRANCH  14  15
ENDBRANCH  13  14
ENDBRANCH   1  13
TORSDOF 20
ENDMDL
MODEL 9
REMARK VINA RESULT:    -5.463      2.751      5.571
REMARK INTER + INTRA:         -14.881
REMARK INTER:                 -12.025
REMARK INTRA:                  -2.855
REMARK UNBOUND:                -3.031
REMARK SMILES CCCCCCCCCCCCCCCCCCCCCC(=O)[O-]
REMARK SMILES IDX 12 1 11 2 10 3 9 4 8 5 7 6 6 7 5 8 4 9 3 10 2 11 1 12 13 13
REMARK SMILES IDX 14 14 15 15 16 16 17 17 18 18 19 19 20 20 21 21 22 22 23 23
REMARK SMILES IDX 24 24
REMARK H PARENT
REMARK Flexibility Score: inf
ROOT
ATOM      1  C   UNL     1      55.279  13.630  -0.076  1.00  0.00     0.000 C 
ENDROOT
BRANCH   1   2
ATOM      2  C   UNL     1      53.787  13.372  -0.365  1.00  0.00     0.000 C 
BRANCH   2   3
ATOM      3  C   UNL     1      52.971  14.612  -0.779  1.00  0.00     0.000 C 
BRANCH   3   4
ATOM      4  C   UNL     1      53.743  15.546  -1.727  1.00  0.00    -0.000 C 
BRANCH   4   5
ATOM      5  C   UNL     1      53.330  17.017  -1.569  1.00  0.00    -0.000 C 
BRANCH   5   6
ATOM      6  C   UNL     1      54.480  17.910  -1.071  1.00  0.00    -0.000 C 
BRANCH   6   7
ATOM      7  C   UNL     1      55.776  17.123  -0.796  1.00  0.00    -0.000 C 
BRANCH   7   8
ATOM      8  C   UNL     1      56.166  16.997   0.689  1.00  0.00    -0.000 C 
BRANCH   8   9
ATOM      9  C   UNL     1      55.233  17.778   1.627  1.00  0.00    -0.000 C 
BRANCH   9  10
ATOM     10  C   UNL     1      54.275  16.825   2.357  1.00  0.00    -0.000 C 
BRANCH  10  11
ATOM     11  C   UNL     1      52.968  17.512   2.778  1.00  0.00    -0.003 C 
ATOM     12  C   UNL     1      51.900  17.468   1.684  1.00  0.00     0.004 C 
ENDBRANCH  10  11
ENDBRANCH   9  10
ENDBRANCH   8   9
ENDBRANCH   7   8
ENDBRANCH   6   7
ENDBRANCH   5   6
ENDBRANCH   4   5
ENDBRANCH   3   4
ENDBRANCH   2   3
ENDBRANCH   1   2
BRANCH   1  13
ATOM     13  C   UNL     1      56.171  12.374  -0.013  1.00  0.00     0.000 C 
BRANCH  13  14
ATOM     14  C   UNL     1      57.664  12.652  -0.287  1.00  0.00     0.000 C 
BRANCH  14  15
ATOM     15  C   UNL     1      58.248  13.749   0.624  1.00  0.00     0.000 C 
BRANCH  15  16
ATOM     16  C   UNL     1      59.081  14.785  -0.158  1.00  0.00     0.000 C 
BRANCH  16  17
ATOM     17  C   UNL     1      60.571  14.820   0.241  1.00  0.00     0.000 C 
BRANCH  17  18
ATOM     18  C   UNL     1      61.403  13.618  -0.236  1.00  0.00     0.000 C 
BRANCH  18  19
ATOM     19  C   UNL     1      62.051  12.844   0.921  1.00  0.00     0.000 C 
BRANCH  19  20
ATOM     20  C   UNL     1      62.223  11.360   0.564  1.00  0.00     0.006 C 
BRANCH  20  21
ATOM     21  C   UNL     1      61.047  10.827  -0.266  1.00  0.00     0.053 C 
BRANCH  21  22
ATOM     22  C   UNL     1      60.357   9.688   0.420  1.00  0.00     0.041 C 
ATOM     23  O   UNL     1      59.728   9.883   1.494  1.00  0.00    -0.550 OA
ATOM     24  O   UNL     1      60.432   8.405  -0.109  1.00  0.00    -0.550 OA
ENDBRANCH  21  22
ENDBRANCH  20  21
ENDBRANCH  19  20
ENDBRANCH  18  19
ENDBRANCH  17  18
ENDBRANCH  16  17
ENDBRANCH  15  16
ENDBRANCH  14  15
ENDBRANCH  13  14
ENDBRANCH   1  13
TORSDOF 20
ENDMDL
