MODEL 1
REMARK VINA RESULT:    -5.704      0.000      0.000
REMARK INTER + INTRA:          -6.584
REMARK INTER:                  -6.371
REMARK INTRA:                  -0.213
REMARK UNBOUND:                -0.213
REMARK SMILES O=C([O-])C=Cc1ccccc1
REMARK SMILES IDX 4 1 5 2 2 3 1 4 3 5 6 6 7 7 11 8 8 9 10 10 9 11
REMARK H PARENT
REMARK Flexibility Score: inf
ROOT
ATOM      1  C   UNL     1     -10.354  -1.756 -10.053  1.00  0.00     0.025 C 
ATOM      2  C   UNL     1     -11.042  -0.793 -10.688  1.00  0.00     0.010 C 
ENDROOT
BRANCH   1   3
ATOM      3  C   UNL     1     -10.862  -2.591  -8.946  1.00  0.00     0.064 C 
ATOM      4  O   UNL     1     -10.555  -2.354  -7.748  1.00  0.00    -0.545 OA
ATOM      5  O   UNL     1     -11.751  -3.619  -9.228  1.00  0.00    -0.545 OA
ENDBRANCH   1   3
BRANCH   2   6
ATOM      6  C   UNL     1     -12.362  -0.272 -10.280  1.00  0.00    -0.026 A 
ATOM      7  C   UNL     1     -12.484   0.951  -9.595  1.00  0.00     0.008 A 
ATOM      8  C   UNL     1     -13.523  -0.957 -10.672  1.00  0.00     0.008 A 
ATOM      9  C   UNL     1     -13.747   1.450  -9.265  1.00  0.00     0.001 A 
ATOM     10  C   UNL     1     -14.785  -0.455 -10.339  1.00  0.00     0.001 A 
ATOM     11  C   UNL     1     -14.897   0.745  -9.632  1.00  0.00     0.000 A 
ENDBRANCH   2   6
TORSDOF 2
ENDMDL
MODEL 2
REMARK VINA RESULT:    -5.487      3.202      4.723
REMARK INTER + INTRA:          -6.342
REMARK INTER:                  -6.846
REMARK INTRA:                   0.504
REMARK UNBOUND:                -0.213
REMARK SMILES O=C([O-])C=Cc1ccccc1
REMARK SMILES IDX 4 1 5 2 2 3 1 4 3 5 6 6 7 7 11 8 8 9 10 10 9 11
REMARK H PARENT
REMARK Flexibility Score: inf
ROOT
ATOM      1  C   UNL     1     -13.871   3.616  -8.501  1.00  0.00     0.025 C 
ATOM      2  C   UNL     1     -14.592   2.549  -8.884  1.00  0.00     0.010 C 
ENDROOT
BRANCH   1   3
ATOM      3  C   UNL     1     -12.450   3.857  -8.822  1.00  0.00     0.064 C 
ATOM      4  O   UNL     1     -12.087   4.216  -9.973  1.00  0.00    -0.545 OA
ATOM      5  O   UNL     1     -11.502   3.750  -7.815  1.00  0.00    -0.545 OA
ENDBRANCH   1   3
BRANCH   2   6
ATOM      6  C   UNL     1     -14.050   1.341  -9.538  1.00  0.00    -0.026 A 
ATOM      7  C   UNL     1     -12.688   1.005  -9.439  1.00  0.00     0.008 A 
ATOM      8  C   UNL     1     -14.929   0.456 -10.184  1.00  0.00     0.008 A 
ATOM      9  C   UNL     1     -12.208  -0.172 -10.022  1.00  0.00     0.001 A 
ATOM     10  C   UNL     1     -14.446  -0.720 -10.767  1.00  0.00     0.001 A 
ATOM     11  C   UNL     1     -13.086  -1.031 -10.691  1.00  0.00     0.000 A 
ENDBRANCH   2   6
TORSDOF 2
ENDMDL
MODEL 3
REMARK VINA RESULT:    -4.985      3.629      5.944
REMARK INTER + INTRA:          -5.781
REMARK INTER:                  -5.500
REMARK INTRA:                  -0.281
REMARK UNBOUND:                -0.213
REMARK SMILES O=C([O-])C=Cc1ccccc1
REMARK SMILES IDX 4 1 5 2 2 3 1 4 3 5 6 6 7 7 11 8 8 9 10 10 9 11
REMARK H PARENT
REMARK Flexibility Score: inf
ROOT
ATOM      1  C   UNL     1      -9.933  -4.278  -9.274  1.00  0.00     0.025 C 
ATOM      2  C   UNL     1     -10.067  -5.431  -8.598  1.00  0.00     0.010 C 
ENDROOT
BRANCH   1   3
ATOM      3  C   UNL     1     -10.716  -3.048  -9.045  1.00  0.00     0.064 C 
ATOM      4  O   UNL     1     -11.803  -2.838  -9.644  1.00  0.00    -0.545 OA
ATOM      5  O   UNL     1     -10.276  -2.133  -8.097  1.00  0.00    -0.545 OA
ENDBRANCH   1   3
BRANCH   2   6
ATOM      6  C   UNL     1     -11.141  -5.735  -7.630  1.00  0.00    -0.026 A 
ATOM      7  C   UNL     1     -12.374  -6.266  -8.051  1.00  0.00     0.008 A 
ATOM      8  C   UNL     1     -10.890  -5.591  -6.256  1.00  0.00     0.008 A 
ATOM      9  C   UNL     1     -13.356  -6.596  -7.112  1.00  0.00     0.001 A 
ATOM     10  C   UNL     1     -11.875  -5.921  -5.320  1.00  0.00     0.001 A 
ATOM     11  C   UNL     1     -13.109  -6.418  -5.747  1.00  0.00     0.000 A 
ENDBRANCH   2   6
TORSDOF 2
ENDMDL
MODEL 4
REMARK VINA RESULT:    -4.951      3.593      4.786
REMARK INTER + INTRA:          -5.743
REMARK INTER:                  -6.420
REMARK INTRA:                   0.677
REMARK UNBOUND:                -0.213
REMARK SMILES O=C([O-])C=Cc1ccccc1
REMARK SMILES IDX 4 1 5 2 2 3 1 4 3 5 6 6 7 7 11 8 8 9 10 10 9 11
REMARK H PARENT
REMARK Flexibility Score: inf
ROOT
ATOM      1  C   UNL     1     -12.060   3.707  -8.483  1.00  0.00     0.025 C 
ATOM      2  C   UNL     1     -11.769   2.497  -8.986  1.00  0.00     0.010 C 
ENDROOT
BRANCH   1   3
ATOM      3  C   UNL     1     -13.407   4.187  -8.116  1.00  0.00     0.064 C 
ATOM      4  O   UNL     1     -13.932   3.895  -7.009  1.00  0.00    -0.545 OA
ATOM      5  O   UNL     1     -14.083   5.035  -8.983  1.00  0.00    -0.545 OA
ENDBRANCH   1   3
BRANCH   2   6
ATOM      6  C   UNL     1     -12.758   1.494  -9.431  1.00  0.00    -0.026 A 
ATOM      7  C   UNL     1     -14.126   1.811  -9.529  1.00  0.00     0.008 A 
ATOM      8  C   UNL     1     -12.314   0.235  -9.865  1.00  0.00     0.008 A 
ATOM      9  C   UNL     1     -15.036   0.862 -10.003  1.00  0.00     0.001 A 
ATOM     10  C   UNL     1     -13.228  -0.712 -10.338  1.00  0.00     0.001 A 
ATOM     11  C   UNL     1     -14.588  -0.401 -10.402  1.00  0.00     0.000 A 
ENDBRANCH   2   6
TORSDOF 2
ENDMDL
MODEL 5
REMARK VINA RESULT:    -4.576      3.981      6.381
REMARK INTER + INTRA:          -5.324
REMARK INTER:                  -5.186
REMARK INTRA:                  -0.138
REMARK UNBOUND:                -0.213
REMARK SMILES O=C([O-])C=Cc1ccccc1
REMARK SMILES IDX 4 1 5 2 2 3 1 4 3 5 6 6 7 7 11 8 8 9 10 10 9 11
REMARK H PARENT
REMARK Flexibility Score: inf
ROOT
ATOM      1  C   UNL     1     -11.176  -3.823  -9.238  1.00  0.00     0.025 C 
ATOM      2  C   UNL     1     -11.720  -5.036  -9.044  1.00  0.00     0.010 C 
ENDROOT
BRANCH   1   3
ATOM      3  C   UNL     1     -10.077  -3.234  -8.448  1.00  0.00     0.064 C 
ATOM      4  O   UNL     1     -10.267  -2.247  -7.689  1.00  0.00    -0.545 OA
ATOM      5  O   UNL     1      -8.821  -3.824  -8.491  1.00  0.00    -0.545 OA
ENDBRANCH   1   3
BRANCH   2   6
ATOM      6  C   UNL     1     -11.444  -5.924  -7.896  1.00  0.00    -0.026 A 
ATOM      7  C   UNL     1     -11.811  -5.561  -6.588  1.00  0.00     0.008 A 
ATOM      8  C   UNL     1     -10.899  -7.197  -8.127  1.00  0.00     0.008 A 
ATOM      9  C   UNL     1     -11.588  -6.440  -5.524  1.00  0.00     0.001 A 
ATOM     10  C   UNL     1     -10.676  -8.074  -7.061  1.00  0.00     0.001 A 
ATOM     11  C   UNL     1     -11.015  -7.694  -5.760  1.00  0.00     0.000 A 
ENDBRANCH   2   6
TORSDOF 2
ENDMDL
MODEL 6
REMARK VINA RESULT:    -4.476      3.794      6.216
REMARK INTER + INTRA:          -5.213
REMARK INTER:                  -5.009
REMARK INTRA:                  -0.204
REMARK UNBOUND:                -0.213
REMARK SMILES O=C([O-])C=Cc1ccccc1
REMARK SMILES IDX 4 1 5 2 2 3 1 4 3 5 6 6 7 7 11 8 8 9 10 10 9 11
REMARK H PARENT
REMARK Flexibility Score: inf
ROOT
ATOM      1  C   UNL     1     -10.307  -3.425  -7.936  1.00  0.00     0.025 C 
ATOM      2  C   UNL     1     -10.594  -4.422  -7.084  1.00  0.00     0.010 C 
ENDROOT
BRANCH   1   3
ATOM      3  C   UNL     1     -10.770  -3.326  -9.335  1.00  0.00     0.064 C 
ATOM      4  O   UNL     1     -11.927  -2.919  -9.618  1.00  0.00    -0.545 OA
ATOM      5  O   UNL     1      -9.886  -3.626 -10.362  1.00  0.00    -0.545 OA
ENDBRANCH   1   3
BRANCH   2   6
ATOM      6  C   UNL     1     -11.271  -5.685  -7.440  1.00  0.00    -0.026 A 
ATOM      7  C   UNL     1     -10.622  -6.670  -8.208  1.00  0.00     0.008 A 
ATOM      8  C   UNL     1     -12.546  -5.954  -6.918  1.00  0.00     0.008 A 
ATOM      9  C   UNL     1     -11.264  -7.879  -8.490  1.00  0.00     0.001 A 
ATOM     10  C   UNL     1     -13.185  -7.165  -7.201  1.00  0.00     0.001 A 
ATOM     11  C   UNL     1     -12.546  -8.125  -7.991  1.00  0.00     0.000 A 
ENDBRANCH   2   6
TORSDOF 2
ENDMDL
MODEL 7
REMARK VINA RESULT:    -4.437      3.959      5.674
REMARK INTER + INTRA:          -5.169
REMARK INTER:                  -4.941
REMARK INTRA:                  -0.228
REMARK UNBOUND:                -0.213
REMARK SMILES O=C([O-])C=Cc1ccccc1
REMARK SMILES IDX 4 1 5 2 2 3 1 4 3 5 6 6 7 7 11 8 8 9 10 10 9 11
REMARK H PARENT
REMARK Flexibility Score: inf
ROOT
ATOM      1  C   UNL     1     -11.240  -7.345  -6.816  1.00  0.00     0.025 C 
ATOM      2  C   UNL     1     -10.689  -6.868  -7.943  1.00  0.00     0.010 C 
ENDROOT
BRANCH   1   3
ATOM      3  C   UNL     1     -11.988  -6.553  -5.819  1.00  0.00     0.064 C 
ATOM      4  O   UNL     1     -11.397  -5.904  -4.916  1.00  0.00    -0.545 OA
ATOM      5  O   UNL     1     -13.370  -6.468  -5.921  1.00  0.00    -0.545 OA
ENDBRANCH   1   3
BRANCH   2   6
ATOM      6  C   UNL     1     -10.571  -5.439  -8.301  1.00  0.00    -0.026 A 
ATOM      7  C   UNL     1      -9.359  -4.744  -8.141  1.00  0.00     0.008 A 
ATOM      8  C   UNL     1     -11.659  -4.790  -8.907  1.00  0.00     0.008 A 
ATOM      9  C   UNL     1      -9.257  -3.406  -8.535  1.00  0.00     0.001 A 
ATOM     10  C   UNL     1     -11.553  -3.452  -9.300  1.00  0.00     0.001 A 
ATOM     11  C   UNL     1     -10.355  -2.759  -9.109  1.00  0.00     0.000 A 
ENDBRANCH   2   6
TORSDOF 2
ENDMDL
MODEL 8
REMARK VINA RESULT:    -4.394      4.431      6.089
REMARK INTER + INTRA:          -5.121
REMARK INTER:                  -5.001
REMARK INTRA:                  -0.121
REMARK UNBOUND:                -0.213
REMARK SMILES O=C([O-])C=Cc1ccccc1
REMARK SMILES IDX 4 1 5 2 2 3 1 4 3 5 6 6 7 7 11 8 8 9 10 10 9 11
REMARK H PARENT
REMARK Flexibility Score: inf
ROOT
ATOM      1  C   UNL     1     -12.091  -6.392  -5.447  1.00  0.00     0.025 C 
ATOM      2  C   UNL     1     -11.034  -5.588  -5.645  1.00  0.00     0.010 C 
ENDROOT
BRANCH   1   3
ATOM      3  C   UNL     1     -12.987  -6.913  -6.499  1.00  0.00     0.064 C 
ATOM      4  O   UNL     1     -13.984  -6.256  -6.900  1.00  0.00    -0.545 OA
ATOM      5  O   UNL     1     -12.684  -8.124  -7.106  1.00  0.00    -0.545 OA
ENDBRANCH   1   3
BRANCH   2   6
ATOM      6  C   UNL     1     -10.683  -4.934  -6.921  1.00  0.00    -0.026 A 
ATOM      7  C   UNL     1     -10.733  -3.535  -7.063  1.00  0.00     0.008 A 
ATOM      8  C   UNL     1     -10.190  -5.712  -7.981  1.00  0.00     0.008 A 
ATOM      9  C   UNL     1     -10.346  -2.934  -8.264  1.00  0.00     0.001 A 
ATOM     10  C   UNL     1      -9.804  -5.108  -9.181  1.00  0.00     0.001 A 
ATOM     11  C   UNL     1      -9.887  -3.721  -9.325  1.00  0.00     0.000 A 
ENDBRANCH   2   6
TORSDOF 2
ENDMDL
MODEL 9
REMARK VINA RESULT:    -4.149     16.203     17.456
REMARK INTER + INTRA:          -4.847
REMARK INTER:                  -4.631
REMARK INTRA:                  -0.216
REMARK UNBOUND:                -0.213
REMARK SMILES O=C([O-])C=Cc1ccccc1
REMARK SMILES IDX 4 1 5 2 2 3 1 4 3 5 6 6 7 7 11 8 8 9 10 10 9 11
REMARK H PARENT
REMARK Flexibility Score: inf
ROOT
ATOM      1  C   UNL     1     -13.930   5.936   4.447  1.00  0.00     0.025 C 
ATOM      2  C   UNL     1     -12.980   4.989   4.499  1.00  0.00     0.010 C 
ENDROOT
BRANCH   1   3
ATOM      3  C   UNL     1     -14.039   7.100   5.349  1.00  0.00     0.064 C 
ATOM      4  O   UNL     1     -13.832   8.272   4.940  1.00  0.00    -0.545 OA
ATOM      5  O   UNL     1     -14.442   6.902   6.662  1.00  0.00    -0.545 OA
ENDBRANCH   1   3
BRANCH   2   6
ATOM      6  C   UNL     1     -11.980   4.837   5.576  1.00  0.00    -0.026 A 
ATOM      7  C   UNL     1     -10.762   5.540   5.545  1.00  0.00     0.008 A 
ATOM      8  C   UNL     1     -12.294   4.060   6.702  1.00  0.00     0.008 A 
ATOM      9  C   UNL     1      -9.853   5.422   6.601  1.00  0.00     0.001 A 
ATOM     10  C   UNL     1     -11.383   3.943   7.756  1.00  0.00     0.001 A 
ATOM     11  C   UNL     1     -10.161   4.620   7.703  1.00  0.00     0.000 A 
ENDBRANCH   2   6
TORSDOF 2
ENDMDL
