MODEL 1
REMARK VINA RESULT:    10.125      0.000      0.000
REMARK INTER + INTRA:          13.544
REMARK INTER:                  13.085
REMARK INTRA:                   0.459
REMARK UNBOUND:                 0.459
REMARK SMILES CCO[C@@H]1O[C@@H](CO)[C@@H](O)[C@@H](O)[C@@H]1O
REMARK SMILES IDX 4 1 13 2 11 3 9 4 6 5 5 6 3 7 2 8 1 9 14 10 12 12 7 14 8 15
REMARK SMILES IDX 10 17
REMARK H PARENT 14 11 12 13 8 16 10 18
REMARK Flexibility Score: inf
ROOT
ATOM      1  C   UNL     1      83.853 107.790 104.685  1.00  0.00     0.281 C 
ATOM      2  C   UNL     1      83.904 109.218 104.108  1.00  0.00     0.202 C 
ATOM      3  C   UNL     1      84.242 109.183 102.608  1.00  0.00     0.179 C 
ATOM      4  C   UNL     1      83.298 108.206 101.879  1.00  0.00     0.177 C 
ATOM      5  C   UNL     1      83.334 106.839 102.598  1.00  0.00     0.178 C 
ATOM      6  O   UNL     1      82.940 106.978 103.955  1.00  0.00    -0.341 OA
ENDROOT
BRANCH   1   7
ATOM      7  O   UNL     1      85.155 107.223 104.704  1.00  0.00    -0.350 OA
BRANCH   7   8
ATOM      8  C   UNL     1      85.605 107.080 106.035  1.00  0.00     0.160 C 
ATOM      9  C   UNL     1      86.501 108.257 106.386  1.00  0.00     0.035 C 
ENDBRANCH   7   8
ENDBRANCH   1   7
BRANCH   2  10
ATOM     10  O   UNL     1      84.866 109.967 104.805  1.00  0.00    -0.385 OA
ATOM     11  H   UNL     1      84.374 110.563 105.427  1.00  0.00     0.211 HD
ENDBRANCH   2  10
BRANCH   3  12
ATOM     12  O   UNL     1      84.124 110.473 102.067  1.00  0.00    -0.387 OA
ATOM     13  H   UNL     1      84.490 110.430 101.144  1.00  0.00     0.211 HD
ENDBRANCH   3  12
BRANCH   5  14
ATOM     14  C   UNL     1      82.407 105.820 101.922  1.00  0.00     0.191 C 
BRANCH  14  15
ATOM     15  O   UNL     1      83.022 104.562 101.875  1.00  0.00    -0.394 OA
ATOM     16  H   UNL     1      83.497 104.455 102.739  1.00  0.00     0.210 HD
ENDBRANCH  14  15
ENDBRANCH   5  14
BRANCH   4  17
ATOM     17  O   UNL     1      81.985 108.709 101.875  1.00  0.00    -0.387 OA
ATOM     18  H   UNL     1      81.805 109.043 100.958  1.00  0.00     0.211 HD
ENDBRANCH   4  17
TORSDOF 7
ENDMDL
MODEL 2
REMARK VINA RESULT:    10.347      1.643      4.602
REMARK INTER + INTRA:          13.830
REMARK INTER:                  11.948
REMARK INTRA:                   1.882
REMARK UNBOUND:                 0.459
REMARK SMILES CCO[C@@H]1O[C@@H](CO)[C@@H](O)[C@@H](O)[C@@H]1O
REMARK SMILES IDX 4 1 13 2 11 3 9 4 6 5 5 6 3 7 2 8 1 9 14 10 12 12 7 14 8 15
REMARK SMILES IDX 10 17
REMARK H PARENT 14 11 12 13 8 16 10 18
REMARK Flexibility Score: inf
ROOT
ATOM      1  C   UNL     1      84.209 108.803 103.616  1.00  0.00     0.281 C 
ATOM      2  C   UNL     1      82.882 108.440 104.309  1.00  0.00     0.202 C 
ATOM      3  C   UNL     1      83.044 107.164 105.152  1.00  0.00     0.179 C 
ATOM      4  C   UNL     1      84.264 107.301 106.085  1.00  0.00     0.177 C 
ATOM      5  C   UNL     1      85.498 107.701 105.245  1.00  0.00     0.178 C 
ATOM      6  O   UNL     1      85.263 108.924 104.564  1.00  0.00    -0.341 OA
ENDROOT
BRANCH   1   7
ATOM      7  O   UNL     1      84.517 107.843 102.615  1.00  0.00    -0.350 OA
BRANCH   7   8
ATOM      8  C   UNL     1      83.335 107.399 101.983  1.00  0.00     0.160 C 
ATOM      9  C   UNL     1      83.368 105.883 101.875  1.00  0.00     0.035 C 
ENDBRANCH   7   8
ENDBRANCH   1   7
BRANCH   2  10
ATOM     10  O   UNL     1      81.884 108.256 103.338  1.00  0.00    -0.385 OA
ATOM     11  H   UNL     1      81.173 107.703 103.755  1.00  0.00     0.211 HD
ENDBRANCH   2  10
BRANCH   3  12
ATOM     12  O   UNL     1      81.877 106.941 105.902  1.00  0.00    -0.387 OA
ATOM     13  H   UNL     1      82.098 107.162 106.845  1.00  0.00     0.211 HD
ENDBRANCH   3  12
BRANCH   5  14
ATOM     14  C   UNL     1      86.749 107.861 106.119  1.00  0.00     0.191 C 
BRANCH  14  15
ATOM     15  O   UNL     1      86.714 109.086 106.797  1.00  0.00    -0.394 OA
ATOM     16  H   UNL     1      87.243 108.956 107.627  1.00  0.00     0.210 HD
ENDBRANCH  14  15
ENDBRANCH   5  14
BRANCH   4  17
ATOM     17  O   UNL     1      84.018 108.276 107.068  1.00  0.00    -0.387 OA
ATOM     18  H   UNL     1      84.114 109.161 106.629  1.00  0.00     0.211 HD
ENDBRANCH   4  17
TORSDOF 7
ENDMDL
MODEL 3
REMARK VINA RESULT:    11.195      1.523      4.080
REMARK INTER + INTRA:          14.926
REMARK INTER:                  13.587
REMARK INTRA:                   1.338
REMARK UNBOUND:                 0.459
REMARK SMILES CCO[C@@H]1O[C@@H](CO)[C@@H](O)[C@@H](O)[C@@H]1O
REMARK SMILES IDX 4 1 13 2 11 3 9 4 6 5 5 6 3 7 2 8 1 9 14 10 12 12 7 14 8 15
REMARK SMILES IDX 10 17
REMARK H PARENT 14 11 12 13 8 16 10 18
REMARK Flexibility Score: inf
ROOT
ATOM      1  C   UNL     1      81.991 107.882 103.943  1.00  0.00     0.281 C 
ATOM      2  C   UNL     1      82.605 107.799 105.354  1.00  0.00     0.202 C 
ATOM      3  C   UNL     1      84.081 107.373 105.275  1.00  0.00     0.179 C 
ATOM      4  C   UNL     1      84.836 108.270 104.275  1.00  0.00     0.177 C 
ATOM      5  C   UNL     1      84.076 108.275 102.930  1.00  0.00     0.178 C 
ATOM      6  O   UNL     1      82.750 108.749 103.107  1.00  0.00    -0.341 OA
ENDROOT
BRANCH   1   7
ATOM      7  O   UNL     1      81.878 106.583 103.380  1.00  0.00    -0.350 OA
BRANCH   7   8
ATOM      8  C   UNL     1      82.335 106.587 102.044  1.00  0.00     0.160 C 
ATOM      9  C   UNL     1      83.443 105.558 101.894  1.00  0.00     0.035 C 
ENDBRANCH   7   8
ENDBRANCH   1   7
BRANCH   2  10
ATOM     10  O   UNL     1      81.875 106.880 106.126  1.00  0.00    -0.385 OA
ATOM     11  H   UNL     1      82.194 106.971 107.061  1.00  0.00     0.211 HD
ENDBRANCH   2  10
BRANCH   3  12
ATOM     12  O   UNL     1      84.666 107.459 106.550  1.00  0.00    -0.387 OA
ATOM     13  H   UNL     1      85.503 106.925 106.516  1.00  0.00     0.211 HD
ENDBRANCH   3  12
BRANCH   5  14
ATOM     14  C   UNL     1      84.776 109.159 101.889  1.00  0.00     0.191 C 
BRANCH  14  15
ATOM     15  O   UNL     1      84.525 110.512 102.154  1.00  0.00    -0.394 OA
ATOM     16  H   UNL     1      83.725 110.753 101.618  1.00  0.00     0.210 HD
ENDBRANCH  14  15
ENDBRANCH   5  14
BRANCH   4  17
ATOM     17  O   UNL     1      84.932 109.582 104.774  1.00  0.00    -0.387 OA
ATOM     18  H   UNL     1      84.013 109.870 105.012  1.00  0.00     0.211 HD
ENDBRANCH   4  17
TORSDOF 7
ENDMDL
