MODEL 1
REMARK VINA RESULT:    -4.172      0.000      0.000
REMARK INTER + INTRA:          -4.666
REMARK INTER:                  -4.538
REMARK INTRA:                  -0.128
REMARK UNBOUND:                -0.128
REMARK SMILES Cc1ccc(C(C)C)cc1O
REMARK SMILES IDX 1 1 2 2 10 3 9 4 5 5 4 6 3 7 11 8 6 10 7 11 8 12
REMARK H PARENT 11 9
REMARK Flexibility Score: inf
ROOT
ATOM      1  C   UNL     1     112.705 118.762 119.728  1.00  0.00     0.048 C 
ATOM      2  C   UNL     1     113.802 118.192 118.874  1.00  0.00    -0.009 A 
ATOM      3  C   UNL     1     114.797 119.033 118.345  1.00  0.00     0.118 A 
ATOM      4  C   UNL     1     115.817 118.494 117.549  1.00  0.00     0.050 A 
ATOM      5  C   UNL     1     115.859 117.115 117.271  1.00  0.00    -0.042 A 
ATOM      6  C   UNL     1     114.861 116.284 117.805  1.00  0.00     0.004 A 
ATOM      7  C   UNL     1     113.843 116.817 118.599  1.00  0.00     0.007 A 
ENDROOT
BRANCH   3   8
ATOM      8  O   UNL     1     114.768 120.402 118.612  1.00  0.00    -0.508 OA
ATOM      9  H   UNL     1     114.852 121.089 117.872  1.00  0.00     0.293 HD
ENDBRANCH   3   8
BRANCH   5  10
ATOM     10  C   UNL     1     116.960 116.522 116.410  1.00  0.00     0.013 C 
ATOM     11  C   UNL     1     116.505 116.379 114.954  1.00  0.00     0.012 C 
ATOM     12  C   UNL     1     117.439 115.179 116.973  1.00  0.00     0.012 C 
ENDBRANCH   5  10
TORSDOF 2
ENDMDL
MODEL 2
REMARK VINA RESULT:    -4.167      2.745      3.711
REMARK INTER + INTRA:          -4.661
REMARK INTER:                  -4.533
REMARK INTRA:                  -0.128
REMARK UNBOUND:                -0.128
REMARK SMILES Cc1ccc(C(C)C)cc1O
REMARK SMILES IDX 1 1 2 2 10 3 9 4 5 5 4 6 3 7 11 8 6 10 7 11 8 12
REMARK H PARENT 11 9
REMARK Flexibility Score: inf
ROOT
ATOM      1  C   UNL     1     114.457 112.721 119.754  1.00  0.00     0.048 C 
ATOM      2  C   UNL     1     115.024 113.806 118.884  1.00  0.00    -0.009 A 
ATOM      3  C   UNL     1     114.185 114.802 118.355  1.00  0.00     0.118 A 
ATOM      4  C   UNL     1     114.722 115.811 117.545  1.00  0.00     0.050 A 
ATOM      5  C   UNL     1     116.098 115.842 117.252  1.00  0.00    -0.042 A 
ATOM      6  C   UNL     1     116.927 114.843 117.785  1.00  0.00     0.004 A 
ATOM      7  C   UNL     1     116.397 113.836 118.594  1.00  0.00     0.007 A 
ENDROOT
BRANCH   3   8
ATOM      8  O   UNL     1     112.818 114.785 118.638  1.00  0.00    -0.508 OA
ATOM      9  H   UNL     1     112.296 113.917 118.678  1.00  0.00     0.293 HD
ENDBRANCH   3   8
BRANCH   5  10
ATOM     10  C   UNL     1     116.689 116.931 116.375  1.00  0.00     0.013 C 
ATOM     11  C   UNL     1     116.838 116.453 114.926  1.00  0.00     0.012 C 
ATOM     12  C   UNL     1     118.028 117.424 116.933  1.00  0.00     0.012 C 
ENDBRANCH   5  10
TORSDOF 2
ENDMDL
MODEL 3
REMARK VINA RESULT:    -4.162      2.730      3.709
REMARK INTER + INTRA:          -4.654
REMARK INTER:                  -4.526
REMARK INTRA:                  -0.128
REMARK UNBOUND:                -0.128
REMARK SMILES Cc1ccc(C(C)C)cc1O
REMARK SMILES IDX 1 1 2 2 10 3 9 4 5 5 4 6 3 7 11 8 6 10 7 11 8 12
REMARK H PARENT 11 9
REMARK Flexibility Score: inf
ROOT
ATOM      1  C   UNL     1     118.764 120.493 119.715  1.00  0.00     0.048 C 
ATOM      2  C   UNL     1     118.179 119.400 118.867  1.00  0.00    -0.009 A 
ATOM      3  C   UNL     1     119.005 118.392 118.340  1.00  0.00     0.118 A 
ATOM      4  C   UNL     1     118.451 117.375 117.550  1.00  0.00     0.050 A 
ATOM      5  C   UNL     1     117.072 117.350 117.276  1.00  0.00    -0.042 A 
ATOM      6  C   UNL     1     116.255 118.361 117.806  1.00  0.00     0.004 A 
ATOM      7  C   UNL     1     116.802 119.376 118.594  1.00  0.00     0.007 A 
ENDROOT
BRANCH   3   8
ATOM      8  O   UNL     1     120.375 118.404 118.605  1.00  0.00    -0.508 OA
ATOM      9  H   UNL     1     120.749 118.826 119.448  1.00  0.00     0.293 HD
ENDBRANCH   3   8
BRANCH   5  10
ATOM     10  C   UNL     1     116.463 116.253 116.420  1.00  0.00     0.013 C 
ATOM     11  C   UNL     1     116.303 116.710 114.966  1.00  0.00     0.012 C 
ATOM     12  C   UNL     1     115.125 115.779 117.000  1.00  0.00     0.012 C 
ENDBRANCH   5  10
TORSDOF 2
ENDMDL
MODEL 4
REMARK VINA RESULT:    -4.140      3.254      5.360
REMARK INTER + INTRA:          -4.631
REMARK INTER:                  -4.527
REMARK INTRA:                  -0.104
REMARK UNBOUND:                -0.128
REMARK SMILES Cc1ccc(C(C)C)cc1O
REMARK SMILES IDX 1 1 2 2 10 3 9 4 5 5 4 6 3 7 11 8 6 10 7 11 8 12
REMARK H PARENT 11 9
REMARK Flexibility Score: inf
ROOT
ATOM      1  C   UNL     1     120.385 113.948 119.690  1.00  0.00     0.048 C 
ATOM      2  C   UNL     1     119.465 114.800 118.864  1.00  0.00    -0.009 A 
ATOM      3  C   UNL     1     118.412 114.212 118.141  1.00  0.00     0.118 A 
ATOM      4  C   UNL     1     117.557 115.014 117.373  1.00  0.00     0.050 A 
ATOM      5  C   UNL     1     117.739 116.408 117.315  1.00  0.00    -0.042 A 
ATOM      6  C   UNL     1     118.793 116.985 118.041  1.00  0.00     0.004 A 
ATOM      7  C   UNL     1     119.647 116.190 118.808  1.00  0.00     0.007 A 
ENDROOT
BRANCH   3   8
ATOM      8  O   UNL     1     118.219 112.831 118.189  1.00  0.00    -0.508 OA
ATOM      9  H   UNL     1     117.699 112.393 118.941  1.00  0.00     0.293 HD
ENDBRANCH   3   8
BRANCH   5  10
ATOM     10  C   UNL     1     116.818 117.285 116.485  1.00  0.00     0.013 C 
ATOM     11  C   UNL     1     115.666 117.834 117.334  1.00  0.00     0.012 C 
ATOM     12  C   UNL     1     116.291 116.529 115.261  1.00  0.00     0.012 C 
ENDBRANCH   5  10
TORSDOF 2
ENDMDL
MODEL 5
REMARK VINA RESULT:    -4.094      2.158      3.316
REMARK INTER + INTRA:          -4.581
REMARK INTER:                  -4.478
REMARK INTRA:                  -0.103
REMARK UNBOUND:                -0.128
REMARK SMILES Cc1ccc(C(C)C)cc1O
REMARK SMILES IDX 1 1 2 2 10 3 9 4 5 5 4 6 3 7 11 8 6 10 7 11 8 12
REMARK H PARENT 11 9
REMARK Flexibility Score: inf
ROOT
ATOM      1  C   UNL     1     118.773 120.589 119.786  1.00  0.00     0.048 C 
ATOM      2  C   UNL     1     118.212 119.498 118.919  1.00  0.00    -0.009 A 
ATOM      3  C   UNL     1     116.828 119.419 118.688  1.00  0.00     0.118 A 
ATOM      4  C   UNL     1     116.312 118.398 117.877  1.00  0.00     0.050 A 
ATOM      5  C   UNL     1     117.166 117.447 117.288  1.00  0.00    -0.042 A 
ATOM      6  C   UNL     1     118.547 117.536 117.525  1.00  0.00     0.004 A 
ATOM      7  C   UNL     1     119.065 118.552 118.332  1.00  0.00     0.007 A 
ENDROOT
BRANCH   3   8
ATOM      8  O   UNL     1     115.969 120.355 119.264  1.00  0.00    -0.508 OA
ATOM      9  H   UNL     1     114.963 120.292 119.154  1.00  0.00     0.293 HD
ENDBRANCH   3   8
BRANCH   5  10
ATOM     10  C   UNL     1     116.616 116.338 116.409  1.00  0.00     0.013 C 
ATOM     11  C   UNL     1     116.540 116.781 114.943  1.00  0.00     0.012 C 
ATOM     12  C   UNL     1     115.250 115.860 116.912  1.00  0.00     0.012 C 
ENDBRANCH   5  10
TORSDOF 2
ENDMDL
MODEL 6
REMARK VINA RESULT:    -4.092      1.472      2.073
REMARK INTER + INTRA:          -4.579
REMARK INTER:                  -4.476
REMARK INTRA:                  -0.103
REMARK UNBOUND:                -0.128
REMARK SMILES Cc1ccc(C(C)C)cc1O
REMARK SMILES IDX 1 1 2 2 10 3 9 4 5 5 4 6 3 7 11 8 6 10 7 11 8 12
REMARK H PARENT 11 9
REMARK Flexibility Score: inf
ROOT
ATOM      1  C   UNL     1     112.616 118.785 119.784  1.00  0.00     0.048 C 
ATOM      2  C   UNL     1     113.708 118.224 118.919  1.00  0.00    -0.009 A 
ATOM      3  C   UNL     1     113.782 116.841 118.678  1.00  0.00     0.118 A 
ATOM      4  C   UNL     1     114.804 116.325 117.869  1.00  0.00     0.050 A 
ATOM      5  C   UNL     1     115.762 117.178 117.291  1.00  0.00    -0.042 A 
ATOM      6  C   UNL     1     115.680 118.558 117.538  1.00  0.00     0.004 A 
ATOM      7  C   UNL     1     114.663 119.076 118.343  1.00  0.00     0.007 A 
ENDROOT
BRANCH   3   8
ATOM      8  O   UNL     1     112.838 115.983 119.243  1.00  0.00    -0.508 OA
ATOM      9  H   UNL     1     113.059 115.017 119.456  1.00  0.00     0.293 HD
ENDBRANCH   3   8
BRANCH   5  10
ATOM     10  C   UNL     1     116.873 116.629 116.414  1.00  0.00     0.013 C 
ATOM     11  C   UNL     1     116.435 116.558 114.947  1.00  0.00     0.012 C 
ATOM     12  C   UNL     1     117.348 115.260 116.915  1.00  0.00     0.012 C 
ENDBRANCH   5  10
TORSDOF 2
ENDMDL
MODEL 7
REMARK VINA RESULT:    -4.091      2.830      4.743
REMARK INTER + INTRA:          -4.578
REMARK INTER:                  -4.478
REMARK INTRA:                  -0.100
REMARK UNBOUND:                -0.128
REMARK SMILES Cc1ccc(C(C)C)cc1O
REMARK SMILES IDX 1 1 2 2 10 3 9 4 5 5 4 6 3 7 11 8 6 10 7 11 8 12
REMARK H PARENT 11 9
REMARK Flexibility Score: inf
ROOT
ATOM      1  C   UNL     1     120.511 114.702 120.001  1.00  0.00     0.048 C 
ATOM      2  C   UNL     1     119.450 115.188 119.055  1.00  0.00    -0.009 A 
ATOM      3  C   UNL     1     119.419 116.536 118.657  1.00  0.00     0.118 A 
ATOM      4  C   UNL     1     118.427 116.983 117.774  1.00  0.00     0.050 A 
ATOM      5  C   UNL     1     117.455 116.094 117.277  1.00  0.00    -0.042 A 
ATOM      6  C   UNL     1     117.494 114.750 117.681  1.00  0.00     0.004 A 
ATOM      7  C   UNL     1     118.482 114.301 118.560  1.00  0.00     0.007 A 
ENDROOT
BRANCH   3   8
ATOM      8  O   UNL     1     120.377 117.428 119.141  1.00  0.00    -0.508 OA
ATOM      9  H   UNL     1     120.849 117.272 120.025  1.00  0.00     0.293 HD
ENDBRANCH   3   8
BRANCH   5  10
ATOM     10  C   UNL     1     116.375 116.569 116.321  1.00  0.00     0.013 C 
ATOM     11  C   UNL     1     116.915 116.681 114.891  1.00  0.00     0.012 C 
ATOM     12  C   UNL     1     115.768 117.896 116.788  1.00  0.00     0.012 C 
ENDBRANCH   5  10
TORSDOF 2
ENDMDL
MODEL 8
REMARK VINA RESULT:    -4.065      3.235      4.160
REMARK INTER + INTRA:          -4.550
REMARK INTER:                  -4.448
REMARK INTRA:                  -0.101
REMARK UNBOUND:                -0.128
REMARK SMILES Cc1ccc(C(C)C)cc1O
REMARK SMILES IDX 1 1 2 2 10 3 9 4 5 5 4 6 3 7 11 8 6 10 7 11 8 12
REMARK H PARENT 11 9
REMARK Flexibility Score: inf
ROOT
ATOM      1  C   UNL     1     114.711 112.565 119.963  1.00  0.00     0.048 C 
ATOM      2  C   UNL     1     115.202 113.658 119.058  1.00  0.00    -0.009 A 
ATOM      3  C   UNL     1     116.563 113.735 118.714  1.00  0.00     0.118 A 
ATOM      4  C   UNL     1     117.014 114.757 117.868  1.00  0.00     0.050 A 
ATOM      5  C   UNL     1     116.118 115.714 117.356  1.00  0.00    -0.042 A 
ATOM      6  C   UNL     1     114.761 115.628 117.706  1.00  0.00     0.004 A 
ATOM      7  C   UNL     1     114.307 114.611 118.548  1.00  0.00     0.007 A 
ENDROOT
BRANCH   3   8
ATOM      8  O   UNL     1     117.463 112.793 119.213  1.00  0.00    -0.508 OA
ATOM      9  H   UNL     1     117.725 112.776 120.192  1.00  0.00     0.293 HD
ENDBRANCH   3   8
BRANCH   5  10
ATOM     10  C   UNL     1     116.597 116.825 116.439  1.00  0.00     0.013 C 
ATOM     11  C   UNL     1     116.684 116.345 114.986  1.00  0.00     0.012 C 
ATOM     12  C   UNL     1     117.939 117.393 116.914  1.00  0.00     0.012 C 
ENDBRANCH   5  10
TORSDOF 2
ENDMDL
MODEL 9
REMARK VINA RESULT:    -3.701      1.537      2.278
REMARK INTER + INTRA:          -4.153
REMARK INTER:                  -4.026
REMARK INTRA:                  -0.128
REMARK UNBOUND:                -0.128
REMARK SMILES Cc1ccc(C(C)C)cc1O
REMARK SMILES IDX 1 1 2 2 10 3 9 4 5 5 4 6 3 7 11 8 6 10 7 11 8 12
REMARK H PARENT 11 9
REMARK Flexibility Score: inf
ROOT
ATOM      1  C   UNL     1     115.881 120.736 120.369  1.00  0.00     0.048 C 
ATOM      2  C   UNL     1     115.960 119.642 119.342  1.00  0.00    -0.009 A 
ATOM      3  C   UNL     1     115.083 119.636 118.243  1.00  0.00     0.118 A 
ATOM      4  C   UNL     1     115.164 118.613 117.289  1.00  0.00     0.050 A 
ATOM      5  C   UNL     1     116.117 117.585 117.416  1.00  0.00    -0.042 A 
ATOM      6  C   UNL     1     116.988 117.601 118.517  1.00  0.00     0.004 A 
ATOM      7  C   UNL     1     116.912 118.619 119.470  1.00  0.00     0.007 A 
ENDROOT
BRANCH   3   8
ATOM      8  O   UNL     1     114.134 120.649 118.104  1.00  0.00    -0.508 OA
ATOM      9  H   UNL     1     113.161 120.503 118.351  1.00  0.00     0.293 HD
ENDBRANCH   3   8
BRANCH   5  10
ATOM     10  C   UNL     1     116.212 116.472 116.388  1.00  0.00     0.013 C 
ATOM     11  C   UNL     1     117.167 115.369 116.855  1.00  0.00     0.012 C 
ATOM     12  C   UNL     1     116.628 117.020 115.018  1.00  0.00     0.012 C 
ENDBRANCH   5  10
TORSDOF 2
ENDMDL
