MODEL 1
REMARK VINA RESULT:    -5.076      0.000      0.000
REMARK INTER + INTRA:          -5.649
REMARK INTER:                  -5.522
REMARK INTRA:                  -0.127
REMARK UNBOUND:                -0.127
REMARK SMILES Cc1ccc(C(C)C)cc1O
REMARK SMILES IDX 1 1 2 2 10 3 9 4 5 5 4 6 3 7 11 8 6 10 7 11 8 12
REMARK H PARENT 11 9
REMARK Flexibility Score: inf
ROOT
ATOM      1  C   UNL     1      49.475  33.993  58.030  1.00  0.00     0.048 C 
ATOM      2  C   UNL     1      48.527  33.526  59.101  1.00  0.00    -0.009 A 
ATOM      3  C   UNL     1      47.589  32.501  58.851  1.00  0.00     0.118 A 
ATOM      4  C   UNL     1      46.720  32.090  59.868  1.00  0.00     0.050 A 
ATOM      5  C   UNL     1      46.767  32.683  61.143  1.00  0.00    -0.042 A 
ATOM      6  C   UNL     1      47.702  33.702  61.382  1.00  0.00     0.004 A 
ATOM      7  C   UNL     1      48.573  34.119  60.373  1.00  0.00     0.007 A 
ENDROOT
BRANCH   3   8
ATOM      8  O   UNL     1      47.494  31.873  57.606  1.00  0.00    -0.508 OA
ATOM      9  H   UNL     1      46.614  31.726  57.128  1.00  0.00     0.293 HD
ENDBRANCH   3   8
BRANCH   5  10
ATOM     10  C   UNL     1      45.828  32.240  62.249  1.00  0.00     0.013 C 
ATOM     11  C   UNL     1      44.416  32.796  62.032  1.00  0.00     0.012 C 
ATOM     12  C   UNL     1      46.371  32.638  63.627  1.00  0.00     0.012 C 
ENDBRANCH   5  10
TORSDOF 2
ENDMDL
MODEL 2
REMARK VINA RESULT:    -4.796     10.556     12.152
REMARK INTER + INTRA:          -5.343
REMARK INTER:                  -5.215
REMARK INTRA:                  -0.128
REMARK UNBOUND:                -0.127
REMARK SMILES Cc1ccc(C(C)C)cc1O
REMARK SMILES IDX 1 1 2 2 10 3 9 4 5 5 4 6 3 7 11 8 6 10 7 11 8 12
REMARK H PARENT 11 9
REMARK Flexibility Score: inf
ROOT
ATOM      1  C   UNL     1      40.740  27.329  56.025  1.00  0.00     0.048 C 
ATOM      2  C   UNL     1      41.327  26.502  54.914  1.00  0.00    -0.009 A 
ATOM      3  C   UNL     1      40.522  26.017  53.859  1.00  0.00     0.118 A 
ATOM      4  C   UNL     1      41.098  25.248  52.842  1.00  0.00     0.050 A 
ATOM      5  C   UNL     1      42.473  24.949  52.851  1.00  0.00    -0.042 A 
ATOM      6  C   UNL     1      43.265  25.436  53.903  1.00  0.00     0.004 A 
ATOM      7  C   UNL     1      42.699  26.203  54.923  1.00  0.00     0.007 A 
ENDROOT
BRANCH   3   8
ATOM      8  O   UNL     1      39.151  26.279  53.795  1.00  0.00    -0.508 OA
ATOM      9  H   UNL     1      38.774  27.198  53.602  1.00  0.00     0.293 HD
ENDBRANCH   3   8
BRANCH   5  10
ATOM     10  C   UNL     1      43.102  24.118  51.749  1.00  0.00     0.013 C 
ATOM     11  C   UNL     1      43.322  22.671  52.205  1.00  0.00     0.012 C 
ATOM     12  C   UNL     1      44.413  24.747  51.261  1.00  0.00     0.012 C 
ENDBRANCH   5  10
TORSDOF 2
ENDMDL
MODEL 3
REMARK VINA RESULT:    -4.614     15.810     16.936
REMARK INTER + INTRA:          -5.146
REMARK INTER:                  -5.039
REMARK INTRA:                  -0.107
REMARK UNBOUND:                -0.127
REMARK SMILES Cc1ccc(C(C)C)cc1O
REMARK SMILES IDX 1 1 2 2 10 3 9 4 5 5 4 6 3 7 11 8 6 10 7 11 8 12
REMARK H PARENT 11 9
REMARK Flexibility Score: inf
ROOT
ATOM      1  C   UNL     1      41.551  21.706  52.796  1.00  0.00     0.048 C 
ATOM      2  C   UNL     1      40.441  20.813  53.282  1.00  0.00    -0.009 A 
ATOM      3  C   UNL     1      39.334  21.338  53.985  1.00  0.00     0.118 A 
ATOM      4  C   UNL     1      38.320  20.481  54.425  1.00  0.00     0.050 A 
ATOM      5  C   UNL     1      38.384  19.098  54.178  1.00  0.00    -0.042 A 
ATOM      6  C   UNL     1      39.487  18.585  53.479  1.00  0.00     0.004 A 
ATOM      7  C   UNL     1      40.505  19.432  53.036  1.00  0.00     0.007 A 
ENDROOT
BRANCH   3   8
ATOM      8  O   UNL     1      39.215  22.703  54.262  1.00  0.00    -0.508 OA
ATOM      9  H   UNL     1      39.285  23.084  55.197  1.00  0.00     0.293 HD
ENDBRANCH   3   8
BRANCH   5  10
ATOM     10  C   UNL     1      37.285  18.165  54.652  1.00  0.00     0.013 C 
ATOM     11  C   UNL     1      36.326  17.813  53.509  1.00  0.00     0.012 C 
ATOM     12  C   UNL     1      36.527  18.764  55.843  1.00  0.00     0.012 C 
ENDBRANCH   5  10
TORSDOF 2
ENDMDL
MODEL 4
REMARK VINA RESULT:    -4.611     17.475     18.782
REMARK INTER + INTRA:          -5.142
REMARK INTER:                  -5.018
REMARK INTRA:                  -0.124
REMARK UNBOUND:                -0.127
REMARK SMILES Cc1ccc(C(C)C)cc1O
REMARK SMILES IDX 1 1 2 2 10 3 9 4 5 5 4 6 3 7 11 8 6 10 7 11 8 12
REMARK H PARENT 11 9
REMARK Flexibility Score: inf
ROOT
ATOM      1  C   UNL     1      37.951  21.385  55.364  1.00  0.00     0.048 C 
ATOM      2  C   UNL     1      37.923  20.065  54.642  1.00  0.00    -0.009 A 
ATOM      3  C   UNL     1      39.114  19.353  54.374  1.00  0.00     0.118 A 
ATOM      4  C   UNL     1      39.055  18.129  53.699  1.00  0.00     0.050 A 
ATOM      5  C   UNL     1      37.823  17.591  53.283  1.00  0.00    -0.042 A 
ATOM      6  C   UNL     1      36.646  18.304  53.555  1.00  0.00     0.004 A 
ATOM      7  C   UNL     1      36.695  19.528  54.227  1.00  0.00     0.007 A 
ENDROOT
BRANCH   3   8
ATOM      8  O   UNL     1      40.366  19.836  54.761  1.00  0.00    -0.508 OA
ATOM      9  H   UNL     1      41.177  19.240  54.870  1.00  0.00     0.293 HD
ENDBRANCH   3   8
BRANCH   5  10
ATOM     10  C   UNL     1      37.754  16.263  52.553  1.00  0.00     0.013 C 
ATOM     11  C   UNL     1      36.553  15.435  53.023  1.00  0.00     0.012 C 
ATOM     12  C   UNL     1      39.061  15.476  52.711  1.00  0.00     0.012 C 
ENDBRANCH   5  10
TORSDOF 2
ENDMDL
MODEL 5
REMARK VINA RESULT:    -4.596     17.103     18.334
REMARK INTER + INTRA:          -5.127
REMARK INTER:                  -5.016
REMARK INTRA:                  -0.111
REMARK UNBOUND:                -0.127
REMARK SMILES Cc1ccc(C(C)C)cc1O
REMARK SMILES IDX 1 1 2 2 10 3 9 4 5 5 4 6 3 7 11 8 6 10 7 11 8 12
REMARK H PARENT 11 9
REMARK Flexibility Score: inf
ROOT
ATOM      1  C   UNL     1      39.941  15.361  52.635  1.00  0.00     0.048 C 
ATOM      2  C   UNL     1      39.319  16.633  53.145  1.00  0.00    -0.009 A 
ATOM      3  C   UNL     1      40.071  17.824  53.250  1.00  0.00     0.118 A 
ATOM      4  C   UNL     1      39.464  18.990  53.728  1.00  0.00     0.050 A 
ATOM      5  C   UNL     1      38.109  18.997  54.108  1.00  0.00    -0.042 A 
ATOM      6  C   UNL     1      37.370  17.808  54.000  1.00  0.00     0.004 A 
ATOM      7  C   UNL     1      37.968  16.640  53.524  1.00  0.00     0.007 A 
ENDROOT
BRANCH   3   8
ATOM      8  O   UNL     1      41.420  17.880  52.890  1.00  0.00    -0.508 OA
ATOM      9  H   UNL     1      42.050  17.094  52.986  1.00  0.00     0.293 HD
ENDBRANCH   3   8
BRANCH   5  10
ATOM     10  C   UNL     1      37.446  20.259  54.626  1.00  0.00     0.013 C 
ATOM     11  C   UNL     1      36.466  20.832  53.596  1.00  0.00     0.012 C 
ATOM     12  C   UNL     1      38.491  21.304  55.035  1.00  0.00     0.012 C 
ENDBRANCH   5  10
TORSDOF 2
ENDMDL
MODEL 6
REMARK VINA RESULT:    -4.482     15.940     17.069
REMARK INTER + INTRA:          -5.002
REMARK INTER:                  -4.874
REMARK INTRA:                  -0.128
REMARK UNBOUND:                -0.127
REMARK SMILES Cc1ccc(C(C)C)cc1O
REMARK SMILES IDX 1 1 2 2 10 3 9 4 5 5 4 6 3 7 11 8 6 10 7 11 8 12
REMARK H PARENT 11 9
REMARK Flexibility Score: inf
ROOT
ATOM      1  C   UNL     1      40.178  22.740  51.988  1.00  0.00     0.048 C 
ATOM      2  C   UNL     1      39.458  21.582  52.624  1.00  0.00    -0.009 A 
ATOM      3  C   UNL     1      40.129  20.692  53.492  1.00  0.00     0.118 A 
ATOM      4  C   UNL     1      39.431  19.624  54.067  1.00  0.00     0.050 A 
ATOM      5  C   UNL     1      38.066  19.421  53.795  1.00  0.00    -0.042 A 
ATOM      6  C   UNL     1      37.409  20.310  52.931  1.00  0.00     0.004 A 
ATOM      7  C   UNL     1      38.096  21.379  52.351  1.00  0.00     0.007 A 
ENDROOT
BRANCH   3   8
ATOM      8  O   UNL     1      41.483  20.841  53.801  1.00  0.00    -0.508 OA
ATOM      9  H   UNL     1      41.815  21.083  54.726  1.00  0.00     0.293 HD
ENDBRANCH   3   8
BRANCH   5  10
ATOM     10  C   UNL     1      37.306  18.265  54.417  1.00  0.00     0.013 C 
ATOM     11  C   UNL     1      36.323  17.647  53.416  1.00  0.00     0.012 C 
ATOM     12  C   UNL     1      36.585  18.703  55.698  1.00  0.00     0.012 C 
ENDBRANCH   5  10
TORSDOF 2
ENDMDL
MODEL 7
REMARK VINA RESULT:    -4.276     17.475     18.704
REMARK INTER + INTRA:          -4.778
REMARK INTER:                  -4.653
REMARK INTRA:                  -0.125
REMARK UNBOUND:                -0.127
REMARK SMILES Cc1ccc(C(C)C)cc1O
REMARK SMILES IDX 1 1 2 2 10 3 9 4 5 5 4 6 3 7 11 8 6 10 7 11 8 12
REMARK H PARENT 11 9
REMARK Flexibility Score: inf
ROOT
ATOM      1  C   UNL     1      39.131  21.800  54.065  1.00  0.00     0.048 C 
ATOM      2  C   UNL     1      38.525  20.433  53.899  1.00  0.00    -0.009 A 
ATOM      3  C   UNL     1      37.148  20.270  53.633  1.00  0.00     0.118 A 
ATOM      4  C   UNL     1      36.615  18.985  53.486  1.00  0.00     0.050 A 
ATOM      5  C   UNL     1      37.433  17.845  53.599  1.00  0.00    -0.042 A 
ATOM      6  C   UNL     1      38.800  18.017  53.863  1.00  0.00     0.004 A 
ATOM      7  C   UNL     1      39.341  19.296  54.012  1.00  0.00     0.007 A 
ENDROOT
BRANCH   3   8
ATOM      8  O   UNL     1      36.285  21.362  53.511  1.00  0.00    -0.508 OA
ATOM      9  H   UNL     1      35.768  21.747  54.292  1.00  0.00     0.293 HD
ENDBRANCH   3   8
BRANCH   5  10
ATOM     10  C   UNL     1      36.860  16.450  53.439  1.00  0.00     0.013 C 
ATOM     11  C   UNL     1      37.846  15.526  52.715  1.00  0.00     0.012 C 
ATOM     12  C   UNL     1      35.508  16.487  52.716  1.00  0.00     0.012 C 
ENDBRANCH   5  10
TORSDOF 2
ENDMDL
MODEL 8
REMARK VINA RESULT:    -4.275     18.851     19.973
REMARK INTER + INTRA:          -4.777
REMARK INTER:                  -4.649
REMARK INTRA:                  -0.128
REMARK UNBOUND:                -0.127
REMARK SMILES Cc1ccc(C(C)C)cc1O
REMARK SMILES IDX 1 1 2 2 10 3 9 4 5 5 4 6 3 7 11 8 6 10 7 11 8 12
REMARK H PARENT 11 9
REMARK Flexibility Score: inf
ROOT
ATOM      1  C   UNL     1      40.249  14.636  52.170  1.00  0.00     0.048 C 
ATOM      2  C   UNL     1      39.250  15.629  52.699  1.00  0.00    -0.009 A 
ATOM      3  C   UNL     1      37.869  15.334  52.724  1.00  0.00     0.118 A 
ATOM      4  C   UNL     1      36.965  16.279  53.221  1.00  0.00     0.050 A 
ATOM      5  C   UNL     1      37.411  17.525  53.699  1.00  0.00    -0.042 A 
ATOM      6  C   UNL     1      38.785  17.809  53.671  1.00  0.00     0.004 A 
ATOM      7  C   UNL     1      39.695  16.872  53.176  1.00  0.00     0.007 A 
ENDROOT
BRANCH   3   8
ATOM      8  O   UNL     1      37.365  14.115  52.263  1.00  0.00    -0.508 OA
ATOM      9  H   UNL     1      36.410  13.996  51.950  1.00  0.00     0.293 HD
ENDBRANCH   3   8
BRANCH   5  10
ATOM     10  C   UNL     1      36.434  18.553  54.240  1.00  0.00     0.013 C 
ATOM     11  C   UNL     1      36.675  19.929  53.611  1.00  0.00     0.012 C 
ATOM     12  C   UNL     1      36.502  18.627  55.771  1.00  0.00     0.012 C 
ENDBRANCH   5  10
TORSDOF 2
ENDMDL
MODEL 9
REMARK VINA RESULT:    -4.211     17.624     18.930
REMARK INTER + INTRA:          -4.708
REMARK INTER:                  -4.585
REMARK INTRA:                  -0.123
REMARK UNBOUND:                -0.127
REMARK SMILES Cc1ccc(C(C)C)cc1O
REMARK SMILES IDX 1 1 2 2 10 3 9 4 5 5 4 6 3 7 11 8 6 10 7 11 8 12
REMARK H PARENT 11 9
REMARK Flexibility Score: inf
ROOT
ATOM      1  C   UNL     1      37.645  21.645  55.870  1.00  0.00     0.048 C 
ATOM      2  C   UNL     1      37.348  20.469  54.980  1.00  0.00    -0.009 A 
ATOM      3  C   UNL     1      36.837  19.263  55.507  1.00  0.00     0.118 A 
ATOM      4  C   UNL     1      36.572  18.187  54.653  1.00  0.00     0.050 A 
ATOM      5  C   UNL     1      36.806  18.288  53.269  1.00  0.00    -0.042 A 
ATOM      6  C   UNL     1      37.313  19.491  52.754  1.00  0.00     0.004 A 
ATOM      7  C   UNL     1      37.582  20.569  53.599  1.00  0.00     0.007 A 
ENDROOT
BRANCH   3   8
ATOM      8  O   UNL     1      36.584  19.102  56.872  1.00  0.00    -0.508 OA
ATOM      9  H   UNL     1      35.943  19.691  57.388  1.00  0.00     0.293 HD
ENDBRANCH   3   8
BRANCH   5  10
ATOM     10  C   UNL     1      36.519  17.125  52.338  1.00  0.00     0.013 C 
ATOM     11  C   UNL     1      36.204  15.849  53.128  1.00  0.00     0.012 C 
ATOM     12  C   UNL     1      37.681  16.897  51.364  1.00  0.00     0.012 C 
ENDBRANCH   5  10
TORSDOF 2
ENDMDL
