MODEL 1
REMARK VINA RESULT:    -5.962      0.000      0.000
REMARK INTER + INTRA:          -6.544
REMARK INTER:                  -6.310
REMARK INTRA:                  -0.233
REMARK UNBOUND:                -0.233
REMARK SMILES CC1=CC[C@@]23[C@@H]([C@@H](C(C)C)CC[C@H]2C)[C@H]13
REMARK SMILES IDX 14 1 13 2 12 3 11 4 7 5 6 6 5 7 15 8 2 9 3 10 4 11 1 12 8 13
REMARK SMILES IDX 9 14 10 15
REMARK H PARENT
REMARK Flexibility Score: inf
ROOT
ATOM      1  C   UNL     1     106.473 106.449 126.714  1.00  0.00     0.008 C 
ATOM      2  C   UNL     1     106.066 107.220 127.982  1.00  0.00    -0.007 C 
ATOM      3  C   UNL     1     105.289 106.295 128.946  1.00  0.00     0.004 C 
ATOM      4  C   UNL     1     103.829 106.127 128.519  1.00  0.00     0.004 C 
ATOM      5  C   UNL     1     103.067 107.460 128.638  1.00  0.00    -0.004 C 
ATOM      6  C   UNL     1     103.777 108.608 127.873  1.00  0.00     0.007 C 
ATOM      7  C   UNL     1     105.287 108.512 127.603  1.00  0.00    -0.013 C 
ATOM      8  C   UNL     1     104.773 109.370 128.758  1.00  0.00     0.025 C 
ATOM      9  C   UNL     1     105.066 110.772 128.342  1.00  0.00    -0.073 C 
ATOM     10  C   UNL     1     105.673 110.840 127.165  1.00  0.00    -0.027 C 
ATOM     11  C   UNL     1     105.891 109.491 126.578  1.00  0.00     0.035 C 
ATOM     12  C   UNL     1     104.704 111.972 129.158  1.00  0.00     0.039 C 
ENDROOT
BRANCH   5  13
ATOM     13  C   UNL     1     101.571 107.300 128.230  1.00  0.00    -0.014 C 
ATOM     14  C   UNL     1     100.715 106.555 129.271  1.00  0.00     0.007 C 
ATOM     15  C   UNL     1     101.435 106.629 126.854  1.00  0.00     0.007 C 
ENDBRANCH   5  13
TORSDOF 1
ENDMDL
MODEL 2
REMARK VINA RESULT:    -5.933      1.744      4.875
REMARK INTER + INTRA:          -6.513
REMARK INTER:                  -6.270
REMARK INTRA:                  -0.243
REMARK UNBOUND:                -0.233
REMARK SMILES CC1=CC[C@@]23[C@@H]([C@@H](C(C)C)CC[C@H]2C)[C@H]13
REMARK SMILES IDX 14 1 13 2 12 3 11 4 7 5 6 6 5 7 15 8 2 9 3 10 4 11 1 12 8 13
REMARK SMILES IDX 9 14 10 15
REMARK H PARENT
REMARK Flexibility Score: inf
ROOT
ATOM      1  C   UNL     1     103.040 104.465 125.132  1.00  0.00     0.008 C 
ATOM      2  C   UNL     1     102.173 105.684 125.491  1.00  0.00    -0.007 C 
ATOM      3  C   UNL     1     102.531 106.884 124.586  1.00  0.00     0.004 C 
ATOM      4  C   UNL     1     103.805 107.589 125.056  1.00  0.00     0.004 C 
ATOM      5  C   UNL     1     103.587 108.252 126.429  1.00  0.00    -0.004 C 
ATOM      6  C   UNL     1     103.046 107.249 127.482  1.00  0.00     0.007 C 
ATOM      7  C   UNL     1     102.285 106.000 127.010  1.00  0.00    -0.013 C 
ATOM      8  C   UNL     1     101.512 107.215 127.520  1.00  0.00     0.025 C 
ATOM      9  C   UNL     1     100.907 106.761 128.805  1.00  0.00    -0.073 C 
ATOM     10  C   UNL     1     101.193 105.498 129.088  1.00  0.00    -0.027 C 
ATOM     11  C   UNL     1     102.048 104.878 128.040  1.00  0.00     0.035 C 
ATOM     12  C   UNL     1     100.078 107.639 129.688  1.00  0.00     0.039 C 
ENDROOT
BRANCH   5  13
ATOM     13  C   UNL     1     104.869 108.998 126.912  1.00  0.00    -0.014 C 
ATOM     14  C   UNL     1     104.982 109.118 128.443  1.00  0.00     0.007 C 
ATOM     15  C   UNL     1     104.988 110.385 126.262  1.00  0.00     0.007 C 
ENDBRANCH   5  13
TORSDOF 1
ENDMDL
MODEL 3
REMARK VINA RESULT:    -5.926      3.093      5.454
REMARK INTER + INTRA:          -6.506
REMARK INTER:                  -6.295
REMARK INTRA:                  -0.211
REMARK UNBOUND:                -0.233
REMARK SMILES CC1=CC[C@@]23[C@@H]([C@@H](C(C)C)CC[C@H]2C)[C@H]13
REMARK SMILES IDX 14 1 13 2 12 3 11 4 7 5 6 6 5 7 15 8 2 9 3 10 4 11 1 12 8 13
REMARK SMILES IDX 9 14 10 15
REMARK H PARENT
REMARK Flexibility Score: inf
ROOT
ATOM      1  C   UNL     1     106.960 105.970 126.001  1.00  0.00     0.008 C 
ATOM      2  C   UNL     1     107.541 106.305 127.386  1.00  0.00    -0.007 C 
ATOM      3  C   UNL     1     106.458 106.947 128.282  1.00  0.00     0.004 C 
ATOM      4  C   UNL     1     106.254 108.428 127.954  1.00  0.00     0.004 C 
ATOM      5  C   UNL     1     107.512 109.244 128.305  1.00  0.00    -0.004 C 
ATOM      6  C   UNL     1     108.788 108.663 127.640  1.00  0.00     0.007 C 
ATOM      7  C   UNL     1     108.820 107.180 127.240  1.00  0.00    -0.013 C 
ATOM      8  C   UNL     1     109.495 107.634 128.533  1.00  0.00     0.025 C 
ATOM      9  C   UNL     1     110.953 107.451 128.278  1.00  0.00    -0.073 C 
ATOM     10  C   UNL     1     111.204 106.953 127.076  1.00  0.00    -0.027 C 
ATOM     11  C   UNL     1     109.953 106.718 126.304  1.00  0.00     0.035 C 
ATOM     12  C   UNL     1     112.018 107.802 129.268  1.00  0.00     0.039 C 
ENDROOT
BRANCH   5  13
ATOM     13  C   UNL     1     107.312 110.760 128.000  1.00  0.00    -0.014 C 
ATOM     14  C   UNL     1     107.176 111.638 129.258  1.00  0.00     0.007 C 
ATOM     15  C   UNL     1     106.115 110.989 127.063  1.00  0.00     0.007 C 
ENDBRANCH   5  13
TORSDOF 1
ENDMDL
MODEL 4
REMARK VINA RESULT:    -5.911      4.213      6.747
REMARK INTER + INTRA:          -6.490
REMARK INTER:                  -6.244
REMARK INTRA:                  -0.246
REMARK UNBOUND:                -0.233
REMARK SMILES CC1=CC[C@@]23[C@@H]([C@@H](C(C)C)CC[C@H]2C)[C@H]13
REMARK SMILES IDX 14 1 13 2 12 3 11 4 7 5 6 6 5 7 15 8 2 9 3 10 4 11 1 12 8 13
REMARK SMILES IDX 9 14 10 15
REMARK H PARENT
REMARK Flexibility Score: inf
ROOT
ATOM      1  C   UNL     1     107.969 103.077 125.117  1.00  0.00     0.008 C 
ATOM      2  C   UNL     1     106.761 102.196 125.479  1.00  0.00    -0.007 C 
ATOM      3  C   UNL     1     105.547 102.555 124.593  1.00  0.00     0.004 C 
ATOM      4  C   UNL     1     104.838 103.818 125.085  1.00  0.00     0.004 C 
ATOM      5  C   UNL     1     104.193 103.581 126.463  1.00  0.00    -0.004 C 
ATOM      6  C   UNL     1     105.212 103.035 127.498  1.00  0.00     0.007 C 
ATOM      7  C   UNL     1     106.461 102.290 127.003  1.00  0.00    -0.013 C 
ATOM      8  C   UNL     1     105.258 101.501 127.519  1.00  0.00     0.025 C 
ATOM      9  C   UNL     1     105.732 100.886 128.792  1.00  0.00    -0.073 C 
ATOM     10  C   UNL     1     106.995 101.178 129.063  1.00  0.00    -0.027 C 
ATOM     11  C   UNL     1     107.596 102.050 128.018  1.00  0.00     0.035 C 
ATOM     12  C   UNL     1     104.869 100.040 129.674  1.00  0.00     0.039 C 
ENDROOT
BRANCH   5  13
ATOM     13  C   UNL     1     103.443 104.851 126.969  1.00  0.00    -0.014 C 
ATOM     14  C   UNL     1     103.425 104.997 128.502  1.00  0.00     0.007 C 
ATOM     15  C   UNL     1     102.011 104.914 126.413  1.00  0.00     0.007 C 
ENDBRANCH   5  13
TORSDOF 1
ENDMDL
MODEL 5
REMARK VINA RESULT:    -5.896      3.680      6.290
REMARK INTER + INTRA:          -6.474
REMARK INTER:                  -6.180
REMARK INTRA:                  -0.294
REMARK UNBOUND:                -0.233
REMARK SMILES CC1=CC[C@@]23[C@@H]([C@@H](C(C)C)CC[C@H]2C)[C@H]13
REMARK SMILES IDX 14 1 13 2 12 3 11 4 7 5 6 6 5 7 15 8 2 9 3 10 4 11 1 12 8 13
REMARK SMILES IDX 9 14 10 15
REMARK H PARENT
REMARK Flexibility Score: inf
ROOT
ATOM      1  C   UNL     1     106.716 106.353 130.387  1.00  0.00     0.008 C 
ATOM      2  C   UNL     1     107.117 106.117 128.920  1.00  0.00    -0.007 C 
ATOM      3  C   UNL     1     107.917 104.802 128.786  1.00  0.00     0.004 C 
ATOM      4  C   UNL     1     109.376 104.979 129.210  1.00  0.00     0.004 C 
ATOM      5  C   UNL     1     110.114 105.925 128.244  1.00  0.00    -0.004 C 
ATOM      6  C   UNL     1     109.379 107.282 128.080  1.00  0.00     0.007 C 
ATOM      7  C   UNL     1     107.870 107.358 128.359  1.00  0.00    -0.013 C 
ATOM      8  C   UNL     1     108.375 107.264 126.920  1.00  0.00     0.025 C 
ATOM      9  C   UNL     1     108.054 108.593 126.324  1.00  0.00    -0.073 C 
ATOM     10  C   UNL     1     107.439 109.401 127.175  1.00  0.00    -0.027 C 
ATOM     11  C   UNL     1     107.241 108.757 128.502  1.00  0.00     0.035 C 
ATOM     12  C   UNL     1     108.399 108.977 124.920  1.00  0.00     0.039 C 
ENDROOT
BRANCH   5  13
ATOM     13  C   UNL     1     111.611 106.097 128.647  1.00  0.00    -0.014 C 
ATOM     14  C   UNL     1     112.131 105.006 129.602  1.00  0.00     0.007 C 
ATOM     15  C   UNL     1     111.875 107.490 129.240  1.00  0.00     0.007 C 
ENDBRANCH   5  13
TORSDOF 1
ENDMDL
MODEL 6
REMARK VINA RESULT:    -5.894      4.217      7.606
REMARK INTER + INTRA:          -6.472
REMARK INTER:                  -6.251
REMARK INTRA:                  -0.221
REMARK UNBOUND:                -0.233
REMARK SMILES CC1=CC[C@@]23[C@@H]([C@@H](C(C)C)CC[C@H]2C)[C@H]13
REMARK SMILES IDX 14 1 13 2 12 3 11 4 7 5 6 6 5 7 15 8 2 9 3 10 4 11 1 12 8 13
REMARK SMILES IDX 9 14 10 15
REMARK H PARENT
REMARK Flexibility Score: inf
ROOT
ATOM      1  C   UNL     1     105.960 105.619 126.121  1.00  0.00     0.008 C 
ATOM      2  C   UNL     1     106.294 105.006 127.492  1.00  0.00    -0.007 C 
ATOM      3  C   UNL     1     106.948 106.064 128.409  1.00  0.00     0.004 C 
ATOM      4  C   UNL     1     108.429 106.263 128.080  1.00  0.00     0.004 C 
ATOM      5  C   UNL     1     109.236 104.991 128.401  1.00  0.00    -0.004 C 
ATOM      6  C   UNL     1     108.642 103.734 127.711  1.00  0.00     0.007 C 
ATOM      7  C   UNL     1     107.157 103.724 127.316  1.00  0.00    -0.013 C 
ATOM      8  C   UNL     1     107.610 103.017 128.592  1.00  0.00     0.025 C 
ATOM      9  C   UNL     1     107.414 101.567 128.307  1.00  0.00    -0.073 C 
ATOM     10  C   UNL     1     106.910 101.346 127.101  1.00  0.00    -0.027 C 
ATOM     11  C   UNL     1     106.682 102.614 126.357  1.00  0.00     0.035 C 
ATOM     12  C   UNL     1     107.759 100.478 129.273  1.00  0.00     0.039 C 
ENDROOT
BRANCH   5  13
ATOM     13  C   UNL     1     110.753 105.185 128.095  1.00  0.00    -0.014 C 
ATOM     14  C   UNL     1     111.579 105.656 129.306  1.00  0.00     0.007 C 
ATOM     15  C   UNL     1     110.967 106.134 126.906  1.00  0.00     0.007 C 
ENDBRANCH   5  13
TORSDOF 1
ENDMDL
MODEL 7
REMARK VINA RESULT:    -5.876      5.724      6.939
REMARK INTER + INTRA:          -6.453
REMARK INTER:                  -6.208
REMARK INTRA:                  -0.245
REMARK UNBOUND:                -0.233
REMARK SMILES CC1=CC[C@@]23[C@@H]([C@@H](C(C)C)CC[C@H]2C)[C@H]13
REMARK SMILES IDX 14 1 13 2 12 3 11 4 7 5 6 6 5 7 15 8 2 9 3 10 4 11 1 12 8 13
REMARK SMILES IDX 9 14 10 15
REMARK H PARENT
REMARK Flexibility Score: inf
ROOT
ATOM      1  C   UNL     1     109.402 107.873 124.994  1.00  0.00     0.008 C 
ATOM      2  C   UNL     1     110.292 106.683 125.397  1.00  0.00    -0.007 C 
ATOM      3  C   UNL     1     109.966 105.449 124.527  1.00  0.00     0.004 C 
ATOM      4  C   UNL     1     108.703 104.732 125.007  1.00  0.00     0.004 C 
ATOM      5  C   UNL     1     108.922 104.116 126.401  1.00  0.00    -0.004 C 
ATOM      6  C   UNL     1     109.433 105.161 127.428  1.00  0.00     0.007 C 
ATOM      7  C   UNL     1     110.172 106.411 126.924  1.00  0.00    -0.013 C 
ATOM      8  C   UNL     1     110.966 105.229 127.478  1.00  0.00     0.025 C 
ATOM      9  C   UNL     1     111.549 105.734 128.753  1.00  0.00    -0.073 C 
ATOM     10  C   UNL     1     111.234 106.998 128.995  1.00  0.00    -0.027 C 
ATOM     11  C   UNL     1     110.376 107.568 127.921  1.00  0.00     0.035 C 
ATOM     12  C   UNL     1     112.389 104.900 129.669  1.00  0.00     0.039 C 
ENDROOT
BRANCH   5  13
ATOM     13  C   UNL     1     107.651 103.358 126.896  1.00  0.00    -0.014 C 
ATOM     14  C   UNL     1     107.488 103.346 128.428  1.00  0.00     0.007 C 
ATOM     15  C   UNL     1     107.605 101.924 126.347  1.00  0.00     0.007 C 
ENDBRANCH   5  13
TORSDOF 1
ENDMDL
MODEL 8
REMARK VINA RESULT:    -5.840      1.699      4.579
REMARK INTER + INTRA:          -6.415
REMARK INTER:                  -6.119
REMARK INTRA:                  -0.296
REMARK UNBOUND:                -0.233
REMARK SMILES CC1=CC[C@@]23[C@@H]([C@@H](C(C)C)CC[C@H]2C)[C@H]13
REMARK SMILES IDX 14 1 13 2 12 3 11 4 7 5 6 6 5 7 15 8 2 9 3 10 4 11 1 12 8 13
REMARK SMILES IDX 9 14 10 15
REMARK H PARENT
REMARK Flexibility Score: inf
ROOT
ATOM      1  C   UNL     1     106.173 106.624 130.438  1.00  0.00     0.008 C 
ATOM      2  C   UNL     1     106.353 107.007 128.959  1.00  0.00    -0.007 C 
ATOM      3  C   UNL     1     107.658 107.810 128.766  1.00  0.00     0.004 C 
ATOM      4  C   UNL     1     107.490 109.275 129.177  1.00  0.00     0.004 C 
ATOM      5  C   UNL     1     106.506 109.996 128.237  1.00  0.00    -0.004 C 
ATOM      6  C   UNL     1     105.148 109.253 128.133  1.00  0.00     0.007 C 
ATOM      7  C   UNL     1     105.089 107.747 128.434  1.00  0.00    -0.013 C 
ATOM      8  C   UNL     1     105.126 108.233 126.986  1.00  0.00     0.025 C 
ATOM      9  C   UNL     1     103.779 107.899 126.444  1.00  0.00    -0.073 C 
ATOM     10  C   UNL     1     103.005 107.292 127.333  1.00  0.00    -0.027 C 
ATOM     11  C   UNL     1     103.698 107.115 128.637  1.00  0.00     0.035 C 
ATOM     12  C   UNL     1     103.341 108.224 125.050  1.00  0.00     0.039 C 
ENDROOT
BRANCH   5  13
ATOM     13  C   UNL     1     106.342 111.497 128.626  1.00  0.00    -0.014 C 
ATOM     14  C   UNL     1     107.448 112.026 129.558  1.00  0.00     0.007 C 
ATOM     15  C   UNL     1     104.959 111.769 129.239  1.00  0.00     0.007 C 
ENDBRANCH   5  13
TORSDOF 1
ENDMDL
MODEL 9
REMARK VINA RESULT:    -5.835      3.111      5.137
REMARK INTER + INTRA:          -6.410
REMARK INTER:                  -6.170
REMARK INTRA:                  -0.239
REMARK UNBOUND:                -0.233
REMARK SMILES CC1=CC[C@@]23[C@@H]([C@@H](C(C)C)CC[C@H]2C)[C@H]13
REMARK SMILES IDX 14 1 13 2 12 3 11 4 7 5 6 6 5 7 15 8 2 9 3 10 4 11 1 12 8 13
REMARK SMILES IDX 9 14 10 15
REMARK H PARENT
REMARK Flexibility Score: inf
ROOT
ATOM      1  C   UNL     1     104.590 109.236 125.034  1.00  0.00     0.008 C 
ATOM      2  C   UNL     1     105.758 110.160 125.421  1.00  0.00    -0.007 C 
ATOM      3  C   UNL     1     106.999 109.852 124.553  1.00  0.00     0.004 C 
ATOM      4  C   UNL     1     107.747 108.614 125.052  1.00  0.00     0.004 C 
ATOM      5  C   UNL     1     108.359 108.868 126.442  1.00  0.00    -0.004 C 
ATOM      6  C   UNL     1     107.303 109.370 127.462  1.00  0.00     0.007 C 
ATOM      7  C   UNL     1     106.035 110.070 126.949  1.00  0.00    -0.013 C 
ATOM      8  C   UNL     1     107.198 110.900 127.489  1.00  0.00     0.025 C 
ATOM      9  C   UNL     1     106.681 111.491 128.757  1.00  0.00    -0.073 C 
ATOM     10  C   UNL     1     105.425 111.149 129.005  1.00  0.00    -0.027 C 
ATOM     11  C   UNL     1     104.875 110.261 127.945  1.00  0.00     0.035 C 
ATOM     12  C   UNL     1     107.495 112.364 129.658  1.00  0.00     0.039 C 
ENDROOT
BRANCH   5  13
ATOM     13  C   UNL     1     109.148 107.624 126.954  1.00  0.00    -0.014 C 
ATOM     14  C   UNL     1     109.296 107.566 128.486  1.00  0.00     0.007 C 
ATOM     15  C   UNL     1     110.527 107.521 126.284  1.00  0.00     0.007 C 
ENDBRANCH   5  13
TORSDOF 1
ENDMDL
