MODEL 1
REMARK VINA RESULT:     0.799      0.000      0.000
REMARK INTER + INTRA:           0.824
REMARK INTER:                   0.870
REMARK INTRA:                  -0.046
REMARK UNBOUND:                -0.046
REMARK SMILES CCc1cccc(O)c1
REMARK SMILES IDX 3 1 9 2 7 3 6 4 5 5 4 6 2 7 1 8 8 9
REMARK H PARENT 8 10
REMARK Flexibility Score: inf
ROOT
ATOM      1  C   UNL     1     -26.344  -2.822 -22.251  1.00  0.00    -0.045 A 
ATOM      2  C   UNL     1     -26.509  -1.645 -21.503  1.00  0.00     0.049 A 
ATOM      3  C   UNL     1     -26.894  -0.453 -22.133  1.00  0.00     0.115 A 
ATOM      4  C   UNL     1     -27.125  -0.439 -23.512  1.00  0.00     0.046 A 
ATOM      5  C   UNL     1     -26.977  -1.610 -24.261  1.00  0.00     0.004 A 
ATOM      6  C   UNL     1     -26.593  -2.800 -23.634  1.00  0.00     0.004 A 
ENDROOT
BRANCH   1   7
ATOM      7  C   UNL     1     -25.964  -4.109 -21.571  1.00  0.00     0.032 C 
ATOM      8  C   UNL     1     -24.591  -3.990 -20.917  1.00  0.00     0.009 C 
ENDBRANCH   1   7
BRANCH   3   9
ATOM      9  O   UNL     1     -27.052   0.720 -21.398  1.00  0.00    -0.508 OA
ATOM     10  H   UNL     1     -26.277   1.354 -21.240  1.00  0.00     0.293 HD
ENDBRANCH   3   9
TORSDOF 2
ENDMDL
MODEL 2
REMARK VINA RESULT:     1.056      2.315      3.630
REMARK INTER + INTRA:           1.103
REMARK INTER:                   1.176
REMARK INTRA:                  -0.073
REMARK UNBOUND:                -0.046
REMARK SMILES CCc1cccc(O)c1
REMARK SMILES IDX 3 1 9 2 7 3 6 4 5 5 4 6 2 7 1 8 8 9
REMARK H PARENT 8 10
REMARK Flexibility Score: inf
ROOT
ATOM      1  C   UNL     1     -26.964  -1.462 -22.426  1.00  0.00    -0.045 A 
ATOM      2  C   UNL     1     -27.007  -1.722 -23.805  1.00  0.00     0.049 A 
ATOM      3  C   UNL     1     -27.082  -3.042 -24.275  1.00  0.00     0.115 A 
ATOM      4  C   UNL     1     -27.124  -4.103 -23.364  1.00  0.00     0.046 A 
ATOM      5  C   UNL     1     -27.097  -3.849 -21.990  1.00  0.00     0.004 A 
ATOM      6  C   UNL     1     -27.023  -2.535 -21.520  1.00  0.00     0.004 A 
ENDROOT
BRANCH   1   7
ATOM      7  C   UNL     1     -26.917  -0.045 -21.920  1.00  0.00     0.032 C 
ATOM      8  C   UNL     1     -26.381   0.003 -20.493  1.00  0.00     0.009 C 
ENDBRANCH   1   7
BRANCH   3   9
ATOM      9  O   UNL     1     -27.116  -3.308 -25.641  1.00  0.00    -0.508 OA
ATOM     10  H   UNL     1     -26.788  -2.632 -26.321  1.00  0.00     0.293 HD
ENDBRANCH   3   9
TORSDOF 2
ENDMDL
MODEL 3
REMARK VINA RESULT:     1.312      2.087      2.822
REMARK INTER + INTRA:           1.381
REMARK INTER:                   1.437
REMARK INTRA:                  -0.056
REMARK UNBOUND:                -0.046
REMARK SMILES CCc1cccc(O)c1
REMARK SMILES IDX 3 1 9 2 7 3 6 4 5 5 4 6 2 7 1 8 8 9
REMARK H PARENT 8 10
REMARK Flexibility Score: inf
ROOT
ATOM      1  C   UNL     1     -27.052  -2.099 -23.493  1.00  0.00    -0.045 A 
ATOM      2  C   UNL     1     -27.068  -0.879 -24.189  1.00  0.00     0.049 A 
ATOM      3  C   UNL     1     -27.098  -0.864 -25.592  1.00  0.00     0.115 A 
ATOM      4  C   UNL     1     -27.123  -2.071 -26.299  1.00  0.00     0.046 A 
ATOM      5  C   UNL     1     -27.123  -3.288 -25.612  1.00  0.00     0.004 A 
ATOM      6  C   UNL     1     -27.093  -3.304 -24.214  1.00  0.00     0.004 A 
ENDROOT
BRANCH   1   7
ATOM      7  C   UNL     1     -27.054  -2.116 -21.988  1.00  0.00     0.032 C 
ATOM      8  C   UNL     1     -25.706  -2.585 -21.451  1.00  0.00     0.009 C 
ENDBRANCH   1   7
BRANCH   3   9
ATOM      9  O   UNL     1     -27.105   0.341 -26.289  1.00  0.00    -0.508 OA
ATOM     10  H   UNL     1     -26.471   0.510 -27.061  1.00  0.00     0.293 HD
ENDBRANCH   3   9
TORSDOF 2
ENDMDL
MODEL 4
REMARK VINA RESULT:     2.210     18.730     19.881
REMARK INTER + INTRA:           2.358
REMARK INTER:                   2.429
REMARK INTRA:                  -0.071
REMARK UNBOUND:                -0.046
REMARK SMILES CCc1cccc(O)c1
REMARK SMILES IDX 3 1 9 2 7 3 6 4 5 5 4 6 2 7 1 8 8 9
REMARK H PARENT 8 10
REMARK Flexibility Score: inf
ROOT
ATOM      1  C   UNL     1     -16.053  15.432 -24.483  1.00  0.00    -0.045 A 
ATOM      2  C   UNL     1     -17.181  16.103 -24.982  1.00  0.00     0.049 A 
ATOM      3  C   UNL     1     -18.431  15.468 -25.002  1.00  0.00     0.115 A 
ATOM      4  C   UNL     1     -18.556  14.164 -24.512  1.00  0.00     0.046 A 
ATOM      5  C   UNL     1     -17.440  13.496 -24.000  1.00  0.00     0.004 A 
ATOM      6  C   UNL     1     -16.192  14.128 -23.980  1.00  0.00     0.004 A 
ENDROOT
BRANCH   1   7
ATOM      7  C   UNL     1     -14.717  16.125 -24.431  1.00  0.00     0.032 C 
ATOM      8  C   UNL     1     -14.001  15.820 -23.120  1.00  0.00     0.009 C 
ENDBRANCH   1   7
BRANCH   3   9
ATOM      9  O   UNL     1     -19.553  16.123 -25.503  1.00  0.00    -0.508 OA
ATOM     10  H   UNL     1     -20.477  15.709 -25.449  1.00  0.00     0.293 HD
ENDBRANCH   3   9
TORSDOF 2
ENDMDL
MODEL 5
REMARK VINA RESULT:     3.408     17.897     18.950
REMARK INTER + INTRA:           3.661
REMARK INTER:                   3.709
REMARK INTRA:                  -0.047
REMARK UNBOUND:                -0.046
REMARK SMILES CCc1cccc(O)c1
REMARK SMILES IDX 3 1 9 2 7 3 6 4 5 5 4 6 2 7 1 8 8 9
REMARK H PARENT 8 10
REMARK Flexibility Score: inf
ROOT
ATOM      1  C   UNL     1     -17.511  13.668 -23.942  1.00  0.00    -0.045 A 
ATOM      2  C   UNL     1     -16.232  14.245 -23.994  1.00  0.00     0.049 A 
ATOM      3  C   UNL     1     -16.034  15.470 -24.648  1.00  0.00     0.115 A 
ATOM      4  C   UNL     1     -17.118  16.124 -25.243  1.00  0.00     0.046 A 
ATOM      5  C   UNL     1     -18.396  15.562 -25.182  1.00  0.00     0.004 A 
ATOM      6  C   UNL     1     -18.596  14.341 -24.530  1.00  0.00     0.004 A 
ENDROOT
BRANCH   1   7
ATOM      7  C   UNL     1     -17.731  12.371 -23.211  1.00  0.00     0.032 C 
ATOM      8  C   UNL     1     -17.347  11.185 -24.088  1.00  0.00     0.009 C 
ENDBRANCH   1   7
BRANCH   3   9
ATOM      9  O   UNL     1     -14.767  16.045 -24.710  1.00  0.00    -0.508 OA
ATOM     10  H   UNL     1     -14.380  16.381 -25.585  1.00  0.00     0.293 HD
ENDBRANCH   3   9
TORSDOF 2
ENDMDL
