MODEL 1
REMARK VINA RESULT:    -3.403      0.000      0.000
REMARK INTER + INTRA:          -5.581
REMARK INTER:                  -5.193
REMARK INTRA:                  -0.388
REMARK UNBOUND:                -0.388
REMARK SMILES CC1=CCC[C@H](C)C(=O)C[C@H](C(C)C)C(=O)C1
REMARK SMILES IDX 8 1 9 2 6 3 7 4 5 5 4 6 3 7 2 8 1 9 10 11 11 12 15 13 16 14
REMARK SMILES IDX 17 15 12 17 13 18 14 19
REMARK H PARENT
REMARK Flexibility Score: 70.00
ROOT
ATOM      1  C   UNL     1      -5.205  -4.293  15.173  1.00  0.00     0.136 C 
ATOM      2  O   UNL     1      -6.224  -4.507  14.533  1.00  0.00    -0.299 OA
ENDROOT
BRANCH   1   3
ATOM      3  C   UNL     1      -5.317  -3.807  16.601  1.00  0.00     0.053 C 
ATOM      4  C   UNL     1      -4.226  -4.434  17.477  1.00  0.00     0.016 C 
BRANCH   3   5
ATOM      5  C   UNL     1      -5.242  -2.257  16.622  1.00  0.00     0.015 C 
BRANCH   5   6
ATOM      6  C   UNL     1      -3.846  -1.682  16.916  1.00  0.00     0.028 C 
BRANCH   6   7
ATOM      7  C   UNL     1      -3.344  -0.637  15.942  1.00  0.00    -0.028 C 
ATOM      8  C   UNL     1      -2.463  -0.830  14.932  1.00  0.00    -0.070 CG0
ATOM      9  C   UNL     1      -1.986   0.390  14.185  1.00  0.00     0.039 C 
ATOM     10  G   UNL     1      -1.908  -2.190  14.543  1.00  0.00     0.000 G0
ENDBRANCH   6   7
ENDBRANCH   5   6
ENDBRANCH   3   5
ENDBRANCH   1   3
BRANCH   1  11
ATOM     11  C   UNL     1      -3.863  -4.525  14.514  1.00  0.00     0.087 C 
BRANCH  11  12
ATOM     12  C   UNL     1      -3.638  -3.738  13.189  1.00  0.00     0.066 C 
BRANCH  12  13
ATOM     13  C   UNL     1      -2.429  -2.803  13.256  1.00  0.00     0.140 C 
ATOM     14  O   UNL     1      -1.865  -2.500  12.214  1.00  0.00    -0.299 OA
BRANCH  13  15
ATOM     15  C   UNL     1      -1.891  -2.199  14.547  1.00  0.00     0.106 CG0
ATOM     16  G   UNL     1      -2.465  -0.842  14.920  1.00  0.00     0.000 G0
ENDBRANCH  13  15
ENDBRANCH  12  13
BRANCH  12  17
ATOM     17  C   UNL     1      -3.572  -4.716  11.970  1.00  0.00    -0.006 C 
ATOM     18  C   UNL     1      -2.830  -6.011  12.325  1.00  0.00     0.008 C 
ATOM     19  C   UNL     1      -4.944  -5.064  11.360  1.00  0.00     0.008 C 
ENDBRANCH  12  17
ENDBRANCH  11  12
ENDBRANCH   1  11
TORSDOF 1
ENDMDL
MODEL 2
REMARK VINA RESULT:    -3.232     11.142     12.658
REMARK INTER + INTRA:          -5.321
REMARK INTER:                  -4.921
REMARK INTRA:                  -0.399
REMARK UNBOUND:                -0.388
REMARK SMILES CC1=CCC[C@H](C)C(=O)C[C@H](C(C)C)C(=O)C1
REMARK SMILES IDX 8 1 9 2 6 3 7 4 5 5 4 6 3 7 2 8 1 9 10 11 11 12 15 13 16 14
REMARK SMILES IDX 17 15 12 17 13 18 14 19
REMARK H PARENT
REMARK Flexibility Score: 70.00
ROOT
ATOM      1  C   UNL     1      -1.888  -3.963   3.287  1.00  0.00     0.136 C 
ATOM      2  O   UNL     1      -0.847  -4.104   3.911  1.00  0.00    -0.299 OA
ENDROOT
BRANCH   1   3
ATOM      3  C   UNL     1      -2.204  -4.909   2.150  1.00  0.00     0.053 C 
ATOM      4  C   UNL     1      -1.076  -4.910   1.113  1.00  0.00     0.016 C 
BRANCH   3   5
ATOM      5  C   UNL     1      -2.454  -6.330   2.721  1.00  0.00     0.015 C 
BRANCH   5   6
ATOM      6  C   UNL     1      -3.659  -6.442   3.670  1.00  0.00     0.028 C 
BRANCH   6   7
ATOM      7  C   UNL     1      -5.022  -6.386   3.014  1.00  0.00    -0.028 C 
ATOM      8  C   UNL     1      -5.890  -5.347   3.041  1.00  0.00    -0.070 CG0
ATOM      9  C   UNL     1      -7.260  -5.571   2.450  1.00  0.00     0.039 C 
ATOM     10  G   UNL     1      -5.574  -3.997   3.663  1.00  0.00     0.000 G0
ENDBRANCH   6   7
ENDBRANCH   5   6
ENDBRANCH   3   5
ENDBRANCH   1   3
BRANCH   1  11
ATOM     11  C   UNL     1      -2.828  -2.842   3.675  1.00  0.00     0.087 C 
BRANCH  11  12
ATOM     12  C   UNL     1      -3.778  -2.358   2.540  1.00  0.00     0.066 C 
BRANCH  12  13
ATOM     13  C   UNL     1      -5.205  -2.888   2.699  1.00  0.00     0.140 C 
ATOM     14  O   UNL     1      -6.085  -2.415   1.994  1.00  0.00    -0.299 OA
BRANCH  13  15
ATOM     15  C   UNL     1      -5.600  -3.992   3.670  1.00  0.00     0.106 CG0
ATOM     16  G   UNL     1      -5.891  -5.343   3.037  1.00  0.00     0.000 G0
ENDBRANCH  13  15
ENDBRANCH  12  13
BRANCH  12  17
ATOM     17  C   UNL     1      -3.728  -0.801   2.404  1.00  0.00    -0.006 C 
ATOM     18  C   UNL     1      -3.999  -0.109   3.746  1.00  0.00     0.008 C 
ATOM     19  C   UNL     1      -2.416  -0.257   1.804  1.00  0.00     0.008 C 
ENDBRANCH  12  17
ENDBRANCH  11  12
ENDBRANCH   1  11
TORSDOF 1
ENDMDL
MODEL 3
REMARK VINA RESULT:    -3.204      5.279      7.363
REMARK INTER + INTRA:          -5.277
REMARK INTER:                  -4.799
REMARK INTRA:                  -0.478
REMARK UNBOUND:                -0.388
REMARK SMILES CC1=CCC[C@H](C)C(=O)C[C@H](C(C)C)C(=O)C1
REMARK SMILES IDX 8 1 9 2 6 3 7 4 5 5 4 6 3 7 2 8 1 9 10 11 11 12 15 13 16 14
REMARK SMILES IDX 17 15 12 17 13 18 14 19
REMARK H PARENT
REMARK Flexibility Score: 70.00
ROOT
ATOM      1  C   UNL     1      -1.897   2.540  19.241  1.00  0.00     0.136 C 
ATOM      2  O   UNL     1      -2.285   2.286  20.371  1.00  0.00    -0.299 OA
ENDROOT
BRANCH   1   3
ATOM      3  C   UNL     1      -1.288   3.894  18.954  1.00  0.00     0.053 C 
ATOM      4  C   UNL     1      -2.311   5.012  19.190  1.00  0.00     0.016 C 
BRANCH   3   5
ATOM      5  C   UNL     1      -0.024   4.085  19.834  1.00  0.00     0.015 C 
BRANCH   5   6
ATOM      6  C   UNL     1       1.023   2.966  19.710  1.00  0.00     0.028 C 
BRANCH   6   7
ATOM      7  C   UNL     1       1.916   3.031  18.489  1.00  0.00    -0.028 C 
ATOM      8  C   UNL     1       1.867   2.218  17.407  1.00  0.00    -0.070 CG0
ATOM      9  C   UNL     1       2.959   2.367  16.377  1.00  0.00     0.039 C 
ATOM     10  G   UNL     1       0.805   1.151  17.199  1.00  0.00     0.000 G0
ENDBRANCH   6   7
ENDBRANCH   5   6
ENDBRANCH   3   5
ENDBRANCH   1   3
BRANCH   1  11
ATOM     11  C   UNL     1      -2.038   1.486  18.164  1.00  0.00     0.087 C 
BRANCH  11  12
ATOM     12  C   UNL     1      -1.720   1.976  16.720  1.00  0.00     0.066 C 
BRANCH  12  13
ATOM     13  C   UNL     1      -0.336   1.535  16.238  1.00  0.00     0.140 C 
ATOM     14  O   UNL     1      -0.116   1.513  15.036  1.00  0.00    -0.299 OA
BRANCH  13  15
ATOM     15  C   UNL     1       0.803   1.141  17.169  1.00  0.00     0.106 CG0
ATOM     16  G   UNL     1       1.857   2.211  17.399  1.00  0.00     0.000 G0
ENDBRANCH  13  15
ENDBRANCH  12  13
BRANCH  12  17
ATOM     17  C   UNL     1      -2.859   1.560  15.732  1.00  0.00    -0.006 C 
ATOM     18  C   UNL     1      -3.835   0.570  16.381  1.00  0.00     0.008 C 
ATOM     19  C   UNL     1      -3.651   2.743  15.141  1.00  0.00     0.008 C 
ENDBRANCH  12  17
ENDBRANCH  11  12
ENDBRANCH   1  11
TORSDOF 1
ENDMDL
MODEL 4
REMARK VINA RESULT:    -3.139      8.180      9.708
REMARK INTER + INTRA:          -5.178
REMARK INTER:                  -4.710
REMARK INTRA:                  -0.468
REMARK UNBOUND:                -0.388
REMARK SMILES CC1=CCC[C@H](C)C(=O)C[C@H](C(C)C)C(=O)C1
REMARK SMILES IDX 8 1 9 2 6 3 7 4 5 5 4 6 3 7 2 8 1 9 10 11 11 12 15 13 16 14
REMARK SMILES IDX 17 15 12 17 13 18 14 19
REMARK H PARENT
REMARK Flexibility Score: 70.00
ROOT
ATOM      1  C   UNL     1      -4.418  -1.190   6.915  1.00  0.00     0.136 C 
ATOM      2  O   UNL     1      -3.697  -1.529   7.842  1.00  0.00    -0.299 OA
ENDROOT
BRANCH   1   3
ATOM      3  C   UNL     1      -5.041   0.188   6.928  1.00  0.00     0.053 C 
ATOM      4  C   UNL     1      -6.132   0.283   8.001  1.00  0.00     0.016 C 
BRANCH   3   5
ATOM      5  C   UNL     1      -3.932   1.250   7.148  1.00  0.00     0.015 C 
BRANCH   5   6
ATOM      6  C   UNL     1      -3.055   1.533   5.917  1.00  0.00     0.028 C 
BRANCH   6   7
ATOM      7  C   UNL     1      -1.642   0.993   5.975  1.00  0.00    -0.028 C 
ATOM      8  C   UNL     1      -1.094   0.070   5.149  1.00  0.00    -0.070 CG0
ATOM      9  C   UNL     1       0.285  -0.436   5.491  1.00  0.00     0.039 C 
ATOM     10  G   UNL     1      -1.804  -0.503   3.934  1.00  0.00     0.000 G0
ENDBRANCH   6   7
ENDBRANCH   5   6
ENDBRANCH   3   5
ENDBRANCH   1   3
BRANCH   1  11
ATOM     11  C   UNL     1      -4.662  -2.165   5.784  1.00  0.00     0.087 C 
BRANCH  11  12
ATOM     12  C   UNL     1      -4.208  -1.668   4.379  1.00  0.00     0.066 C 
BRANCH  12  13
ATOM     13  C   UNL     1      -2.691  -1.740   4.190  1.00  0.00     0.140 C 
ATOM     14  O   UNL     1      -2.148  -2.834   4.237  1.00  0.00    -0.299 OA
BRANCH  13  15
ATOM     15  C   UNL     1      -1.809  -0.528   3.921  1.00  0.00     0.106 CG0
ATOM     16  G   UNL     1      -1.119   0.059   5.141  1.00  0.00     0.000 G0
ENDBRANCH  13  15
ENDBRANCH  12  13
BRANCH  12  17
ATOM     17  C   UNL     1      -4.989  -2.416   3.250  1.00  0.00    -0.006 C 
ATOM     18  C   UNL     1      -5.859  -3.545   3.818  1.00  0.00     0.008 C 
ATOM     19  C   UNL     1      -5.856  -1.501   2.363  1.00  0.00     0.008 C 
ENDBRANCH  12  17
ENDBRANCH  11  12
ENDBRANCH   1  11
TORSDOF 1
ENDMDL
MODEL 5
REMARK VINA RESULT:    -3.088      8.618     10.011
REMARK INTER + INTRA:          -5.101
REMARK INTER:                  -4.958
REMARK INTRA:                  -0.143
REMARK UNBOUND:                -0.388
REMARK SMILES CC1=CCC[C@H](C)C(=O)C[C@H](C(C)C)C(=O)C1
REMARK SMILES IDX 8 1 9 2 6 3 7 4 5 5 4 6 3 7 2 8 1 9 10 11 11 12 15 13 16 14
REMARK SMILES IDX 17 15 12 17 13 18 14 19
REMARK H PARENT
REMARK Flexibility Score: 70.00
ROOT
ATOM      1  C   UNL     1       0.385  -4.737   5.950  1.00  0.00     0.136 C 
ATOM      2  O   UNL     1      -0.097  -5.857   6.038  1.00  0.00    -0.299 OA
ENDROOT
BRANCH   1   3
ATOM      3  C   UNL     1       1.176  -4.177   7.112  1.00  0.00     0.053 C 
ATOM      4  C   UNL     1       1.523  -5.283   8.116  1.00  0.00     0.016 C 
BRANCH   3   5
ATOM      5  C   UNL     1       2.451  -3.476   6.573  1.00  0.00     0.015 C 
BRANCH   5   6
ATOM      6  C   UNL     1       2.317  -1.957   6.377  1.00  0.00     0.028 C 
BRANCH   6   7
ATOM      7  C   UNL     1       1.128  -1.307   7.052  1.00  0.00    -0.028 C 
ATOM      8  C   UNL     1       0.006  -0.848   6.447  1.00  0.00    -0.070 CG0
ATOM      9  C   UNL     1      -0.983  -0.094   7.299  1.00  0.00     0.039 C 
ATOM     10  G   UNL     1      -0.284  -1.018   4.965  1.00  0.00     0.000 G0
ENDBRANCH   6   7
ENDBRANCH   5   6
ENDBRANCH   3   5
ENDBRANCH   1   3
BRANCH   1  11
ATOM     11  C   UNL     1       0.173  -3.947   4.678  1.00  0.00     0.087 C 
BRANCH  11  12
ATOM     12  C   UNL     1      -1.286  -3.453   4.445  1.00  0.00     0.066 C 
BRANCH  12  13
ATOM     13  C   UNL     1      -1.428  -1.938   4.596  1.00  0.00     0.140 C 
ATOM     14  O   UNL     1      -2.531  -1.435   4.438  1.00  0.00    -0.299 OA
BRANCH  13  15
ATOM     15  C   UNL     1      -0.278  -1.007   4.958  1.00  0.00     0.106 CG0
ATOM     16  G   UNL     1      -0.002  -0.861   6.445  1.00  0.00     0.000 G0
ENDBRANCH  13  15
ENDBRANCH  12  13
BRANCH  12  17
ATOM     17  C   UNL     1      -1.833  -3.974   3.076  1.00  0.00    -0.006 C 
ATOM     18  C   UNL     1      -1.028  -3.413   1.896  1.00  0.00     0.008 C 
ATOM     19  C   UNL     1      -1.904  -5.509   2.961  1.00  0.00     0.008 C 
ENDBRANCH  12  17
ENDBRANCH  11  12
ENDBRANCH   1  11
TORSDOF 1
ENDMDL
MODEL 6
REMARK VINA RESULT:    -3.071     10.166     11.698
REMARK INTER + INTRA:          -5.075
REMARK INTER:                  -4.694
REMARK INTRA:                  -0.381
REMARK UNBOUND:                -0.388
REMARK SMILES CC1=CCC[C@H](C)C(=O)C[C@H](C(C)C)C(=O)C1
REMARK SMILES IDX 8 1 9 2 6 3 7 4 5 5 4 6 3 7 2 8 1 9 10 11 11 12 15 13 16 14
REMARK SMILES IDX 17 15 12 17 13 18 14 19
REMARK H PARENT
REMARK Flexibility Score: 70.00
ROOT
ATOM      1  C   UNL     1      -2.272  -4.728   2.083  1.00  0.00     0.136 C 
ATOM      2  O   UNL     1      -1.523  -5.001   1.156  1.00  0.00    -0.299 OA
ENDROOT
BRANCH   1   3
ATOM      3  C   UNL     1      -1.872  -5.102   3.492  1.00  0.00     0.053 C 
ATOM      4  C   UNL     1      -1.623  -6.611   3.605  1.00  0.00     0.016 C 
BRANCH   3   5
ATOM      5  C   UNL     1      -0.617  -4.287   3.902  1.00  0.00     0.015 C 
BRANCH   5   6
ATOM      6  C   UNL     1      -0.645  -2.807   3.486  1.00  0.00     0.028 C 
BRANCH   6   7
ATOM      7  C   UNL     1      -1.245  -1.849   4.493  1.00  0.00    -0.028 C 
ATOM      8  C   UNL     1      -2.366  -1.107   4.334  1.00  0.00    -0.070 CG0
ATOM      9  C   UNL     1      -2.692  -0.102   5.411  1.00  0.00     0.039 C 
ATOM     10  G   UNL     1      -3.280  -1.204   3.124  1.00  0.00     0.000 G0
ENDBRANCH   6   7
ENDBRANCH   5   6
ENDBRANCH   3   5
ENDBRANCH   1   3
BRANCH   1  11
ATOM     11  C   UNL     1      -3.577  -4.022   1.786  1.00  0.00     0.087 C 
BRANCH  11  12
ATOM     12  C   UNL     1      -4.416  -3.638   3.041  1.00  0.00     0.066 C 
BRANCH  12  13
ATOM     13  C   UNL     1      -4.478  -2.127   3.270  1.00  0.00     0.140 C 
ATOM     14  O   UNL     1      -5.541  -1.631   3.615  1.00  0.00    -0.299 OA
BRANCH  13  15
ATOM     15  C   UNL     1      -3.285  -1.193   3.118  1.00  0.00     0.106 CG0
ATOM     16  G   UNL     1      -2.366  -1.107   4.325  1.00  0.00     0.000 G0
ENDBRANCH  13  15
ENDBRANCH  12  13
BRANCH  12  17
ATOM     17  C   UNL     1      -5.834  -4.295   2.979  1.00  0.00    -0.006 C 
ATOM     18  C   UNL     1      -6.527  -4.015   1.639  1.00  0.00     0.008 C 
ATOM     19  C   UNL     1      -5.845  -5.811   3.253  1.00  0.00     0.008 C 
ENDBRANCH  12  17
ENDBRANCH  11  12
ENDBRANCH   1  11
TORSDOF 1
ENDMDL
MODEL 7
REMARK VINA RESULT:    -3.051      4.659      7.255
REMARK INTER + INTRA:          -5.045
REMARK INTER:                  -4.965
REMARK INTRA:                  -0.080
REMARK UNBOUND:                -0.388
REMARK SMILES CC1=CCC[C@H](C)C(=O)C[C@H](C(C)C)C(=O)C1
REMARK SMILES IDX 8 1 9 2 6 3 7 4 5 5 4 6 3 7 2 8 1 9 10 11 11 12 15 13 16 14
REMARK SMILES IDX 17 15 12 17 13 18 14 19
REMARK H PARENT
REMARK Flexibility Score: 70.00
ROOT
ATOM      1  C   UNL     1       2.570  -0.898  15.106  1.00  0.00     0.136 C 
ATOM      2  O   UNL     1       3.202  -1.051  14.071  1.00  0.00    -0.299 OA
ENDROOT
BRANCH   1   3
ATOM      3  C   UNL     1       1.666  -2.008  15.592  1.00  0.00     0.053 C 
ATOM      4  C   UNL     1       2.197  -3.377  15.148  1.00  0.00     0.016 C 
BRANCH   3   5
ATOM      5  C   UNL     1       1.534  -1.923  17.137  1.00  0.00     0.015 C 
BRANCH   5   6
ATOM      6  C   UNL     1       0.222  -1.296  17.638  1.00  0.00     0.028 C 
BRANCH   6   7
ATOM      7  C   UNL     1      -0.845  -1.071  16.587  1.00  0.00    -0.028 C 
ATOM      8  C   UNL     1      -1.114   0.089  15.943  1.00  0.00    -0.070 CG0
ATOM      9  C   UNL     1      -2.327   0.121  15.048  1.00  0.00     0.039 C 
ATOM     10  G   UNL     1      -0.289   1.356  16.104  1.00  0.00     0.000 G0
ENDBRANCH   6   7
ENDBRANCH   5   6
ENDBRANCH   3   5
ENDBRANCH   1   3
BRANCH   1  11
ATOM     11  C   UNL     1       2.716   0.401  15.868  1.00  0.00     0.087 C 
BRANCH  11  12
ATOM     12  C   UNL     1       2.191   1.663  15.120  1.00  0.00     0.066 C 
BRANCH  12  13
ATOM     13  C   UNL     1       0.670   1.664  14.959  1.00  0.00     0.140 C 
ATOM     14  O   UNL     1       0.200   1.900  13.855  1.00  0.00    -0.299 OA
BRANCH  13  15
ATOM     15  C   UNL     1      -0.306   1.364  16.088  1.00  0.00     0.106 CG0
ATOM     16  G   UNL     1      -1.111   0.085  15.931  1.00  0.00     0.000 G0
ENDBRANCH  13  15
ENDBRANCH  12  13
BRANCH  12  17
ATOM     17  C   UNL     1       2.723   2.968  15.800  1.00  0.00    -0.006 C 
ATOM     18  C   UNL     1       2.790   2.822  17.326  1.00  0.00     0.008 C 
ATOM     19  C   UNL     1       4.089   3.448  15.272  1.00  0.00     0.008 C 
ENDBRANCH  12  17
ENDBRANCH  11  12
ENDBRANCH   1  11
TORSDOF 1
ENDMDL
MODEL 8
REMARK VINA RESULT:    -3.004      8.045     10.402
REMARK INTER + INTRA:          -4.972
REMARK INTER:                  -4.417
REMARK INTRA:                  -0.555
REMARK UNBOUND:                -0.388
REMARK SMILES CC1=CCC[C@H](C)C(=O)C[C@H](C(C)C)C(=O)C1
REMARK SMILES IDX 8 1 9 2 6 3 7 4 5 5 4 6 3 7 2 8 1 9 10 11 11 12 15 13 16 14
REMARK SMILES IDX 17 15 12 17 13 18 14 19
REMARK H PARENT
REMARK Flexibility Score: 70.00
ROOT
ATOM      1  C   UNL     1      -4.555  -1.139   3.794  1.00  0.00     0.136 C 
ATOM      2  O   UNL     1      -4.954  -0.814   2.686  1.00  0.00    -0.299 OA
ENDROOT
BRANCH   1   3
ATOM      3  C   UNL     1      -4.283  -2.598   4.085  1.00  0.00     0.053 C 
ATOM      4  C   UNL     1      -5.593  -3.391   4.158  1.00  0.00     0.016 C 
BRANCH   3   5
ATOM      5  C   UNL     1      -3.332  -3.169   2.999  1.00  0.00     0.015 C 
BRANCH   5   6
ATOM      6  C   UNL     1      -1.926  -2.547   2.983  1.00  0.00     0.028 C 
BRANCH   6   7
ATOM      7  C   UNL     1      -1.076  -2.807   4.209  1.00  0.00    -0.028 C 
ATOM      8  C   UNL     1      -0.641  -1.886   5.102  1.00  0.00    -0.070 CG0
ATOM      9  C   UNL     1       0.326  -2.349   6.162  1.00  0.00     0.039 C 
ATOM     10  G   UNL     1      -1.041  -0.420   5.066  1.00  0.00     0.000 G0
ENDBRANCH   6   7
ENDBRANCH   5   6
ENDBRANCH   3   5
ENDBRANCH   1   3
BRANCH   1  11
ATOM     11  C   UNL     1      -4.345  -0.066   4.840  1.00  0.00     0.087 C 
BRANCH  11  12
ATOM     12  C   UNL     1      -3.526  -0.515   6.087  1.00  0.00     0.066 C 
BRANCH  12  13
ATOM     13  C   UNL     1      -2.094   0.021   6.077  1.00  0.00     0.140 C 
ATOM     14  O   UNL     1      -1.768   0.835   6.928  1.00  0.00    -0.299 OA
BRANCH  13  15
ATOM     15  C   UNL     1      -1.029  -0.416   5.080  1.00  0.00     0.106 CG0
ATOM     16  G   UNL     1      -0.669  -1.892   5.116  1.00  0.00     0.000 G0
ENDBRANCH  13  15
ENDBRANCH  12  13
BRANCH  12  17
ATOM     17  C   UNL     1      -4.290  -0.161   7.406  1.00  0.00    -0.006 C 
ATOM     18  C   UNL     1      -5.485   0.762   7.135  1.00  0.00     0.008 C 
ATOM     19  C   UNL     1      -4.764  -1.385   8.214  1.00  0.00     0.008 C 
ENDBRANCH  12  17
ENDBRANCH  11  12
ENDBRANCH   1  11
TORSDOF 1
ENDMDL
MODEL 9
REMARK VINA RESULT:    -2.938      5.874      7.495
REMARK INTER + INTRA:          -4.872
REMARK INTER:                  -4.829
REMARK INTRA:                  -0.043
REMARK UNBOUND:                -0.388
REMARK SMILES CC1=CCC[C@H](C)C(=O)C[C@H](C(C)C)C(=O)C1
REMARK SMILES IDX 8 1 9 2 6 3 7 4 5 5 4 6 3 7 2 8 1 9 10 11 11 12 15 13 16 14
REMARK SMILES IDX 17 15 12 17 13 18 14 19
REMARK H PARENT
REMARK Flexibility Score: 70.00
ROOT
ATOM      1  C   UNL     1       2.021  -1.832  15.715  1.00  0.00     0.136 C 
ATOM      2  O   UNL     1       1.889  -2.387  14.634  1.00  0.00    -0.299 OA
ENDROOT
BRANCH   1   3
ATOM      3  C   UNL     1       2.559  -0.419  15.762  1.00  0.00     0.053 C 
ATOM      4  C   UNL     1       3.937  -0.339  15.095  1.00  0.00     0.016 C 
BRANCH   3   5
ATOM      5  C   UNL     1       1.542   0.538  15.085  1.00  0.00     0.015 C 
BRANCH   5   6
ATOM      6  C   UNL     1       0.739   1.419  16.057  1.00  0.00     0.028 C 
BRANCH   6   7
ATOM      7  C   UNL     1       1.448   1.800  17.340  1.00  0.00    -0.028 C 
ATOM      8  C   UNL     1       1.107   1.422  18.595  1.00  0.00    -0.070 CG0
ATOM      9  C   UNL     1       1.864   2.050  19.739  1.00  0.00     0.039 C 
ATOM     10  G   UNL     1      -0.011   0.441  18.908  1.00  0.00     0.000 G0
ENDBRANCH   6   7
ENDBRANCH   5   6
ENDBRANCH   3   5
ENDBRANCH   1   3
BRANCH   1  11
ATOM     11  C   UNL     1       1.641  -2.581  16.973  1.00  0.00     0.087 C 
BRANCH  11  12
ATOM     12  C   UNL     1       1.518  -1.699  18.251  1.00  0.00     0.066 C 
BRANCH  12  13
ATOM     13  C   UNL     1       0.180  -0.962  18.333  1.00  0.00     0.140 C 
ATOM     14  O   UNL     1      -0.824  -1.526  17.923  1.00  0.00    -0.299 OA
BRANCH  13  15
ATOM     15  C   UNL     1       0.010   0.433  18.921  1.00  0.00     0.106 CG0
ATOM     16  G   UNL     1       1.125   1.414  18.600  1.00  0.00     0.000 G0
ENDBRANCH  13  15
ENDBRANCH  12  13
BRANCH  12  17
ATOM     17  C   UNL     1       1.819  -2.541  19.535  1.00  0.00    -0.006 C 
ATOM     18  C   UNL     1       2.002  -4.028  19.203  1.00  0.00     0.008 C 
ATOM     19  C   UNL     1       3.029  -2.047  20.351  1.00  0.00     0.008 C 
ENDBRANCH  12  17
ENDBRANCH  11  12
ENDBRANCH   1  11
TORSDOF 1
ENDMDL
