MODEL 1
REMARK VINA RESULT:    -5.493      0.000      0.000
REMARK INTER + INTRA:          -6.112
REMARK INTER:                  -5.814
REMARK INTRA:                  -0.298
REMARK UNBOUND:                -0.298
REMARK SMILES CC1=CC[C@@]23[C@@H]([C@@H](C(C)C)CC[C@H]2C)[C@H]13
REMARK SMILES IDX 14 1 13 2 12 3 11 4 7 5 6 6 5 7 15 8 2 9 3 10 4 11 1 12 8 13
REMARK SMILES IDX 9 14 10 15
REMARK H PARENT
REMARK Flexibility Score: inf
ROOT
ATOM      1  C   UNL     1       0.573  12.746  18.421  1.00  0.00     0.008 C 
ATOM      2  C   UNL     1       0.617  14.081  17.668  1.00  0.00    -0.007 C 
ATOM      3  C   UNL     1      -0.697  14.867  17.876  1.00  0.00     0.004 C 
ATOM      4  C   UNL     1      -0.827  16.140  16.997  1.00  0.00     0.004 C 
ATOM      5  C   UNL     1       0.444  16.455  16.178  1.00  0.00    -0.004 C 
ATOM      6  C   UNL     1       0.812  15.218  15.326  1.00  0.00     0.007 C 
ATOM      7  C   UNL     1       0.916  13.925  16.146  1.00  0.00    -0.013 C 
ATOM      8  C   UNL     1       2.178  14.591  15.601  1.00  0.00     0.025 C 
ATOM      9  C   UNL     1       2.660  13.638  14.559  1.00  0.00    -0.073 C 
ATOM     10  C   UNL     1       1.879  12.571  14.430  1.00  0.00    -0.027 C 
ATOM     11  C   UNL     1       0.718  12.610  15.366  1.00  0.00     0.035 C 
ATOM     12  C   UNL     1       3.880  13.873  13.725  1.00  0.00     0.039 C 
ENDROOT
BRANCH   5  13
ATOM     13  C   UNL     1       0.321  17.759  15.338  1.00  0.00    -0.014 C 
ATOM     14  C   UNL     1       1.095  17.635  14.017  1.00  0.00     0.007 C 
ATOM     15  C   UNL     1      -1.125  18.208  15.061  1.00  0.00     0.007 C 
ENDBRANCH   5  13
TORSDOF 1
ENDMDL
MODEL 2
REMARK VINA RESULT:    -5.297      1.231      4.552
REMARK INTER + INTRA:          -5.904
REMARK INTER:                  -5.604
REMARK INTRA:                  -0.301
REMARK UNBOUND:                -0.298
REMARK SMILES CC1=CC[C@@]23[C@@H]([C@@H](C(C)C)CC[C@H]2C)[C@H]13
REMARK SMILES IDX 14 1 13 2 12 3 11 4 7 5 6 6 5 7 15 8 2 9 3 10 4 11 1 12 8 13
REMARK SMILES IDX 9 14 10 15
REMARK H PARENT
REMARK Flexibility Score: inf
ROOT
ATOM      1  C   UNL     1       3.135  14.256  13.622  1.00  0.00     0.008 C 
ATOM      2  C   UNL     1       2.436  14.059  14.972  1.00  0.00    -0.007 C 
ATOM      3  C   UNL     1       1.599  12.760  14.967  1.00  0.00     0.004 C 
ATOM      4  C   UNL     1       0.700  12.573  16.219  1.00  0.00     0.004 C 
ATOM      5  C   UNL     1       0.915  13.657  17.298  1.00  0.00    -0.004 C 
ATOM      6  C   UNL     1       0.708  15.050  16.660  1.00  0.00     0.007 C 
ATOM      7  C   UNL     1       1.550  15.268  15.394  1.00  0.00    -0.013 C 
ATOM      8  C   UNL     1       1.911  15.993  16.691  1.00  0.00     0.025 C 
ATOM      9  C   UNL     1       1.604  17.422  16.396  1.00  0.00    -0.073 C 
ATOM     10  C   UNL     1       1.129  17.609  15.169  1.00  0.00    -0.027 C 
ATOM     11  C   UNL     1       1.026  16.331  14.408  1.00  0.00     0.035 C 
ATOM     12  C   UNL     1       1.785  18.528  17.389  1.00  0.00     0.039 C 
ENDROOT
BRANCH   5  13
ATOM     13  C   UNL     1       0.045  13.434  18.570  1.00  0.00    -0.014 C 
ATOM     14  C   UNL     1      -1.104  14.451  18.632  1.00  0.00     0.007 C 
ATOM     15  C   UNL     1      -0.506  12.005  18.724  1.00  0.00     0.007 C 
ENDBRANCH   5  13
TORSDOF 1
ENDMDL
MODEL 3
REMARK VINA RESULT:    -5.010      1.596      3.982
REMARK INTER + INTRA:          -5.601
REMARK INTER:                  -5.320
REMARK INTRA:                  -0.281
REMARK UNBOUND:                -0.298
REMARK SMILES CC1=CC[C@@]23[C@@H]([C@@H](C(C)C)CC[C@H]2C)[C@H]13
REMARK SMILES IDX 14 1 13 2 12 3 11 4 7 5 6 6 5 7 15 8 2 9 3 10 4 11 1 12 8 13
REMARK SMILES IDX 9 14 10 15
REMARK H PARENT
REMARK Flexibility Score: inf
ROOT
ATOM      1  C   UNL     1      -0.603  12.792  17.265  1.00  0.00     0.008 C 
ATOM      2  C   UNL     1       0.205  13.271  16.054  1.00  0.00    -0.007 C 
ATOM      3  C   UNL     1       0.897  12.079  15.355  1.00  0.00     0.004 C 
ATOM      4  C   UNL     1       1.894  12.485  14.236  1.00  0.00     0.004 C 
ATOM      5  C   UNL     1       1.904  14.000  13.940  1.00  0.00    -0.004 C 
ATOM      6  C   UNL     1       2.190  14.766  15.253  1.00  0.00     0.007 C 
ATOM      7  C   UNL     1       1.252  14.372  16.402  1.00  0.00    -0.013 C 
ATOM      8  C   UNL     1       1.102  15.732  15.722  1.00  0.00     0.025 C 
ATOM      9  C   UNL     1       1.525  16.702  16.772  1.00  0.00    -0.073 C 
ATOM     10  C   UNL     1       1.890  16.114  17.906  1.00  0.00    -0.027 C 
ATOM     11  C   UNL     1       1.781  14.629  17.827  1.00  0.00     0.035 C 
ATOM     12  C   UNL     1       1.563  18.184  16.562  1.00  0.00     0.039 C 
ENDROOT
BRANCH   5  13
ATOM     13  C   UNL     1       2.871  14.391  12.784  1.00  0.00    -0.014 C 
ATOM     14  C   UNL     1       2.841  15.906  12.533  1.00  0.00     0.007 C 
ATOM     15  C   UNL     1       4.323  13.917  12.978  1.00  0.00     0.007 C 
ENDBRANCH   5  13
TORSDOF 1
ENDMDL
MODEL 4
REMARK VINA RESULT:    -4.903      1.180      4.086
REMARK INTER + INTRA:          -5.487
REMARK INTER:                  -5.190
REMARK INTRA:                  -0.297
REMARK UNBOUND:                -0.298
REMARK SMILES CC1=CC[C@@]23[C@@H]([C@@H](C(C)C)CC[C@H]2C)[C@H]13
REMARK SMILES IDX 14 1 13 2 12 3 11 4 7 5 6 6 5 7 15 8 2 9 3 10 4 11 1 12 8 13
REMARK SMILES IDX 9 14 10 15
REMARK H PARENT
REMARK Flexibility Score: inf
ROOT
ATOM      1  C   UNL     1      -0.834  14.872  18.009  1.00  0.00     0.008 C 
ATOM      2  C   UNL     1      -0.049  14.440  16.765  1.00  0.00    -0.007 C 
ATOM      3  C   UNL     1       0.700  13.114  17.028  1.00  0.00     0.004 C 
ATOM      4  C   UNL     1       1.677  12.696  15.896  1.00  0.00     0.004 C 
ATOM      5  C   UNL     1       1.615  13.617  14.658  1.00  0.00    -0.004 C 
ATOM      6  C   UNL     1       1.863  15.076  15.105  1.00  0.00     0.007 C 
ATOM      7  C   UNL     1       0.944  15.525  16.250  1.00  0.00    -0.013 C 
ATOM      8  C   UNL     1       0.729  16.066  14.837  1.00  0.00     0.025 C 
ATOM      9  C   UNL     1       1.105  17.505  14.948  1.00  0.00    -0.073 C 
ATOM     10  C   UNL     1       1.496  17.847  16.170  1.00  0.00    -0.027 C 
ATOM     11  C   UNL     1       1.459  16.693  17.114  1.00  0.00     0.035 C 
ATOM     12  C   UNL     1       1.072  18.459  13.795  1.00  0.00     0.039 C 
ENDROOT
BRANCH   5  13
ATOM     13  C   UNL     1       2.563  13.161  13.510  1.00  0.00    -0.014 C 
ATOM     14  C   UNL     1       1.861  13.265  12.147  1.00  0.00     0.007 C 
ATOM     15  C   UNL     1       3.913  13.899  13.466  1.00  0.00     0.007 C 
ENDBRANCH   5  13
TORSDOF 1
ENDMDL
MODEL 5
REMARK VINA RESULT:    -4.803      1.412      2.361
REMARK INTER + INTRA:          -5.382
REMARK INTER:                  -5.174
REMARK INTRA:                  -0.208
REMARK UNBOUND:                -0.298
REMARK SMILES CC1=CC[C@@]23[C@@H]([C@@H](C(C)C)CC[C@H]2C)[C@H]13
REMARK SMILES IDX 14 1 13 2 12 3 11 4 7 5 6 6 5 7 15 8 2 9 3 10 4 11 1 12 8 13
REMARK SMILES IDX 9 14 10 15
REMARK H PARENT
REMARK Flexibility Score: inf
ROOT
ATOM      1  C   UNL     1       2.630  14.557  18.971  1.00  0.00     0.008 C 
ATOM      2  C   UNL     1       2.263  15.200  17.628  1.00  0.00    -0.007 C 
ATOM      3  C   UNL     1       1.876  16.683  17.822  1.00  0.00     0.004 C 
ATOM      4  C   UNL     1       1.302  17.366  16.552  1.00  0.00     0.004 C 
ATOM      5  C   UNL     1       1.352  16.470  15.295  1.00  0.00    -0.004 C 
ATOM      6  C   UNL     1       0.624  15.140  15.597  1.00  0.00     0.007 C 
ATOM      7  C   UNL     1       1.133  14.444  16.867  1.00  0.00    -0.013 C 
ATOM      8  C   UNL     1       1.467  13.869  15.491  1.00  0.00     0.025 C 
ATOM      9  C   UNL     1       0.692  12.595  15.441  1.00  0.00    -0.073 C 
ATOM     10  C   UNL     1      -0.016  12.375  16.543  1.00  0.00    -0.027 C 
ATOM     11  C   UNL     1       0.150  13.467  17.544  1.00  0.00     0.035 C 
ATOM     12  C   UNL     1       0.689  11.676  14.260  1.00  0.00     0.039 C 
ENDROOT
BRANCH   5  13
ATOM     13  C   UNL     1       0.819  17.180  14.017  1.00  0.00    -0.014 C 
ATOM     14  C   UNL     1      -0.394  18.062  14.346  1.00  0.00     0.007 C 
ATOM     15  C   UNL     1       1.875  17.999  13.253  1.00  0.00     0.007 C 
ENDBRANCH   5  13
TORSDOF 1
ENDMDL
MODEL 6
REMARK VINA RESULT:    -4.765      1.594      4.721
REMARK INTER + INTRA:          -5.341
REMARK INTER:                  -5.080
REMARK INTRA:                  -0.261
REMARK UNBOUND:                -0.298
REMARK SMILES CC1=CC[C@@]23[C@@H]([C@@H](C(C)C)CC[C@H]2C)[C@H]13
REMARK SMILES IDX 14 1 13 2 12 3 11 4 7 5 6 6 5 7 15 8 2 9 3 10 4 11 1 12 8 13
REMARK SMILES IDX 9 14 10 15
REMARK H PARENT
REMARK Flexibility Score: inf
ROOT
ATOM      1  C   UNL     1       1.523  17.039  16.787  1.00  0.00     0.008 C 
ATOM      2  C   UNL     1       1.566  15.656  16.127  1.00  0.00    -0.007 C 
ATOM      3  C   UNL     1       1.535  15.787  14.587  1.00  0.00     0.004 C 
ATOM      4  C   UNL     1       1.378  14.439  13.833  1.00  0.00     0.004 C 
ATOM      5  C   UNL     1       1.420  13.206  14.762  1.00  0.00    -0.004 C 
ATOM      6  C   UNL     1       0.341  13.366  15.858  1.00  0.00     0.007 C 
ATOM      7  C   UNL     1       0.432  14.703  16.608  1.00  0.00    -0.013 C 
ATOM      8  C   UNL     1       0.844  13.404  17.301  1.00  0.00     0.025 C 
ATOM      9  C   UNL     1      -0.204  13.210  18.344  1.00  0.00    -0.073 C 
ATOM     10  C   UNL     1      -1.125  14.168  18.340  1.00  0.00    -0.027 C 
ATOM     11  C   UNL     1      -0.866  15.189  17.284  1.00  0.00     0.035 C 
ATOM     12  C   UNL     1      -0.233  12.042  19.279  1.00  0.00     0.039 C 
ENDROOT
BRANCH   5  13
ATOM     13  C   UNL     1       1.310  11.858  13.992  1.00  0.00    -0.014 C 
ATOM     14  C   UNL     1      -0.160  11.469  13.774  1.00  0.00     0.007 C 
ATOM     15  C   UNL     1       2.069  11.823  12.653  1.00  0.00     0.007 C 
ENDBRANCH   5  13
TORSDOF 1
ENDMDL
MODEL 7
REMARK VINA RESULT:    -4.730      1.306      3.918
REMARK INTER + INTRA:          -5.305
REMARK INTER:                  -5.006
REMARK INTRA:                  -0.299
REMARK UNBOUND:                -0.298
REMARK SMILES CC1=CC[C@@]23[C@@H]([C@@H](C(C)C)CC[C@H]2C)[C@H]13
REMARK SMILES IDX 14 1 13 2 12 3 11 4 7 5 6 6 5 7 15 8 2 9 3 10 4 11 1 12 8 13
REMARK SMILES IDX 9 14 10 15
REMARK H PARENT
REMARK Flexibility Score: inf
ROOT
ATOM      1  C   UNL     1       1.416  16.972  13.653  1.00  0.00     0.008 C 
ATOM      2  C   UNL     1       1.021  16.130  14.872  1.00  0.00    -0.007 C 
ATOM      3  C   UNL     1       1.336  16.888  16.181  1.00  0.00     0.004 C 
ATOM      4  C   UNL     1       1.152  16.042  17.470  1.00  0.00     0.004 C 
ATOM      5  C   UNL     1       0.558  14.641  17.207  1.00  0.00    -0.004 C 
ATOM      6  C   UNL     1       1.442  13.906  16.173  1.00  0.00     0.007 C 
ATOM      7  C   UNL     1       1.683  14.720  14.894  1.00  0.00    -0.013 C 
ATOM      8  C   UNL     1       0.759  13.503  14.866  1.00  0.00     0.025 C 
ATOM      9  C   UNL     1       1.505  12.510  14.040  1.00  0.00    -0.073 C 
ATOM     10  C   UNL     1       2.680  12.964  13.618  1.00  0.00    -0.027 C 
ATOM     11  C   UNL     1       2.945  14.355  14.086  1.00  0.00     0.035 C 
ATOM     12  C   UNL     1       0.997  11.134  13.743  1.00  0.00     0.039 C 
ENDROOT
BRANCH   5  13
ATOM     13  C   UNL     1       0.333  13.819  18.510  1.00  0.00    -0.014 C 
ATOM     14  C   UNL     1      -1.125  13.928  18.981  1.00  0.00     0.007 C 
ATOM     15  C   UNL     1       0.747  12.340  18.411  1.00  0.00     0.007 C 
ENDBRANCH   5  13
TORSDOF 1
ENDMDL
MODEL 8
REMARK VINA RESULT:    -4.719      1.516      4.418
REMARK INTER + INTRA:          -5.292
REMARK INTER:                  -5.004
REMARK INTRA:                  -0.288
REMARK UNBOUND:                -0.298
REMARK SMILES CC1=CC[C@@]23[C@@H]([C@@H](C(C)C)CC[C@H]2C)[C@H]13
REMARK SMILES IDX 14 1 13 2 12 3 11 4 7 5 6 6 5 7 15 8 2 9 3 10 4 11 1 12 8 13
REMARK SMILES IDX 9 14 10 15
REMARK H PARENT
REMARK Flexibility Score: inf
ROOT
ATOM      1  C   UNL     1      -1.125  18.595  15.161  1.00  0.00     0.008 C 
ATOM      2  C   UNL     1       0.011  17.720  14.618  1.00  0.00    -0.007 C 
ATOM      3  C   UNL     1      -0.205  17.417  13.118  1.00  0.00     0.004 C 
ATOM      4  C   UNL     1       0.787  16.380  12.526  1.00  0.00     0.004 C 
ATOM      5  C   UNL     1       1.889  15.946  13.517  1.00  0.00    -0.004 C 
ATOM      6  C   UNL     1       1.224  15.415  14.808  1.00  0.00     0.007 C 
ATOM      7  C   UNL     1       0.205  16.393  15.412  1.00  0.00    -0.013 C 
ATOM      8  C   UNL     1       1.553  16.169  16.097  1.00  0.00     0.025 C 
ATOM      9  C   UNL     1       1.196  15.456  17.357  1.00  0.00    -0.073 C 
ATOM     10  C   UNL     1      -0.109  15.241  17.481  1.00  0.00    -0.027 C 
ATOM     11  C   UNL     1      -0.876  15.771  16.317  1.00  0.00     0.035 C 
ATOM     12  C   UNL     1       2.206  15.003  18.365  1.00  0.00     0.039 C 
ENDROOT
BRANCH   5  13
ATOM     13  C   UNL     1       2.906  14.943  12.899  1.00  0.00    -0.014 C 
ATOM     14  C   UNL     1       4.084  15.686  12.251  1.00  0.00     0.007 C 
ATOM     15  C   UNL     1       3.430  13.878  13.880  1.00  0.00     0.007 C 
ENDBRANCH   5  13
TORSDOF 1
ENDMDL
MODEL 9
REMARK VINA RESULT:    -4.617      1.687      3.949
REMARK INTER + INTRA:          -5.184
REMARK INTER:                  -4.879
REMARK INTRA:                  -0.305
REMARK UNBOUND:                -0.298
REMARK SMILES CC1=CC[C@@]23[C@@H]([C@@H](C(C)C)CC[C@H]2C)[C@H]13
REMARK SMILES IDX 14 1 13 2 12 3 11 4 7 5 6 6 5 7 15 8 2 9 3 10 4 11 1 12 8 13
REMARK SMILES IDX 9 14 10 15
REMARK H PARENT
REMARK Flexibility Score: inf
ROOT
ATOM      1  C   UNL     1       3.896  13.374  12.381  1.00  0.00     0.008 C 
ATOM      2  C   UNL     1       2.843  14.466  12.601  1.00  0.00    -0.007 C 
ATOM      3  C   UNL     1       3.406  15.852  12.211  1.00  0.00     0.004 C 
ATOM      4  C   UNL     1       2.484  17.044  12.582  1.00  0.00     0.004 C 
ATOM      5  C   UNL     1       1.115  16.611  13.150  1.00  0.00    -0.004 C 
ATOM      6  C   UNL     1       1.346  15.680  14.363  1.00  0.00     0.007 C 
ATOM      7  C   UNL     1       2.283  14.504  14.055  1.00  0.00    -0.013 C 
ATOM      8  C   UNL     1       0.786  14.263  14.244  1.00  0.00     0.025 C 
ATOM      9  C   UNL     1       0.707  13.502  15.524  1.00  0.00    -0.073 C 
ATOM     10  C   UNL     1       1.897  13.291  16.077  1.00  0.00    -0.027 C 
ATOM     11  C   UNL     1       3.003  13.876  15.266  1.00  0.00     0.035 C 
ATOM     12  C   UNL     1      -0.581  13.049  16.138  1.00  0.00     0.039 C 
ENDROOT
BRANCH   5  13
ATOM     13  C   UNL     1       0.180  17.812  13.473  1.00  0.00    -0.014 C 
ATOM     14  C   UNL     1      -1.125  17.723  12.667  1.00  0.00     0.007 C 
ATOM     15  C   UNL     1      -0.136  17.992  14.969  1.00  0.00     0.007 C 
ENDBRANCH   5  13
TORSDOF 1
ENDMDL
