MODEL 1
REMARK VINA RESULT:    18.411      0.000      0.000
REMARK INTER + INTRA:          43.815
REMARK INTER:                  31.865
REMARK INTRA:                  11.950
REMARK UNBOUND:                11.950
REMARK SMILES OC[C@@H]1O[C@H](O[C@H]2[C@@H](O)[C@H](O)[C@@H](O[C@@H]3[C@@H](O)[C@H](O)[C@H](O)O[C@@H]3CO)O[C@@H]2CO)[C@@H](O)[C@H](O)[C@H]1O
REMARK SMILES IDX 7 1 26 2 25 3 12 4 10 5 8 6 6 7 5 8 3 9 33 10 4 11 31 12
REMARK SMILES IDX 29 13 2 14 1 15 34 17 32 19 30 21 27 23 28 24 9 26 11 28
REMARK SMILES IDX 13 30 14 31 22 32 15 33 21 34 17 35 19 36 23 37 24 38 16 40
REMARK SMILES IDX 18 42 20 44
REMARK H PARENT 1 16 34 18 32 20 30 22 28 25 9 27 11 29 24 39 16 41 18 43
REMARK H PARENT 20 45
REMARK Flexibility Score: inf
ROOT
ATOM      1  C   UNL     1      26.840  35.605  18.670  1.00  0.00     0.184 C 
ATOM      2  C   UNL     1      26.791  37.144  18.839  1.00  0.00     0.178 C 
ATOM      3  O   UNL     1      25.516  37.664  18.477  1.00  0.00    -0.341 OA
ATOM      4  C   UNL     1      24.485  37.168  19.313  1.00  0.00     0.282 C 
ATOM      5  C   UNL     1      24.367  35.634  19.199  1.00  0.00     0.202 C 
ATOM      6  C   UNL     1      25.710  34.959  19.499  1.00  0.00     0.180 C 
ENDROOT
BRANCH   1   7
ATOM      7  O   UNL     1      28.098  35.127  19.136  1.00  0.00    -0.341 OA
BRANCH   7   8
ATOM      8  C   UNL     1      29.195  35.485  18.306  1.00  0.00     0.282 C 
ATOM      9  C   UNL     1      29.643  37.611  19.333  1.00  0.00     0.178 C 
ATOM     10  C   UNL     1      30.898  37.063  20.068  1.00  0.00     0.177 C 
ATOM     11  O   UNL     1      29.262  36.896  18.160  1.00  0.00    -0.341 OA
ATOM     12  C   UNL     1      30.915  35.528  20.173  1.00  0.00     0.179 C 
ATOM     13  C   UNL     1      30.511  34.886  18.839  1.00  0.00     0.202 C 
BRANCH   9  14
ATOM     14  C   UNL     1      28.451  37.968  20.247  1.00  0.00     0.191 C 
BRANCH  14  15
ATOM     15  O   UNL     1      28.403  37.182  21.407  1.00  0.00    -0.394 OA
ATOM     16  H   UNL     1      27.468  37.208  21.740  1.00  0.00     0.210 HD
ENDBRANCH  14  15
ENDBRANCH   9  14
BRANCH  10  17
ATOM     17  O   UNL     1      32.048  37.487  19.376  1.00  0.00    -0.387 OA
ATOM     18  H   UNL     1      32.147  38.459  19.535  1.00  0.00     0.211 HD
ENDBRANCH  10  17
BRANCH  12  19
ATOM     19  O   UNL     1      30.059  35.104  21.201  1.00  0.00    -0.387 OA
ATOM     20  H   UNL     1      30.489  35.351  22.061  1.00  0.00     0.211 HD
ENDBRANCH  12  19
BRANCH  13  21
ATOM     21  O   UNL     1      31.522  35.082  17.882  1.00  0.00    -0.385 OA
ATOM     22  H   UNL     1      32.129  35.782  18.241  1.00  0.00     0.211 HD
ENDBRANCH  13  21
ENDBRANCH   7   8
ENDBRANCH   1   7
BRANCH   2  23
ATOM     23  C   UNL     1      27.853  37.822  17.960  1.00  0.00     0.191 C 
BRANCH  23  24
ATOM     24  O   UNL     1      27.927  39.191  18.254  1.00  0.00    -0.394 OA
ATOM     25  H   UNL     1      28.477  39.282  19.077  1.00  0.00     0.210 HD
ENDBRANCH  23  24
ENDBRANCH   2  23
BRANCH   6  26
ATOM     26  O   UNL     1      25.987  35.073  20.874  1.00  0.00    -0.387 OA
ATOM     27  H   UNL     1      26.046  34.153  21.241  1.00  0.00     0.211 HD
ENDBRANCH   6  26
BRANCH   5  28
ATOM     28  O   UNL     1      23.955  35.283  17.902  1.00  0.00    -0.385 OA
ATOM     29  H   UNL     1      24.412  34.432  17.673  1.00  0.00     0.211 HD
ENDBRANCH   5  28
BRANCH   4  30
ATOM     30  O   UNL     1      24.705  37.549  20.664  1.00  0.00    -0.341 OA
BRANCH  30  31
ATOM     31  C   UNL     1      23.712  38.453  21.130  1.00  0.00     0.184 C 
ATOM     32  C   UNL     1      22.362  37.703  21.337  1.00  0.00     0.178 C 
ATOM     33  C   UNL     1      24.203  39.119  22.426  1.00  0.00     0.180 C 
ATOM     34  O   UNL     1      21.370  38.476  22.007  1.00  0.00    -0.342 OA
ATOM     35  C   UNL     1      23.058  39.931  23.040  1.00  0.00     0.201 C 
ATOM     36  C   UNL     1      21.808  39.051  23.231  1.00  0.00     0.279 C 
BRANCH  32  37
ATOM     37  C   UNL     1      22.470  36.262  21.894  1.00  0.00     0.191 C 
BRANCH  37  38
ATOM     38  O   UNL     1      21.968  35.310  20.997  1.00  0.00    -0.394 OA
ATOM     39  H   UNL     1      21.912  35.764  20.115  1.00  0.00     0.210 HD
ENDBRANCH  37  38
ENDBRANCH  32  37
BRANCH  33  40
ATOM     40  O   UNL     1      25.272  39.988  22.138  1.00  0.00    -0.387 OA
ATOM     41  H   UNL     1      25.953  39.459  21.644  1.00  0.00     0.211 HD
ENDBRANCH  33  40
BRANCH  35  42
ATOM     42  O   UNL     1      23.452  40.532  24.248  1.00  0.00    -0.385 OA
ATOM     43  H   UNL     1      23.190  39.927  24.991  1.00  0.00     0.211 HD
ENDBRANCH  35  42
BRANCH  36  44
ATOM     44  O   UNL     1      22.019  38.066  24.212  1.00  0.00    -0.366 OA
ATOM     45  H   UNL     1      22.897  38.264  24.630  1.00  0.00     0.213 HD
ENDBRANCH  36  44
ENDBRANCH  30  31
ENDBRANCH   4  30
TORSDOF 18
ENDMDL
MODEL 2
REMARK VINA RESULT:    18.933      1.582      7.249
REMARK INTER + INTRA:          44.718
REMARK INTER:                  38.850
REMARK INTRA:                   5.868
REMARK UNBOUND:                11.950
REMARK SMILES OC[C@@H]1O[C@H](O[C@H]2[C@@H](O)[C@H](O)[C@@H](O[C@@H]3[C@@H](O)[C@H](O)[C@H](O)O[C@@H]3CO)O[C@@H]2CO)[C@@H](O)[C@H](O)[C@H]1O
REMARK SMILES IDX 7 1 26 2 25 3 12 4 10 5 8 6 6 7 5 8 3 9 33 10 4 11 31 12
REMARK SMILES IDX 29 13 2 14 1 15 34 17 32 19 30 21 27 23 28 24 9 26 11 28
REMARK SMILES IDX 13 30 14 31 22 32 15 33 21 34 17 35 19 36 23 37 24 38 16 40
REMARK SMILES IDX 18 42 20 44
REMARK H PARENT 1 16 34 18 32 20 30 22 28 25 9 27 11 29 24 39 16 41 18 43
REMARK H PARENT 20 45
REMARK Flexibility Score: inf
ROOT
ATOM      1  C   UNL     1      24.331  38.140  20.208  1.00  0.00     0.184 C 
ATOM      2  C   UNL     1      24.365  36.751  19.522  1.00  0.00     0.178 C 
ATOM      3  O   UNL     1      24.783  36.854  18.164  1.00  0.00    -0.341 OA
ATOM      4  C   UNL     1      26.104  37.353  18.055  1.00  0.00     0.282 C 
ATOM      5  C   UNL     1      26.213  38.775  18.643  1.00  0.00     0.202 C 
ATOM      6  C   UNL     1      25.718  38.805  20.094  1.00  0.00     0.180 C 
ENDROOT
BRANCH   1   7
ATOM      7  O   UNL     1      24.002  37.970  21.583  1.00  0.00    -0.341 OA
BRANCH   7   8
ATOM      8  C   UNL     1      23.280  39.059  22.143  1.00  0.00     0.282 C 
ATOM      9  C   UNL     1      22.177  37.806  23.873  1.00  0.00     0.178 C 
ATOM     10  C   UNL     1      23.111  38.382  24.973  1.00  0.00     0.177 C 
ATOM     11  O   UNL     1      22.054  38.604  22.698  1.00  0.00    -0.341 OA
ATOM     12  C   UNL     1      24.417  38.969  24.412  1.00  0.00     0.179 C 
ATOM     13  C   UNL     1      24.140  39.824  23.168  1.00  0.00     0.202 C 
BRANCH   9  14
ATOM     14  C   UNL     1      22.363  36.303  23.575  1.00  0.00     0.191 C 
BRANCH  14  15
ATOM     15  O   UNL     1      22.102  35.979  22.236  1.00  0.00    -0.394 OA
ATOM     16  H   UNL     1      21.813  36.814  21.784  1.00  0.00     0.210 HD
ENDBRANCH  14  15
ENDBRANCH   9  14
BRANCH  10  17
ATOM     17  O   UNL     1      22.418  39.390  25.670  1.00  0.00    -0.387 OA
ATOM     18  H   UNL     1      23.089  39.917  26.174  1.00  0.00     0.211 HD
ENDBRANCH  10  17
BRANCH  12  19
ATOM     19  O   UNL     1      25.319  37.938  24.108  1.00  0.00    -0.387 OA
ATOM     20  H   UNL     1      24.832  37.279  23.546  1.00  0.00     0.211 HD
ENDBRANCH  12  19
BRANCH  13  21
ATOM     21  O   UNL     1      23.472  41.006  23.533  1.00  0.00    -0.385 OA
ATOM     22  H   UNL     1      24.127  41.571  24.021  1.00  0.00     0.211 HD
ENDBRANCH  13  21
ENDBRANCH   7   8
ENDBRANCH   1   7
BRANCH   2  23
ATOM     23  C   UNL     1      22.974  36.097  19.547  1.00  0.00     0.191 C 
BRANCH  23  24
ATOM     24  O   UNL     1      22.977  34.982  20.397  1.00  0.00    -0.394 OA
ATOM     25  H   UNL     1      22.652  35.292  21.284  1.00  0.00     0.210 HD
ENDBRANCH  23  24
ENDBRANCH   2  23
BRANCH   6  26
ATOM     26  O   UNL     1      26.648  38.139  20.913  1.00  0.00    -0.387 OA
ATOM     27  H   UNL     1      27.492  38.661  20.887  1.00  0.00     0.211 HD
ENDBRANCH   6  26
BRANCH   5  28
ATOM     28  O   UNL     1      25.445  39.668  17.876  1.00  0.00    -0.385 OA
ATOM     29  H   UNL     1      25.024  40.306  18.509  1.00  0.00     0.211 HD
ENDBRANCH   5  28
BRANCH   4  30
ATOM     30  O   UNL     1      27.027  36.481  18.694  1.00  0.00    -0.341 OA
BRANCH  30  31
ATOM     31  C   UNL     1      28.102  37.192  19.294  1.00  0.00     0.184 C 
ATOM     32  C   UNL     1      29.112  36.192  19.934  1.00  0.00     0.178 C 
ATOM     33  C   UNL     1      28.771  38.084  18.235  1.00  0.00     0.180 C 
ATOM     34  O   UNL     1      30.327  36.796  20.365  1.00  0.00    -0.342 OA
ATOM     35  C   UNL     1      30.051  38.687  18.822  1.00  0.00     0.201 C 
ATOM     36  C   UNL     1      30.973  37.582  19.370  1.00  0.00     0.279 C 
BRANCH  32  37
ATOM     37  C   UNL     1      29.348  34.877  19.148  1.00  0.00     0.191 C 
BRANCH  37  38
ATOM     38  O   UNL     1      28.690  34.877  17.911  1.00  0.00    -0.394 OA
ATOM     39  H   UNL     1      28.520  35.830  17.687  1.00  0.00     0.210 HD
ENDBRANCH  37  38
ENDBRANCH  32  37
BRANCH  33  40
ATOM     40  O   UNL     1      27.900  39.129  17.876  1.00  0.00    -0.387 OA
ATOM     41  H   UNL     1      28.153  39.419  16.960  1.00  0.00     0.211 HD
ENDBRANCH  33  40
BRANCH  35  42
ATOM     42  O   UNL     1      30.716  39.487  17.876  1.00  0.00    -0.385 OA
ATOM     43  H   UNL     1      31.583  39.050  17.660  1.00  0.00     0.211 HD
ENDBRANCH  35  42
BRANCH  36  44
ATOM     44  O   UNL     1      31.482  36.778  18.336  1.00  0.00    -0.366 OA
ATOM     45  H   UNL     1      32.416  37.075  18.180  1.00  0.00     0.213 HD
ENDBRANCH  36  44
ENDBRANCH  30  31
ENDBRANCH   4  30
TORSDOF 18
ENDMDL
MODEL 3
REMARK VINA RESULT:    19.361      1.610      7.391
REMARK INTER + INTRA:          45.460
REMARK INTER:                  44.875
REMARK INTRA:                   0.585
REMARK UNBOUND:                11.950
REMARK SMILES OC[C@@H]1O[C@H](O[C@H]2[C@@H](O)[C@H](O)[C@@H](O[C@@H]3[C@@H](O)[C@H](O)[C@H](O)O[C@@H]3CO)O[C@@H]2CO)[C@@H](O)[C@H](O)[C@H]1O
REMARK SMILES IDX 7 1 26 2 25 3 12 4 10 5 8 6 6 7 5 8 3 9 33 10 4 11 31 12
REMARK SMILES IDX 29 13 2 14 1 15 34 17 32 19 30 21 27 23 28 24 9 26 11 28
REMARK SMILES IDX 13 30 14 31 22 32 15 33 21 34 17 35 19 36 23 37 24 38 16 40
REMARK SMILES IDX 18 42 20 44
REMARK H PARENT 1 16 34 18 32 20 30 22 28 25 9 27 11 29 24 39 16 41 18 43
REMARK H PARENT 20 45
REMARK Flexibility Score: inf
ROOT
ATOM      1  C   UNL     1      23.678  37.780  20.632  1.00  0.00     0.184 C 
ATOM      2  C   UNL     1      24.108  36.294  20.708  1.00  0.00     0.178 C 
ATOM      3  O   UNL     1      24.687  35.860  19.482  1.00  0.00    -0.341 OA
ATOM      4  C   UNL     1      25.873  36.572  19.176  1.00  0.00     0.282 C 
ATOM      5  C   UNL     1      25.589  38.079  19.002  1.00  0.00     0.202 C 
ATOM      6  C   UNL     1      24.892  38.650  20.243  1.00  0.00     0.180 C 
ENDROOT
BRANCH   1   7
ATOM      7  O   UNL     1      23.196  38.189  21.908  1.00  0.00    -0.341 OA
BRANCH   7   8
ATOM      8  C   UNL     1      23.831  37.540  23.001  1.00  0.00     0.282 C 
ATOM      9  C   UNL     1      24.286  39.523  24.282  1.00  0.00     0.178 C 
ATOM     10  C   UNL     1      23.141  39.214  25.286  1.00  0.00     0.177 C 
ATOM     11  O   UNL     1      24.806  38.395  23.583  1.00  0.00    -0.341 OA
ATOM     12  C   UNL     1      22.104  38.221  24.734  1.00  0.00     0.179 C 
ATOM     13  C   UNL     1      22.797  37.045  24.030  1.00  0.00     0.202 C 
BRANCH   9  14
ATOM     14  C   UNL     1      24.050  40.749  23.374  1.00  0.00     0.191 C 
BRANCH  14  15
ATOM     15  O   UNL     1      22.691  40.984  23.122  1.00  0.00    -0.394 OA
ATOM     16  H   UNL     1      22.470  41.870  23.509  1.00  0.00     0.210 HD
ENDBRANCH  14  15
ENDBRANCH   9  14
BRANCH  10  17
ATOM     17  O   UNL     1      23.704  38.682  26.462  1.00  0.00    -0.387 OA
ATOM     18  H   UNL     1      23.138  37.919  26.742  1.00  0.00     0.211 HD
ENDBRANCH  10  17
BRANCH  12  19
ATOM     19  O   UNL     1      21.230  38.874  23.852  1.00  0.00    -0.387 OA
ATOM     20  H   UNL     1      20.308  38.733  24.194  1.00  0.00     0.211 HD
ENDBRANCH  12  19
BRANCH  13  21
ATOM     21  O   UNL     1      23.444  36.230  24.975  1.00  0.00    -0.385 OA
ATOM     22  H   UNL     1      24.415  36.431  24.914  1.00  0.00     0.211 HD
ENDBRANCH  13  21
ENDBRANCH   7   8
ENDBRANCH   1   7
BRANCH   2  23
ATOM     23  C   UNL     1      22.901  35.393  21.014  1.00  0.00     0.191 C 
BRANCH  23  24
ATOM     24  O   UNL     1      21.715  36.010  20.590  1.00  0.00    -0.394 OA
ATOM     25  H   UNL     1      21.860  36.307  19.653  1.00  0.00     0.210 HD
ENDBRANCH  23  24
ENDBRANCH   2  23
BRANCH   6  26
ATOM     26  O   UNL     1      25.813  38.704  21.305  1.00  0.00    -0.387 OA
ATOM     27  H   UNL     1      26.559  39.293  21.019  1.00  0.00     0.211 HD
ENDBRANCH   6  26
BRANCH   5  28
ATOM     28  O   UNL     1      24.768  38.282  17.880  1.00  0.00    -0.385 OA
ATOM     29  H   UNL     1      25.368  38.372  17.094  1.00  0.00     0.211 HD
ENDBRANCH   5  28
BRANCH   4  30
ATOM     30  O   UNL     1      26.858  36.368  20.181  1.00  0.00    -0.341 OA
BRANCH  30  31
ATOM     31  C   UNL     1      28.029  35.754  19.660  1.00  0.00     0.184 C 
ATOM     32  C   UNL     1      28.480  36.483  18.358  1.00  0.00     0.178 C 
ATOM     33  C   UNL     1      29.128  35.767  20.735  1.00  0.00     0.180 C 
ATOM     34  O   UNL     1      29.762  36.080  17.886  1.00  0.00    -0.342 OA
ATOM     35  C   UNL     1      30.447  35.300  20.112  1.00  0.00     0.201 C 
ATOM     36  C   UNL     1      30.790  36.140  18.867  1.00  0.00     0.279 C 
BRANCH  32  37
ATOM     37  C   UNL     1      28.301  38.022  18.351  1.00  0.00     0.191 C 
BRANCH  37  38
ATOM     38  O   UNL     1      28.763  38.612  19.535  1.00  0.00    -0.394 OA
ATOM     39  H   UNL     1      28.158  38.296  20.257  1.00  0.00     0.210 HD
ENDBRANCH  37  38
ENDBRANCH  32  37
BRANCH  33  40
ATOM     40  O   UNL     1      28.782  34.888  21.778  1.00  0.00    -0.387 OA
ATOM     41  H   UNL     1      28.665  33.988  21.375  1.00  0.00     0.211 HD
ENDBRANCH  33  40
BRANCH  35  42
ATOM     42  O   UNL     1      31.492  35.328  21.053  1.00  0.00    -0.385 OA
ATOM     43  H   UNL     1      32.305  35.674  20.598  1.00  0.00     0.211 HD
ENDBRANCH  35  42
BRANCH  36  44
ATOM     44  O   UNL     1      31.090  37.469  19.212  1.00  0.00    -0.366 OA
ATOM     45  H   UNL     1      30.981  38.008  18.386  1.00  0.00     0.213 HD
ENDBRANCH  36  44
ENDBRANCH  30  31
ENDBRANCH   4  30
TORSDOF 18
ENDMDL
