MODEL 1
REMARK VINA RESULT:    -6.654      0.000      0.000
REMARK INTER + INTRA:          -8.354
REMARK INTER:                  -8.015
REMARK INTRA:                  -0.338
REMARK UNBOUND:                -0.338
REMARK SMILES Oc1cc(O)c2cc(O)c(-c3ccc(O)c(O)c3)[o+]c2c1
REMARK SMILES IDX 10 1 19 2 20 3 21 4 2 5 3 6 4 7 6 8 7 9 8 10 11 11 12 12
REMARK SMILES IDX 13 13 14 14 18 15 16 16 15 17 17 19 9 21 1 23 5 25
REMARK H PARENT 15 18 17 20 9 22 1 24 5 26
REMARK Flexibility Score: inf
ROOT
ATOM      1  C   UNL     1      22.793   0.602 103.061  1.00  0.00     0.402 A 
ATOM      2  O   UNL     1      23.780   0.022 103.740  1.00  0.00    -0.202 OA
ATOM      3  C   UNL     1      24.287  -1.164 103.421  1.00  0.00     0.368 A 
ATOM      4  C   UNL     1      25.321  -1.693 104.198  1.00  0.00     0.162 A 
ATOM      5  C   UNL     1      25.871  -2.938 103.888  1.00  0.00     0.128 A 
ATOM      6  C   UNL     1      25.384  -3.661 102.793  1.00  0.00     0.093 A 
ATOM      7  C   UNL     1      24.349  -3.153 101.999  1.00  0.00     0.136 A 
ATOM      8  C   UNL     1      23.789  -1.886 102.310  1.00  0.00     0.125 A 
ATOM      9  C   UNL     1      22.759  -1.293 101.563  1.00  0.00     0.078 A 
ATOM     10  C   UNL     1      22.261  -0.039 101.927  1.00  0.00     0.223 A 
ENDROOT
BRANCH   1  11
ATOM     11  C   UNL     1      22.308   1.922 103.522  1.00  0.00     0.087 A 
ATOM     12  C   UNL     1      22.794   3.117 102.963  1.00  0.00     0.022 A 
ATOM     13  C   UNL     1      22.303   4.351 103.399  1.00  0.00     0.051 A 
ATOM     14  C   UNL     1      21.311   4.409 104.387  1.00  0.00     0.157 A 
ATOM     15  C   UNL     1      21.300   1.985 104.498  1.00  0.00     0.068 A 
ATOM     16  C   UNL     1      20.806   3.220 104.937  1.00  0.00     0.158 A 
BRANCH  14  17
ATOM     17  O   UNL     1      20.825   5.641 104.821  1.00  0.00    -0.504 OA
ATOM     18  H   UNL     1      21.215   6.111 105.630  1.00  0.00     0.293 HD
ENDBRANCH  14  17
BRANCH  16  19
ATOM     19  O   UNL     1      19.813   3.243 105.917  1.00  0.00    -0.504 OA
ATOM     20  H   UNL     1      18.852   2.999 105.714  1.00  0.00     0.293 HD
ENDBRANCH  16  19
ENDBRANCH   1  11
BRANCH  10  21
ATOM     21  O   UNL     1      21.272   0.572 101.156  1.00  0.00    -0.500 OA
ATOM     22  H   UNL     1      20.563   1.165 101.571  1.00  0.00     0.294 HD
ENDBRANCH  10  21
BRANCH   5  23
ATOM     23  O   UNL     1      26.901  -3.447 104.675  1.00  0.00    -0.507 OA
ATOM     24  H   UNL     1      27.454  -2.848 105.277  1.00  0.00     0.293 HD
ENDBRANCH   5  23
BRANCH   7  25
ATOM     25  O   UNL     1      23.917  -3.937 100.926  1.00  0.00    -0.507 OA
ATOM     26  H   UNL     1      22.951  -4.160 100.735  1.00  0.00     0.293 HD
ENDBRANCH   7  25
TORSDOF 6
ENDMDL
MODEL 2
REMARK VINA RESULT:    -6.595      4.300      5.589
REMARK INTER + INTRA:          -8.282
REMARK INTER:                  -7.936
REMARK INTRA:                  -0.346
REMARK UNBOUND:                -0.338
REMARK SMILES Oc1cc(O)c2cc(O)c(-c3ccc(O)c(O)c3)[o+]c2c1
REMARK SMILES IDX 10 1 19 2 20 3 21 4 2 5 3 6 4 7 6 8 7 9 8 10 11 11 12 12
REMARK SMILES IDX 13 13 14 14 18 15 16 16 15 17 17 19 9 21 1 23 5 25
REMARK H PARENT 15 18 17 20 9 22 1 24 5 26
REMARK Flexibility Score: inf
ROOT
ATOM      1  C   UNL     1      25.747   3.699 102.947  1.00  0.00     0.402 A 
ATOM      2  O   UNL     1      26.209   2.702 102.198  1.00  0.00    -0.202 OA
ATOM      3  C   UNL     1      27.416   2.168 102.355  1.00  0.00     0.368 A 
ATOM      4  C   UNL     1      27.813   1.124 101.516  1.00  0.00     0.162 A 
ATOM      5  C   UNL     1      29.075   0.547 101.656  1.00  0.00     0.128 A 
ATOM      6  C   UNL     1      29.950   1.015 102.643  1.00  0.00     0.093 A 
ATOM      7  C   UNL     1      29.576   2.060 103.497  1.00  0.00     0.136 A 
ATOM      8  C   UNL     1      28.292   2.649 103.359  1.00  0.00     0.125 A 
ATOM      9  C   UNL     1      27.827   3.690 104.177  1.00  0.00     0.078 A 
ATOM     10  C   UNL     1      26.546   4.216 103.984  1.00  0.00     0.223 A 
ENDROOT
BRANCH   1  11
ATOM     11  C   UNL     1      24.388   4.215 102.667  1.00  0.00     0.087 A 
ATOM     12  C   UNL     1      23.263   3.720 103.349  1.00  0.00     0.022 A 
ATOM     13  C   UNL     1      21.992   4.239 103.084  1.00  0.00     0.051 A 
ATOM     14  C   UNL     1      21.829   5.266 102.146  1.00  0.00     0.157 A 
ATOM     15  C   UNL     1      24.222   5.258 101.743  1.00  0.00     0.068 A 
ATOM     16  C   UNL     1      22.950   5.780 101.474  1.00  0.00     0.158 A 
BRANCH  14  17
ATOM     17  O   UNL     1      20.560   5.780 101.883  1.00  0.00    -0.504 OA
ATOM     18  H   UNL     1      20.326   6.179 100.981  1.00  0.00     0.293 HD
ENDBRANCH  14  17
BRANCH  16  19
ATOM     19  O   UNL     1      22.823   6.808 100.540  1.00  0.00    -0.504 OA
ATOM     20  H   UNL     1      23.326   7.682 100.630  1.00  0.00     0.293 HD
ENDBRANCH  16  19
ENDBRANCH   1  11
BRANCH  10  21
ATOM     21  O   UNL     1      26.066   5.217 104.829  1.00  0.00    -0.500 OA
ATOM     22  H   UNL     1      26.502   5.414 105.723  1.00  0.00     0.294 HD
ENDBRANCH  10  21
BRANCH   5  23
ATOM     23  O   UNL     1      29.452  -0.493 100.809  1.00  0.00    -0.507 OA
ATOM     24  H   UNL     1      30.427  -0.693 100.616  1.00  0.00     0.293 HD
ENDBRANCH   5  23
BRANCH   7  25
ATOM     25  O   UNL     1      30.507   2.474 104.454  1.00  0.00    -0.507 OA
ATOM     26  H   UNL     1      30.457   3.347 104.958  1.00  0.00     0.293 HD
ENDBRANCH   7  25
TORSDOF 6
ENDMDL
MODEL 3
REMARK VINA RESULT:    -6.345      4.061      5.170
REMARK INTER + INTRA:          -7.981
REMARK INTER:                  -7.687
REMARK INTRA:                  -0.294
REMARK UNBOUND:                -0.338
REMARK SMILES Oc1cc(O)c2cc(O)c(-c3ccc(O)c(O)c3)[o+]c2c1
REMARK SMILES IDX 10 1 19 2 20 3 21 4 2 5 3 6 4 7 6 8 7 9 8 10 11 11 12 12
REMARK SMILES IDX 13 13 14 14 18 15 16 16 15 17 17 19 9 21 1 23 5 25
REMARK H PARENT 15 18 17 20 9 22 1 24 5 26
REMARK Flexibility Score: inf
ROOT
ATOM      1  C   UNL     1      25.720   3.722 102.963  1.00  0.00     0.402 A 
ATOM      2  O   UNL     1      26.081   2.681 102.218  1.00  0.00    -0.202 OA
ATOM      3  C   UNL     1      27.254   2.068 102.337  1.00  0.00     0.368 A 
ATOM      4  C   UNL     1      27.544   0.983 101.506  1.00  0.00     0.162 A 
ATOM      5  C   UNL     1      28.769   0.324 101.607  1.00  0.00     0.128 A 
ATOM      6  C   UNL     1      29.714   0.750 102.547  1.00  0.00     0.093 A 
ATOM      7  C   UNL     1      29.448   1.834 103.392  1.00  0.00     0.136 A 
ATOM      8  C   UNL     1      28.202   2.507 103.293  1.00  0.00     0.125 A 
ATOM      9  C   UNL     1      27.844   3.594 104.107  1.00  0.00     0.078 A 
ATOM     10  C   UNL     1      26.595   4.202 103.955  1.00  0.00     0.223 A 
ENDROOT
BRANCH   1  11
ATOM     11  C   UNL     1      24.389   4.324 102.727  1.00  0.00     0.087 A 
ATOM     12  C   UNL     1      24.141   5.138 101.607  1.00  0.00     0.022 A 
ATOM     13  C   UNL     1      22.869   5.677 101.394  1.00  0.00     0.051 A 
ATOM     14  C   UNL     1      21.824   5.399 102.284  1.00  0.00     0.157 A 
ATOM     15  C   UNL     1      23.333   4.032 103.605  1.00  0.00     0.068 A 
ATOM     16  C   UNL     1      22.057   4.571 103.394  1.00  0.00     0.158 A 
BRANCH  14  17
ATOM     17  O   UNL     1      20.558   5.939 102.069  1.00  0.00    -0.504 OA
ATOM     18  H   UNL     1      19.868   5.464 101.497  1.00  0.00     0.293 HD
ENDBRANCH  14  17
BRANCH  16  19
ATOM     19  O   UNL     1      21.037   4.268 104.295  1.00  0.00    -0.504 OA
ATOM     20  H   UNL     1      20.284   4.916 104.492  1.00  0.00     0.293 HD
ENDBRANCH  16  19
ENDBRANCH   1  11
BRANCH  10  21
ATOM     21  O   UNL     1      26.220   5.250 104.796  1.00  0.00    -0.500 OA
ATOM     22  H   UNL     1      25.250   5.520 104.910  1.00  0.00     0.294 HD
ENDBRANCH  10  21
BRANCH   5  23
ATOM     23  O   UNL     1      29.038  -0.756 100.768  1.00  0.00    -0.507 OA
ATOM     24  H   UNL     1      28.849  -0.714  99.774  1.00  0.00     0.293 HD
ENDBRANCH   5  23
BRANCH   7  25
ATOM     25  O   UNL     1      30.445   2.201 104.301  1.00  0.00    -0.507 OA
ATOM     26  H   UNL     1      30.938   3.081 104.282  1.00  0.00     0.293 HD
ENDBRANCH   7  25
TORSDOF 6
ENDMDL
MODEL 4
REMARK VINA RESULT:    -6.062      2.174      3.085
REMARK INTER + INTRA:          -7.640
REMARK INTER:                  -7.362
REMARK INTRA:                  -0.279
REMARK UNBOUND:                -0.338
REMARK SMILES Oc1cc(O)c2cc(O)c(-c3ccc(O)c(O)c3)[o+]c2c1
REMARK SMILES IDX 10 1 19 2 20 3 21 4 2 5 3 6 4 7 6 8 7 9 8 10 11 11 12 12
REMARK SMILES IDX 13 13 14 14 18 15 16 16 15 17 17 19 9 21 1 23 5 25
REMARK H PARENT 15 18 17 20 9 22 1 24 5 26
REMARK Flexibility Score: inf
ROOT
ATOM      1  C   UNL     1      23.915   2.650 102.953  1.00  0.00     0.402 A 
ATOM      2  O   UNL     1      23.538   1.375 102.933  1.00  0.00    -0.202 OA
ATOM      3  C   UNL     1      24.396   0.360 102.894  1.00  0.00     0.368 A 
ATOM      4  C   UNL     1      23.903  -0.947 102.873  1.00  0.00     0.162 A 
ATOM      5  C   UNL     1      24.780  -2.031 102.829  1.00  0.00     0.128 A 
ATOM      6  C   UNL     1      26.162  -1.809 102.808  1.00  0.00     0.093 A 
ATOM      7  C   UNL     1      26.681  -0.509 102.829  1.00  0.00     0.136 A 
ATOM      8  C   UNL     1      25.792   0.597 102.875  1.00  0.00     0.125 A 
ATOM      9  C   UNL     1      26.221   1.933 102.913  1.00  0.00     0.078 A 
ATOM     10  C   UNL     1      25.285   2.969 102.963  1.00  0.00     0.223 A 
ENDROOT
BRANCH   1  11
ATOM     11  C   UNL     1      22.862   3.690 102.986  1.00  0.00     0.087 A 
ATOM     12  C   UNL     1      22.617   4.519 101.876  1.00  0.00     0.022 A 
ATOM     13  C   UNL     1      21.602   5.478 101.922  1.00  0.00     0.051 A 
ATOM     14  C   UNL     1      20.810   5.616 103.069  1.00  0.00     0.157 A 
ATOM     15  C   UNL     1      22.052   3.818 104.125  1.00  0.00     0.068 A 
ATOM     16  C   UNL     1      21.034   4.779 104.175  1.00  0.00     0.158 A 
BRANCH  14  17
ATOM     17  O   UNL     1      19.800   6.575 103.112  1.00  0.00    -0.504 OA
ATOM     18  H   UNL     1      19.000   6.477 103.728  1.00  0.00     0.293 HD
ENDBRANCH  14  17
BRANCH  16  19
ATOM     19  O   UNL     1      20.258   4.885 105.329  1.00  0.00    -0.504 OA
ATOM     20  H   UNL     1      20.005   4.077 105.882  1.00  0.00     0.293 HD
ENDBRANCH  16  19
ENDBRANCH   1  11
BRANCH  10  21
ATOM     21  O   UNL     1      25.713   4.294 103.051  1.00  0.00    -0.500 OA
ATOM     22  H   UNL     1      26.364   4.689 102.382  1.00  0.00     0.294 HD
ENDBRANCH  10  21
BRANCH   5  23
ATOM     23  O   UNL     1      24.269  -3.327 102.808  1.00  0.00    -0.507 OA
ATOM     24  H   UNL     1      24.725  -4.085 103.303  1.00  0.00     0.293 HD
ENDBRANCH   5  23
BRANCH   7  25
ATOM     25  O   UNL     1      28.072  -0.370 102.802  1.00  0.00    -0.507 OA
ATOM     26  H   UNL     1      28.686  -0.639 103.556  1.00  0.00     0.293 HD
ENDBRANCH   7  25
TORSDOF 6
ENDMDL
MODEL 5
REMARK VINA RESULT:    -5.989      2.906      3.476
REMARK INTER + INTRA:          -7.553
REMARK INTER:                  -7.331
REMARK INTRA:                  -0.222
REMARK UNBOUND:                -0.338
REMARK SMILES Oc1cc(O)c2cc(O)c(-c3ccc(O)c(O)c3)[o+]c2c1
REMARK SMILES IDX 10 1 19 2 20 3 21 4 2 5 3 6 4 7 6 8 7 9 8 10 11 11 12 12
REMARK SMILES IDX 13 13 14 14 18 15 16 16 15 17 17 19 9 21 1 23 5 25
REMARK H PARENT 15 18 17 20 9 22 1 24 5 26
REMARK Flexibility Score: inf
ROOT
ATOM      1  C   UNL     1      23.942   2.611 102.998  1.00  0.00     0.402 A 
ATOM      2  O   UNL     1      25.213   3.001 102.984  1.00  0.00    -0.202 OA
ATOM      3  C   UNL     1      26.237   2.154 102.963  1.00  0.00     0.368 A 
ATOM      4  C   UNL     1      27.539   2.660 102.952  1.00  0.00     0.162 A 
ATOM      5  C   UNL     1      28.633   1.794 102.933  1.00  0.00     0.128 A 
ATOM      6  C   UNL     1      28.426   0.410 102.924  1.00  0.00     0.093 A 
ATOM      7  C   UNL     1      27.131  -0.122 102.934  1.00  0.00     0.136 A 
ATOM      8  C   UNL     1      26.015   0.755 102.952  1.00  0.00     0.125 A 
ATOM      9  C   UNL     1      24.683   0.312 102.949  1.00  0.00     0.078 A 
ATOM     10  C   UNL     1      23.636   1.238 102.962  1.00  0.00     0.223 A 
ENDROOT
BRANCH   1  11
ATOM     11  C   UNL     1      22.890   3.653 103.032  1.00  0.00     0.087 A 
ATOM     12  C   UNL     1      22.665   4.501 101.933  1.00  0.00     0.022 A 
ATOM     13  C   UNL     1      21.651   5.461 101.980  1.00  0.00     0.051 A 
ATOM     14  C   UNL     1      20.839   5.580 103.116  1.00  0.00     0.157 A 
ATOM     15  C   UNL     1      22.062   3.762 104.160  1.00  0.00     0.068 A 
ATOM     16  C   UNL     1      21.045   4.724 104.210  1.00  0.00     0.158 A 
BRANCH  14  17
ATOM     17  O   UNL     1      19.830   6.540 103.159  1.00  0.00    -0.504 OA
ATOM     18  H   UNL     1      18.923   6.376 102.738  1.00  0.00     0.293 HD
ENDBRANCH  14  17
BRANCH  16  19
ATOM     19  O   UNL     1      20.250   4.810 105.353  1.00  0.00    -0.504 OA
ATOM     20  H   UNL     1      20.256   5.627 105.951  1.00  0.00     0.293 HD
ENDBRANCH  16  19
ENDBRANCH   1  11
BRANCH  10  21
ATOM     21  O   UNL     1      22.313   0.798 102.909  1.00  0.00    -0.500 OA
ATOM     22  H   UNL     1      21.569   1.389 102.556  1.00  0.00     0.294 HD
ENDBRANCH  10  21
BRANCH   5  23
ATOM     23  O   UNL     1      29.924   2.319 102.922  1.00  0.00    -0.507 OA
ATOM     24  H   UNL     1      30.650   1.926 102.335  1.00  0.00     0.293 HD
ENDBRANCH   5  23
BRANCH   7  25
ATOM     25  O   UNL     1      27.007  -1.515 102.928  1.00  0.00    -0.507 OA
ATOM     26  H   UNL     1      26.961  -2.079 102.093  1.00  0.00     0.293 HD
ENDBRANCH   7  25
TORSDOF 6
ENDMDL
MODEL 6
REMARK VINA RESULT:    -5.802      5.954      7.563
REMARK INTER + INTRA:          -7.327
REMARK INTER:                  -7.154
REMARK INTRA:                  -0.173
REMARK UNBOUND:                -0.338
REMARK SMILES Oc1cc(O)c2cc(O)c(-c3ccc(O)c(O)c3)[o+]c2c1
REMARK SMILES IDX 10 1 19 2 20 3 21 4 2 5 3 6 4 7 6 8 7 9 8 10 11 11 12 12
REMARK SMILES IDX 13 13 14 14 18 15 16 16 15 17 17 19 9 21 1 23 5 25
REMARK H PARENT 15 18 17 20 9 22 1 24 5 26
REMARK Flexibility Score: inf
ROOT
ATOM      1  C   UNL     1      22.555  -5.582 102.731  1.00  0.00     0.402 A 
ATOM      2  O   UNL     1      21.907  -5.572 103.893  1.00  0.00    -0.202 OA
ATOM      3  C   UNL     1      22.499  -5.801 105.061  1.00  0.00     0.368 A 
ATOM      4  C   UNL     1      21.733  -5.772 106.229  1.00  0.00     0.162 A 
ATOM      5  C   UNL     1      22.326  -6.012 107.469  1.00  0.00     0.128 A 
ATOM      6  C   UNL     1      23.698  -6.281 107.544  1.00  0.00     0.093 A 
ATOM      7  C   UNL     1      24.488  -6.314 106.388  1.00  0.00     0.136 A 
ATOM      8  C   UNL     1      23.888  -6.070 105.126  1.00  0.00     0.125 A 
ATOM      9  C   UNL     1      24.602  -6.070 103.917  1.00  0.00     0.078 A 
ATOM     10  C   UNL     1      23.943  -5.815 102.712  1.00  0.00     0.223 A 
ENDROOT
BRANCH   1  11
ATOM     11  C   UNL     1      21.781  -5.323 101.496  1.00  0.00     0.087 A 
ATOM     12  C   UNL     1      21.734  -6.263 100.451  1.00  0.00     0.022 A 
ATOM     13  C   UNL     1      20.978  -6.006  99.305  1.00  0.00     0.051 A 
ATOM     14  C   UNL     1      20.248  -4.815  99.190  1.00  0.00     0.157 A 
ATOM     15  C   UNL     1      21.031  -4.141 101.386  1.00  0.00     0.068 A 
ATOM     16  C   UNL     1      20.273  -3.880 100.238  1.00  0.00     0.158 A 
BRANCH  14  17
ATOM     17  O   UNL     1      19.496  -4.562  98.044  1.00  0.00    -0.504 OA
ATOM     18  H   UNL     1      18.582  -4.125  98.095  1.00  0.00     0.293 HD
ENDBRANCH  14  17
BRANCH  16  19
ATOM     19  O   UNL     1      19.551  -2.689 100.159  1.00  0.00    -0.504 OA
ATOM     20  H   UNL     1      19.000  -2.448  99.345  1.00  0.00     0.293 HD
ENDBRANCH  16  19
ENDBRANCH   1  11
BRANCH  10  21
ATOM     21  O   UNL     1      24.662  -5.766 101.518  1.00  0.00    -0.500 OA
ATOM     22  H   UNL     1      25.499  -5.203 101.422  1.00  0.00     0.294 HD
ENDBRANCH  10  21
BRANCH   5  23
ATOM     23  O   UNL     1      21.545  -5.979 108.622  1.00  0.00    -0.507 OA
ATOM     24  H   UNL     1      21.028  -5.148 108.888  1.00  0.00     0.293 HD
ENDBRANCH   5  23
BRANCH   7  25
ATOM     25  O   UNL     1      25.848  -6.593 106.546  1.00  0.00    -0.507 OA
ATOM     26  H   UNL     1      26.494  -6.013 107.061  1.00  0.00     0.293 HD
ENDBRANCH   7  25
TORSDOF 6
ENDMDL
MODEL 7
REMARK VINA RESULT:    -5.499      6.354      7.913
REMARK INTER + INTRA:          -6.962
REMARK INTER:                  -6.669
REMARK INTRA:                  -0.293
REMARK UNBOUND:                -0.338
REMARK SMILES Oc1cc(O)c2cc(O)c(-c3ccc(O)c(O)c3)[o+]c2c1
REMARK SMILES IDX 10 1 19 2 20 3 21 4 2 5 3 6 4 7 6 8 7 9 8 10 11 11 12 12
REMARK SMILES IDX 13 13 14 14 18 15 16 16 15 17 17 19 9 21 1 23 5 25
REMARK H PARENT 15 18 17 20 9 22 1 24 5 26
REMARK Flexibility Score: inf
ROOT
ATOM      1  C   UNL     1      29.087   2.286 103.962  1.00  0.00     0.402 A 
ATOM      2  O   UNL     1      28.762   1.860 102.745  1.00  0.00    -0.202 OA
ATOM      3  C   UNL     1      27.790   0.983 102.514  1.00  0.00     0.368 A 
ATOM      4  C   UNL     1      27.524   0.594 101.198  1.00  0.00     0.162 A 
ATOM      5  C   UNL     1      26.512  -0.327 100.926  1.00  0.00     0.128 A 
ATOM      6  C   UNL     1      25.758  -0.864 101.976  1.00  0.00     0.093 A 
ATOM      7  C   UNL     1      26.004  -0.489 103.302  1.00  0.00     0.136 A 
ATOM      8  C   UNL     1      27.032   0.448 103.583  1.00  0.00     0.125 A 
ATOM      9  C   UNL     1      27.340   0.892 104.879  1.00  0.00     0.078 A 
ATOM     10  C   UNL     1      28.364   1.823 105.077  1.00  0.00     0.223 A 
ENDROOT
BRANCH   1  11
ATOM     11  C   UNL     1      30.197   3.257 104.091  1.00  0.00     0.087 A 
ATOM     12  C   UNL     1      29.952   4.621 104.335  1.00  0.00     0.022 A 
ATOM     13  C   UNL     1      31.017   5.515 104.475  1.00  0.00     0.051 A 
ATOM     14  C   UNL     1      32.340   5.060 104.388  1.00  0.00     0.157 A 
ATOM     15  C   UNL     1      31.524   2.804 104.025  1.00  0.00     0.068 A 
ATOM     16  C   UNL     1      32.593   3.697 104.165  1.00  0.00     0.158 A 
BRANCH  14  17
ATOM     17  O   UNL     1      33.399   5.955 104.527  1.00  0.00    -0.504 OA
ATOM     18  H   UNL     1      33.258   6.957 104.468  1.00  0.00     0.293 HD
ENDBRANCH  14  17
BRANCH  16  19
ATOM     19  O   UNL     1      33.898   3.211 104.081  1.00  0.00    -0.504 OA
ATOM     20  H   UNL     1      34.276   2.566 104.764  1.00  0.00     0.293 HD
ENDBRANCH  16  19
ENDBRANCH   1  11
BRANCH  10  21
ATOM     21  O   UNL     1      28.637   2.300 106.359  1.00  0.00    -0.500 OA
ATOM     22  H   UNL     1      29.577   2.550 106.645  1.00  0.00     0.294 HD
ENDBRANCH  10  21
BRANCH   5  23
ATOM     23  O   UNL     1      26.263  -0.703  99.608  1.00  0.00    -0.507 OA
ATOM     24  H   UNL     1      26.168  -0.014  98.870  1.00  0.00     0.293 HD
ENDBRANCH   5  23
BRANCH   7  25
ATOM     25  O   UNL     1      25.210  -1.073 104.294  1.00  0.00    -0.507 OA
ATOM     26  H   UNL     1      24.436  -0.613 104.749  1.00  0.00     0.293 HD
ENDBRANCH   7  25
TORSDOF 6
ENDMDL
MODEL 8
REMARK VINA RESULT:    -5.498     10.034     11.102
REMARK INTER + INTRA:          -6.961
REMARK INTER:                  -6.859
REMARK INTRA:                  -0.102
REMARK UNBOUND:                -0.338
REMARK SMILES Oc1cc(O)c2cc(O)c(-c3ccc(O)c(O)c3)[o+]c2c1
REMARK SMILES IDX 10 1 19 2 20 3 21 4 2 5 3 6 4 7 6 8 7 9 8 10 11 11 12 12
REMARK SMILES IDX 13 13 14 14 18 15 16 16 15 17 17 19 9 21 1 23 5 25
REMARK H PARENT 15 18 17 20 9 22 1 24 5 26
REMARK Flexibility Score: inf
ROOT
ATOM      1  C   UNL     1      32.733   2.907 102.641  1.00  0.00     0.402 A 
ATOM      2  O   UNL     1      32.187   3.467 103.716  1.00  0.00    -0.202 OA
ATOM      3  C   UNL     1      32.285   2.952 104.938  1.00  0.00     0.368 A 
ATOM      4  C   UNL     1      31.673   3.612 106.006  1.00  0.00     0.162 A 
ATOM      5  C   UNL     1      31.757   3.092 107.298  1.00  0.00     0.128 A 
ATOM      6  C   UNL     1      32.461   1.904 107.527  1.00  0.00     0.093 A 
ATOM      7  C   UNL     1      33.083   1.224 106.473  1.00  0.00     0.136 A 
ATOM      8  C   UNL     1      33.001   1.750 105.158  1.00  0.00     0.125 A 
ATOM      9  C   UNL     1      33.604   1.144 104.044  1.00  0.00     0.078 A 
ATOM     10  C   UNL     1      33.484   1.725 102.778  1.00  0.00     0.223 A 
ENDROOT
BRANCH   1  11
ATOM     11  C   UNL     1      32.544   3.573 101.332  1.00  0.00     0.087 A 
ATOM     12  C   UNL     1      32.048   2.871 100.219  1.00  0.00     0.022 A 
ATOM     13  C   UNL     1      31.855   3.528  99.000  1.00  0.00     0.051 A 
ATOM     14  C   UNL     1      32.141   4.894  98.878  1.00  0.00     0.157 A 
ATOM     15  C   UNL     1      32.809   4.946 101.211  1.00  0.00     0.068 A 
ATOM     16  C   UNL     1      32.618   5.607  99.990  1.00  0.00     0.158 A 
BRANCH  14  17
ATOM     17  O   UNL     1      31.949   5.544  97.661  1.00  0.00    -0.504 OA
ATOM     18  H   UNL     1      31.168   5.317  97.055  1.00  0.00     0.293 HD
ENDBRANCH  14  17
BRANCH  16  19
ATOM     19  O   UNL     1      32.904   6.969  99.905  1.00  0.00    -0.504 OA
ATOM     20  H   UNL     1      33.358   7.471 100.658  1.00  0.00     0.293 HD
ENDBRANCH  16  19
ENDBRANCH   1  11
BRANCH  10  21
ATOM     21  O   UNL     1      34.125   1.150 101.681  1.00  0.00    -0.500 OA
ATOM     22  H   UNL     1      34.822   1.655 101.146  1.00  0.00     0.294 HD
ENDBRANCH  10  21
BRANCH   5  23
ATOM     23  O   UNL     1      31.140   3.766 108.350  1.00  0.00    -0.507 OA
ATOM     24  H   UNL     1      30.809   4.718 108.248  1.00  0.00     0.293 HD
ENDBRANCH   5  23
BRANCH   7  25
ATOM     25  O   UNL     1      33.763   0.042 106.782  1.00  0.00    -0.507 OA
ATOM     26  H   UNL     1      33.695  -0.440 107.666  1.00  0.00     0.293 HD
ENDBRANCH   7  25
TORSDOF 6
ENDMDL
MODEL 9
REMARK VINA RESULT:    -5.396      4.454      6.716
REMARK INTER + INTRA:          -6.839
REMARK INTER:                  -6.495
REMARK INTRA:                  -0.343
REMARK UNBOUND:                -0.338
REMARK SMILES Oc1cc(O)c2cc(O)c(-c3ccc(O)c(O)c3)[o+]c2c1
REMARK SMILES IDX 10 1 19 2 20 3 21 4 2 5 3 6 4 7 6 8 7 9 8 10 11 11 12 12
REMARK SMILES IDX 13 13 14 14 18 15 16 16 15 17 17 19 9 21 1 23 5 25
REMARK H PARENT 15 18 17 20 9 22 1 24 5 26
REMARK Flexibility Score: inf
ROOT
ATOM      1  C   UNL     1      24.221  -2.465 101.643  1.00  0.00     0.402 A 
ATOM      2  O   UNL     1      24.723  -2.334 102.868  1.00  0.00    -0.202 OA
ATOM      3  C   UNL     1      25.582  -1.378 103.207  1.00  0.00     0.368 A 
ATOM      4  C   UNL     1      26.056  -1.325 104.521  1.00  0.00     0.162 A 
ATOM      5  C   UNL     1      26.960  -0.334 104.905  1.00  0.00     0.128 A 
ATOM      6  C   UNL     1      27.395   0.613 103.970  1.00  0.00     0.093 A 
ATOM      7  C   UNL     1      26.934   0.581 102.648  1.00  0.00     0.136 A 
ATOM      8  C   UNL     1      26.013  -0.424 102.254  1.00  0.00     0.125 A 
ATOM      9  C   UNL     1      25.488  -0.525 100.956  1.00  0.00     0.078 A 
ATOM     10  C   UNL     1      24.579  -1.540 100.643  1.00  0.00     0.223 A 
ENDROOT
BRANCH   1  11
ATOM     11  C   UNL     1      23.280  -3.578 101.386  1.00  0.00     0.087 A 
ATOM     12  C   UNL     1      21.889  -3.398 101.483  1.00  0.00     0.022 A 
ATOM     13  C   UNL     1      21.019  -4.458 101.214  1.00  0.00     0.051 A 
ATOM     14  C   UNL     1      21.524  -5.708 100.831  1.00  0.00     0.157 A 
ATOM     15  C   UNL     1      23.780  -4.826 100.983  1.00  0.00     0.068 A 
ATOM     16  C   UNL     1      22.912  -5.891 100.713  1.00  0.00     0.158 A 
BRANCH  14  17
ATOM     17  O   UNL     1      20.654  -6.764 100.565  1.00  0.00    -0.504 OA
ATOM     18  H   UNL     1      20.897  -7.500  99.912  1.00  0.00     0.293 HD
ENDBRANCH  14  17
BRANCH  16  19
ATOM     19  O   UNL     1      23.446  -7.121 100.327  1.00  0.00    -0.504 OA
ATOM     20  H   UNL     1      24.330  -7.459 100.687  1.00  0.00     0.293 HD
ENDBRANCH  16  19
ENDBRANCH   1  11
BRANCH  10  21
ATOM     21  O   UNL     1      24.020  -1.611  99.368  1.00  0.00    -0.500 OA
ATOM     22  H   UNL     1      24.574  -1.857  98.556  1.00  0.00     0.294 HD
ENDBRANCH  10  21
BRANCH   5  23
ATOM     23  O   UNL     1      27.421  -0.298 106.219  1.00  0.00    -0.507 OA
ATOM     24  H   UNL     1      27.687  -1.144 106.710  1.00  0.00     0.293 HD
ENDBRANCH   5  23
BRANCH   7  25
ATOM     25  O   UNL     1      27.418   1.558 101.774  1.00  0.00    -0.507 OA
ATOM     26  H   UNL     1      28.265   1.470 101.233  1.00  0.00     0.293 HD
ENDBRANCH   7  25
TORSDOF 6
ENDMDL
