MODEL 1
REMARK VINA RESULT:    -4.588      0.000      0.000
REMARK INTER + INTRA:          -5.881
REMARK INTER:                  -5.392
REMARK INTRA:                  -0.489
REMARK UNBOUND:                -0.489
REMARK SMILES C=C[C@]1(C)CC[C@@H](C(=C)C)C[C@@H]1C(=C)C
REMARK SMILES IDX 7 1 6 2 5 3 3 4 12 5 11 6 4 7 8 8 10 9 9 10 13 11 14 12
REMARK SMILES IDX 15 13 2 14 1 15
REMARK H PARENT
REMARK Flexibility Score: inf
ROOT
ATOM      1  C   UNL     1      43.323  19.511  -4.426  1.00  0.00     0.015 C 
ATOM      2  C   UNL     1      42.955  20.913  -3.922  1.00  0.00     0.009 C 
ATOM      3  C   UNL     1      41.753  20.875  -2.970  1.00  0.00     0.012 C 
ATOM      4  C   UNL     1      41.942  19.911  -1.755  1.00  0.00    -0.008 C 
ATOM      5  C   UNL     1      42.482  18.491  -2.206  1.00  0.00     0.024 C 
ATOM      6  C   UNL     1      43.625  18.565  -3.250  1.00  0.00     0.017 C 
ATOM      7  C   UNL     1      42.962  20.544  -0.771  1.00  0.00     0.016 C 
ENDROOT
BRANCH   1   8
ATOM      8  C   UNL     1      44.493  19.566  -5.403  1.00  0.00    -0.077 C 
ATOM      9  C   UNL     1      45.390  18.367  -5.577  1.00  0.00     0.039 C 
ATOM     10  C   UNL     1      44.752  20.670  -6.125  1.00  0.00     0.008 C 
ENDBRANCH   1   8
BRANCH   5  11
ATOM     11  C   UNL     1      41.436  17.429  -2.600  1.00  0.00    -0.077 C 
ATOM     12  C   UNL     1      40.614  17.529  -3.654  1.00  0.00     0.008 C 
ATOM     13  C   UNL     1      41.298  16.175  -1.773  1.00  0.00     0.039 C 
ENDBRANCH   5  11
BRANCH   4  14
ATOM     14  C   UNL     1      40.620  19.765  -0.998  1.00  0.00    -0.028 C 
ATOM     15  C   UNL     1      40.171  20.673  -0.120  1.00  0.00     0.004 C 
ENDBRANCH   4  14
TORSDOF 3
ENDMDL
MODEL 2
REMARK VINA RESULT:    -4.265      1.096      3.390
REMARK INTER + INTRA:          -5.502
REMARK INTER:                  -4.996
REMARK INTRA:                  -0.505
REMARK UNBOUND:                -0.489
REMARK SMILES C=C[C@]1(C)CC[C@@H](C(=C)C)C[C@@H]1C(=C)C
REMARK SMILES IDX 7 1 6 2 5 3 3 4 12 5 11 6 4 7 8 8 10 9 9 10 13 11 14 12
REMARK SMILES IDX 15 13 2 14 1 15
REMARK H PARENT
REMARK Flexibility Score: inf
ROOT
ATOM      1  C   UNL     1      43.219  20.597  -4.372  1.00  0.00     0.015 C 
ATOM      2  C   UNL     1      43.704  19.186  -4.730  1.00  0.00     0.009 C 
ATOM      3  C   UNL     1      43.527  18.212  -3.557  1.00  0.00     0.012 C 
ATOM      4  C   UNL     1      42.065  18.145  -3.010  1.00  0.00    -0.008 C 
ATOM      5  C   UNL     1      41.455  19.588  -2.778  1.00  0.00     0.024 C 
ATOM      6  C   UNL     1      41.744  20.578  -3.934  1.00  0.00     0.017 C 
ATOM      7  C   UNL     1      41.182  17.388  -4.039  1.00  0.00     0.016 C 
ENDROOT
BRANCH   1   8
ATOM      8  C   UNL     1      43.438  21.565  -5.530  1.00  0.00    -0.077 C 
ATOM      9  C   UNL     1      42.269  22.308  -6.125  1.00  0.00     0.039 C 
ATOM     10  C   UNL     1      44.661  21.777  -6.046  1.00  0.00     0.008 C 
ENDBRANCH   1   8
BRANCH   5  11
ATOM     11  C   UNL     1      41.700  20.247  -1.406  1.00  0.00    -0.077 C 
ATOM     12  C   UNL     1      42.897  20.656  -0.965  1.00  0.00     0.008 C 
ATOM     13  C   UNL     1      40.541  20.470  -0.467  1.00  0.00     0.039 C 
ENDBRANCH   5  11
BRANCH   4  14
ATOM     14  C   UNL     1      42.035  17.334  -1.712  1.00  0.00    -0.028 C 
ATOM     15  C   UNL     1      41.451  16.132  -1.608  1.00  0.00     0.004 C 
ENDBRANCH   4  14
TORSDOF 3
ENDMDL
MODEL 3
REMARK VINA RESULT:    -4.005      0.924      1.592
REMARK INTER + INTRA:          -5.197
REMARK INTER:                  -4.748
REMARK INTRA:                  -0.449
REMARK UNBOUND:                -0.489
REMARK SMILES C=C[C@]1(C)CC[C@@H](C(=C)C)C[C@@H]1C(=C)C
REMARK SMILES IDX 7 1 6 2 5 3 3 4 12 5 11 6 4 7 8 8 10 9 9 10 13 11 14 12
REMARK SMILES IDX 15 13 2 14 1 15
REMARK H PARENT
REMARK Flexibility Score: inf
ROOT
ATOM      1  C   UNL     1      44.127  18.247  -4.456  1.00  0.00     0.015 C 
ATOM      2  C   UNL     1      43.986  19.775  -4.492  1.00  0.00     0.009 C 
ATOM      3  C   UNL     1      42.663  20.237  -3.868  1.00  0.00     0.012 C 
ATOM      4  C   UNL     1      42.441  19.722  -2.410  1.00  0.00    -0.008 C 
ATOM      5  C   UNL     1      42.735  18.171  -2.281  1.00  0.00     0.024 C 
ATOM      6  C   UNL     1      44.023  17.720  -3.014  1.00  0.00     0.017 C 
ATOM      7  C   UNL     1      43.396  20.493  -1.459  1.00  0.00     0.016 C 
ENDROOT
BRANCH   1   8
ATOM      8  C   UNL     1      45.426  17.797  -5.115  1.00  0.00    -0.077 C 
ATOM      9  C   UNL     1      46.123  16.549  -4.639  1.00  0.00     0.039 C 
ATOM     10  C   UNL     1      45.978  18.493  -6.124  1.00  0.00     0.008 C 
ENDBRANCH   1   8
BRANCH   5  11
ATOM     11  C   UNL     1      41.567  17.204  -2.561  1.00  0.00    -0.077 C 
ATOM     12  C   UNL     1      41.148  16.256  -1.711  1.00  0.00     0.008 C 
ATOM     13  C   UNL     1      40.815  17.299  -3.865  1.00  0.00     0.039 C 
ENDBRANCH   5  11
BRANCH   4  14
ATOM     14  C   UNL     1      41.012  20.036  -1.961  1.00  0.00    -0.028 C 
ATOM     15  C   UNL     1      40.681  20.298  -0.688  1.00  0.00     0.004 C 
ENDBRANCH   4  14
TORSDOF 3
ENDMDL
MODEL 4
REMARK VINA RESULT:    -3.922      1.622      3.499
REMARK INTER + INTRA:          -5.099
REMARK INTER:                  -4.479
REMARK INTRA:                  -0.620
REMARK UNBOUND:                -0.489
REMARK SMILES C=C[C@]1(C)CC[C@@H](C(=C)C)C[C@@H]1C(=C)C
REMARK SMILES IDX 7 1 6 2 5 3 3 4 12 5 11 6 4 7 8 8 10 9 9 10 13 11 14 12
REMARK SMILES IDX 15 13 2 14 1 15
REMARK H PARENT
REMARK Flexibility Score: inf
ROOT
ATOM      1  C   UNL     1      43.926  17.586  -3.177  1.00  0.00     0.015 C 
ATOM      2  C   UNL     1      43.070  16.908  -2.099  1.00  0.00     0.009 C 
ATOM      3  C   UNL     1      42.014  17.863  -1.530  1.00  0.00     0.012 C 
ATOM      4  C   UNL     1      41.088  18.497  -2.617  1.00  0.00    -0.008 C 
ATOM      5  C   UNL     1      41.917  19.069  -3.839  1.00  0.00     0.024 C 
ATOM      6  C   UNL     1      43.047  18.124  -4.319  1.00  0.00     0.017 C 
ATOM      7  C   UNL     1      40.115  17.405  -3.140  1.00  0.00     0.016 C 
ENDROOT
BRANCH   1   8
ATOM      8  C   UNL     1      44.999  16.640  -3.706  1.00  0.00    -0.077 C 
ATOM      9  C   UNL     1      45.071  15.222  -3.201  1.00  0.00     0.039 C 
ATOM     10  C   UNL     1      45.897  17.040  -4.622  1.00  0.00     0.008 C 
ENDBRANCH   1   8
BRANCH   5  11
ATOM     11  C   UNL     1      42.415  20.525  -3.735  1.00  0.00    -0.077 C 
ATOM     12  C   UNL     1      43.389  20.936  -2.911  1.00  0.00     0.008 C 
ATOM     13  C   UNL     1      41.796  21.590  -4.606  1.00  0.00     0.039 C 
ENDBRANCH   5  11
BRANCH   4  14
ATOM     14  C   UNL     1      40.229  19.598  -1.988  1.00  0.00    -0.028 C 
ATOM     15  C   UNL     1      40.435  20.078  -0.754  1.00  0.00     0.004 C 
ENDBRANCH   4  14
TORSDOF 3
ENDMDL
MODEL 5
REMARK VINA RESULT:    -3.826      5.822      8.287
REMARK INTER + INTRA:          -4.986
REMARK INTER:                  -4.407
REMARK INTRA:                  -0.579
REMARK UNBOUND:                -0.489
REMARK SMILES C=C[C@]1(C)CC[C@@H](C(=C)C)C[C@@H]1C(=C)C
REMARK SMILES IDX 7 1 6 2 5 3 3 4 12 5 11 6 4 7 8 8 10 9 9 10 13 11 14 12
REMARK SMILES IDX 15 13 2 14 1 15
REMARK H PARENT
REMARK Flexibility Score: inf
ROOT
ATOM      1  C   UNL     1      47.434  12.402  -2.330  1.00  0.00     0.015 C 
ATOM      2  C   UNL     1      48.288  12.315  -3.602  1.00  0.00     0.009 C 
ATOM      3  C   UNL     1      47.743  13.222  -4.713  1.00  0.00     0.012 C 
ATOM      4  C   UNL     1      47.585  14.716  -4.285  1.00  0.00    -0.008 C 
ATOM      5  C   UNL     1      46.851  14.856  -2.888  1.00  0.00     0.024 C 
ATOM      6  C   UNL     1      47.352  13.852  -1.820  1.00  0.00     0.017 C 
ATOM      7  C   UNL     1      48.997  15.354  -4.174  1.00  0.00     0.016 C 
ENDROOT
BRANCH   1   8
ATOM      8  C   UNL     1      47.961  11.466  -1.247  1.00  0.00    -0.077 C 
ATOM      9  C   UNL     1      47.099  11.124  -0.058  1.00  0.00     0.039 C 
ATOM     10  C   UNL     1      49.191  10.929  -1.322  1.00  0.00     0.008 C 
ENDBRANCH   1   8
BRANCH   5  11
ATOM     11  C   UNL     1      45.311  14.931  -2.903  1.00  0.00    -0.077 C 
ATOM     12  C   UNL     1      44.505  13.891  -3.158  1.00  0.00     0.008 C 
ATOM     13  C   UNL     1      44.624  16.242  -2.612  1.00  0.00     0.039 C 
ENDBRANCH   5  11
BRANCH   4  14
ATOM     14  C   UNL     1      46.828  15.488  -5.369  1.00  0.00    -0.028 C 
ATOM     15  C   UNL     1      46.982  16.804  -5.578  1.00  0.00     0.004 C 
ENDBRANCH   4  14
TORSDOF 3
ENDMDL
MODEL 6
REMARK VINA RESULT:    -3.757      1.728      3.699
REMARK INTER + INTRA:          -4.905
REMARK INTER:                  -4.408
REMARK INTRA:                  -0.496
REMARK UNBOUND:                -0.489
REMARK SMILES C=C[C@]1(C)CC[C@@H](C(=C)C)C[C@@H]1C(=C)C
REMARK SMILES IDX 7 1 6 2 5 3 3 4 12 5 11 6 4 7 8 8 10 9 9 10 13 11 14 12
REMARK SMILES IDX 15 13 2 14 1 15
REMARK H PARENT
REMARK Flexibility Score: inf
ROOT
ATOM      1  C   UNL     1      43.465  17.542  -3.585  1.00  0.00     0.015 C 
ATOM      2  C   UNL     1      43.359  17.911  -5.071  1.00  0.00     0.009 C 
ATOM      3  C   UNL     1      42.391  19.079  -5.296  1.00  0.00     0.012 C 
ATOM      4  C   UNL     1      42.737  20.353  -4.461  1.00  0.00    -0.008 C 
ATOM      5  C   UNL     1      43.021  20.004  -2.942  1.00  0.00     0.024 C 
ATOM      6  C   UNL     1      43.915  18.753  -2.749  1.00  0.00     0.017 C 
ATOM      7  C   UNL     1      44.003  21.017  -5.066  1.00  0.00     0.016 C 
ENDROOT
BRANCH   1   8
ATOM      8  C   UNL     1      44.398  16.353  -3.378  1.00  0.00    -0.077 C 
ATOM      9  C   UNL     1      45.818  16.409  -3.880  1.00  0.00     0.039 C 
ATOM     10  C   UNL     1      43.984  15.238  -2.751  1.00  0.00     0.008 C 
ENDBRANCH   1   8
BRANCH   5  11
ATOM     11  C   UNL     1      41.812  19.978  -1.985  1.00  0.00    -0.077 C 
ATOM     12  C   UNL     1      40.807  19.095  -2.058  1.00  0.00     0.008 C 
ATOM     13  C   UNL     1      41.717  20.994  -0.874  1.00  0.00     0.039 C 
ENDBRANCH   5  11
BRANCH   4  14
ATOM     14  C   UNL     1      41.600  21.372  -4.573  1.00  0.00    -0.028 C 
ATOM     15  C   UNL     1      41.436  22.178  -5.632  1.00  0.00     0.004 C 
ENDBRANCH   4  14
TORSDOF 3
ENDMDL
MODEL 7
REMARK VINA RESULT:    -3.726      1.499      4.671
REMARK INTER + INTRA:          -4.869
REMARK INTER:                  -4.272
REMARK INTRA:                  -0.597
REMARK UNBOUND:                -0.489
REMARK SMILES C=C[C@]1(C)CC[C@@H](C(=C)C)C[C@@H]1C(=C)C
REMARK SMILES IDX 7 1 6 2 5 3 3 4 12 5 11 6 4 7 8 8 10 9 9 10 13 11 14 12
REMARK SMILES IDX 15 13 2 14 1 15
REMARK H PARENT
REMARK Flexibility Score: inf
ROOT
ATOM      1  C   UNL     1      42.354  19.365  -2.311  1.00  0.00     0.015 C 
ATOM      2  C   UNL     1      42.943  20.376  -3.305  1.00  0.00     0.009 C 
ATOM      3  C   UNL     1      43.959  19.717  -4.247  1.00  0.00     0.012 C 
ATOM      4  C   UNL     1      43.391  18.485  -5.022  1.00  0.00    -0.008 C 
ATOM      5  C   UNL     1      42.625  17.485  -4.062  1.00  0.00     0.024 C 
ATOM      6  C   UNL     1      41.687  18.192  -3.050  1.00  0.00     0.017 C 
ATOM      7  C   UNL     1      42.403  18.991  -6.108  1.00  0.00     0.016 C 
ENDROOT
BRANCH   1   8
ATOM      8  C   UNL     1      41.377  20.040  -1.353  1.00  0.00    -0.077 C 
ATOM      9  C   UNL     1      39.926  19.631  -1.342  1.00  0.00     0.039 C 
ATOM     10  C   UNL     1      41.777  21.003  -0.506  1.00  0.00     0.008 C 
ENDBRANCH   1   8
BRANCH   5  11
ATOM     11  C   UNL     1      43.458  16.386  -3.374  1.00  0.00    -0.077 C 
ATOM     12  C   UNL     1      44.438  16.619  -2.490  1.00  0.00     0.008 C 
ATOM     13  C   UNL     1      43.185  14.935  -3.685  1.00  0.00     0.039 C 
ENDBRANCH   5  11
BRANCH   4  14
ATOM     14  C   UNL     1      44.527  17.763  -5.752  1.00  0.00    -0.028 C 
ATOM     15  C   UNL     1      45.798  18.190  -5.740  1.00  0.00     0.004 C 
ENDBRANCH   4  14
TORSDOF 3
ENDMDL
MODEL 8
REMARK VINA RESULT:    -3.712      1.888      4.821
REMARK INTER + INTRA:          -4.852
REMARK INTER:                  -4.237
REMARK INTRA:                  -0.615
REMARK UNBOUND:                -0.489
REMARK SMILES C=C[C@]1(C)CC[C@@H](C(=C)C)C[C@@H]1C(=C)C
REMARK SMILES IDX 7 1 6 2 5 3 3 4 12 5 11 6 4 7 8 8 10 9 9 10 13 11 14 12
REMARK SMILES IDX 15 13 2 14 1 15
REMARK H PARENT
REMARK Flexibility Score: inf
ROOT
ATOM      1  C   UNL     1      41.401  19.036  -1.860  1.00  0.00     0.015 C 
ATOM      2  C   UNL     1      40.056  18.622  -2.471  1.00  0.00     0.009 C 
ATOM      3  C   UNL     1      40.225  17.502  -3.507  1.00  0.00     0.012 C 
ATOM      4  C   UNL     1      40.965  16.242  -2.955  1.00  0.00    -0.008 C 
ATOM      5  C   UNL     1      42.283  16.628  -2.167  1.00  0.00     0.024 C 
ATOM      6  C   UNL     1      42.103  17.832  -1.209  1.00  0.00     0.017 C 
ATOM      7  C   UNL     1      40.010  15.486  -1.992  1.00  0.00     0.016 C 
ENDROOT
BRANCH   1   8
ATOM      8  C   UNL     1      41.225  20.177  -0.863  1.00  0.00    -0.077 C 
ATOM      9  C   UNL     1      39.883  20.417  -0.218  1.00  0.00     0.039 C 
ATOM     10  C   UNL     1      42.246  20.988  -0.537  1.00  0.00     0.008 C 
ENDBRANCH   1   8
BRANCH   5  11
ATOM     11  C   UNL     1      43.584  16.757  -2.985  1.00  0.00    -0.077 C 
ATOM     12  C   UNL     1      43.822  17.723  -3.883  1.00  0.00     0.008 C 
ATOM     13  C   UNL     1      44.691  15.751  -2.790  1.00  0.00     0.039 C 
ENDBRANCH   5  11
BRANCH   4  14
ATOM     14  C   UNL     1      41.288  15.286  -4.107  1.00  0.00    -0.028 C 
ATOM     15  C   UNL     1      40.782  15.421  -5.340  1.00  0.00     0.004 C 
ENDBRANCH   4  14
TORSDOF 3
ENDMDL
MODEL 9
REMARK VINA RESULT:    -2.272      1.210      5.130
REMARK INTER + INTRA:          -3.160
REMARK INTER:                  -2.618
REMARK INTRA:                  -0.542
REMARK UNBOUND:                -0.489
REMARK SMILES C=C[C@]1(C)CC[C@@H](C(=C)C)C[C@@H]1C(=C)C
REMARK SMILES IDX 7 1 6 2 5 3 3 4 12 5 11 6 4 7 8 8 10 9 9 10 13 11 14 12
REMARK SMILES IDX 15 13 2 14 1 15
REMARK H PARENT
REMARK Flexibility Score: inf
ROOT
ATOM      1  C   UNL     1      41.756  19.811  -2.290  1.00  0.00     0.015 C 
ATOM      2  C   UNL     1      41.608  18.284  -2.329  1.00  0.00     0.009 C 
ATOM      3  C   UNL     1      42.012  17.710  -3.694  1.00  0.00     0.012 C 
ATOM      4  C   UNL     1      43.454  18.111  -4.142  1.00  0.00    -0.008 C 
ATOM      5  C   UNL     1      43.717  19.663  -3.966  1.00  0.00     0.024 C 
ATOM      6  C   UNL     1      43.199  20.231  -2.620  1.00  0.00     0.017 C 
ATOM      7  C   UNL     1      44.480  17.328  -3.279  1.00  0.00     0.016 C 
ENDROOT
BRANCH   1   8
ATOM      8  C   UNL     1      41.312  20.373  -0.944  1.00  0.00    -0.077 C 
ATOM      9  C   UNL     1      39.875  20.246  -0.508  1.00  0.00     0.039 C 
ATOM     10  C   UNL     1      42.178  20.991  -0.122  1.00  0.00     0.008 C 
ENDBRANCH   1   8
BRANCH   5  11
ATOM     11  C   UNL     1      43.337  20.583  -5.143  1.00  0.00    -0.077 C 
ATOM     12  C   UNL     1      42.089  20.743  -5.607  1.00  0.00     0.008 C 
ATOM     13  C   UNL     1      44.408  21.379  -5.845  1.00  0.00     0.039 C 
ENDBRANCH   5  11
BRANCH   4  14
ATOM     14  C   UNL     1      43.680  17.691  -5.597  1.00  0.00    -0.028 C 
ATOM     15  C   UNL     1      44.890  17.412  -6.103  1.00  0.00     0.004 C 
ENDBRANCH   4  14
TORSDOF 3
ENDMDL
