MODEL 1
REMARK VINA RESULT:    -5.322      0.000      0.000
REMARK INTER + INTRA:          -5.322
REMARK INTER:                  -5.322
REMARK INTRA:                   0.000
REMARK UNBOUND:                 0.000
REMARK SMILES C=C1CCC[C@@]2(C)CC(=O)C(=C(C)C)C[C@@H]12
REMARK SMILES IDX 13 1 12 2 11 3 15 4 16 5 2 6 1 7 3 8 4 9 5 10 6 11 8 12 9 13
REMARK SMILES IDX 10 14 7 15 14 16
REMARK H PARENT
REMARK Flexibility Score: inf
ROOT
ATOM      1  C   UNL     1      35.594  68.313 101.747  1.00  0.00     0.039 C 
ATOM      2  C   UNL     1      35.336  69.532 102.601  1.00  0.00    -0.070 C 
ATOM      3  C   UNL     1      34.421  69.511 103.613  1.00  0.00    -0.006 C 
ATOM      4  C   UNL     1      34.173  70.713 104.502  1.00  0.00     0.047 C 
ATOM      5  C   UNL     1      33.823  70.336 105.964  1.00  0.00     0.025 C 
ATOM      6  C   UNL     1      33.364  71.588 106.694  1.00  0.00    -0.073 C 
ATOM      7  C   UNL     1      34.214  72.276 107.471  1.00  0.00     0.008 C 
ATOM      8  C   UNL     1      31.980  72.132 106.403  1.00  0.00     0.031 C 
ATOM      9  C   UNL     1      30.920  71.024 106.427  1.00  0.00     0.005 C 
ATOM     10  C   UNL     1      31.349  69.772 105.640  1.00  0.00     0.008 C 
ATOM     11  C   UNL     1      32.736  69.221 106.088  1.00  0.00    -0.018 C 
ATOM     12  C   UNL     1      33.125  67.991 105.226  1.00  0.00     0.088 C 
ATOM     13  C   UNL     1      33.508  68.365 103.829  1.00  0.00     0.159 C 
ATOM     14  O   UNL     1      33.047  67.701 102.863  1.00  0.00    -0.295 OA
ATOM     15  C   UNL     1      32.656  68.731 107.558  1.00  0.00     0.012 C 
ATOM     16  C   UNL     1      36.161  70.764 102.315  1.00  0.00     0.039 C 
ENDROOT
TORSDOF 0
ENDMDL
MODEL 2
REMARK VINA RESULT:    -5.236      1.398      1.843
REMARK INTER + INTRA:          -5.236
REMARK INTER:                  -5.236
REMARK INTRA:                   0.000
REMARK UNBOUND:                 0.000
REMARK SMILES C=C1CCC[C@@]2(C)CC(=O)C(=C(C)C)C[C@@H]12
REMARK SMILES IDX 13 1 12 2 11 3 15 4 16 5 2 6 1 7 3 8 4 9 5 10 6 11 8 12 9 13
REMARK SMILES IDX 10 14 7 15 14 16
REMARK H PARENT
REMARK Flexibility Score: inf
ROOT
ATOM      1  C   UNL     1      33.199  66.347 102.250  1.00  0.00     0.039 C 
ATOM      2  C   UNL     1      33.697  67.582 102.963  1.00  0.00    -0.070 C 
ATOM      3  C   UNL     1      32.969  68.177 103.951  1.00  0.00    -0.006 C 
ATOM      4  C   UNL     1      33.468  69.396 104.700  1.00  0.00     0.047 C 
ATOM      5  C   UNL     1      33.030  69.427 106.187  1.00  0.00     0.025 C 
ATOM      6  C   UNL     1      33.374  70.790 106.767  1.00  0.00    -0.073 C 
ATOM      7  C   UNL     1      34.496  70.963 107.483  1.00  0.00     0.008 C 
ATOM      8  C   UNL     1      32.514  71.978 106.391  1.00  0.00     0.031 C 
ATOM      9  C   UNL     1      31.020  71.656 106.512  1.00  0.00     0.005 C 
ATOM     10  C   UNL     1      30.648  70.305 105.873  1.00  0.00     0.008 C 
ATOM     11  C   UNL     1      31.514  69.124 106.407  1.00  0.00    -0.018 C 
ATOM     12  C   UNL     1      31.118  67.806 105.691  1.00  0.00     0.088 C 
ATOM     13  C   UNL     1      31.584  67.761 104.270  1.00  0.00     0.159 C 
ATOM     14  O   UNL     1      30.791  67.372 103.372  1.00  0.00    -0.295 OA
ATOM     15  C   UNL     1      31.238  68.913 107.920  1.00  0.00     0.012 C 
ATOM     16  C   UNL     1      35.055  68.112 102.562  1.00  0.00     0.039 C 
ENDROOT
TORSDOF 0
ENDMDL
MODEL 3
REMARK VINA RESULT:    -5.062      3.092      4.530
REMARK INTER + INTRA:          -5.062
REMARK INTER:                  -5.062
REMARK INTRA:                   0.000
REMARK UNBOUND:                 0.000
REMARK SMILES C=C1CCC[C@@]2(C)CC(=O)C(=C(C)C)C[C@@H]12
REMARK SMILES IDX 13 1 12 2 11 3 15 4 16 5 2 6 1 7 3 8 4 9 5 10 6 11 8 12 9 13
REMARK SMILES IDX 10 14 7 15 14 16
REMARK H PARENT
REMARK Flexibility Score: inf
ROOT
ATOM      1  C   UNL     1      36.659  70.642 107.950  1.00  0.00     0.039 C 
ATOM      2  C   UNL     1      35.488  69.690 108.011  1.00  0.00    -0.070 C 
ATOM      3  C   UNL     1      34.275  70.018 107.480  1.00  0.00    -0.006 C 
ATOM      4  C   UNL     1      33.099  69.063 107.501  1.00  0.00     0.047 C 
ATOM      5  C   UNL     1      32.187  69.179 106.252  1.00  0.00     0.025 C 
ATOM      6  C   UNL     1      30.928  68.362 106.491  1.00  0.00    -0.073 C 
ATOM      7  C   UNL     1      30.815  67.121 105.994  1.00  0.00     0.008 C 
ATOM      8  C   UNL     1      29.872  68.910 107.429  1.00  0.00     0.031 C 
ATOM      9  C   UNL     1      29.562  70.383 107.133  1.00  0.00     0.005 C 
ATOM     10  C   UNL     1      30.832  71.234 106.950  1.00  0.00     0.008 C 
ATOM     11  C   UNL     1      31.805  70.648 105.882  1.00  0.00    -0.018 C 
ATOM     12  C   UNL     1      33.079  71.528 105.782  1.00  0.00     0.088 C 
ATOM     13  C   UNL     1      33.978  71.375 106.968  1.00  0.00     0.159 C 
ATOM     14  O   UNL     1      34.465  72.403 107.510  1.00  0.00    -0.295 OA
ATOM     15  C   UNL     1      31.130  70.675 104.485  1.00  0.00     0.012 C 
ATOM     16  C   UNL     1      35.724  68.342 108.651  1.00  0.00     0.039 C 
ENDROOT
TORSDOF 0
ENDMDL
MODEL 4
REMARK VINA RESULT:    -5.047      9.198     10.738
REMARK INTER + INTRA:          -5.047
REMARK INTER:                  -5.047
REMARK INTRA:                   0.000
REMARK UNBOUND:                 0.000
REMARK SMILES C=C1CCC[C@@]2(C)CC(=O)C(=C(C)C)C[C@@H]12
REMARK SMILES IDX 13 1 12 2 11 3 15 4 16 5 2 6 1 7 3 8 4 9 5 10 6 11 8 12 9 13
REMARK SMILES IDX 10 14 7 15 14 16
REMARK H PARENT
REMARK Flexibility Score: inf
ROOT
ATOM      1  C   UNL     1      25.509  76.376 103.882  1.00  0.00     0.039 C 
ATOM      2  C   UNL     1      25.862  75.777 105.224  1.00  0.00    -0.070 C 
ATOM      3  C   UNL     1      24.961  75.037 105.932  1.00  0.00    -0.006 C 
ATOM      4  C   UNL     1      25.307  74.401 107.263  1.00  0.00     0.047 C 
ATOM      5  C   UNL     1      24.603  73.039 107.496  1.00  0.00     0.025 C 
ATOM      6  C   UNL     1      24.827  72.616 108.939  1.00  0.00    -0.073 C 
ATOM      7  C   UNL     1      25.797  71.743 109.252  1.00  0.00     0.008 C 
ATOM      8  C   UNL     1      24.045  73.315 110.032  1.00  0.00     0.031 C 
ATOM      9  C   UNL     1      22.555  73.420 109.682  1.00  0.00     0.005 C 
ATOM     10  C   UNL     1      22.314  73.907 108.241  1.00  0.00     0.008 C 
ATOM     11  C   UNL     1      23.074  73.055 107.179  1.00  0.00    -0.018 C 
ATOM     12  C   UNL     1      22.823  73.626 105.759  1.00  0.00     0.088 C 
ATOM     13  C   UNL     1      23.543  74.915 105.522  1.00  0.00     0.159 C 
ATOM     14  O   UNL     1      22.931  75.874 104.981  1.00  0.00    -0.295 OA
ATOM     15  C   UNL     1      22.525  71.603 107.182  1.00  0.00     0.012 C 
ATOM     16  C   UNL     1      27.267  75.999 105.734  1.00  0.00     0.039 C 
ENDROOT
TORSDOF 0
ENDMDL
MODEL 5
REMARK VINA RESULT:    -4.977      9.339     11.581
REMARK INTER + INTRA:          -4.977
REMARK INTER:                  -4.977
REMARK INTRA:                   0.000
REMARK UNBOUND:                 0.000
REMARK SMILES C=C1CCC[C@@]2(C)CC(=O)C(=C(C)C)C[C@@H]12
REMARK SMILES IDX 13 1 12 2 11 3 15 4 16 5 2 6 1 7 3 8 4 9 5 10 6 11 8 12 9 13
REMARK SMILES IDX 10 14 7 15 14 16
REMARK H PARENT
REMARK Flexibility Score: inf
ROOT
ATOM      1  C   UNL     1      27.033  75.993 105.934  1.00  0.00     0.039 C 
ATOM      2  C   UNL     1      25.713  75.743 105.243  1.00  0.00    -0.070 C 
ATOM      3  C   UNL     1      24.754  74.952 105.805  1.00  0.00    -0.006 C 
ATOM      4  C   UNL     1      23.411  74.717 105.143  1.00  0.00     0.047 C 
ATOM      5  C   UNL     1      22.245  74.564 106.153  1.00  0.00     0.025 C 
ATOM      6  C   UNL     1      21.008  74.097 105.402  1.00  0.00    -0.073 C 
ATOM      7  C   UNL     1      20.068  74.975 105.022  1.00  0.00     0.008 C 
ATOM      8  C   UNL     1      20.933  72.652 104.951  1.00  0.00     0.031 C 
ATOM      9  C   UNL     1      21.328  71.688 106.077  1.00  0.00     0.005 C 
ATOM     10  C   UNL     1      22.614  72.118 106.806  1.00  0.00     0.008 C 
ATOM     11  C   UNL     1      22.551  73.584 107.331  1.00  0.00    -0.018 C 
ATOM     12  C   UNL     1      23.892  73.964 108.013  1.00  0.00     0.088 C 
ATOM     13  C   UNL     1      25.003  74.158 107.030  1.00  0.00     0.159 C 
ATOM     14  O   UNL     1      26.129  73.642 107.260  1.00  0.00    -0.295 OA
ATOM     15  C   UNL     1      21.446  73.708 108.413  1.00  0.00     0.012 C 
ATOM     16  C   UNL     1      25.481  76.436 103.920  1.00  0.00     0.039 C 
ENDROOT
TORSDOF 0
ENDMDL
MODEL 6
REMARK VINA RESULT:    -4.972      1.807      3.326
REMARK INTER + INTRA:          -4.972
REMARK INTER:                  -4.972
REMARK INTRA:                   0.000
REMARK UNBOUND:                 0.000
REMARK SMILES C=C1CCC[C@@]2(C)CC(=O)C(=C(C)C)C[C@@H]12
REMARK SMILES IDX 13 1 12 2 11 3 15 4 16 5 2 6 1 7 3 8 4 9 5 10 6 11 8 12 9 13
REMARK SMILES IDX 10 14 7 15 14 16
REMARK H PARENT
REMARK Flexibility Score: inf
ROOT
ATOM      1  C   UNL     1      37.125  71.085 102.534  1.00  0.00     0.039 C 
ATOM      2  C   UNL     1      35.997  70.104 102.756  1.00  0.00    -0.070 C 
ATOM      3  C   UNL     1      35.167  70.207 103.833  1.00  0.00    -0.006 C 
ATOM      4  C   UNL     1      34.010  69.253 104.054  1.00  0.00     0.047 C 
ATOM      5  C   UNL     1      32.779  69.921 104.719  1.00  0.00     0.025 C 
ATOM      6  C   UNL     1      31.787  68.837 105.109  1.00  0.00    -0.073 C 
ATOM      7  C   UNL     1      30.739  68.555 104.321  1.00  0.00     0.008 C 
ATOM      8  C   UNL     1      32.091  67.975 106.318  1.00  0.00     0.031 C 
ATOM      9  C   UNL     1      32.529  68.821 107.520  1.00  0.00     0.005 C 
ATOM     10  C   UNL     1      33.579  69.885 107.149  1.00  0.00     0.008 C 
ATOM     11  C   UNL     1      33.128  70.794 105.966  1.00  0.00    -0.018 C 
ATOM     12  C   UNL     1      34.249  71.809 105.617  1.00  0.00     0.088 C 
ATOM     13  C   UNL     1      35.414  71.167 104.933  1.00  0.00     0.159 C 
ATOM     14  O   UNL     1      36.583  71.453 105.305  1.00  0.00    -0.295 OA
ATOM     15  C   UNL     1      31.886  71.624 106.387  1.00  0.00     0.012 C 
ATOM     16  C   UNL     1      35.803  69.026 101.716  1.00  0.00     0.039 C 
ENDROOT
TORSDOF 0
ENDMDL
MODEL 7
REMARK VINA RESULT:    -4.848     10.356     11.754
REMARK INTER + INTRA:          -4.848
REMARK INTER:                  -4.848
REMARK INTRA:                   0.000
REMARK UNBOUND:                 0.000
REMARK SMILES C=C1CCC[C@@]2(C)CC(=O)C(=C(C)C)C[C@@H]12
REMARK SMILES IDX 13 1 12 2 11 3 15 4 16 5 2 6 1 7 3 8 4 9 5 10 6 11 8 12 9 13
REMARK SMILES IDX 10 14 7 15 14 16
REMARK H PARENT
REMARK Flexibility Score: inf
ROOT
ATOM      1  C   UNL     1      25.483  72.124 110.277  1.00  0.00     0.039 C 
ATOM      2  C   UNL     1      24.587  72.009 109.066  1.00  0.00    -0.070 C 
ATOM      3  C   UNL     1      24.275  73.098 108.306  1.00  0.00    -0.006 C 
ATOM      4  C   UNL     1      23.406  72.996 107.068  1.00  0.00     0.047 C 
ATOM      5  C   UNL     1      23.810  73.989 105.949  1.00  0.00     0.025 C 
ATOM      6  C   UNL     1      22.739  73.970 104.870  1.00  0.00    -0.073 C 
ATOM      7  C   UNL     1      22.901  73.235 103.759  1.00  0.00     0.008 C 
ATOM      8  C   UNL     1      21.421  74.666 105.142  1.00  0.00     0.031 C 
ATOM      9  C   UNL     1      21.632  76.068 105.726  1.00  0.00     0.005 C 
ATOM     10  C   UNL     1      22.671  76.091 106.862  1.00  0.00     0.008 C 
ATOM     11  C   UNL     1      24.032  75.452 106.449  1.00  0.00    -0.018 C 
ATOM     12  C   UNL     1      25.014  75.468 107.651  1.00  0.00     0.088 C 
ATOM     13  C   UNL     1      24.647  74.474 108.706  1.00  0.00     0.159 C 
ATOM     14  O   UNL     1      24.659  74.825 109.916  1.00  0.00    -0.295 OA
ATOM     15  C   UNL     1      24.688  76.296 105.323  1.00  0.00     0.012 C 
ATOM     16  C   UNL     1      24.080  70.631 108.708  1.00  0.00     0.039 C 
ENDROOT
TORSDOF 0
ENDMDL
MODEL 8
REMARK VINA RESULT:    -4.801      9.887     11.389
REMARK INTER + INTRA:          -4.801
REMARK INTER:                  -4.801
REMARK INTRA:                   0.000
REMARK UNBOUND:                 0.000
REMARK SMILES C=C1CCC[C@@]2(C)CC(=O)C(=C(C)C)C[C@@H]12
REMARK SMILES IDX 13 1 12 2 11 3 15 4 16 5 2 6 1 7 3 8 4 9 5 10 6 11 8 12 9 13
REMARK SMILES IDX 10 14 7 15 14 16
REMARK H PARENT
REMARK Flexibility Score: inf
ROOT
ATOM      1  C   UNL     1      29.275  62.659  96.055  1.00  0.00     0.039 C 
ATOM      2  C   UNL     1      29.810  62.790  97.462  1.00  0.00    -0.070 C 
ATOM      3  C   UNL     1      29.696  61.772  98.364  1.00  0.00    -0.006 C 
ATOM      4  C   UNL     1      30.256  61.872  99.768  1.00  0.00     0.047 C 
ATOM      5  C   UNL     1      30.788  60.523 100.318  1.00  0.00     0.025 C 
ATOM      6  C   UNL     1      31.096  60.687 101.798  1.00  0.00    -0.073 C 
ATOM      7  C   UNL     1      32.350  60.921 102.212  1.00  0.00     0.008 C 
ATOM      8  C   UNL     1      29.943  60.740 102.779  1.00  0.00     0.031 C 
ATOM      9  C   UNL     1      28.926  59.622 102.517  1.00  0.00     0.005 C 
ATOM     10  C   UNL     1      28.559  59.486 101.028  1.00  0.00     0.008 C 
ATOM     11  C   UNL     1      29.808  59.325 100.109  1.00  0.00    -0.018 C 
ATOM     12  C   UNL     1      29.369  59.239  98.624  1.00  0.00     0.088 C 
ATOM     13  C   UNL     1      28.902  60.554  98.085  1.00  0.00     0.159 C 
ATOM     14  O   UNL     1      27.843  60.602  97.405  1.00  0.00    -0.295 OA
ATOM     15  C   UNL     1      30.534  57.994 100.440  1.00  0.00     0.012 C 
ATOM     16  C   UNL     1      30.509  64.080  97.820  1.00  0.00     0.039 C 
ENDROOT
TORSDOF 0
ENDMDL
MODEL 9
REMARK VINA RESULT:    -4.700      2.672      4.886
REMARK INTER + INTRA:          -4.700
REMARK INTER:                  -4.700
REMARK INTRA:                   0.000
REMARK UNBOUND:                 0.000
REMARK SMILES C=C1CCC[C@@]2(C)CC(=O)C(=C(C)C)C[C@@H]12
REMARK SMILES IDX 13 1 12 2 11 3 15 4 16 5 2 6 1 7 3 8 4 9 5 10 6 11 8 12 9 13
REMARK SMILES IDX 10 14 7 15 14 16
REMARK H PARENT
REMARK Flexibility Score: inf
ROOT
ATOM      1  C   UNL     1      29.992  69.118 106.759  1.00  0.00     0.039 C 
ATOM      2  C   UNL     1      31.416  68.688 107.021  1.00  0.00    -0.070 C 
ATOM      3  C   UNL     1      32.458  69.560 106.899  1.00  0.00    -0.006 C 
ATOM      4  C   UNL     1      33.888  69.155 107.191  1.00  0.00     0.047 C 
ATOM      5  C   UNL     1      34.739  70.297 107.805  1.00  0.00     0.025 C 
ATOM      6  C   UNL     1      36.195  69.860 107.830  1.00  0.00    -0.073 C 
ATOM      7  C   UNL     1      36.739  69.360 108.950  1.00  0.00     0.008 C 
ATOM      8  C   UNL     1      36.974  69.852 106.531  1.00  0.00     0.031 C 
ATOM      9  C   UNL     1      36.770  71.150 105.740  1.00  0.00     0.005 C 
ATOM     10  C   UNL     1      35.291  71.571 105.656  1.00  0.00     0.008 C 
ATOM     11  C   UNL     1      34.606  71.660 107.054  1.00  0.00    -0.018 C 
ATOM     12  C   UNL     1      33.112  72.043 106.892  1.00  0.00     0.088 C 
ATOM     13  C   UNL     1      32.286  70.922 106.344  1.00  0.00     0.159 C 
ATOM     14  O   UNL     1      31.463  71.156 105.420  1.00  0.00    -0.295 OA
ATOM     15  C   UNL     1      35.270  72.785 107.892  1.00  0.00     0.012 C 
ATOM     16  C   UNL     1      31.637  67.259 107.462  1.00  0.00     0.039 C 
ENDROOT
TORSDOF 0
ENDMDL
