MODEL 1
REMARK VINA RESULT:    -4.829      0.000      0.000
REMARK INTER + INTRA:          -9.715
REMARK INTER:                  -7.511
REMARK INTRA:                  -2.204
REMARK UNBOUND:                -2.204
REMARK SMILES COc1cc(CNC(=O)CCCCC=CC(C)C)ccc1O
REMARK SMILES IDX 11 1 12 2 13 3 14 4 15 5 16 6 17 7 18 8 10 9 8 10 9 11 7 12
REMARK SMILES IDX 6 14 5 15 4 16 19 17 3 18 20 19 21 20 2 21 1 22 22 23
REMARK H PARENT 7 13 22 24
REMARK Flexibility Score: inf
ROOT
ATOM      1  C   UNL     1     140.428 139.280 130.766  1.00  0.00     0.010 C 
ENDROOT
BRANCH   1   2
ATOM      2  C   UNL     1     140.146 140.161 129.544  1.00  0.00     0.005 C 
BRANCH   2   3
ATOM      3  C   UNL     1     139.175 139.466 128.582  1.00  0.00     0.027 C 
BRANCH   3   4
ATOM      4  C   UNL     1     137.807 139.344 129.193  1.00  0.00    -0.031 C 
ATOM      5  C   UNL     1     137.087 140.431 129.520  1.00  0.00    -0.028 C 
BRANCH   5   6
ATOM      6  C   UNL     1     135.701 140.346 130.121  1.00  0.00     0.005 C 
ATOM      7  C   UNL     1     135.760 140.335 131.651  1.00  0.00     0.012 C 
ATOM      8  C   UNL     1     134.930 139.132 129.585  1.00  0.00     0.012 C 
ENDBRANCH   5   6
ENDBRANCH   3   4
ENDBRANCH   2   3
ENDBRANCH   1   2
BRANCH   1   9
ATOM      9  C   UNL     1     140.150 140.038 132.066  1.00  0.00     0.100 C 
BRANCH   9  10
ATOM     10  C   UNL     1     139.116 139.319 132.878  1.00  0.00     0.220 C 
ATOM     11  O   UNL     1     138.611 139.890 133.885  1.00  0.00    -0.275 OA
ATOM     12  N   UNL     1     138.663 138.019 132.477  1.00  0.00    -0.352 N 
ATOM     13  H   UNL     1     139.112 137.554 131.655  1.00  0.00     0.163 HD
BRANCH  12  14
ATOM     14  C   UNL     1     137.515 137.364 133.097  1.00  0.00     0.151 C 
BRANCH  14  15
ATOM     15  C   UNL     1     136.745 136.592 132.060  1.00  0.00    -0.025 A 
ATOM     16  C   UNL     1     137.410 136.059 130.944  1.00  0.00     0.056 A 
ATOM     17  C   UNL     1     135.353 136.458 132.165  1.00  0.00     0.009 A 
ATOM     18  C   UNL     1     136.692 135.374 129.943  1.00  0.00     0.160 A 
ATOM     19  C   UNL     1     134.637 135.782 131.175  1.00  0.00     0.050 A 
ATOM     20  C   UNL     1     135.301 135.241 130.065  1.00  0.00     0.157 A 
BRANCH  18  21
ATOM     21  O   UNL     1     137.323 134.822 128.816  1.00  0.00    -0.493 OA
ATOM     22  C   UNL     1     138.425 133.921 128.871  1.00  0.00     0.278 C 
ENDBRANCH  18  21
BRANCH  20  23
ATOM     23  O   UNL     1     134.581 134.579 129.071  1.00  0.00    -0.504 OA
ATOM     24  H   UNL     1     134.814 134.682 128.091  1.00  0.00     0.293 HD
ENDBRANCH  20  23
ENDBRANCH  14  15
ENDBRANCH  12  14
ENDBRANCH   9  10
ENDBRANCH   1   9
TORSDOF 10
ENDMDL
MODEL 2
REMARK VINA RESULT:    -4.826      2.317      5.074
REMARK INTER + INTRA:          -9.710
REMARK INTER:                  -7.421
REMARK INTRA:                  -2.288
REMARK UNBOUND:                -2.204
REMARK SMILES COc1cc(CNC(=O)CCCCC=CC(C)C)ccc1O
REMARK SMILES IDX 11 1 12 2 13 3 14 4 15 5 16 6 17 7 18 8 10 9 8 10 9 11 7 12
REMARK SMILES IDX 6 14 5 15 4 16 19 17 3 18 20 19 21 20 2 21 1 22 22 23
REMARK H PARENT 7 13 22 24
REMARK Flexibility Score: inf
ROOT
ATOM      1  C   UNL     1     138.584 134.744 129.187  1.00  0.00     0.010 C 
ENDROOT
BRANCH   1   2
ATOM      2  C   UNL     1     137.785 135.403 128.056  1.00  0.00     0.005 C 
BRANCH   2   3
ATOM      3  C   UNL     1     136.299 135.498 128.421  1.00  0.00     0.027 C 
BRANCH   3   4
ATOM      4  C   UNL     1     136.094 135.305 129.897  1.00  0.00    -0.031 C 
ATOM      5  C   UNL     1     135.291 136.119 130.605  1.00  0.00    -0.028 C 
BRANCH   5   6
ATOM      6  C   UNL     1     135.049 135.944 132.088  1.00  0.00     0.005 C 
ATOM      7  C   UNL     1     136.368 135.913 132.865  1.00  0.00     0.012 C 
ATOM      8  C   UNL     1     134.203 134.697 132.377  1.00  0.00     0.012 C 
ENDBRANCH   5   6
ENDBRANCH   3   4
ENDBRANCH   2   3
ENDBRANCH   1   2
BRANCH   1   9
ATOM      9  C   UNL     1     140.023 135.265 129.219  1.00  0.00     0.100 C 
BRANCH   9  10
ATOM     10  C   UNL     1     140.070 136.627 129.841  1.00  0.00     0.220 C 
ATOM     11  O   UNL     1     140.847 137.500 129.364  1.00  0.00    -0.275 OA
ATOM     12  N   UNL     1     139.196 136.951 130.931  1.00  0.00    -0.352 N 
ATOM     13  H   UNL     1     138.578 136.206 131.326  1.00  0.00     0.163 HD
BRANCH  12  14
ATOM     14  C   UNL     1     139.043 138.313 131.434  1.00  0.00     0.151 C 
BRANCH  14  15
ATOM     15  C   UNL     1     137.791 138.928 130.871  1.00  0.00    -0.025 A 
ATOM     16  C   UNL     1     136.856 139.528 131.730  1.00  0.00     0.056 A 
ATOM     17  C   UNL     1     137.517 138.848 129.498  1.00  0.00     0.009 A 
ATOM     18  C   UNL     1     135.658 140.067 131.219  1.00  0.00     0.160 A 
ATOM     19  C   UNL     1     136.330 139.378 128.987  1.00  0.00     0.050 A 
ATOM     20  C   UNL     1     135.401 139.986 129.843  1.00  0.00     0.157 A 
BRANCH  18  21
ATOM     21  O   UNL     1     134.701 140.680 132.045  1.00  0.00    -0.493 OA
ATOM     22  C   UNL     1     135.012 141.450 133.203  1.00  0.00     0.278 C 
ENDBRANCH  18  21
BRANCH  20  23
ATOM     23  O   UNL     1     134.211 140.502 129.330  1.00  0.00    -0.504 OA
ATOM     24  H   UNL     1     133.981 141.485 129.414  1.00  0.00     0.293 HD
ENDBRANCH  20  23
ENDBRANCH  14  15
ENDBRANCH  12  14
ENDBRANCH   9  10
ENDBRANCH   1   9
TORSDOF 10
ENDMDL
MODEL 3
REMARK VINA RESULT:    -4.825      1.672      3.506
REMARK INTER + INTRA:          -9.708
REMARK INTER:                  -7.471
REMARK INTRA:                  -2.237
REMARK UNBOUND:                -2.204
REMARK SMILES COc1cc(CNC(=O)CCCCC=CC(C)C)ccc1O
REMARK SMILES IDX 11 1 12 2 13 3 14 4 15 5 16 6 17 7 18 8 10 9 8 10 9 11 7 12
REMARK SMILES IDX 6 14 5 15 4 16 19 17 3 18 20 19 21 20 2 21 1 22 22 23
REMARK H PARENT 7 13 22 24
REMARK Flexibility Score: inf
ROOT
ATOM      1  C   UNL     1     140.196 140.166 129.370  1.00  0.00     0.010 C 
ENDROOT
BRANCH   1   2
ATOM      2  C   UNL     1     140.614 138.841 128.723  1.00  0.00     0.005 C 
BRANCH   2   3
ATOM      3  C   UNL     1     139.471 138.258 127.885  1.00  0.00     0.027 C 
BRANCH   3   4
ATOM      4  C   UNL     1     138.966 136.974 128.483  1.00  0.00    -0.031 C 
ATOM      5  C   UNL     1     139.527 136.445 129.584  1.00  0.00    -0.028 C 
BRANCH   5   6
ATOM      6  C   UNL     1     139.035 135.164 130.221  1.00  0.00     0.005 C 
ATOM      7  C   UNL     1     138.014 134.456 129.324  1.00  0.00     0.012 C 
ATOM      8  C   UNL     1     138.464 135.416 131.622  1.00  0.00     0.012 C 
ENDBRANCH   5   6
ENDBRANCH   3   4
ENDBRANCH   2   3
ENDBRANCH   1   2
BRANCH   1   9
ATOM      9  C   UNL     1     140.067 140.019 130.889  1.00  0.00     0.100 C 
BRANCH   9  10
ATOM     10  C   UNL     1     138.677 139.598 131.255  1.00  0.00     0.220 C 
ATOM     11  O   UNL     1     138.485 138.955 132.324  1.00  0.00    -0.275 OA
ATOM     12  N   UNL     1     137.569 139.976 130.426  1.00  0.00    -0.352 N 
ATOM     13  H   UNL     1     137.752 140.487 129.533  1.00  0.00     0.163 HD
BRANCH  12  14
ATOM     14  C   UNL     1     136.181 139.782 130.839  1.00  0.00     0.151 C 
BRANCH  14  15
ATOM     15  C   UNL     1     135.633 138.528 130.215  1.00  0.00    -0.025 A 
ATOM     16  C   UNL     1     135.449 137.376 130.997  1.00  0.00     0.056 A 
ATOM     17  C   UNL     1     135.367 138.478 128.838  1.00  0.00     0.009 A 
ATOM     18  C   UNL     1     134.980 136.182 130.414  1.00  0.00     0.160 A 
ATOM     19  C   UNL     1     134.905 137.296 128.255  1.00  0.00     0.050 A 
ATOM     20  C   UNL     1     134.712 136.149 129.038  1.00  0.00     0.157 A 
BRANCH  18  21
ATOM     21  O   UNL     1     134.777 135.013 131.165  1.00  0.00    -0.493 OA
ATOM     22  C   UNL     1     134.210 134.983 132.472  1.00  0.00     0.278 C 
ENDBRANCH  18  21
BRANCH  20  23
ATOM     23  O   UNL     1     134.262 134.968 128.449  1.00  0.00    -0.504 OA
ATOM     24  H   UNL     1     134.910 134.261 128.119  1.00  0.00     0.293 HD
ENDBRANCH  20  23
ENDBRANCH  14  15
ENDBRANCH  12  14
ENDBRANCH   9  10
ENDBRANCH   1   9
TORSDOF 10
ENDMDL
MODEL 4
REMARK VINA RESULT:    -4.811      2.205      4.310
REMARK INTER + INTRA:          -9.687
REMARK INTER:                  -7.370
REMARK INTRA:                  -2.317
REMARK UNBOUND:                -2.204
REMARK SMILES COc1cc(CNC(=O)CCCCC=CC(C)C)ccc1O
REMARK SMILES IDX 11 1 12 2 13 3 14 4 15 5 16 6 17 7 18 8 10 9 8 10 9 11 7 12
REMARK SMILES IDX 6 14 5 15 4 16 19 17 3 18 20 19 21 20 2 21 1 22 22 23
REMARK H PARENT 7 13 22 24
REMARK Flexibility Score: inf
ROOT
ATOM      1  C   UNL     1     137.102 140.682 129.056  1.00  0.00     0.010 C 
ENDROOT
BRANCH   1   2
ATOM      2  C   UNL     1     137.961 139.899 128.056  1.00  0.00     0.005 C 
BRANCH   2   3
ATOM      3  C   UNL     1     139.400 139.757 128.566  1.00  0.00     0.027 C 
BRANCH   3   4
ATOM      4  C   UNL     1     139.463 139.937 130.057  1.00  0.00    -0.031 C 
ATOM      5  C   UNL     1     140.178 139.104 130.833  1.00  0.00    -0.028 C 
BRANCH   5   6
ATOM      6  C   UNL     1     140.277 139.266 132.334  1.00  0.00     0.005 C 
ATOM      7  C   UNL     1     138.901 139.527 132.955  1.00  0.00     0.012 C 
ATOM      8  C   UNL     1     141.278 140.363 132.717  1.00  0.00     0.012 C 
ENDBRANCH   5   6
ENDBRANCH   3   4
ENDBRANCH   2   3
ENDBRANCH   1   2
BRANCH   1   9
ATOM      9  C   UNL     1     135.635 140.255 128.972  1.00  0.00     0.100 C 
BRANCH   9  10
ATOM     10  C   UNL     1     135.448 138.907 129.599  1.00  0.00     0.220 C 
ATOM     11  O   UNL     1     134.639 138.089 129.080  1.00  0.00    -0.275 OA
ATOM     12  N   UNL     1     136.228 138.531 130.743  1.00  0.00    -0.352 N 
ATOM     13  H   UNL     1     136.873 139.232 131.171  1.00  0.00     0.163 HD
BRANCH  12  14
ATOM     14  C   UNL     1     136.247 137.167 131.263  1.00  0.00     0.151 C 
BRANCH  14  15
ATOM     15  C   UNL     1     137.517 136.478 130.844  1.00  0.00    -0.025 A 
ATOM     16  C   UNL     1     138.352 135.895 131.811  1.00  0.00     0.056 A 
ATOM     17  C   UNL     1     137.910 136.472 129.497  1.00  0.00     0.009 A 
ATOM     18  C   UNL     1     139.567 135.288 131.435  1.00  0.00     0.160 A 
ATOM     19  C   UNL     1     139.114 135.874 129.120  1.00  0.00     0.050 A 
ATOM     20  C   UNL     1     139.944 135.284 130.084  1.00  0.00     0.157 A 
BRANCH  18  21
ATOM     21  O   UNL     1     140.425 134.689 132.372  1.00  0.00    -0.493 OA
ATOM     22  C   UNL     1     140.167 134.621 133.772  1.00  0.00     0.278 C 
ENDBRANCH  18  21
BRANCH  20  23
ATOM     23  O   UNL     1     141.152 134.700 129.705  1.00  0.00    -0.504 OA
ATOM     24  H   UNL     1     141.449 133.807 130.082  1.00  0.00     0.293 HD
ENDBRANCH  20  23
ENDBRANCH  14  15
ENDBRANCH  12  14
ENDBRANCH   9  10
ENDBRANCH   1   9
TORSDOF 10
ENDMDL
MODEL 5
REMARK VINA RESULT:    -4.792      2.347      4.892
REMARK INTER + INTRA:          -9.658
REMARK INTER:                  -7.660
REMARK INTRA:                  -1.998
REMARK UNBOUND:                -2.204
REMARK SMILES COc1cc(CNC(=O)CCCCC=CC(C)C)ccc1O
REMARK SMILES IDX 11 1 12 2 13 3 14 4 15 5 16 6 17 7 18 8 10 9 8 10 9 11 7 12
REMARK SMILES IDX 6 14 5 15 4 16 19 17 3 18 20 19 21 20 2 21 1 22 22 23
REMARK H PARENT 7 13 22 24
REMARK Flexibility Score: inf
ROOT
ATOM      1  C   UNL     1     140.214 134.949 129.421  1.00  0.00     0.010 C 
ENDROOT
BRANCH   1   2
ATOM      2  C   UNL     1     139.018 134.230 128.787  1.00  0.00     0.005 C 
BRANCH   2   3
ATOM      3  C   UNL     1     138.145 135.213 127.998  1.00  0.00     0.027 C 
BRANCH   3   4
ATOM      4  C   UNL     1     136.812 135.404 128.665  1.00  0.00    -0.031 C 
ATOM      5  C   UNL     1     136.565 136.471 129.445  1.00  0.00    -0.028 C 
BRANCH   5   6
ATOM      6  C   UNL     1     135.230 136.703 130.118  1.00  0.00     0.005 C 
ATOM      7  C   UNL     1     134.824 135.500 130.974  1.00  0.00     0.012 C 
ATOM      8  C   UNL     1     134.139 137.055 129.098  1.00  0.00     0.012 C 
ENDBRANCH   5   6
ENDBRANCH   3   4
ENDBRANCH   2   3
ENDBRANCH   1   2
BRANCH   1   9
ATOM      9  C   UNL     1     140.034 135.086 130.935  1.00  0.00     0.100 C 
BRANCH   9  10
ATOM     10  C   UNL     1     139.693 136.500 131.294  1.00  0.00     0.220 C 
ATOM     11  O   UNL     1     139.291 136.764 132.460  1.00  0.00    -0.275 OA
ATOM     12  N   UNL     1     139.882 137.551 130.335  1.00  0.00    -0.352 N 
ATOM     13  H   UNL     1     140.192 137.307 129.367  1.00  0.00     0.163 HD
BRANCH  12  14
ATOM     14  C   UNL     1     139.774 138.963 130.690  1.00  0.00     0.151 C 
BRANCH  14  15
ATOM     15  C   UNL     1     138.461 139.513 130.203  1.00  0.00    -0.025 A 
ATOM     16  C   UNL     1     137.382 139.646 131.091  1.00  0.00     0.056 A 
ATOM     17  C   UNL     1     138.285 139.833 128.849  1.00  0.00     0.009 A 
ATOM     18  C   UNL     1     136.134 140.117 130.636  1.00  0.00     0.160 A 
ATOM     19  C   UNL     1     137.050 140.298 128.392  1.00  0.00     0.050 A 
ATOM     20  C   UNL     1     135.975 140.439 129.281  1.00  0.00     0.157 A 
BRANCH  18  21
ATOM     21  O   UNL     1     135.033 140.269 131.496  1.00  0.00    -0.493 OA
ATOM     22  C   UNL     1     134.979 141.195 132.577  1.00  0.00     0.278 C 
ENDBRANCH  18  21
BRANCH  20  23
ATOM     23  O   UNL     1     134.739 140.891 128.819  1.00  0.00    -0.504 OA
ATOM     24  H   UNL     1     134.648 141.772 128.326  1.00  0.00     0.293 HD
ENDBRANCH  20  23
ENDBRANCH  14  15
ENDBRANCH  12  14
ENDBRANCH   9  10
ENDBRANCH   1   9
TORSDOF 10
ENDMDL
MODEL 6
REMARK VINA RESULT:    -4.757      2.187      3.974
REMARK INTER + INTRA:          -9.603
REMARK INTER:                  -7.394
REMARK INTRA:                  -2.210
REMARK UNBOUND:                -2.204
REMARK SMILES COc1cc(CNC(=O)CCCCC=CC(C)C)ccc1O
REMARK SMILES IDX 11 1 12 2 13 3 14 4 15 5 16 6 17 7 18 8 10 9 8 10 9 11 7 12
REMARK SMILES IDX 6 14 5 15 4 16 19 17 3 18 20 19 21 20 2 21 1 22 22 23
REMARK H PARENT 7 13 22 24
REMARK Flexibility Score: inf
ROOT
ATOM      1  C   UNL     1     140.353 138.508 129.385  1.00  0.00     0.010 C 
ENDROOT
BRANCH   1   2
ATOM      2  C   UNL     1     139.758 137.682 128.239  1.00  0.00     0.005 C 
BRANCH   2   3
ATOM      3  C   UNL     1     139.791 136.186 128.570  1.00  0.00     0.027 C 
BRANCH   3   4
ATOM      4  C   UNL     1     139.979 135.964 130.044  1.00  0.00    -0.031 C 
ATOM      5  C   UNL     1     139.041 135.350 130.786  1.00  0.00    -0.028 C 
BRANCH   5   6
ATOM      6  C   UNL     1     139.203 135.097 132.268  1.00  0.00     0.005 C 
ATOM      7  C   UNL     1     139.420 136.405 133.034  1.00  0.00     0.012 C 
ATOM      8  C   UNL     1     140.331 134.095 132.547  1.00  0.00     0.012 C 
ENDBRANCH   5   6
ENDBRANCH   3   4
ENDBRANCH   2   3
ENDBRANCH   1   2
BRANCH   1   9
ATOM      9  C   UNL     1     139.829 139.946 129.355  1.00  0.00     0.100 C 
BRANCH   9  10
ATOM     10  C   UNL     1     138.463 140.016 129.966  1.00  0.00     0.220 C 
ATOM     11  O   UNL     1     137.631 140.858 129.528  1.00  0.00    -0.275 OA
ATOM     12  N   UNL     1     138.088 139.092 130.997  1.00  0.00    -0.352 N 
ATOM     13  H   UNL     1     138.800 138.420 131.362  1.00  0.00     0.163 HD
BRANCH  12  14
ATOM     14  C   UNL     1     136.714 138.970 131.477  1.00  0.00     0.151 C 
BRANCH  14  15
ATOM     15  C   UNL     1     136.116 137.679 130.990  1.00  0.00    -0.025 A 
ATOM     16  C   UNL     1     135.534 136.785 131.903  1.00  0.00     0.056 A 
ATOM     17  C   UNL     1     136.195 137.327 129.634  1.00  0.00     0.009 A 
ATOM     18  C   UNL     1     135.011 135.552 131.464  1.00  0.00     0.160 A 
ATOM     19  C   UNL     1     135.681 136.106 129.194  1.00  0.00     0.050 A 
ATOM     20  C   UNL     1     135.091 135.218 130.105  1.00  0.00     0.157 A 
BRANCH  18  21
ATOM     21  O   UNL     1     134.416 134.635 132.347  1.00  0.00    -0.493 OA
ATOM     22  C   UNL     1     133.883 134.977 133.623  1.00  0.00     0.278 C 
ENDBRANCH  18  21
BRANCH  20  23
ATOM     23  O   UNL     1     134.591 133.993 129.664  1.00  0.00    -0.504 OA
ATOM     24  H   UNL     1     134.967 133.115 130.003  1.00  0.00     0.293 HD
ENDBRANCH  20  23
ENDBRANCH  14  15
ENDBRANCH  12  14
ENDBRANCH   9  10
ENDBRANCH   1   9
TORSDOF 10
ENDMDL
MODEL 7
REMARK VINA RESULT:    -4.727      2.725      4.807
REMARK INTER + INTRA:          -9.556
REMARK INTER:                  -7.416
REMARK INTRA:                  -2.139
REMARK UNBOUND:                -2.204
REMARK SMILES COc1cc(CNC(=O)CCCCC=CC(C)C)ccc1O
REMARK SMILES IDX 11 1 12 2 13 3 14 4 15 5 16 6 17 7 18 8 10 9 8 10 9 11 7 12
REMARK SMILES IDX 6 14 5 15 4 16 19 17 3 18 20 19 21 20 2 21 1 22 22 23
REMARK H PARENT 7 13 22 24
REMARK Flexibility Score: inf
ROOT
ATOM      1  C   UNL     1     136.155 139.712 131.299  1.00  0.00     0.010 C 
ENDROOT
BRANCH   1   2
ATOM      2  C   UNL     1     137.550 139.837 130.677  1.00  0.00     0.005 C 
BRANCH   2   3
ATOM      3  C   UNL     1     138.604 139.155 131.558  1.00  0.00     0.027 C 
BRANCH   3   4
ATOM      4  C   UNL     1     138.217 137.734 131.857  1.00  0.00    -0.031 C 
ATOM      5  C   UNL     1     139.142 136.803 132.149  1.00  0.00    -0.028 C 
BRANCH   5   6
ATOM      6  C   UNL     1     138.787 135.368 132.471  1.00  0.00     0.005 C 
ATOM      7  C   UNL     1     137.832 135.287 133.665  1.00  0.00     0.012 C 
ATOM      8  C   UNL     1     140.043 134.516 132.702  1.00  0.00     0.012 C 
ENDBRANCH   5   6
ENDBRANCH   3   4
ENDBRANCH   2   3
ENDBRANCH   1   2
BRANCH   1   9
ATOM      9  C   UNL     1     135.064 139.974 130.258  1.00  0.00     0.100 C 
BRANCH   9  10
ATOM     10  C   UNL     1     135.146 138.966 129.152  1.00  0.00     0.220 C 
ATOM     11  O   UNL     1     135.369 139.356 127.973  1.00  0.00    -0.275 OA
ATOM     12  N   UNL     1     135.032 137.566 129.446  1.00  0.00    -0.352 N 
ATOM     13  H   UNL     1     134.823 137.267 130.425  1.00  0.00     0.163 HD
BRANCH  12  14
ATOM     14  C   UNL     1     135.316 136.533 128.454  1.00  0.00     0.151 C 
BRANCH  14  15
ATOM     15  C   UNL     1     136.711 136.007 128.648  1.00  0.00    -0.025 A 
ATOM     16  C   UNL     1     137.816 136.786 128.265  1.00  0.00     0.056 A 
ATOM     17  C   UNL     1     136.919 134.713 129.149  1.00  0.00     0.009 A 
ATOM     18  C   UNL     1     139.126 136.284 128.400  1.00  0.00     0.160 A 
ATOM     19  C   UNL     1     138.215 134.211 129.282  1.00  0.00     0.050 A 
ATOM     20  C   UNL     1     139.318 134.992 128.908  1.00  0.00     0.157 A 
BRANCH  18  21
ATOM     21  O   UNL     1     140.255 137.036 128.033  1.00  0.00    -0.493 OA
ATOM     22  C   UNL     1     140.928 137.949 128.895  1.00  0.00     0.278 C 
ENDBRANCH  18  21
BRANCH  20  23
ATOM     23  O   UNL     1     140.610 134.482 129.030  1.00  0.00    -0.504 OA
ATOM     24  H   UNL     1     141.008 133.874 128.324  1.00  0.00     0.293 HD
ENDBRANCH  20  23
ENDBRANCH  14  15
ENDBRANCH  12  14
ENDBRANCH   9  10
ENDBRANCH   1   9
TORSDOF 10
ENDMDL
MODEL 8
REMARK VINA RESULT:    -4.719      2.171      5.236
REMARK INTER + INTRA:          -9.544
REMARK INTER:                  -7.464
REMARK INTRA:                  -2.080
REMARK UNBOUND:                -2.204
REMARK SMILES COc1cc(CNC(=O)CCCCC=CC(C)C)ccc1O
REMARK SMILES IDX 11 1 12 2 13 3 14 4 15 5 16 6 17 7 18 8 10 9 8 10 9 11 7 12
REMARK SMILES IDX 6 14 5 15 4 16 19 17 3 18 20 19 21 20 2 21 1 22 22 23
REMARK H PARENT 7 13 22 24
REMARK Flexibility Score: inf
ROOT
ATOM      1  C   UNL     1     134.737 135.199 129.284  1.00  0.00     0.010 C 
ENDROOT
BRANCH   1   2
ATOM      2  C   UNL     1     134.194 136.566 128.852  1.00  0.00     0.005 C 
BRANCH   2   3
ATOM      3  C   UNL     1     135.164 137.258 127.888  1.00  0.00     0.027 C 
BRANCH   3   4
ATOM      4  C   UNL     1     135.924 138.353 128.582  1.00  0.00    -0.031 C 
ATOM      5  C   UNL     1     135.569 138.786 129.804  1.00  0.00    -0.028 C 
BRANCH   5   6
ATOM      6  C   UNL     1     136.320 139.874 130.539  1.00  0.00     0.005 C 
ATOM      7  C   UNL     1     135.424 140.571 131.567  1.00  0.00     0.012 C 
ATOM      8  C   UNL     1     136.940 140.886 129.565  1.00  0.00     0.012 C 
ENDBRANCH   5   6
ENDBRANCH   3   4
ENDBRANCH   2   3
ENDBRANCH   1   2
BRANCH   1   9
ATOM      9  C   UNL     1     134.960 135.150 130.798  1.00  0.00     0.100 C 
BRANCH   9  10
ATOM     10  C   UNL     1     136.394 135.437 131.123  1.00  0.00     0.220 C 
ATOM     11  O   UNL     1     136.714 135.738 132.306  1.00  0.00    -0.275 OA
ATOM     12  N   UNL     1     137.401 135.309 130.109  1.00  0.00    -0.352 N 
ATOM     13  H   UNL     1     137.112 135.083 129.130  1.00  0.00     0.163 HD
BRANCH  12  14
ATOM     14  C   UNL     1     138.828 135.365 130.411  1.00  0.00     0.151 C 
BRANCH  14  15
ATOM     15  C   UNL     1     139.372 136.723 130.061  1.00  0.00    -0.025 A 
ATOM     16  C   UNL     1     139.423 137.732 131.036  1.00  0.00     0.056 A 
ATOM     17  C   UNL     1     139.769 137.011 128.747  1.00  0.00     0.009 A 
ATOM     18  C   UNL     1     139.887 139.022 130.707  1.00  0.00     0.160 A 
ATOM     19  C   UNL     1     140.228 138.287 128.415  1.00  0.00     0.050 A 
ATOM     20  C   UNL     1     140.287 139.293 129.391  1.00  0.00     0.157 A 
BRANCH  18  21
ATOM     21  O   UNL     1     139.958 140.055 131.656  1.00  0.00    -0.493 OA
ATOM     22  C   UNL     1     140.785 140.028 132.816  1.00  0.00     0.278 C 
ENDBRANCH  18  21
BRANCH  20  23
ATOM     23  O   UNL     1     140.733 140.570 129.053  1.00  0.00    -0.504 OA
ATOM     24  H   UNL     1     140.317 141.400 129.458  1.00  0.00     0.293 HD
ENDBRANCH  20  23
ENDBRANCH  14  15
ENDBRANCH  12  14
ENDBRANCH   9  10
ENDBRANCH   1   9
TORSDOF 10
ENDMDL
MODEL 9
REMARK VINA RESULT:    -4.674      2.340      5.610
REMARK INTER + INTRA:          -9.473
REMARK INTER:                  -7.257
REMARK INTRA:                  -2.216
REMARK UNBOUND:                -2.204
REMARK SMILES COc1cc(CNC(=O)CCCCC=CC(C)C)ccc1O
REMARK SMILES IDX 11 1 12 2 13 3 14 4 15 5 16 6 17 7 18 8 10 9 8 10 9 11 7 12
REMARK SMILES IDX 6 14 5 15 4 16 19 17 3 18 20 19 21 20 2 21 1 22 22 23
REMARK H PARENT 7 13 22 24
REMARK Flexibility Score: inf
ROOT
ATOM      1  C   UNL     1     134.711 136.067 130.517  1.00  0.00     0.010 C 
ENDROOT
BRANCH   1   2
ATOM      2  C   UNL     1     135.261 135.055 129.506  1.00  0.00     0.005 C 
BRANCH   2   3
ATOM      3  C   UNL     1     136.196 135.739 128.502  1.00  0.00     0.027 C 
BRANCH   3   4
ATOM      4  C   UNL     1     137.514 136.080 129.140  1.00  0.00    -0.031 C 
ATOM      5  C   UNL     1     138.126 135.228 129.981  1.00  0.00    -0.028 C 
BRANCH   5   6
ATOM      6  C   UNL     1     139.459 135.532 130.628  1.00  0.00     0.005 C 
ATOM      7  C   UNL     1     140.621 135.016 129.774  1.00  0.00     0.012 C 
ATOM      8  C   UNL     1     139.530 134.979 132.057  1.00  0.00     0.012 C 
ENDBRANCH   5   6
ENDBRANCH   3   4
ENDBRANCH   2   3
ENDBRANCH   1   2
BRANCH   1   9
ATOM      9  C   UNL     1     134.681 135.473 131.928  1.00  0.00     0.100 C 
BRANCH   9  10
ATOM     10  C   UNL     1     135.794 136.039 132.756  1.00  0.00     0.220 C 
ATOM     11  O   UNL     1     136.374 135.302 133.601  1.00  0.00    -0.275 OA
ATOM     12  N   UNL     1     136.234 137.388 132.545  1.00  0.00    -0.352 N 
ATOM     13  H   UNL     1     135.724 137.987 131.857  1.00  0.00     0.163 HD
BRANCH  12  14
ATOM     14  C   UNL     1     137.443 137.923 133.163  1.00  0.00     0.151 C 
BRANCH  14  15
ATOM     15  C   UNL     1     138.247 138.681 132.142  1.00  0.00    -0.025 A 
ATOM     16  C   UNL     1     137.619 139.205 131.001  1.00  0.00     0.056 A 
ATOM     17  C   UNL     1     139.636 138.810 132.287  1.00  0.00     0.009 A 
ATOM     18  C   UNL     1     138.370 139.877 130.016  1.00  0.00     0.160 A 
ATOM     19  C   UNL     1     140.385 139.472 131.313  1.00  0.00     0.050 A 
ATOM     20  C   UNL     1     139.757 140.004 130.178  1.00  0.00     0.157 A 
BRANCH  18  21
ATOM     21  O   UNL     1     137.776 140.420 128.865  1.00  0.00    -0.493 OA
ATOM     22  C   UNL     1     136.710 139.810 128.143  1.00  0.00     0.278 C 
ENDBRANCH  18  21
BRANCH  20  23
ATOM     23  O   UNL     1     140.510 140.653 129.200  1.00  0.00    -0.504 OA
ATOM     24  H   UNL     1     140.274 140.583 128.217  1.00  0.00     0.293 HD
ENDBRANCH  20  23
ENDBRANCH  14  15
ENDBRANCH  12  14
ENDBRANCH   9  10
ENDBRANCH   1   9
TORSDOF 10
ENDMDL
