MODEL 1
REMARK VINA RESULT:    -4.989      0.000      0.000
REMARK INTER + INTRA:          -5.816
REMARK INTER:                  -5.573
REMARK INTRA:                  -0.243
REMARK UNBOUND:                -0.243
REMARK SMILES CC=C(C)C=CC=C(C)C
REMARK SMILES IDX 5 1 6 2 3 3 1 4 2 5 4 6 7 7 8 8 9 9 10 10
REMARK H PARENT
REMARK Flexibility Score: inf
ROOT
ATOM      1  C   UNL     1     108.375 104.112 128.736  1.00  0.00     0.003 C 
ATOM      2  C   UNL     1     107.933 103.055 128.045  1.00  0.00     0.000 C 
ENDROOT
BRANCH   1   3
ATOM      3  C   UNL     1     109.638 104.828 128.419  1.00  0.00    -0.055 C 
ATOM      4  C   UNL     1     111.724 105.938 129.281  1.00  0.00     0.036 C 
ATOM      5  C   UNL     1     110.448 105.166 129.441  1.00  0.00    -0.027 C 
ATOM      6  C   UNL     1     109.960 105.216 126.992  1.00  0.00     0.044 C 
ENDBRANCH   1   3
BRANCH   2   7
ATOM      7  C   UNL     1     106.661 102.394 128.410  1.00  0.00    -0.001 C 
ATOM      8  C   UNL     1     106.586 101.201 129.028  1.00  0.00    -0.076 C 
ATOM      9  C   UNL     1     105.227 100.639 129.345  1.00  0.00     0.039 C 
ATOM     10  C   UNL     1     107.818 100.420 129.409  1.00  0.00     0.039 C 
ENDBRANCH   2   7
TORSDOF 2
ENDMDL
MODEL 2
REMARK VINA RESULT:    -4.982      6.931      7.439
REMARK INTER + INTRA:          -5.808
REMARK INTER:                  -5.543
REMARK INTRA:                  -0.265
REMARK UNBOUND:                -0.243
REMARK SMILES CC=C(C)C=CC=C(C)C
REMARK SMILES IDX 5 1 6 2 3 3 1 4 2 5 4 6 7 7 8 8 9 9 10 10
REMARK H PARENT
REMARK Flexibility Score: inf
ROOT
ATOM      1  C   UNL     1     103.868 108.333 127.767  1.00  0.00     0.003 C 
ATOM      2  C   UNL     1     103.243 107.903 128.870  1.00  0.00     0.000 C 
ENDROOT
BRANCH   1   3
ATOM      3  C   UNL     1     104.523 109.663 127.664  1.00  0.00    -0.055 C 
ATOM      4  C   UNL     1     105.299 111.744 128.842  1.00  0.00     0.036 C 
ATOM      5  C   UNL     1     104.707 110.367 128.798  1.00  0.00    -0.027 C 
ATOM      6  C   UNL     1     104.906 110.224 126.311  1.00  0.00     0.044 C 
ENDBRANCH   1   3
BRANCH   2   7
ATOM      7  C   UNL     1     102.619 106.562 128.908  1.00  0.00    -0.001 C 
ATOM      8  C   UNL     1     101.322 106.347 129.195  1.00  0.00    -0.076 C 
ATOM      9  C   UNL     1     100.811 104.932 129.199  1.00  0.00     0.039 C 
ATOM     10  C   UNL     1     100.374 107.478 129.506  1.00  0.00     0.039 C 
ENDBRANCH   2   7
TORSDOF 2
ENDMDL
MODEL 3
REMARK VINA RESULT:    -4.959      3.698      5.912
REMARK INTER + INTRA:          -5.782
REMARK INTER:                  -5.516
REMARK INTRA:                  -0.266
REMARK UNBOUND:                -0.243
REMARK SMILES CC=C(C)C=CC=C(C)C
REMARK SMILES IDX 5 1 6 2 3 3 1 4 2 5 4 6 7 7 8 8 9 9 10 10
REMARK H PARENT
REMARK Flexibility Score: inf
ROOT
ATOM      1  C   UNL     1     104.054 103.855 127.745  1.00  0.00     0.003 C 
ATOM      2  C   UNL     1     104.542 103.237 128.828  1.00  0.00     0.000 C 
ENDROOT
BRANCH   1   3
ATOM      3  C   UNL     1     102.724 104.517 127.711  1.00  0.00    -0.055 C 
ATOM      4  C   UNL     1     100.702 105.287 128.993  1.00  0.00     0.036 C 
ATOM      5  C   UNL     1     102.073 104.689 128.878  1.00  0.00    -0.027 C 
ATOM      6  C   UNL     1     102.104 104.921 126.390  1.00  0.00     0.044 C 
ENDBRANCH   1   3
BRANCH   2   7
ATOM      7  C   UNL     1     105.879 102.605 128.796  1.00  0.00    -0.001 C 
ATOM      8  C   UNL     1     106.103 101.309 129.080  1.00  0.00    -0.076 C 
ATOM      9  C   UNL     1     107.513 100.790 129.009  1.00  0.00     0.039 C 
ATOM     10  C   UNL     1     104.986 100.371 129.461  1.00  0.00     0.039 C 
ENDBRANCH   2   7
TORSDOF 2
ENDMDL
MODEL 4
REMARK VINA RESULT:    -4.957      6.983      9.111
REMARK INTER + INTRA:          -5.779
REMARK INTER:                  -5.550
REMARK INTRA:                  -0.229
REMARK UNBOUND:                -0.243
REMARK SMILES CC=C(C)C=CC=C(C)C
REMARK SMILES IDX 5 1 6 2 3 3 1 4 2 5 4 6 7 7 8 8 9 9 10 10
REMARK H PARENT
REMARK Flexibility Score: inf
ROOT
ATOM      1  C   UNL     1     104.113 108.203 128.649  1.00  0.00     0.003 C 
ATOM      2  C   UNL     1     104.467 109.383 128.126  1.00  0.00     0.000 C 
ENDROOT
BRANCH   1   3
ATOM      3  C   UNL     1     102.829 107.522 128.337  1.00  0.00    -0.055 C 
ATOM      4  C   UNL     1     100.715 106.475 129.208  1.00  0.00     0.036 C 
ATOM      5  C   UNL     1     102.012 107.212 129.362  1.00  0.00    -0.027 C 
ATOM      6  C   UNL     1     102.494 107.136 126.912  1.00  0.00     0.044 C 
ENDBRANCH   1   3
BRANCH   2   7
ATOM      7  C   UNL     1     105.765 110.002 128.473  1.00  0.00    -0.001 C 
ATOM      8  C   UNL     1     105.890 111.228 129.014  1.00  0.00    -0.076 C 
ATOM      9  C   UNL     1     107.270 111.741 129.321  1.00  0.00     0.039 C 
ATOM     10  C   UNL     1     104.693 112.092 129.319  1.00  0.00     0.039 C 
ENDBRANCH   2   7
TORSDOF 2
ENDMDL
MODEL 5
REMARK VINA RESULT:    -4.944      4.583      6.446
REMARK INTER + INTRA:          -5.765
REMARK INTER:                  -5.528
REMARK INTRA:                  -0.237
REMARK UNBOUND:                -0.243
REMARK SMILES CC=C(C)C=CC=C(C)C
REMARK SMILES IDX 5 1 6 2 3 3 1 4 2 5 4 6 7 7 8 8 9 9 10 10
REMARK H PARENT
REMARK Flexibility Score: inf
ROOT
ATOM      1  C   UNL     1     104.187 104.145 128.799  1.00  0.00     0.003 C 
ATOM      2  C   UNL     1     103.113 104.595 128.139  1.00  0.00     0.000 C 
ENDROOT
BRANCH   1   3
ATOM      3  C   UNL     1     104.892 102.883 128.452  1.00  0.00    -0.055 C 
ATOM      4  C   UNL     1     105.964 100.758 129.264  1.00  0.00     0.036 C 
ATOM      5  C   UNL     1     105.204 102.037 129.453  1.00  0.00    -0.027 C 
ATOM      6  C   UNL     1     105.297 102.601 127.021  1.00  0.00     0.044 C 
ENDBRANCH   1   3
BRANCH   2   7
ATOM      7  C   UNL     1     102.464 105.865 128.533  1.00  0.00    -0.001 C 
ATOM      8  C   UNL     1     101.221 105.945 129.040  1.00  0.00    -0.076 C 
ATOM      9  C   UNL     1     100.678 107.301 129.401  1.00  0.00     0.039 C 
ATOM     10  C   UNL     1     100.365 104.723 129.258  1.00  0.00     0.039 C 
ENDBRANCH   2   7
TORSDOF 2
ENDMDL
MODEL 6
REMARK VINA RESULT:    -4.929      5.534      7.012
REMARK INTER + INTRA:          -5.748
REMARK INTER:                  -5.479
REMARK INTRA:                  -0.269
REMARK UNBOUND:                -0.243
REMARK SMILES CC=C(C)C=CC=C(C)C
REMARK SMILES IDX 5 1 6 2 3 3 1 4 2 5 4 6 7 7 8 8 9 9 10 10
REMARK H PARENT
REMARK Flexibility Score: inf
ROOT
ATOM      1  C   UNL     1     108.462 108.560 127.782  1.00  0.00     0.003 C 
ATOM      2  C   UNL     1     108.006 109.180 128.877  1.00  0.00     0.000 C 
ENDROOT
BRANCH   1   3
ATOM      3  C   UNL     1     109.802 107.921 127.702  1.00  0.00    -0.055 C 
ATOM      4  C   UNL     1     111.962 107.366 128.864  1.00  0.00     0.036 C 
ATOM      5  C   UNL     1     110.569 107.920 128.809  1.00  0.00    -0.027 C 
ATOM      6  C   UNL     1     110.300 107.351 126.392  1.00  0.00     0.044 C 
ENDBRANCH   1   3
BRANCH   2   7
ATOM      7  C   UNL     1     106.657 109.789 128.891  1.00  0.00    -0.001 C 
ATOM      8  C   UNL     1     106.421 111.081 129.182  1.00  0.00    -0.076 C 
ATOM      9  C   UNL     1     104.999 111.574 129.161  1.00  0.00     0.039 C 
ATOM     10  C   UNL     1     107.533 112.040 129.524  1.00  0.00     0.039 C 
ENDBRANCH   2   7
TORSDOF 2
ENDMDL
MODEL 7
REMARK VINA RESULT:    -4.918      1.214      5.376
REMARK INTER + INTRA:          -5.736
REMARK INTER:                  -5.472
REMARK INTRA:                  -0.264
REMARK UNBOUND:                -0.243
REMARK SMILES CC=C(C)C=CC=C(C)C
REMARK SMILES IDX 5 1 6 2 3 3 1 4 2 5 4 6 7 7 8 8 9 9 10 10
REMARK H PARENT
REMARK Flexibility Score: inf
ROOT
ATOM      1  C   UNL     1     108.626 104.102 127.746  1.00  0.00     0.003 C 
ATOM      2  C   UNL     1     109.289 104.508 128.836  1.00  0.00     0.000 C 
ENDROOT
BRANCH   1   3
ATOM      3  C   UNL     1     107.955 102.779 127.640  1.00  0.00    -0.055 C 
ATOM      4  C   UNL     1     107.322 100.625 128.771  1.00  0.00     0.036 C 
ATOM      5  C   UNL     1     107.912 102.003 128.741  1.00  0.00    -0.027 C 
ATOM      6  C   UNL     1     107.401 102.306 126.314  1.00  0.00     0.044 C 
ENDBRANCH   1   3
BRANCH   2   7
ATOM      7  C   UNL     1     109.927 105.841 128.877  1.00  0.00    -0.001 C 
ATOM      8  C   UNL     1     111.216 106.046 129.204  1.00  0.00    -0.076 C 
ATOM      9  C   UNL     1     111.742 107.455 129.206  1.00  0.00     0.039 C 
ATOM     10  C   UNL     1     112.139 104.909 129.562  1.00  0.00     0.039 C 
ENDBRANCH   2   7
TORSDOF 2
ENDMDL
MODEL 8
REMARK VINA RESULT:    -4.888      4.599      6.570
REMARK INTER + INTRA:          -5.702
REMARK INTER:                  -5.467
REMARK INTRA:                  -0.235
REMARK UNBOUND:                -0.243
REMARK SMILES CC=C(C)C=CC=C(C)C
REMARK SMILES IDX 5 1 6 2 3 3 1 4 2 5 4 6 7 7 8 8 9 9 10 10
REMARK H PARENT
REMARK Flexibility Score: inf
ROOT
ATOM      1  C   UNL     1     108.181 108.636 127.754  1.00  0.00     0.003 C 
ATOM      2  C   UNL     1     109.107 108.223 128.628  1.00  0.00     0.000 C 
ENDROOT
BRANCH   1   3
ATOM      3  C   UNL     1     107.489 109.948 127.853  1.00  0.00    -0.055 C 
ATOM      4  C   UNL     1     106.493 111.716 129.338  1.00  0.00     0.036 C 
ATOM      5  C   UNL     1     107.233 110.437 129.082  1.00  0.00    -0.027 C 
ATOM      6  C   UNL     1     107.034 110.669 126.603  1.00  0.00     0.044 C 
ENDBRANCH   1   3
BRANCH   2   7
ATOM      7  C   UNL     1     109.763 106.907 128.466  1.00  0.00    -0.001 C 
ATOM      8  C   UNL     1     111.048 106.667 128.782  1.00  0.00    -0.076 C 
ATOM      9  C   UNL     1     111.594 105.280 128.569  1.00  0.00     0.039 C 
ATOM     10  C   UNL     1     111.948 107.739 129.342  1.00  0.00     0.039 C 
ENDBRANCH   2   7
TORSDOF 2
ENDMDL
MODEL 9
REMARK VINA RESULT:    -4.746      4.545      6.635
REMARK INTER + INTRA:          -5.544
REMARK INTER:                  -5.271
REMARK INTRA:                  -0.272
REMARK UNBOUND:                -0.243
REMARK SMILES CC=C(C)C=CC=C(C)C
REMARK SMILES IDX 5 1 6 2 3 3 1 4 2 5 4 6 7 7 8 8 9 9 10 10
REMARK H PARENT
REMARK Flexibility Score: inf
ROOT
ATOM      1  C   UNL     1     110.693 105.472 125.397  1.00  0.00     0.003 C 
ATOM      2  C   UNL     1     110.917 106.743 125.751  1.00  0.00     0.000 C 
ENDROOT
BRANCH   1   3
ATOM      3  C   UNL     1     109.938 105.082 124.178  1.00  0.00    -0.055 C 
ATOM      4  C   UNL     1     109.301 105.635 121.809  1.00  0.00     0.036 C 
ATOM      5  C   UNL     1     110.046 105.869 123.089  1.00  0.00    -0.027 C 
ATOM      6  C   UNL     1     109.029 103.872 124.194  1.00  0.00     0.044 C 
ENDBRANCH   1   3
BRANCH   2   7
ATOM      7  C   UNL     1     111.684 107.061 126.975  1.00  0.00    -0.001 C 
ATOM      8  C   UNL     1     111.121 107.458 128.131  1.00  0.00    -0.076 C 
ATOM      9  C   UNL     1     112.017 107.750 129.304  1.00  0.00     0.039 C 
ATOM     10  C   UNL     1     109.629 107.615 128.280  1.00  0.00     0.039 C 
ENDBRANCH   2   7
TORSDOF 2
ENDMDL
