MODEL 1
REMARK VINA RESULT:    -6.008      0.000      0.000
REMARK INTER + INTRA:          -7.288
REMARK INTER:                  -7.061
REMARK INTRA:                  -0.227
REMARK UNBOUND:                -0.227
REMARK SMILES O=c1c(O)c(-c2ccc(O)cc2)oc2cc(O)cc(O)c12
REMARK SMILES IDX 5 1 3 2 2 3 1 4 21 5 19 6 18 7 16 8 15 9 14 10 13 11 6 12
REMARK SMILES IDX 7 13 8 14 9 15 12 16 11 17 10 18 4 20 20 22 17 24
REMARK H PARENT 10 19 4 21 20 23 17 25
REMARK Flexibility Score: inf
ROOT
ATOM      1  C   UNL     1     308.147 226.727 204.456  1.00  0.00     0.180 A 
ATOM      2  C   UNL     1     309.475 226.490 204.059  1.00  0.00     0.208 A 
ATOM      3  C   UNL     1     309.912 225.166 203.896  1.00  0.00     0.238 A 
ATOM      4  O   UNL     1     311.115 224.960 203.592  1.00  0.00    -0.285 OA
ATOM      5  C   UNL     1     309.013 224.096 204.117  1.00  0.00     0.111 A 
ATOM      6  C   UNL     1     309.337 222.716 203.943  1.00  0.00     0.134 A 
ATOM      7  C   UNL     1     308.407 221.737 204.317  1.00  0.00     0.093 A 
ATOM      8  C   UNL     1     307.146 222.086 204.795  1.00  0.00     0.123 A 
ATOM      9  C   UNL     1     306.797 223.432 204.913  1.00  0.00     0.094 A 
ATOM     10  C   UNL     1     307.715 224.432 204.583  1.00  0.00     0.146 A 
ATOM     11  O   UNL     1     307.347 225.700 204.719  1.00  0.00    -0.452 OA
ENDROOT
BRANCH   1  12
ATOM     12  C   UNL     1     307.607 228.096 204.624  1.00  0.00     0.021 A 
ATOM     13  C   UNL     1     307.298 228.563 205.912  1.00  0.00     0.016 A 
ATOM     14  C   UNL     1     306.766 229.844 206.091  1.00  0.00     0.047 A 
ATOM     15  C   UNL     1     306.521 230.665 204.987  1.00  0.00     0.115 A 
ATOM     16  C   UNL     1     307.340 228.919 203.515  1.00  0.00     0.016 A 
ATOM     17  C   UNL     1     306.807 230.199 203.698  1.00  0.00     0.047 A 
BRANCH  15  18
ATOM     18  O   UNL     1     305.992 231.939 205.181  1.00  0.00    -0.508 OA
ATOM     19  H   UNL     1     306.491 232.770 204.888  1.00  0.00     0.293 HD
ENDBRANCH  15  18
ENDBRANCH   1  12
BRANCH   2  20
ATOM     20  O   UNL     1     310.352 227.562 203.866  1.00  0.00    -0.502 OA
ATOM     21  H   UNL     1     311.167 227.709 204.451  1.00  0.00     0.293 HD
ENDBRANCH   2  20
BRANCH   6  22
ATOM     22  O   UNL     1     310.534 222.260 203.387  1.00  0.00    -0.507 OA
ATOM     23  H   UNL     1     311.201 222.842 202.902  1.00  0.00     0.293 HD
ENDBRANCH   6  22
BRANCH   8  24
ATOM     24  O   UNL     1     306.241 221.085 205.143  1.00  0.00    -0.508 OA
ATOM     25  H   UNL     1     306.540 220.127 205.289  1.00  0.00     0.293 HD
ENDBRANCH   8  24
TORSDOF 5
ENDMDL
MODEL 2
REMARK VINA RESULT:    -5.827     12.008     14.546
REMARK INTER + INTRA:          -7.075
REMARK INTER:                  -6.778
REMARK INTRA:                  -0.297
REMARK UNBOUND:                -0.227
REMARK SMILES O=c1c(O)c(-c2ccc(O)cc2)oc2cc(O)cc(O)c12
REMARK SMILES IDX 5 1 3 2 2 3 1 4 21 5 19 6 18 7 16 8 15 9 14 10 13 11 6 12
REMARK SMILES IDX 7 13 8 14 9 15 12 16 11 17 10 18 4 20 20 22 17 24
REMARK H PARENT 10 19 4 21 20 23 17 25
REMARK Flexibility Score: inf
ROOT
ATOM      1  C   UNL     1     318.445 234.304 201.122  1.00  0.00     0.180 A 
ATOM      2  C   UNL     1     317.209 234.481 200.476  1.00  0.00     0.208 A 
ATOM      3  C   UNL     1     316.067 234.736 201.250  1.00  0.00     0.238 A 
ATOM      4  O   UNL     1     314.954 234.841 200.670  1.00  0.00    -0.285 OA
ATOM      5  C   UNL     1     316.175 234.827 202.658  1.00  0.00     0.111 A 
ATOM      6  C   UNL     1     315.090 235.120 203.538  1.00  0.00     0.134 A 
ATOM      7  C   UNL     1     315.288 235.055 204.923  1.00  0.00     0.093 A 
ATOM      8  C   UNL     1     316.543 234.772 205.460  1.00  0.00     0.123 A 
ATOM      9  C   UNL     1     317.624 234.542 204.608  1.00  0.00     0.094 A 
ATOM     10  C   UNL     1     317.450 234.563 203.222  1.00  0.00     0.146 A 
ATOM     11  O   UNL     1     318.503 234.329 202.448  1.00  0.00    -0.452 OA
ENDROOT
BRANCH   1  12
ATOM     12  C   UNL     1     319.698 234.057 200.372  1.00  0.00     0.021 A 
ATOM     13  C   UNL     1     320.111 232.735 200.132  1.00  0.00     0.016 A 
ATOM     14  C   UNL     1     321.302 232.480 199.445  1.00  0.00     0.047 A 
ATOM     15  C   UNL     1     322.102 233.538 199.005  1.00  0.00     0.115 A 
ATOM     16  C   UNL     1     320.517 235.118 199.943  1.00  0.00     0.016 A 
ATOM     17  C   UNL     1     321.708 234.858 199.257  1.00  0.00     0.047 A 
BRANCH  15  18
ATOM     18  O   UNL     1     323.285 233.268 198.321  1.00  0.00    -0.508 OA
ATOM     19  H   UNL     1     323.500 233.715 197.438  1.00  0.00     0.293 HD
ENDBRANCH  15  18
ENDBRANCH   1  12
BRANCH   2  20
ATOM     20  O   UNL     1     317.120 234.367 199.085  1.00  0.00    -0.502 OA
ATOM     21  H   UNL     1     316.242 234.201 198.608  1.00  0.00     0.293 HD
ENDBRANCH   2  20
BRANCH   6  22
ATOM     22  O   UNL     1     313.818 235.506 203.107  1.00  0.00    -0.507 OA
ATOM     23  H   UNL     1     313.438 235.312 202.192  1.00  0.00     0.293 HD
ENDBRANCH   6  22
BRANCH   8  24
ATOM     24  O   UNL     1     316.706 234.731 206.843  1.00  0.00    -0.508 OA
ATOM     25  H   UNL     1     316.555 233.878 207.370  1.00  0.00     0.293 HD
ENDBRANCH   8  24
TORSDOF 5
ENDMDL
MODEL 3
REMARK VINA RESULT:    -5.783      2.143      3.527
REMARK INTER + INTRA:          -7.024
REMARK INTER:                  -6.724
REMARK INTRA:                  -0.300
REMARK UNBOUND:                -0.227
REMARK SMILES O=c1c(O)c(-c2ccc(O)cc2)oc2cc(O)cc(O)c12
REMARK SMILES IDX 5 1 3 2 2 3 1 4 21 5 19 6 18 7 16 8 15 9 14 10 13 11 6 12
REMARK SMILES IDX 7 13 8 14 9 15 12 16 11 17 10 18 4 20 20 22 17 24
REMARK H PARENT 10 19 4 21 20 23 17 25
REMARK Flexibility Score: inf
ROOT
ATOM      1  C   UNL     1     308.603 228.038 204.192  1.00  0.00     0.180 A 
ATOM      2  C   UNL     1     307.373 227.656 204.756  1.00  0.00     0.208 A 
ATOM      3  C   UNL     1     307.106 226.292 204.950  1.00  0.00     0.238 A 
ATOM      4  O   UNL     1     305.982 225.954 205.405  1.00  0.00    -0.285 OA
ATOM      5  C   UNL     1     308.078 225.326 204.594  1.00  0.00     0.111 A 
ATOM      6  C   UNL     1     307.930 223.919 204.783  1.00  0.00     0.134 A 
ATOM      7  C   UNL     1     308.901 223.048 204.273  1.00  0.00     0.093 A 
ATOM      8  C   UNL     1     310.044 223.534 203.640  1.00  0.00     0.123 A 
ATOM      9  C   UNL     1     310.227 224.911 203.502  1.00  0.00     0.094 A 
ATOM     10  C   UNL     1     309.258 225.804 203.968  1.00  0.00     0.146 A 
ATOM     11  O   UNL     1     309.467 227.105 203.808  1.00  0.00    -0.452 OA
ENDROOT
BRANCH   1  12
ATOM     12  C   UNL     1     308.967 229.458 203.981  1.00  0.00     0.021 A 
ATOM     13  C   UNL     1     308.717 230.056 202.734  1.00  0.00     0.016 A 
ATOM     14  C   UNL     1     309.073 231.389 202.506  1.00  0.00     0.047 A 
ATOM     15  C   UNL     1     309.695 232.134 203.511  1.00  0.00     0.115 A 
ATOM     16  C   UNL     1     309.611 230.206 204.982  1.00  0.00     0.016 A 
ATOM     17  C   UNL     1     309.966 231.539 204.750  1.00  0.00     0.047 A 
BRANCH  15  18
ATOM     18  O   UNL     1     310.043 233.461 203.269  1.00  0.00    -0.508 OA
ATOM     19  H   UNL     1     310.154 233.816 202.327  1.00  0.00     0.293 HD
ENDBRANCH  15  18
ENDBRANCH   1  12
BRANCH   2  20
ATOM     20  O   UNL     1     306.419 228.625 205.081  1.00  0.00    -0.502 OA
ATOM     21  H   UNL     1     305.784 229.016 204.395  1.00  0.00     0.293 HD
ENDBRANCH   2  20
BRANCH   6  22
ATOM     22  O   UNL     1     306.872 223.333 205.483  1.00  0.00    -0.507 OA
ATOM     23  H   UNL     1     306.683 222.342 205.514  1.00  0.00     0.293 HD
ENDBRANCH   6  22
BRANCH   8  24
ATOM     24  O   UNL     1     310.997 222.639 203.158  1.00  0.00    -0.508 OA
ATOM     25  H   UNL     1     310.871 221.637 203.238  1.00  0.00     0.293 HD
ENDBRANCH   8  24
TORSDOF 5
ENDMDL
MODEL 4
REMARK VINA RESULT:    -5.781      2.307      7.112
REMARK INTER + INTRA:          -7.022
REMARK INTER:                  -6.820
REMARK INTRA:                  -0.201
REMARK UNBOUND:                -0.227
REMARK SMILES O=c1c(O)c(-c2ccc(O)cc2)oc2cc(O)cc(O)c12
REMARK SMILES IDX 5 1 3 2 2 3 1 4 21 5 19 6 18 7 16 8 15 9 14 10 13 11 6 12
REMARK SMILES IDX 7 13 8 14 9 15 12 16 11 17 10 18 4 20 20 22 17 24
REMARK H PARENT 10 19 4 21 20 23 17 25
REMARK Flexibility Score: inf
ROOT
ATOM      1  C   UNL     1     308.138 226.716 203.594  1.00  0.00     0.180 A 
ATOM      2  C   UNL     1     306.988 227.241 202.978  1.00  0.00     0.208 A 
ATOM      3  C   UNL     1     306.964 228.599 202.627  1.00  0.00     0.238 A 
ATOM      4  O   UNL     1     305.912 229.075 202.125  1.00  0.00    -0.285 OA
ATOM      5  C   UNL     1     308.095 229.413 202.879  1.00  0.00     0.111 A 
ATOM      6  C   UNL     1     308.194 230.793 202.528  1.00  0.00     0.134 A 
ATOM      7  C   UNL     1     309.309 231.532 202.944  1.00  0.00     0.093 A 
ATOM      8  C   UNL     1     310.355 230.928 203.640  1.00  0.00     0.123 A 
ATOM      9  C   UNL     1     310.295 229.565 203.936  1.00  0.00     0.094 A 
ATOM     10  C   UNL     1     309.179 228.810 203.567  1.00  0.00     0.146 A 
ATOM     11  O   UNL     1     309.157 227.519 203.877  1.00  0.00    -0.452 OA
ENDROOT
BRANCH   1  12
ATOM     12  C   UNL     1     308.248 225.288 203.971  1.00  0.00     0.021 A 
ATOM     13  C   UNL     1     309.048 224.429 203.198  1.00  0.00     0.016 A 
ATOM     14  C   UNL     1     309.148 223.072 203.524  1.00  0.00     0.047 A 
ATOM     15  C   UNL     1     308.440 222.555 204.611  1.00  0.00     0.115 A 
ATOM     16  C   UNL     1     307.522 224.757 205.053  1.00  0.00     0.016 A 
ATOM     17  C   UNL     1     307.624 223.400 205.374  1.00  0.00     0.047 A 
BRANCH  15  18
ATOM     18  O   UNL     1     308.551 221.202 204.924  1.00  0.00    -0.508 OA
ATOM     19  H   UNL     1     309.049 220.558 204.321  1.00  0.00     0.293 HD
ENDBRANCH  15  18
ENDBRANCH   1  12
BRANCH   2  20
ATOM     20  O   UNL     1     305.875 226.425 202.757  1.00  0.00    -0.502 OA
ATOM     21  H   UNL     1     304.952 226.659 203.103  1.00  0.00     0.293 HD
ENDBRANCH   2  20
BRANCH   6  22
ATOM     22  O   UNL     1     307.249 231.473 201.755  1.00  0.00    -0.507 OA
ATOM     23  H   UNL     1     306.965 231.201 200.826  1.00  0.00     0.293 HD
ENDBRANCH   6  22
BRANCH   8  24
ATOM     24  O   UNL     1     311.456 231.690 204.024  1.00  0.00    -0.508 OA
ATOM     25  H   UNL     1     311.433 232.703 204.005  1.00  0.00     0.293 HD
ENDBRANCH   8  24
TORSDOF 5
ENDMDL
MODEL 5
REMARK VINA RESULT:    -5.687      1.621      7.079
REMARK INTER + INTRA:          -6.911
REMARK INTER:                  -7.091
REMARK INTRA:                   0.180
REMARK UNBOUND:                -0.227
REMARK SMILES O=c1c(O)c(-c2ccc(O)cc2)oc2cc(O)cc(O)c12
REMARK SMILES IDX 5 1 3 2 2 3 1 4 21 5 19 6 18 7 16 8 15 9 14 10 13 11 6 12
REMARK SMILES IDX 7 13 8 14 9 15 12 16 11 17 10 18 4 20 20 22 17 24
REMARK H PARENT 10 19 4 21 20 23 17 25
REMARK Flexibility Score: inf
ROOT
ATOM      1  C   UNL     1     308.119 226.117 204.644  1.00  0.00     0.180 A 
ATOM      2  C   UNL     1     307.321 226.416 205.763  1.00  0.00     0.208 A 
ATOM      3  C   UNL     1     306.885 227.736 205.954  1.00  0.00     0.238 A 
ATOM      4  O   UNL     1     306.216 228.008 206.985  1.00  0.00    -0.285 OA
ATOM      5  C   UNL     1     307.237 228.738 205.018  1.00  0.00     0.111 A 
ATOM      6  C   UNL     1     306.817 230.100 205.092  1.00  0.00     0.134 A 
ATOM      7  C   UNL     1     307.333 231.032 204.183  1.00  0.00     0.093 A 
ATOM      8  C   UNL     1     308.201 230.640 203.165  1.00  0.00     0.123 A 
ATOM      9  C   UNL     1     308.572 229.300 203.047  1.00  0.00     0.094 A 
ATOM     10  C   UNL     1     308.102 228.354 203.961  1.00  0.00     0.146 A 
ATOM     11  O   UNL     1     308.487 227.091 203.820  1.00  0.00    -0.452 OA
ENDROOT
BRANCH   1  12
ATOM     12  C   UNL     1     308.597 224.744 204.361  1.00  0.00     0.021 A 
ATOM     13  C   UNL     1     309.861 224.558 203.779  1.00  0.00     0.016 A 
ATOM     14  C   UNL     1     310.322 223.271 203.483  1.00  0.00     0.047 A 
ATOM     15  C   UNL     1     309.521 222.158 203.749  1.00  0.00     0.115 A 
ATOM     16  C   UNL     1     307.786 223.620 204.609  1.00  0.00     0.016 A 
ATOM     17  C   UNL     1     308.251 222.335 204.311  1.00  0.00     0.047 A 
BRANCH  15  18
ATOM     18  O   UNL     1     309.994 220.883 203.450  1.00  0.00    -0.508 OA
ATOM     19  H   UNL     1     309.693 220.387 202.619  1.00  0.00     0.293 HD
ENDBRANCH  15  18
ENDBRANCH   1  12
BRANCH   2  20
ATOM     20  O   UNL     1     307.003 225.416 206.686  1.00  0.00    -0.502 OA
ATOM     21  H   UNL     1     307.338 225.431 207.642  1.00  0.00     0.293 HD
ENDBRANCH   2  20
BRANCH   6  22
ATOM     22  O   UNL     1     305.881 230.580 206.013  1.00  0.00    -0.507 OA
ATOM     23  H   UNL     1     305.112 231.192 205.784  1.00  0.00     0.293 HD
ENDBRANCH   6  22
BRANCH   8  24
ATOM     24  O   UNL     1     308.683 231.592 202.268  1.00  0.00    -0.508 OA
ATOM     25  H   UNL     1     308.193 231.806 201.407  1.00  0.00     0.293 HD
ENDBRANCH   8  24
TORSDOF 5
ENDMDL
MODEL 6
REMARK VINA RESULT:    -5.507      9.655     11.957
REMARK INTER + INTRA:          -6.699
REMARK INTER:                  -6.472
REMARK INTRA:                  -0.228
REMARK UNBOUND:                -0.227
REMARK SMILES O=c1c(O)c(-c2ccc(O)cc2)oc2cc(O)cc(O)c12
REMARK SMILES IDX 5 1 3 2 2 3 1 4 21 5 19 6 18 7 16 8 15 9 14 10 13 11 6 12
REMARK SMILES IDX 7 13 8 14 9 15 12 16 11 17 10 18 4 20 20 22 17 24
REMARK H PARENT 10 19 4 21 20 23 17 25
REMARK Flexibility Score: inf
ROOT
ATOM      1  C   UNL     1     314.949 234.022 201.823  1.00  0.00     0.180 A 
ATOM      2  C   UNL     1     313.767 233.265 201.900  1.00  0.00     0.208 A 
ATOM      3  C   UNL     1     313.185 232.788 200.715  1.00  0.00     0.238 A 
ATOM      4  O   UNL     1     312.099 232.157 200.787  1.00  0.00    -0.285 OA
ATOM      5  C   UNL     1     313.801 233.058 199.469  1.00  0.00     0.111 A 
ATOM      6  C   UNL     1     313.319 232.590 198.210  1.00  0.00     0.134 A 
ATOM      7  C   UNL     1     313.935 233.028 197.030  1.00  0.00     0.093 A 
ATOM      8  C   UNL     1     315.050 233.863 197.066  1.00  0.00     0.123 A 
ATOM      9  C   UNL     1     315.565 234.279 198.295  1.00  0.00     0.094 A 
ATOM     10  C   UNL     1     314.951 233.889 199.488  1.00  0.00     0.146 A 
ATOM     11  O   UNL     1     315.466 234.315 200.635  1.00  0.00    -0.452 OA
ENDROOT
BRANCH   1  12
ATOM     12  C   UNL     1     315.635 234.538 203.030  1.00  0.00     0.021 A 
ATOM     13  C   UNL     1     316.780 233.880 203.508  1.00  0.00     0.016 A 
ATOM     14  C   UNL     1     317.430 234.338 204.659  1.00  0.00     0.047 A 
ATOM     15  C   UNL     1     316.936 235.446 205.353  1.00  0.00     0.115 A 
ATOM     16  C   UNL     1     315.132 235.641 203.743  1.00  0.00     0.016 A 
ATOM     17  C   UNL     1     315.784 236.095 204.894  1.00  0.00     0.047 A 
BRANCH  15  18
ATOM     18  O   UNL     1     317.595 235.891 206.497  1.00  0.00    -0.508 OA
ATOM     19  H   UNL     1     317.414 235.481 207.405  1.00  0.00     0.293 HD
ENDBRANCH  15  18
ENDBRANCH   1  12
BRANCH   2  20
ATOM     20  O   UNL     1     313.165 233.028 203.139  1.00  0.00    -0.502 OA
ATOM     21  H   UNL     1     312.474 232.299 203.277  1.00  0.00     0.293 HD
ENDBRANCH   2  20
BRANCH   6  22
ATOM     22  O   UNL     1     312.269 231.680 198.064  1.00  0.00    -0.507 OA
ATOM     23  H   UNL     1     312.020 231.223 197.199  1.00  0.00     0.293 HD
ENDBRANCH   6  22
BRANCH   8  24
ATOM     24  O   UNL     1     315.646 234.267 195.873  1.00  0.00    -0.508 OA
ATOM     25  H   UNL     1     316.608 234.034 195.655  1.00  0.00     0.293 HD
ENDBRANCH   8  24
TORSDOF 5
ENDMDL
MODEL 7
REMARK VINA RESULT:    -5.448     12.126     14.764
REMARK INTER + INTRA:          -6.630
REMARK INTER:                  -6.330
REMARK INTRA:                  -0.300
REMARK UNBOUND:                -0.227
REMARK SMILES O=c1c(O)c(-c2ccc(O)cc2)oc2cc(O)cc(O)c12
REMARK SMILES IDX 5 1 3 2 2 3 1 4 21 5 19 6 18 7 16 8 15 9 14 10 13 11 6 12
REMARK SMILES IDX 7 13 8 14 9 15 12 16 11 17 10 18 4 20 20 22 17 24
REMARK H PARENT 10 19 4 21 20 23 17 25
REMARK Flexibility Score: inf
ROOT
ATOM      1  C   UNL     1     318.648 234.261 200.654  1.00  0.00     0.180 A 
ATOM      2  C   UNL     1     318.327 234.244 202.022  1.00  0.00     0.208 A 
ATOM      3  C   UNL     1     317.001 234.491 202.414  1.00  0.00     0.238 A 
ATOM      4  O   UNL     1     316.731 234.527 203.642  1.00  0.00    -0.285 OA
ATOM      5  C   UNL     1     316.011 234.735 201.433  1.00  0.00     0.111 A 
ATOM      6  C   UNL     1     314.629 234.957 201.714  1.00  0.00     0.134 A 
ATOM      7  C   UNL     1     313.763 235.319 200.675  1.00  0.00     0.093 A 
ATOM      8  C   UNL     1     314.212 235.402 199.358  1.00  0.00     0.123 A 
ATOM      9  C   UNL     1     315.549 235.128 199.063  1.00  0.00     0.094 A 
ATOM     10  C   UNL     1     316.445 234.801 200.084  1.00  0.00     0.146 A 
ATOM     11  O   UNL     1     317.710 234.559 199.762  1.00  0.00    -0.452 OA
ENDROOT
BRANCH   1  12
ATOM     12  C   UNL     1     320.018 233.986 200.162  1.00  0.00     0.021 A 
ATOM     13  C   UNL     1     320.893 235.057 199.919  1.00  0.00     0.016 A 
ATOM     14  C   UNL     1     322.183 234.821 199.434  1.00  0.00     0.047 A 
ATOM     15  C   UNL     1     322.608 233.516 199.171  1.00  0.00     0.115 A 
ATOM     16  C   UNL     1     320.445 232.676 199.877  1.00  0.00     0.016 A 
ATOM     17  C   UNL     1     321.735 232.443 199.391  1.00  0.00     0.047 A 
BRANCH  15  18
ATOM     18  O   UNL     1     323.896 233.296 198.689  1.00  0.00    -0.508 OA
ATOM     19  H   UNL     1     324.569 232.743 199.207  1.00  0.00     0.293 HD
ENDBRANCH  15  18
ENDBRANCH   1  12
BRANCH   2  20
ATOM     20  O   UNL     1     319.324 234.022 202.976  1.00  0.00    -0.502 OA
ATOM     21  H   UNL     1     319.521 234.679 203.722  1.00  0.00     0.293 HD
ENDBRANCH   2  20
BRANCH   6  22
ATOM     22  O   UNL     1     314.056 234.810 202.980  1.00  0.00    -0.507 OA
ATOM     23  H   UNL     1     314.018 235.535 203.681  1.00  0.00     0.293 HD
ENDBRANCH   6  22
BRANCH   8  24
ATOM     24  O   UNL     1     313.318 235.749 198.347  1.00  0.00    -0.508 OA
ATOM     25  H   UNL     1     312.334 235.517 198.407  1.00  0.00     0.293 HD
ENDBRANCH   8  24
TORSDOF 5
ENDMDL
MODEL 8
REMARK VINA RESULT:    -5.401     10.421     12.453
REMARK INTER + INTRA:          -6.574
REMARK INTER:                  -6.321
REMARK INTRA:                  -0.253
REMARK UNBOUND:                -0.227
REMARK SMILES O=c1c(O)c(-c2ccc(O)cc2)oc2cc(O)cc(O)c12
REMARK SMILES IDX 5 1 3 2 2 3 1 4 21 5 19 6 18 7 16 8 15 9 14 10 13 11 6 12
REMARK SMILES IDX 7 13 8 14 9 15 12 16 11 17 10 18 4 20 20 22 17 24
REMARK H PARENT 10 19 4 21 20 23 17 25
REMARK Flexibility Score: inf
ROOT
ATOM      1  C   UNL     1     313.251 232.682 196.896  1.00  0.00     0.180 A 
ATOM      2  C   UNL     1     314.488 232.952 196.283  1.00  0.00     0.208 A 
ATOM      3  C   UNL     1     314.566 232.957 194.882  1.00  0.00     0.238 A 
ATOM      4  O   UNL     1     315.687 233.147 194.340  1.00  0.00    -0.285 OA
ATOM      5  C   UNL     1     313.406 232.710 194.110  1.00  0.00     0.111 A 
ATOM      6  C   UNL     1     313.363 232.730 192.683  1.00  0.00     0.134 A 
ATOM      7  C   UNL     1     312.190 232.341 192.023  1.00  0.00     0.093 A 
ATOM      8  C   UNL     1     311.042 231.996 192.735  1.00  0.00     0.123 A 
ATOM      9  C   UNL     1     311.057 232.030 194.130  1.00  0.00     0.094 A 
ATOM     10  C   UNL     1     312.222 232.378 194.817  1.00  0.00     0.146 A 
ATOM     11  O   UNL     1     312.196 232.388 196.145  1.00  0.00    -0.452 OA
ENDROOT
BRANCH   1  12
ATOM     12  C   UNL     1     313.084 232.683 198.367  1.00  0.00     0.021 A 
ATOM     13  C   UNL     1     312.557 233.820 199.002  1.00  0.00     0.016 A 
ATOM     14  C   UNL     1     312.411 233.851 200.393  1.00  0.00     0.047 A 
ATOM     15  C   UNL     1     312.804 232.755 201.166  1.00  0.00     0.115 A 
ATOM     16  C   UNL     1     313.495 231.590 199.153  1.00  0.00     0.016 A 
ATOM     17  C   UNL     1     313.348 231.625 200.543  1.00  0.00     0.047 A 
BRANCH  15  18
ATOM     18  O   UNL     1     312.651 232.800 202.549  1.00  0.00    -0.508 OA
ATOM     19  H   UNL     1     312.024 233.460 202.992  1.00  0.00     0.293 HD
ENDBRANCH  15  18
ENDBRANCH   1  12
BRANCH   2  20
ATOM     20  O   UNL     1     315.625 233.173 197.064  1.00  0.00    -0.502 OA
ATOM     21  H   UNL     1     316.349 233.831 196.798  1.00  0.00     0.293 HD
ENDBRANCH   2  20
BRANCH   6  22
ATOM     22  O   UNL     1     314.424 233.148 191.875  1.00  0.00    -0.507 OA
ATOM     23  H   UNL     1     314.325 233.710 191.043  1.00  0.00     0.293 HD
ENDBRANCH   6  22
BRANCH   8  24
ATOM     24  O   UNL     1     309.889 231.629 192.045  1.00  0.00    -0.508 OA
ATOM     25  H   UNL     1     309.611 230.659 191.955  1.00  0.00     0.293 HD
ENDBRANCH   8  24
TORSDOF 5
ENDMDL
MODEL 9
REMARK VINA RESULT:    -5.291      9.868     12.525
REMARK INTER + INTRA:          -6.446
REMARK INTER:                  -6.163
REMARK INTRA:                  -0.283
REMARK UNBOUND:                -0.227
REMARK SMILES O=c1c(O)c(-c2ccc(O)cc2)oc2cc(O)cc(O)c12
REMARK SMILES IDX 5 1 3 2 2 3 1 4 21 5 19 6 18 7 16 8 15 9 14 10 13 11 6 12
REMARK SMILES IDX 7 13 8 14 9 15 12 16 11 17 10 18 4 20 20 22 17 24
REMARK H PARENT 10 19 4 21 20 23 17 25
REMARK Flexibility Score: inf
ROOT
ATOM      1  C   UNL     1     312.571 233.071 197.019  1.00  0.00     0.180 A 
ATOM      2  C   UNL     1     311.979 232.487 198.153  1.00  0.00     0.208 A 
ATOM      3  C   UNL     1     312.610 232.628 199.399  1.00  0.00     0.238 A 
ATOM      4  O   UNL     1     312.103 232.058 200.400  1.00  0.00    -0.285 OA
ATOM      5  C   UNL     1     313.814 233.365 199.500  1.00  0.00     0.111 A 
ATOM      6  C   UNL     1     314.517 233.606 200.719  1.00  0.00     0.134 A 
ATOM      7  C   UNL     1     315.767 234.236 200.681  1.00  0.00     0.093 A 
ATOM      8  C   UNL     1     316.309 234.692 199.481  1.00  0.00     0.123 A 
ATOM      9  C   UNL     1     315.602 234.514 198.290  1.00  0.00     0.094 A 
ATOM     10  C   UNL     1     314.370 233.856 198.291  1.00  0.00     0.146 A 
ATOM     11  O   UNL     1     313.735 233.700 197.135  1.00  0.00    -0.452 OA
ENDROOT
BRANCH   1  12
ATOM     12  C   UNL     1     311.953 232.986 195.675  1.00  0.00     0.021 A 
ATOM     13  C   UNL     1     310.961 233.912 195.312  1.00  0.00     0.016 A 
ATOM     14  C   UNL     1     310.349 233.836 194.056  1.00  0.00     0.047 A 
ATOM     15  C   UNL     1     310.708 232.828 193.158  1.00  0.00     0.115 A 
ATOM     16  C   UNL     1     312.297 231.962 194.774  1.00  0.00     0.016 A 
ATOM     17  C   UNL     1     311.682 231.889 193.520  1.00  0.00     0.047 A 
BRANCH  15  18
ATOM     18  O   UNL     1     310.091 232.766 191.910  1.00  0.00    -0.508 OA
ATOM     19  H   UNL     1     310.602 232.955 191.056  1.00  0.00     0.293 HD
ENDBRANCH  15  18
ENDBRANCH   1  12
BRANCH   2  20
ATOM     20  O   UNL     1     310.801 231.746 198.027  1.00  0.00    -0.502 OA
ATOM     21  H   UNL     1     310.249 231.461 198.828  1.00  0.00     0.293 HD
ENDBRANCH   2  20
BRANCH   6  22
ATOM     22  O   UNL     1     314.023 233.274 201.983  1.00  0.00    -0.507 OA
ATOM     23  H   UNL     1     314.234 233.778 202.832  1.00  0.00     0.293 HD
ENDBRANCH   6  22
BRANCH   8  24
ATOM     24  O   UNL     1     317.548 235.328 199.483  1.00  0.00    -0.508 OA
ATOM     25  H   UNL     1     317.794 236.013 198.778  1.00  0.00     0.293 HD
ENDBRANCH   8  24
TORSDOF 5
ENDMDL
