MODEL 1
REMARK VINA RESULT:    -4.862      0.000      0.000
REMARK INTER + INTRA:         -10.092
REMARK INTER:                  -8.841
REMARK INTRA:                  -1.251
REMARK UNBOUND:                -1.251
REMARK SMILES CCCCCCCCCCCCCC[C@H](C)C(=O)[O-]
REMARK SMILES IDX 9 1 10 2 11 3 12 4 13 5 14 6 15 7 16 8 17 9 18 10 19 11 8 12
REMARK SMILES IDX 7 13 6 14 5 15 4 16 3 17 2 18 1 19
REMARK H PARENT
REMARK Flexibility Score: inf
ROOT
ATOM      1  C   UNL     1       6.025 -36.003  21.586  1.00  0.00     0.000 C 
ENDROOT
BRANCH   1   2
ATOM      2  C   UNL     1       5.121 -35.700  22.796  1.00  0.00     0.000 C 
BRANCH   2   3
ATOM      3  C   UNL     1       5.839 -35.655  24.160  1.00  0.00     0.000 C 
BRANCH   3   4
ATOM      4  C   UNL     1       6.054 -37.022  24.832  1.00  0.00     0.000 C 
BRANCH   4   5
ATOM      5  C   UNL     1       4.813 -37.924  24.760  1.00  0.00     0.001 C 
BRANCH   5   6
ATOM      6  C   UNL     1       5.213 -39.407  24.701  1.00  0.00     0.009 C 
BRANCH   6   7
ATOM      7  C   UNL     1       5.299 -39.929  23.253  1.00  0.00     0.032 C 
ATOM      8  C   UNL     1       3.960 -39.744  22.532  1.00  0.00     0.014 C 
BRANCH   7   9
ATOM      9  C   UNL     1       5.698 -41.381  23.218  1.00  0.00     0.044 C 
ATOM     10  O   UNL     1       5.964 -41.937  22.121  1.00  0.00    -0.550 OA
ATOM     11  O   UNL     1       5.772 -42.117  24.395  1.00  0.00    -0.550 OA
ENDBRANCH   7   9
ENDBRANCH   6   7
ENDBRANCH   5   6
ENDBRANCH   4   5
ENDBRANCH   3   4
ENDBRANCH   2   3
ENDBRANCH   1   2
BRANCH   1  12
ATOM     12  C   UNL     1       5.525 -37.192  20.750  1.00  0.00     0.000 C 
BRANCH  12  13
ATOM     13  C   UNL     1       4.719 -36.756  19.513  1.00  0.00    -0.000 C 
BRANCH  13  14
ATOM     14  C   UNL     1       3.350 -37.444  19.340  1.00  0.00    -0.000 C 
BRANCH  14  15
ATOM     15  C   UNL     1       3.051 -37.957  17.920  1.00  0.00    -0.000 C 
BRANCH  15  16
ATOM     16  C   UNL     1       2.933 -36.826  16.889  1.00  0.00    -0.000 C 
BRANCH  16  17
ATOM     17  C   UNL     1       1.994 -37.225  15.741  1.00  0.00    -0.000 C 
BRANCH  17  18
ATOM     18  C   UNL     1       2.693 -37.213  14.373  1.00  0.00    -0.003 C 
ATOM     19  C   UNL     1       3.768 -38.293  14.249  1.00  0.00     0.004 C 
ENDBRANCH  17  18
ENDBRANCH  16  17
ENDBRANCH  15  16
ENDBRANCH  14  15
ENDBRANCH  13  14
ENDBRANCH  12  13
ENDBRANCH   1  12
TORSDOF 14
ENDMDL
MODEL 2
REMARK VINA RESULT:    -4.468      1.214      2.656
REMARK INTER + INTRA:          -9.375
REMARK INTER:                  -8.224
REMARK INTRA:                  -1.151
REMARK UNBOUND:                -1.251
REMARK SMILES CCCCCCCCCCCCCC[C@H](C)C(=O)[O-]
REMARK SMILES IDX 9 1 10 2 11 3 12 4 13 5 14 6 15 7 16 8 17 9 18 10 19 11 8 12
REMARK SMILES IDX 7 13 6 14 5 15 4 16 3 17 2 18 1 19
REMARK H PARENT
REMARK Flexibility Score: inf
ROOT
ATOM      1  C   UNL     1       4.124 -37.619  19.132  1.00  0.00     0.000 C 
ENDROOT
BRANCH   1   2
ATOM      2  C   UNL     1       4.656 -36.351  19.827  1.00  0.00     0.000 C 
BRANCH   2   3
ATOM      3  C   UNL     1       5.859 -36.569  20.767  1.00  0.00     0.000 C 
BRANCH   3   4
ATOM      4  C   UNL     1       5.987 -35.553  21.914  1.00  0.00     0.000 C 
BRANCH   4   5
ATOM      5  C   UNL     1       5.188 -35.958  23.161  1.00  0.00     0.001 C 
BRANCH   5   6
ATOM      6  C   UNL     1       5.789 -37.212  23.816  1.00  0.00     0.009 C 
BRANCH   6   7
ATOM      7  C   UNL     1       4.704 -38.193  24.302  1.00  0.00     0.032 C 
ATOM      8  C   UNL     1       4.821 -38.424  25.811  1.00  0.00     0.014 C 
BRANCH   7   9
ATOM      9  C   UNL     1       4.793 -39.510  23.579  1.00  0.00     0.044 C 
ATOM     10  O   UNL     1       4.315 -39.630  22.421  1.00  0.00    -0.550 OA
ATOM     11  O   UNL     1       5.402 -40.603  24.185  1.00  0.00    -0.550 OA
ENDBRANCH   7   9
ENDBRANCH   6   7
ENDBRANCH   5   6
ENDBRANCH   4   5
ENDBRANCH   3   4
ENDBRANCH   2   3
ENDBRANCH   1   2
BRANCH   1  12
ATOM     12  C   UNL     1       2.824 -38.144  19.761  1.00  0.00     0.000 C 
BRANCH  12  13
ATOM     13  C   UNL     1       1.684 -38.296  18.738  1.00  0.00    -0.000 C 
BRANCH  13  14
ATOM     14  C   UNL     1       2.112 -38.225  17.258  1.00  0.00    -0.000 C 
BRANCH  14  15
ATOM     15  C   UNL     1       1.200 -37.374  16.355  1.00  0.00    -0.000 C 
BRANCH  15  16
ATOM     16  C   UNL     1       1.941 -36.777  15.151  1.00  0.00    -0.000 C 
BRANCH  16  17
ATOM     17  C   UNL     1       3.409 -37.229  15.131  1.00  0.00    -0.000 C 
BRANCH  17  18
ATOM     18  C   UNL     1       3.760 -38.045  13.877  1.00  0.00    -0.003 C 
ATOM     19  C   UNL     1       4.156 -39.485  14.200  1.00  0.00     0.004 C 
ENDBRANCH  17  18
ENDBRANCH  16  17
ENDBRANCH  15  16
ENDBRANCH  14  15
ENDBRANCH  13  14
ENDBRANCH  12  13
ENDBRANCH   1  12
TORSDOF 14
ENDMDL
MODEL 3
REMARK VINA RESULT:    -4.468      3.070      7.074
REMARK INTER + INTRA:          -9.375
REMARK INTER:                  -7.789
REMARK INTRA:                  -1.586
REMARK UNBOUND:                -1.251
REMARK SMILES CCCCCCCCCCCCCC[C@H](C)C(=O)[O-]
REMARK SMILES IDX 9 1 10 2 11 3 12 4 13 5 14 6 15 7 16 8 17 9 18 10 19 11 8 12
REMARK SMILES IDX 7 13 6 14 5 15 4 16 3 17 2 18 1 19
REMARK H PARENT
REMARK Flexibility Score: inf
ROOT
ATOM      1  C   UNL     1       5.273 -35.853  22.323  1.00  0.00     0.000 C 
ENDROOT
BRANCH   1   2
ATOM      2  C   UNL     1       6.085 -36.009  21.024  1.00  0.00     0.000 C 
BRANCH   2   3
ATOM      3  C   UNL     1       5.366 -36.757  19.882  1.00  0.00     0.000 C 
BRANCH   3   4
ATOM      4  C   UNL     1       3.918 -37.179  20.187  1.00  0.00     0.000 C 
BRANCH   4   5
ATOM      5  C   UNL     1       3.240 -37.880  19.000  1.00  0.00     0.001 C 
BRANCH   5   6
ATOM      6  C   UNL     1       3.546 -37.149  17.683  1.00  0.00     0.009 C 
BRANCH   6   7
ATOM      7  C   UNL     1       2.322 -37.100  16.746  1.00  0.00     0.032 C 
ATOM      8  C   UNL     1       1.144 -37.865  17.357  1.00  0.00     0.014 C 
BRANCH   7   9
ATOM      9  C   UNL     1       2.647 -37.667  15.390  1.00  0.00     0.044 C 
ATOM     10  O   UNL     1       3.467 -38.616  15.282  1.00  0.00    -0.550 OA
ATOM     11  O   UNL     1       2.047 -37.146  14.249  1.00  0.00    -0.550 OA
ENDBRANCH   7   9
ENDBRANCH   6   7
ENDBRANCH   5   6
ENDBRANCH   4   5
ENDBRANCH   3   4
ENDBRANCH   2   3
ENDBRANCH   1   2
BRANCH   1  12
ATOM     12  C   UNL     1       6.125 -35.357  23.503  1.00  0.00     0.000 C 
BRANCH  12  13
ATOM     13  C   UNL     1       5.967 -36.230  24.762  1.00  0.00    -0.000 C 
BRANCH  13  14
ATOM     14  C   UNL     1       4.677 -37.073  24.823  1.00  0.00    -0.000 C 
BRANCH  14  15
ATOM     15  C   UNL     1       4.849 -38.488  25.402  1.00  0.00    -0.000 C 
BRANCH  15  16
ATOM     16  C   UNL     1       5.396 -39.491  24.377  1.00  0.00    -0.000 C 
BRANCH  16  17
ATOM     17  C   UNL     1       4.635 -39.384  23.046  1.00  0.00    -0.000 C 
BRANCH  17  18
ATOM     18  C   UNL     1       5.306 -40.179  21.916  1.00  0.00    -0.003 C 
ATOM     19  C   UNL     1       5.778 -41.562  22.365  1.00  0.00     0.004 C 
ENDBRANCH  17  18
ENDBRANCH  16  17
ENDBRANCH  15  16
ENDBRANCH  14  15
ENDBRANCH  13  14
ENDBRANCH  12  13
ENDBRANCH   1  12
TORSDOF 14
ENDMDL
MODEL 4
REMARK VINA RESULT:    -4.220      2.986      6.900
REMARK INTER + INTRA:          -8.926
REMARK INTER:                  -7.672
REMARK INTRA:                  -1.254
REMARK UNBOUND:                -1.251
REMARK SMILES CCCCCCCCCCCCCC[C@H](C)C(=O)[O-]
REMARK SMILES IDX 9 1 10 2 11 3 12 4 13 5 14 6 15 7 16 8 17 9 18 10 19 11 8 12
REMARK SMILES IDX 7 13 6 14 5 15 4 16 3 17 2 18 1 19
REMARK H PARENT
REMARK Flexibility Score: inf
ROOT
ATOM      1  C   UNL     1       6.066 -36.397  23.715  1.00  0.00     0.000 C 
ENDROOT
BRANCH   1   2
ATOM      2  C   UNL     1       5.156 -36.048  22.522  1.00  0.00     0.000 C 
BRANCH   2   3
ATOM      3  C   UNL     1       5.239 -37.016  21.324  1.00  0.00     0.000 C 
BRANCH   3   4
ATOM      4  C   UNL     1       5.566 -36.358  19.972  1.00  0.00     0.000 C 
BRANCH   4   5
ATOM      5  C   UNL     1       4.354 -36.294  19.032  1.00  0.00     0.001 C 
BRANCH   5   6
ATOM      6  C   UNL     1       3.686 -37.672  18.902  1.00  0.00     0.009 C 
BRANCH   6   7
ATOM      7  C   UNL     1       2.252 -37.574  18.344  1.00  0.00     0.032 C 
ATOM      8  C   UNL     1       1.350 -38.634  18.983  1.00  0.00     0.014 C 
BRANCH   7   9
ATOM      9  C   UNL     1       2.235 -37.729  16.847  1.00  0.00     0.044 C 
ATOM     10  O   UNL     1       1.310 -37.213  16.168  1.00  0.00    -0.550 OA
ATOM     11  O   UNL     1       3.240 -38.444  16.204  1.00  0.00    -0.550 OA
ENDBRANCH   7   9
ENDBRANCH   6   7
ENDBRANCH   5   6
ENDBRANCH   4   5
ENDBRANCH   3   4
ENDBRANCH   2   3
ENDBRANCH   1   2
BRANCH   1  12
ATOM     12  C   UNL     1       5.291 -36.989  24.903  1.00  0.00     0.000 C 
BRANCH  12  13
ATOM     13  C   UNL     1       5.261 -38.528  24.891  1.00  0.00    -0.000 C 
BRANCH  13  14
ATOM     14  C   UNL     1       4.072 -39.159  24.138  1.00  0.00    -0.000 C 
BRANCH  14  15
ATOM     15  C   UNL     1       4.439 -39.892  22.835  1.00  0.00    -0.000 C 
BRANCH  15  16
ATOM     16  C   UNL     1       5.838 -40.523  22.879  1.00  0.00    -0.000 C 
BRANCH  16  17
ATOM     17  C   UNL     1       5.835 -41.911  22.222  1.00  0.00    -0.000 C 
BRANCH  17  18
ATOM     18  C   UNL     1       6.124 -43.040  23.224  1.00  0.00    -0.003 C 
ATOM     19  C   UNL     1       5.913 -42.610  24.675  1.00  0.00     0.004 C 
ENDBRANCH  17  18
ENDBRANCH  16  17
ENDBRANCH  15  16
ENDBRANCH  14  15
ENDBRANCH  13  14
ENDBRANCH  12  13
ENDBRANCH   1  12
TORSDOF 14
ENDMDL
MODEL 5
REMARK VINA RESULT:    -4.184      3.398      7.451
REMARK INTER + INTRA:          -8.860
REMARK INTER:                  -7.202
REMARK INTRA:                  -1.657
REMARK UNBOUND:                -1.251
REMARK SMILES CCCCCCCCCCCCCC[C@H](C)C(=O)[O-]
REMARK SMILES IDX 9 1 10 2 11 3 12 4 13 5 14 6 15 7 16 8 17 9 18 10 19 11 8 12
REMARK SMILES IDX 7 13 6 14 5 15 4 16 3 17 2 18 1 19
REMARK H PARENT
REMARK Flexibility Score: inf
ROOT
ATOM      1  C   UNL     1       4.011 -37.833  20.774  1.00  0.00     0.000 C 
ENDROOT
BRANCH   1   2
ATOM      2  C   UNL     1       4.326 -36.337  20.582  1.00  0.00     0.000 C 
BRANCH   2   3
ATOM      3  C   UNL     1       5.716 -36.027  19.990  1.00  0.00     0.000 C 
BRANCH   3   4
ATOM      4  C   UNL     1       5.704 -35.266  18.653  1.00  0.00     0.000 C 
BRANCH   4   5
ATOM      5  C   UNL     1       4.329 -35.286  17.969  1.00  0.00     0.001 C 
BRANCH   5   6
ATOM      6  C   UNL     1       4.154 -36.560  17.126  1.00  0.00     0.009 C 
BRANCH   6   7
ATOM      7  C   UNL     1       2.683 -36.800  16.733  1.00  0.00     0.032 C 
ATOM      8  C   UNL     1       2.054 -37.874  17.626  1.00  0.00     0.014 C 
BRANCH   7   9
ATOM      9  C   UNL     1       2.562 -37.207  15.288  1.00  0.00     0.044 C 
ATOM     10  O   UNL     1       1.543 -36.884  14.624  1.00  0.00    -0.550 OA
ATOM     11  O   UNL     1       3.572 -37.942  14.679  1.00  0.00    -0.550 OA
ENDBRANCH   7   9
ENDBRANCH   6   7
ENDBRANCH   5   6
ENDBRANCH   4   5
ENDBRANCH   3   4
ENDBRANCH   2   3
ENDBRANCH   1   2
BRANCH   1  12
ATOM     12  C   UNL     1       5.248 -38.730  20.605  1.00  0.00     0.000 C 
BRANCH  12  13
ATOM     13  C   UNL     1       5.363 -39.802  21.703  1.00  0.00    -0.000 C 
BRANCH  13  14
ATOM     14  C   UNL     1       4.378 -39.650  22.880  1.00  0.00    -0.000 C 
BRANCH  14  15
ATOM     15  C   UNL     1       5.018 -39.702  24.279  1.00  0.00    -0.000 C 
BRANCH  15  16
ATOM     16  C   UNL     1       5.024 -38.339  24.984  1.00  0.00    -0.000 C 
BRANCH  16  17
ATOM     17  C   UNL     1       5.415 -37.218  24.009  1.00  0.00    -0.000 C 
BRANCH  17  18
ATOM     18  C   UNL     1       5.944 -35.967  24.727  1.00  0.00    -0.003 C 
ATOM     19  C   UNL     1       6.017 -34.746  23.810  1.00  0.00     0.004 C 
ENDBRANCH  17  18
ENDBRANCH  16  17
ENDBRANCH  15  16
ENDBRANCH  14  15
ENDBRANCH  13  14
ENDBRANCH  12  13
ENDBRANCH   1  12
TORSDOF 14
ENDMDL
MODEL 6
REMARK VINA RESULT:    -3.583      2.515      7.093
REMARK INTER + INTRA:          -7.767
REMARK INTER:                  -6.424
REMARK INTRA:                  -1.343
REMARK UNBOUND:                -1.251
REMARK SMILES CCCCCCCCCCCCCC[C@H](C)C(=O)[O-]
REMARK SMILES IDX 9 1 10 2 11 3 12 4 13 5 14 6 15 7 16 8 17 9 18 10 19 11 8 12
REMARK SMILES IDX 7 13 6 14 5 15 4 16 3 17 2 18 1 19
REMARK H PARENT
REMARK Flexibility Score: inf
ROOT
ATOM      1  C   UNL     1       4.939 -38.736  20.626  1.00  0.00     0.000 C 
ENDROOT
BRANCH   1   2
ATOM      2  C   UNL     1       5.197 -37.229  20.819  1.00  0.00     0.000 C 
BRANCH   2   3
ATOM      3  C   UNL     1       4.229 -36.293  20.067  1.00  0.00     0.000 C 
BRANCH   3   4
ATOM      4  C   UNL     1       4.722 -35.807  18.693  1.00  0.00     0.000 C 
BRANCH   4   5
ATOM      5  C   UNL     1       3.738 -36.130  17.559  1.00  0.00     0.001 C 
BRANCH   5   6
ATOM      6  C   UNL     1       3.519 -37.646  17.436  1.00  0.00     0.009 C 
BRANCH   6   7
ATOM      7  C   UNL     1       2.045 -38.000  17.156  1.00  0.00     0.032 C 
ATOM      8  C   UNL     1       1.346 -36.858  16.412  1.00  0.00     0.014 C 
BRANCH   7   9
ATOM      9  C   UNL     1       1.304 -38.304  18.431  1.00  0.00     0.044 C 
ATOM     10  O   UNL     1       1.938 -38.617  19.472  1.00  0.00    -0.550 OA
ATOM     11  O   UNL     1      -0.085 -38.243  18.467  1.00  0.00    -0.550 OA
ENDBRANCH   7   9
ENDBRANCH   6   7
ENDBRANCH   5   6
ENDBRANCH   4   5
ENDBRANCH   3   4
ENDBRANCH   2   3
ENDBRANCH   1   2
BRANCH   1  12
ATOM     12  C   UNL     1       5.574 -39.596  21.731  1.00  0.00     0.000 C 
BRANCH  12  13
ATOM     13  C   UNL     1       4.541 -40.134  22.737  1.00  0.00    -0.000 C 
BRANCH  13  14
ATOM     14  C   UNL     1       4.969 -40.077  24.218  1.00  0.00    -0.000 C 
BRANCH  14  15
ATOM     15  C   UNL     1       4.635 -38.762  24.945  1.00  0.00    -0.000 C 
BRANCH  15  16
ATOM     16  C   UNL     1       5.860 -37.860  25.141  1.00  0.00    -0.000 C 
BRANCH  16  17
ATOM     17  C   UNL     1       5.493 -36.383  24.934  1.00  0.00    -0.000 C 
BRANCH  17  18
ATOM     18  C   UNL     1       6.119 -35.790  23.662  1.00  0.00    -0.003 C 
ATOM     19  C   UNL     1       5.547 -34.417  23.307  1.00  0.00     0.004 C 
ENDBRANCH  17  18
ENDBRANCH  16  17
ENDBRANCH  15  16
ENDBRANCH  14  15
ENDBRANCH  13  14
ENDBRANCH  12  13
ENDBRANCH   1  12
TORSDOF 14
ENDMDL
MODEL 7
REMARK VINA RESULT:    -3.524      2.458      3.553
REMARK INTER + INTRA:          -7.659
REMARK INTER:                  -7.233
REMARK INTRA:                  -0.426
REMARK UNBOUND:                -1.251
REMARK SMILES CCCCCCCCCCCCCC[C@H](C)C(=O)[O-]
REMARK SMILES IDX 9 1 10 2 11 3 12 4 13 5 14 6 15 7 16 8 17 9 18 10 19 11 8 12
REMARK SMILES IDX 7 13 6 14 5 15 4 16 3 17 2 18 1 19
REMARK H PARENT
REMARK Flexibility Score: inf
ROOT
ATOM      1  C   UNL     1       5.164 -38.254  19.832  1.00  0.00     0.000 C 
ENDROOT
BRANCH   1   2
ATOM      2  C   UNL     1       4.558 -38.806  21.137  1.00  0.00     0.000 C 
BRANCH   2   3
ATOM      3  C   UNL     1       5.410 -39.867  21.862  1.00  0.00     0.000 C 
BRANCH   3   4
ATOM      4  C   UNL     1       4.840 -40.359  23.204  1.00  0.00     0.000 C 
BRANCH   4   5
ATOM      5  C   UNL     1       5.261 -39.478  24.389  1.00  0.00     0.001 C 
BRANCH   5   6
ATOM      6  C   UNL     1       4.729 -38.045  24.225  1.00  0.00     0.009 C 
BRANCH   6   7
ATOM      7  C   UNL     1       5.843 -36.990  24.370  1.00  0.00     0.032 C 
ATOM      8  C   UNL     1       6.122 -36.699  25.848  1.00  0.00     0.014 C 
BRANCH   7   9
ATOM      9  C   UNL     1       5.483 -35.712  23.660  1.00  0.00     0.044 C 
ATOM     10  O   UNL     1       4.607 -35.716  22.757  1.00  0.00    -0.550 OA
ATOM     11  O   UNL     1       6.117 -34.521  23.996  1.00  0.00    -0.550 OA
ENDBRANCH   7   9
ENDBRANCH   6   7
ENDBRANCH   5   6
ENDBRANCH   4   5
ENDBRANCH   3   4
ENDBRANCH   2   3
ENDBRANCH   1   2
BRANCH   1  12
ATOM     12  C   UNL     1       5.468 -36.749  19.905  1.00  0.00     0.000 C 
BRANCH  12  13
ATOM     13  C   UNL     1       4.619 -35.920  18.926  1.00  0.00    -0.000 C 
BRANCH  13  14
ATOM     14  C   UNL     1       4.012 -36.708  17.747  1.00  0.00    -0.000 C 
BRANCH  14  15
ATOM     15  C   UNL     1       2.708 -37.461  18.069  1.00  0.00    -0.000 C 
BRANCH  15  16
ATOM     16  C   UNL     1       1.949 -37.904  16.810  1.00  0.00    -0.000 C 
BRANCH  16  17
ATOM     17  C   UNL     1       1.958 -36.796  15.746  1.00  0.00    -0.000 C 
BRANCH  17  18
ATOM     18  C   UNL     1       2.425 -37.300  14.371  1.00  0.00    -0.003 C 
ATOM     19  C   UNL     1       3.626 -38.241  14.463  1.00  0.00     0.004 C 
ENDBRANCH  17  18
ENDBRANCH  16  17
ENDBRANCH  15  16
ENDBRANCH  14  15
ENDBRANCH  13  14
ENDBRANCH  12  13
ENDBRANCH   1  12
TORSDOF 14
ENDMDL
MODEL 8
REMARK VINA RESULT:    -3.350      1.251      1.932
REMARK INTER + INTRA:          -7.342
REMARK INTER:                  -5.402
REMARK INTRA:                  -1.940
REMARK UNBOUND:                -1.251
REMARK SMILES CCCCCCCCCCCCCC[C@H](C)C(=O)[O-]
REMARK SMILES IDX 9 1 10 2 11 3 12 4 13 5 14 6 15 7 16 8 17 9 18 10 19 11 8 12
REMARK SMILES IDX 7 13 6 14 5 15 4 16 3 17 2 18 1 19
REMARK H PARENT
REMARK Flexibility Score: inf
ROOT
ATOM      1  C   UNL     1       4.326 -35.962  22.590  1.00  0.00     0.000 C 
ENDROOT
BRANCH   1   2
ATOM      2  C   UNL     1       5.821 -36.013  22.958  1.00  0.00     0.000 C 
BRANCH   2   3
ATOM      3  C   UNL     1       6.125 -36.296  24.443  1.00  0.00     0.000 C 
BRANCH   3   4
ATOM      4  C   UNL     1       5.046 -37.098  25.191  1.00  0.00     0.000 C 
BRANCH   4   5
ATOM      5  C   UNL     1       5.382 -38.592  25.301  1.00  0.00     0.001 C 
BRANCH   5   6
ATOM      6  C   UNL     1       4.557 -39.417  24.300  1.00  0.00     0.009 C 
BRANCH   6   7
ATOM      7  C   UNL     1       5.394 -39.866  23.086  1.00  0.00     0.032 C 
ATOM      8  C   UNL     1       4.668 -39.535  21.778  1.00  0.00     0.014 C 
BRANCH   7   9
ATOM      9  C   UNL     1       5.691 -41.341  23.142  1.00  0.00     0.044 C 
ATOM     10  O   UNL     1       5.863 -41.992  22.079  1.00  0.00    -0.550 OA
ATOM     11  O   UNL     1       5.776 -41.994  24.366  1.00  0.00    -0.550 OA
ENDBRANCH   7   9
ENDBRANCH   6   7
ENDBRANCH   5   6
ENDBRANCH   4   5
ENDBRANCH   3   4
ENDBRANCH   2   3
ENDBRANCH   1   2
BRANCH   1  12
ATOM     12  C   UNL     1       4.089 -35.784  21.081  1.00  0.00     0.000 C 
BRANCH  12  13
ATOM     13  C   UNL     1       5.226 -36.370  20.225  1.00  0.00    -0.000 C 
BRANCH  13  14
ATOM     14  C   UNL     1       5.386 -35.745  18.824  1.00  0.00    -0.000 C 
BRANCH  14  15
ATOM     15  C   UNL     1       4.068 -35.463  18.080  1.00  0.00    -0.000 C 
BRANCH  15  16
ATOM     16  C   UNL     1       3.875 -36.357  16.848  1.00  0.00    -0.000 C 
BRANCH  16  17
ATOM     17  C   UNL     1       2.513 -37.066  16.893  1.00  0.00    -0.000 C 
BRANCH  17  18
ATOM     18  C   UNL     1       2.550 -38.366  17.712  1.00  0.00    -0.003 C 
ATOM     19  C   UNL     1       1.974 -38.195  19.118  1.00  0.00     0.004 C 
ENDBRANCH  17  18
ENDBRANCH  16  17
ENDBRANCH  15  16
ENDBRANCH  14  15
ENDBRANCH  13  14
ENDBRANCH  12  13
ENDBRANCH   1  12
TORSDOF 14
ENDMDL
MODEL 9
REMARK VINA RESULT:    -2.889      1.528      2.954
REMARK INTER + INTRA:          -6.505
REMARK INTER:                  -5.402
REMARK INTRA:                  -1.103
REMARK UNBOUND:                -1.251
REMARK SMILES CCCCCCCCCCCCCC[C@H](C)C(=O)[O-]
REMARK SMILES IDX 9 1 10 2 11 3 12 4 13 5 14 6 15 7 16 8 17 9 18 10 19 11 8 12
REMARK SMILES IDX 7 13 6 14 5 15 4 16 3 17 2 18 1 19
REMARK H PARENT
REMARK Flexibility Score: inf
ROOT
ATOM      1  C   UNL     1       4.328 -36.763  19.796  1.00  0.00     0.000 C 
ENDROOT
BRANCH   1   2
ATOM      2  C   UNL     1       5.269 -37.322  20.880  1.00  0.00     0.000 C 
BRANCH   2   3
ATOM      3  C   UNL     1       6.114 -36.270  21.627  1.00  0.00     0.000 C 
BRANCH   3   4
ATOM      4  C   UNL     1       5.430 -35.625  22.844  1.00  0.00     0.000 C 
BRANCH   4   5
ATOM      5  C   UNL     1       6.079 -36.029  24.176  1.00  0.00     0.001 C 
BRANCH   5   6
ATOM      6  C   UNL     1       6.125 -37.558  24.325  1.00  0.00     0.009 C 
BRANCH   6   7
ATOM      7  C   UNL     1       4.716 -38.177  24.413  1.00  0.00     0.032 C 
ATOM      8  C   UNL     1       4.268 -38.294  25.873  1.00  0.00     0.014 C 
BRANCH   7   9
ATOM      9  C   UNL     1       4.672 -39.532  23.759  1.00  0.00     0.044 C 
ATOM     10  O   UNL     1       3.894 -39.742  22.792  1.00  0.00    -0.550 OA
ATOM     11  O   UNL     1       5.487 -40.560  24.219  1.00  0.00    -0.550 OA
ENDBRANCH   7   9
ENDBRANCH   6   7
ENDBRANCH   5   6
ENDBRANCH   4   5
ENDBRANCH   3   4
ENDBRANCH   2   3
ENDBRANCH   1   2
BRANCH   1  12
ATOM     12  C   UNL     1       4.806 -35.416  19.229  1.00  0.00     0.000 C 
BRANCH  12  13
ATOM     13  C   UNL     1       4.309 -35.162  17.795  1.00  0.00    -0.000 C 
BRANCH  13  14
ATOM     14  C   UNL     1       3.886 -36.421  17.010  1.00  0.00    -0.000 C 
BRANCH  14  15
ATOM     15  C   UNL     1       2.415 -36.446  16.560  1.00  0.00    -0.000 C 
BRANCH  15  16
ATOM     16  C   UNL     1       1.741 -37.805  16.800  1.00  0.00    -0.000 C 
BRANCH  16  17
ATOM     17  C   UNL     1       2.257 -38.452  18.094  1.00  0.00    -0.000 C 
BRANCH  17  18
ATOM     18  C   UNL     1       1.152 -38.631  19.147  1.00  0.00    -0.003 C 
ATOM     19  C   UNL     1      -0.231 -38.245  18.624  1.00  0.00     0.004 C 
ENDBRANCH  17  18
ENDBRANCH  16  17
ENDBRANCH  15  16
ENDBRANCH  14  15
ENDBRANCH  13  14
ENDBRANCH  12  13
ENDBRANCH   1  12
TORSDOF 14
ENDMDL
