MODEL 1
REMARK VINA RESULT:    -5.951      0.000      0.000
REMARK INTER + INTRA:          -6.125
REMARK INTER:                  -6.125
REMARK INTRA:                   0.000
REMARK UNBOUND:                 0.000
REMARK SMILES O=c1ccc2ccc(O)cc2o1
REMARK SMILES IDX 6 1 7 2 8 3 10 4 11 5 5 6 4 7 3 8 2 9 1 10 12 11 9 12
REMARK H PARENT 9 13
REMARK Flexibility Score: inf
ROOT
ATOM      1  C   UNL     1      50.380  76.702  24.837  1.00  0.00     0.016 A 
ATOM      2  C   UNL     1      51.677  76.209  25.004  1.00  0.00     0.047 A 
ATOM      3  C   UNL     1      52.495  75.978  23.891  1.00  0.00     0.119 A 
ATOM      4  C   UNL     1      52.012  76.242  22.601  1.00  0.00     0.094 A 
ATOM      5  C   UNL     1      50.715  76.736  22.424  1.00  0.00     0.142 A 
ATOM      6  C   UNL     1      49.893  76.967  23.550  1.00  0.00     0.018 A 
ATOM      7  C   UNL     1      48.602  77.461  23.342  1.00  0.00     0.019 A 
ATOM      8  C   UNL     1      48.165  77.709  22.041  1.00  0.00     0.094 A 
ATOM      9  C   UNL     1      49.034  77.456  20.973  1.00  0.00     0.336 A 
ATOM     10  O   UNL     1      48.658  77.673  19.792  1.00  0.00    -0.246 OA
ATOM     11  O   UNL     1      50.259  76.986  21.199  1.00  0.00    -0.423 OA
ENDROOT
BRANCH   3  12
ATOM     12  O   UNL     1      53.785  75.486  24.077  1.00  0.00    -0.508 OA
ATOM     13  H   UNL     1      54.602  76.056  23.888  1.00  0.00     0.293 HD
ENDBRANCH   3  12
TORSDOF 1
ENDMDL
MODEL 2
REMARK VINA RESULT:    -5.689      0.838      4.228
REMARK INTER + INTRA:          -5.856
REMARK INTER:                  -5.856
REMARK INTRA:                   0.000
REMARK UNBOUND:                 0.000
REMARK SMILES O=c1ccc2ccc(O)cc2o1
REMARK SMILES IDX 6 1 7 2 8 3 10 4 11 5 5 6 4 7 3 8 2 9 1 10 12 11 9 12
REMARK H PARENT 9 13
REMARK Flexibility Score: inf
ROOT
ATOM      1  C   UNL     1      48.484  77.428  23.540  1.00  0.00     0.016 A 
ATOM      2  C   UNL     1      48.005  77.639  22.244  1.00  0.00     0.047 A 
ATOM      3  C   UNL     1      48.835  77.415  21.138  1.00  0.00     0.119 A 
ATOM      4  C   UNL     1      50.154  76.977  21.330  1.00  0.00     0.094 A 
ATOM      5  C   UNL     1      50.641  76.763  22.624  1.00  0.00     0.142 A 
ATOM      6  C   UNL     1      49.801  76.991  23.737  1.00  0.00     0.018 A 
ATOM      7  C   UNL     1      50.315  76.769  25.018  1.00  0.00     0.019 A 
ATOM      8  C   UNL     1      51.633  76.333  25.160  1.00  0.00     0.094 A 
ATOM      9  C   UNL     1      52.407  76.129  24.012  1.00  0.00     0.336 A 
ATOM     10  O   UNL     1      53.598  75.737  24.119  1.00  0.00    -0.246 OA
ATOM     11  O   UNL     1      51.893  76.348  22.804  1.00  0.00    -0.423 OA
ENDROOT
BRANCH   3  12
ATOM     12  O   UNL     1      48.340  77.631  19.854  1.00  0.00    -0.508 OA
ATOM     13  H   UNL     1      48.811  77.261  19.035  1.00  0.00     0.293 HD
ENDBRANCH   3  12
TORSDOF 1
ENDMDL
MODEL 3
REMARK VINA RESULT:    -5.551      2.446      3.618
REMARK INTER + INTRA:          -5.714
REMARK INTER:                  -5.714
REMARK INTRA:                   0.000
REMARK UNBOUND:                 0.000
REMARK SMILES O=c1ccc2ccc(O)cc2o1
REMARK SMILES IDX 6 1 7 2 8 3 10 4 11 5 5 6 4 7 3 8 2 9 1 10 12 11 9 12
REMARK H PARENT 9 13
REMARK Flexibility Score: inf
ROOT
ATOM      1  C   UNL     1      52.085  76.438  24.764  1.00  0.00     0.016 A 
ATOM      2  C   UNL     1      52.313  76.124  23.421  1.00  0.00     0.047 A 
ATOM      3  C   UNL     1      51.274  76.220  22.487  1.00  0.00     0.119 A 
ATOM      4  C   UNL     1      49.998  76.633  22.898  1.00  0.00     0.094 A 
ATOM      5  C   UNL     1      49.762  76.950  24.241  1.00  0.00     0.142 A 
ATOM      6  C   UNL     1      50.812  76.851  25.180  1.00  0.00     0.018 A 
ATOM      7  C   UNL     1      50.546  77.173  26.514  1.00  0.00     0.019 A 
ATOM      8  C   UNL     1      49.261  77.580  26.877  1.00  0.00     0.094 A 
ATOM      9  C   UNL     1      48.270  77.654  25.892  1.00  0.00     0.336 A 
ATOM     10  O   UNL     1      47.105  78.017  26.199  1.00  0.00    -0.246 OA
ATOM     11  O   UNL     1      48.550  77.341  24.628  1.00  0.00    -0.423 OA
ENDROOT
BRANCH   3  12
ATOM     12  O   UNL     1      51.520  75.903  21.153  1.00  0.00    -0.508 OA
ATOM     13  H   UNL     1      50.951  76.283  20.404  1.00  0.00     0.293 HD
ENDBRANCH   3  12
TORSDOF 1
ENDMDL
MODEL 4
REMARK VINA RESULT:    -5.431      2.279      3.077
REMARK INTER + INTRA:          -5.590
REMARK INTER:                  -5.590
REMARK INTRA:                   0.000
REMARK UNBOUND:                 0.000
REMARK SMILES O=c1ccc2ccc(O)cc2o1
REMARK SMILES IDX 6 1 7 2 8 3 10 4 11 5 5 6 4 7 3 8 2 9 1 10 12 11 9 12
REMARK H PARENT 9 13
REMARK Flexibility Score: inf
ROOT
ATOM      1  C   UNL     1      50.867  76.399  22.250  1.00  0.00     0.016 A 
ATOM      2  C   UNL     1      52.183  76.020  22.529  1.00  0.00     0.047 A 
ATOM      3  C   UNL     1      52.649  75.999  23.849  1.00  0.00     0.119 A 
ATOM      4  C   UNL     1      51.792  76.361  24.900  1.00  0.00     0.094 A 
ATOM      5  C   UNL     1      50.473  76.741  24.630  1.00  0.00     0.142 A 
ATOM      6  C   UNL     1      50.007  76.762  23.296  1.00  0.00     0.018 A 
ATOM      7  C   UNL     1      48.684  77.146  23.058  1.00  0.00     0.019 A 
ATOM      8  C   UNL     1      47.869  77.497  24.134  1.00  0.00     0.094 A 
ATOM      9  C   UNL     1      48.398  77.454  25.429  1.00  0.00     0.336 A 
ATOM     10  O   UNL     1      47.679  77.767  26.412  1.00  0.00    -0.246 OA
ATOM     11  O   UNL     1      49.661  77.083  25.628  1.00  0.00    -0.423 OA
ENDROOT
BRANCH   3  12
ATOM     12  O   UNL     1      53.964  75.619  24.107  1.00  0.00    -0.508 OA
ATOM     13  H   UNL     1      54.432  75.879  24.968  1.00  0.00     0.293 HD
ENDBRANCH   3  12
TORSDOF 1
ENDMDL
MODEL 5
REMARK VINA RESULT:    -5.407      2.443      4.063
REMARK INTER + INTRA:          -5.565
REMARK INTER:                  -5.565
REMARK INTRA:                   0.000
REMARK UNBOUND:                 0.000
REMARK SMILES O=c1ccc2ccc(O)cc2o1
REMARK SMILES IDX 6 1 7 2 8 3 10 4 11 5 5 6 4 7 3 8 2 9 1 10 12 11 9 12
REMARK H PARENT 9 13
REMARK Flexibility Score: inf
ROOT
ATOM      1  C   UNL     1      49.112  77.009  22.970  1.00  0.00     0.016 A 
ATOM      2  C   UNL     1      50.126  76.634  22.084  1.00  0.00     0.047 A 
ATOM      3  C   UNL     1      51.404  76.322  22.564  1.00  0.00     0.119 A 
ATOM      4  C   UNL     1      51.670  76.385  23.939  1.00  0.00     0.094 A 
ATOM      5  C   UNL     1      50.661  76.759  24.833  1.00  0.00     0.142 A 
ATOM      6  C   UNL     1      49.372  77.074  24.345  1.00  0.00     0.018 A 
ATOM      7  C   UNL     1      48.385  77.444  25.262  1.00  0.00     0.019 A 
ATOM      8  C   UNL     1      48.695  77.493  26.621  1.00  0.00     0.094 A 
ATOM      9  C   UNL     1      49.993  77.168  27.032  1.00  0.00     0.336 A 
ATOM     10  O   UNL     1      50.293  77.207  28.253  1.00  0.00    -0.246 OA
ATOM     11  O   UNL     1      50.915  76.818  26.138  1.00  0.00    -0.423 OA
ENDROOT
BRANCH   3  12
ATOM     12  O   UNL     1      52.402  75.950  21.665  1.00  0.00    -0.508 OA
ATOM     13  H   UNL     1      53.363  75.823  21.963  1.00  0.00     0.293 HD
ENDBRANCH   3  12
TORSDOF 1
ENDMDL
MODEL 6
REMARK VINA RESULT:    -4.927      2.461      4.364
REMARK INTER + INTRA:          -5.071
REMARK INTER:                  -5.071
REMARK INTRA:                   0.000
REMARK UNBOUND:                 0.000
REMARK SMILES O=c1ccc2ccc(O)cc2o1
REMARK SMILES IDX 6 1 7 2 8 3 10 4 11 5 5 6 4 7 3 8 2 9 1 10 12 11 9 12
REMARK H PARENT 9 13
REMARK Flexibility Score: inf
ROOT
ATOM      1  C   UNL     1      51.411  76.475  23.075  1.00  0.00     0.016 A 
ATOM      2  C   UNL     1      50.881  76.626  21.790  1.00  0.00     0.047 A 
ATOM      3  C   UNL     1      49.552  77.033  21.617  1.00  0.00     0.119 A 
ATOM      4  C   UNL     1      48.747  77.290  22.737  1.00  0.00     0.094 A 
ATOM      5  C   UNL     1      49.270  77.141  24.027  1.00  0.00     0.142 A 
ATOM      6  C   UNL     1      50.611  76.730  24.197  1.00  0.00     0.018 A 
ATOM      7  C   UNL     1      51.105  76.589  25.497  1.00  0.00     0.019 A 
ATOM      8  C   UNL     1      50.268  76.856  26.580  1.00  0.00     0.094 A 
ATOM      9  C   UNL     1      48.950  77.259  26.336  1.00  0.00     0.336 A 
ATOM     10  O   UNL     1      48.179  77.503  27.299  1.00  0.00    -0.246 OA
ATOM     11  O   UNL     1      48.505  77.385  25.087  1.00  0.00    -0.423 OA
ENDROOT
BRANCH   3  12
ATOM     12  O   UNL     1      49.041  77.179  20.330  1.00  0.00    -0.508 OA
ATOM     13  H   UNL     1      48.675  76.388  19.812  1.00  0.00     0.293 HD
ENDBRANCH   3  12
TORSDOF 1
ENDMDL
MODEL 7
REMARK VINA RESULT:    -4.879      2.188      4.356
REMARK INTER + INTRA:          -5.022
REMARK INTER:                  -5.022
REMARK INTRA:                   0.000
REMARK UNBOUND:                 0.000
REMARK SMILES O=c1ccc2ccc(O)cc2o1
REMARK SMILES IDX 6 1 7 2 8 3 10 4 11 5 5 6 4 7 3 8 2 9 1 10 12 11 9 12
REMARK H PARENT 9 13
REMARK Flexibility Score: inf
ROOT
ATOM      1  C   UNL     1      48.267  77.355  23.180  1.00  0.00     0.016 A 
ATOM      2  C   UNL     1      47.518  77.716  24.304  1.00  0.00     0.047 A 
ATOM      3  C   UNL     1      48.091  77.669  25.580  1.00  0.00     0.119 A 
ATOM      4  C   UNL     1      49.424  77.259  25.734  1.00  0.00     0.094 A 
ATOM      5  C   UNL     1      50.181  76.896  24.615  1.00  0.00     0.142 A 
ATOM      6  C   UNL     1      49.598  76.944  23.329  1.00  0.00     0.018 A 
ATOM      7  C   UNL     1      50.379  76.576  22.229  1.00  0.00     0.019 A 
ATOM      8  C   UNL     1      51.699  76.174  22.432  1.00  0.00     0.094 A 
ATOM      9  C   UNL     1      52.210  76.151  23.734  1.00  0.00     0.336 A 
ATOM     10  O   UNL     1      53.398  75.791  23.938  1.00  0.00    -0.246 OA
ATOM     11  O   UNL     1      51.444  76.507  24.764  1.00  0.00    -0.423 OA
ENDROOT
BRANCH   3  12
ATOM     12  O   UNL     1      47.329  78.033  26.688  1.00  0.00    -0.508 OA
ATOM     13  H   UNL     1      46.654  77.397  27.099  1.00  0.00     0.293 HD
ENDBRANCH   3  12
TORSDOF 1
ENDMDL
MODEL 8
REMARK VINA RESULT:    -4.748      2.170      3.034
REMARK INTER + INTRA:          -4.887
REMARK INTER:                  -4.887
REMARK INTRA:                   0.000
REMARK UNBOUND:                 0.000
REMARK SMILES O=c1ccc2ccc(O)cc2o1
REMARK SMILES IDX 6 1 7 2 8 3 10 4 11 5 5 6 4 7 3 8 2 9 1 10 12 11 9 12
REMARK H PARENT 9 13
REMARK Flexibility Score: inf
ROOT
ATOM      1  C   UNL     1      48.459  77.428  25.226  1.00  0.00     0.016 A 
ATOM      2  C   UNL     1      48.912  77.414  26.549  1.00  0.00     0.047 A 
ATOM      3  C   UNL     1      50.230  77.044  26.842  1.00  0.00     0.119 A 
ATOM      4  C   UNL     1      51.103  76.684  25.804  1.00  0.00     0.094 A 
ATOM      5  C   UNL     1      50.658  76.694  24.478  1.00  0.00     0.142 A 
ATOM      6  C   UNL     1      49.327  77.068  24.186  1.00  0.00     0.018 A 
ATOM      7  C   UNL     1      48.911  77.068  22.852  1.00  0.00     0.019 A 
ATOM      8  C   UNL     1      49.815  76.702  21.854  1.00  0.00     0.094 A 
ATOM      9  C   UNL     1      51.118  76.343  22.216  1.00  0.00     0.336 A 
ATOM     10  O   UNL     1      51.947  76.009  21.331  1.00  0.00    -0.246 OA
ATOM     11  O   UNL     1      51.488  76.351  23.495  1.00  0.00    -0.423 OA
ENDROOT
BRANCH   3  12
ATOM     12  O   UNL     1      50.663  77.038  28.166  1.00  0.00    -0.508 OA
ATOM     13  H   UNL     1      50.295  77.693  28.847  1.00  0.00     0.293 HD
ENDBRANCH   3  12
TORSDOF 1
ENDMDL
MODEL 9
REMARK VINA RESULT:    -4.608      6.552      8.215
REMARK INTER + INTRA:          -4.743
REMARK INTER:                  -4.743
REMARK INTRA:                   0.000
REMARK UNBOUND:                 0.000
REMARK SMILES O=c1ccc2ccc(O)cc2o1
REMARK SMILES IDX 6 1 7 2 8 3 10 4 11 5 5 6 4 7 3 8 2 9 1 10 12 11 9 12
REMARK H PARENT 9 13
REMARK Flexibility Score: inf
ROOT
ATOM      1  C   UNL     1      53.050  69.429  18.576  1.00  0.00     0.016 A 
ATOM      2  C   UNL     1      53.329  69.852  17.273  1.00  0.00     0.047 A 
ATOM      3  C   UNL     1      53.790  71.153  17.035  1.00  0.00     0.119 A 
ATOM      4  C   UNL     1      53.971  72.038  18.108  1.00  0.00     0.094 A 
ATOM      5  C   UNL     1      53.694  71.624  19.415  1.00  0.00     0.142 A 
ATOM      6  C   UNL     1      53.229  70.311  19.651  1.00  0.00     0.018 A 
ATOM      7  C   UNL     1      52.960  69.925  20.967  1.00  0.00     0.019 A 
ATOM      8  C   UNL     1      53.156  70.840  22.002  1.00  0.00     0.094 A 
ATOM      9  C   UNL     1      53.618  72.125  21.694  1.00  0.00     0.336 A 
ATOM     10  O   UNL     1      53.799  72.965  22.613  1.00  0.00    -0.246 OA
ATOM     11  O   UNL     1      53.867  72.466  20.431  1.00  0.00    -0.423 OA
ENDROOT
BRANCH   3  12
ATOM     12  O   UNL     1      54.063  71.555  15.730  1.00  0.00    -0.508 OA
ATOM     13  H   UNL     1      54.596  72.396  15.535  1.00  0.00     0.293 HD
ENDBRANCH   3  12
TORSDOF 1
ENDMDL
