MODEL 1
REMARK VINA RESULT:    -3.710      0.000      0.000
REMARK INTER + INTRA:          -4.744
REMARK INTER:                  -4.578
REMARK INTRA:                  -0.167
REMARK UNBOUND:                -0.167
REMARK SMILES CCCCCC(=O)[O-]
REMARK SMILES IDX 4 1 5 2 6 3 7 4 8 5 3 6 2 7 1 8
REMARK H PARENT
REMARK Flexibility Score: inf
ROOT
ATOM      1  C   UNL     1     -37.650  19.125 -29.490  1.00  0.00     0.006 C 
ENDROOT
BRANCH   1   2
ATOM      2  C   UNL     1     -38.413  18.610 -30.717  1.00  0.00     0.053 C 
BRANCH   2   3
ATOM      3  C   UNL     1     -38.569  17.121 -30.688  1.00  0.00     0.041 C 
ATOM      4  O   UNL     1     -39.549  16.575 -31.259  1.00  0.00    -0.550 OA
ATOM      5  O   UNL     1     -37.649  16.338 -30.003  1.00  0.00    -0.550 OA
ENDBRANCH   2   3
ENDBRANCH   1   2
BRANCH   1   6
ATOM      6  C   UNL     1     -38.562  19.285 -28.264  1.00  0.00     0.000 C 
BRANCH   6   7
ATOM      7  C   UNL     1     -39.938  19.825 -28.671  1.00  0.00    -0.003 C 
ATOM      8  C   UNL     1     -41.057  19.103 -27.924  1.00  0.00     0.004 C 
ENDBRANCH   6   7
ENDBRANCH   1   6
TORSDOF 4
ENDMDL
MODEL 2
REMARK VINA RESULT:    -3.615      2.406      3.652
REMARK INTER + INTRA:          -4.626
REMARK INTER:                  -4.456
REMARK INTRA:                  -0.170
REMARK UNBOUND:                -0.167
REMARK SMILES CCCCCC(=O)[O-]
REMARK SMILES IDX 4 1 5 2 6 3 7 4 8 5 3 6 2 7 1 8
REMARK H PARENT
REMARK Flexibility Score: inf
ROOT
ATOM      1  C   UNL     1     -37.900  19.576 -29.449  1.00  0.00     0.006 C 
ENDROOT
BRANCH   1   2
ATOM      2  C   UNL     1     -38.832  19.051 -28.349  1.00  0.00     0.053 C 
BRANCH   2   3
ATOM      3  C   UNL     1     -40.201  19.651 -28.448  1.00  0.00     0.041 C 
ATOM      4  O   UNL     1     -40.357  20.796 -28.949  1.00  0.00    -0.550 OA
ATOM      5  O   UNL     1     -41.301  18.959 -27.960  1.00  0.00    -0.550 OA
ENDBRANCH   2   3
ENDBRANCH   1   2
BRANCH   1   6
ATOM      6  C   UNL     1     -37.982  18.732 -30.730  1.00  0.00     0.000 C 
BRANCH   6   7
ATOM      7  C   UNL     1     -38.209  17.253 -30.399  1.00  0.00    -0.003 C 
ATOM      8  C   UNL     1     -39.419  16.700 -31.148  1.00  0.00     0.004 C 
ENDBRANCH   6   7
ENDBRANCH   1   6
TORSDOF 4
ENDMDL
MODEL 3
REMARK VINA RESULT:    -3.585     16.167     17.174
REMARK INTER + INTRA:          -4.590
REMARK INTER:                  -4.399
REMARK INTRA:                  -0.190
REMARK UNBOUND:                -0.167
REMARK SMILES CCCCCC(=O)[O-]
REMARK SMILES IDX 4 1 5 2 6 3 7 4 8 5 3 6 2 7 1 8
REMARK H PARENT
REMARK Flexibility Score: inf
ROOT
ATOM      1  C   UNL     1     -52.886  23.031 -37.150  1.00  0.00     0.006 C 
ENDROOT
BRANCH   1   2
ATOM      2  C   UNL     1     -54.101  22.238 -37.648  1.00  0.00     0.053 C 
BRANCH   2   3
ATOM      3  C   UNL     1     -53.748  21.349 -38.801  1.00  0.00     0.041 C 
ATOM      4  O   UNL     1     -53.987  20.115 -38.747  1.00  0.00    -0.550 OA
ATOM      5  O   UNL     1     -53.125  21.881 -39.924  1.00  0.00    -0.550 OA
ENDBRANCH   2   3
ENDBRANCH   1   2
BRANCH   1   6
ATOM      6  C   UNL     1     -52.929  24.500 -37.597  1.00  0.00     0.000 C 
BRANCH   6   7
ATOM      7  C   UNL     1     -51.518  25.030 -37.874  1.00  0.00    -0.003 C 
ATOM      8  C   UNL     1     -50.564  23.896 -38.239  1.00  0.00     0.004 C 
ENDBRANCH   6   7
ENDBRANCH   1   6
TORSDOF 4
ENDMDL
MODEL 4
REMARK VINA RESULT:    -3.562      1.011      1.541
REMARK INTER + INTRA:          -4.561
REMARK INTER:                  -4.432
REMARK INTRA:                  -0.129
REMARK UNBOUND:                -0.167
REMARK SMILES CCCCCC(=O)[O-]
REMARK SMILES IDX 4 1 5 2 6 3 7 4 8 5 3 6 2 7 1 8
REMARK H PARENT
REMARK Flexibility Score: inf
ROOT
ATOM      1  C   UNL     1     -38.617  18.948 -28.765  1.00  0.00     0.006 C 
ENDROOT
BRANCH   1   2
ATOM      2  C   UNL     1     -38.340  18.607 -30.235  1.00  0.00     0.053 C 
BRANCH   2   3
ATOM      3  C   UNL     1     -38.491  17.141 -30.502  1.00  0.00     0.041 C 
ATOM      4  O   UNL     1     -39.477  16.714 -31.158  1.00  0.00    -0.550 OA
ATOM      5  O   UNL     1     -37.558  16.243 -30.000  1.00  0.00    -0.550 OA
ENDBRANCH   2   3
ENDBRANCH   1   2
BRANCH   1   6
ATOM      6  C   UNL     1     -39.960  19.669 -28.579  1.00  0.00     0.000 C 
BRANCH   6   7
ATOM      7  C   UNL     1     -39.965  21.017 -29.310  1.00  0.00    -0.003 C 
ATOM      8  C   UNL     1     -39.011  22.007 -28.647  1.00  0.00     0.004 C 
ENDBRANCH   6   7
ENDBRANCH   1   6
TORSDOF 4
ENDMDL
MODEL 5
REMARK VINA RESULT:    -3.549      1.565      1.970
REMARK INTER + INTRA:          -4.545
REMARK INTER:                  -4.394
REMARK INTRA:                  -0.151
REMARK UNBOUND:                -0.167
REMARK SMILES CCCCCC(=O)[O-]
REMARK SMILES IDX 4 1 5 2 6 3 7 4 8 5 3 6 2 7 1 8
REMARK H PARENT
REMARK Flexibility Score: inf
ROOT
ATOM      1  C   UNL     1     -38.311  19.188 -30.729  1.00  0.00     0.006 C 
ENDROOT
BRANCH   1   2
ATOM      2  C   UNL     1     -38.111  17.743 -30.254  1.00  0.00     0.053 C 
BRANCH   2   3
ATOM      3  C   UNL     1     -36.672  17.452 -29.955  1.00  0.00     0.041 C 
ATOM      4  O   UNL     1     -36.129  16.411 -30.408  1.00  0.00    -0.550 OA
ATOM      5  O   UNL     1     -35.940  18.316 -29.152  1.00  0.00    -0.550 OA
ENDBRANCH   2   3
ENDBRANCH   1   2
BRANCH   1   6
ATOM      6  C   UNL     1     -39.117  20.023 -29.723  1.00  0.00     0.000 C 
BRANCH   6   7
ATOM      7  C   UNL     1     -39.419  19.214 -28.456  1.00  0.00    -0.003 C 
ATOM      8  C   UNL     1     -40.912  19.228 -28.135  1.00  0.00     0.004 C 
ENDBRANCH   6   7
ENDBRANCH   1   6
TORSDOF 4
ENDMDL
MODEL 6
REMARK VINA RESULT:    -3.548      2.864      4.139
REMARK INTER + INTRA:          -4.544
REMARK INTER:                  -4.408
REMARK INTRA:                  -0.136
REMARK UNBOUND:                -0.167
REMARK SMILES CCCCCC(=O)[O-]
REMARK SMILES IDX 4 1 5 2 6 3 7 4 8 5 3 6 2 7 1 8
REMARK H PARENT
REMARK Flexibility Score: inf
ROOT
ATOM      1  C   UNL     1     -38.508  18.863 -28.665  1.00  0.00     0.006 C 
ENDROOT
BRANCH   1   2
ATOM      2  C   UNL     1     -39.874  19.562 -28.624  1.00  0.00     0.053 C 
BRANCH   2   3
ATOM      3  C   UNL     1     -39.764  21.014 -28.973  1.00  0.00     0.041 C 
ATOM      4  O   UNL     1     -38.744  21.672 -28.639  1.00  0.00    -0.550 OA
ATOM      5  O   UNL     1     -40.803  21.650 -29.642  1.00  0.00    -0.550 OA
ENDBRANCH   2   3
ENDBRANCH   1   2
BRANCH   1   6
ATOM      6  C   UNL     1     -38.075  18.520 -30.098  1.00  0.00     0.000 C 
BRANCH   6   7
ATOM      7  C   UNL     1     -38.222  17.019 -30.371  1.00  0.00    -0.003 C 
ATOM      8  C   UNL     1     -39.466  16.729 -31.206  1.00  0.00     0.004 C 
ENDBRANCH   6   7
ENDBRANCH   1   6
TORSDOF 4
ENDMDL
MODEL 7
REMARK VINA RESULT:    -3.530      2.594      3.972
REMARK INTER + INTRA:          -4.522
REMARK INTER:                  -4.374
REMARK INTRA:                  -0.148
REMARK UNBOUND:                -0.167
REMARK SMILES CCCCCC(=O)[O-]
REMARK SMILES IDX 4 1 5 2 6 3 7 4 8 5 3 6 2 7 1 8
REMARK H PARENT
REMARK Flexibility Score: inf
ROOT
ATOM      1  C   UNL     1     -38.168  19.197 -30.164  1.00  0.00     0.006 C 
ENDROOT
BRANCH   1   2
ATOM      2  C   UNL     1     -38.630  19.477 -28.728  1.00  0.00     0.053 C 
BRANCH   2   3
ATOM      3  C   UNL     1     -40.030  20.007 -28.690  1.00  0.00     0.041 C 
ATOM      4  O   UNL     1     -40.309  21.103 -29.243  1.00  0.00    -0.550 OA
ATOM      5  O   UNL     1     -41.022  19.305 -28.017  1.00  0.00    -0.550 OA
ENDBRANCH   2   3
ENDBRANCH   1   2
BRANCH   1   6
ATOM      6  C   UNL     1     -38.589  17.801 -30.648  1.00  0.00     0.000 C 
BRANCH   6   7
ATOM      7  C   UNL     1     -37.715  16.713 -30.013  1.00  0.00    -0.003 C 
ATOM      8  C   UNL     1     -36.231  17.027 -30.185  1.00  0.00     0.004 C 
ENDBRANCH   6   7
ENDBRANCH   1   6
TORSDOF 4
ENDMDL
MODEL 8
REMARK VINA RESULT:    -3.455      3.301      4.203
REMARK INTER + INTRA:          -4.430
REMARK INTER:                  -4.184
REMARK INTRA:                  -0.246
REMARK UNBOUND:                -0.167
REMARK SMILES CCCCCC(=O)[O-]
REMARK SMILES IDX 4 1 5 2 6 3 7 4 8 5 3 6 2 7 1 8
REMARK H PARENT
REMARK Flexibility Score: inf
ROOT
ATOM      1  C   UNL     1     -39.576  19.380 -28.620  1.00  0.00     0.006 C 
ENDROOT
BRANCH   1   2
ATOM      2  C   UNL     1     -39.835  20.767 -29.224  1.00  0.00     0.053 C 
BRANCH   2   3
ATOM      3  C   UNL     1     -38.773  21.748 -28.834  1.00  0.00     0.041 C 
ATOM      4  O   UNL     1     -39.070  22.771 -28.163  1.00  0.00    -0.550 OA
ATOM      5  O   UNL     1     -37.459  21.549 -29.239  1.00  0.00    -0.550 OA
ENDBRANCH   2   3
ENDBRANCH   1   2
BRANCH   1   6
ATOM      6  C   UNL     1     -39.018  18.391 -29.654  1.00  0.00     0.000 C 
BRANCH   6   7
ATOM      7  C   UNL     1     -37.644  17.866 -29.225  1.00  0.00    -0.003 C 
ATOM      8  C   UNL     1     -37.312  18.291 -27.796  1.00  0.00     0.004 C 
ENDBRANCH   6   7
ENDBRANCH   1   6
TORSDOF 4
ENDMDL
MODEL 9
REMARK VINA RESULT:    -3.376      2.450      3.315
REMARK INTER + INTRA:          -4.332
REMARK INTER:                  -4.201
REMARK INTRA:                  -0.131
REMARK UNBOUND:                -0.167
REMARK SMILES CCCCCC(=O)[O-]
REMARK SMILES IDX 4 1 5 2 6 3 7 4 8 5 3 6 2 7 1 8
REMARK H PARENT
REMARK Flexibility Score: inf
ROOT
ATOM      1  C   UNL     1     -37.802  17.863 -29.185  1.00  0.00     0.006 C 
ENDROOT
BRANCH   1   2
ATOM      2  C   UNL     1     -37.305  18.428 -27.848  1.00  0.00     0.053 C 
BRANCH   2   3
ATOM      3  C   UNL     1     -35.827  18.669 -27.862  1.00  0.00     0.041 C 
ATOM      4  O   UNL     1     -35.286  19.349 -26.951  1.00  0.00    -0.550 OA
ATOM      5  O   UNL     1     -35.051  18.168 -28.900  1.00  0.00    -0.550 OA
ENDBRANCH   2   3
ENDBRANCH   1   2
BRANCH   1   6
ATOM      6  C   UNL     1     -39.157  18.456 -29.598  1.00  0.00     0.000 C 
BRANCH   6   7
ATOM      7  C   UNL     1     -39.627  19.507 -28.587  1.00  0.00    -0.003 C 
ATOM      8  C   UNL     1     -40.983  19.133 -27.993  1.00  0.00     0.004 C 
ENDBRANCH   6   7
ENDBRANCH   1   6
TORSDOF 4
ENDMDL
