MODEL 1
REMARK VINA RESULT:    -3.928      0.000      0.000
REMARK INTER + INTRA:          -6.217
REMARK INTER:                  -5.995
REMARK INTRA:                  -0.221
REMARK UNBOUND:                -0.221
REMARK SMILES CC1=CCC[C@H](C)C(=O)C[C@@H](C(C)C)C(=O)C1
REMARK SMILES IDX 8 1 9 2 6 3 7 4 5 5 4 6 3 7 2 8 1 9 10 11 11 12 15 13 16 14
REMARK SMILES IDX 17 15 12 17 13 18 14 19
REMARK H PARENT
REMARK Flexibility Score: 70.00
ROOT
ATOM      1  C   UNL     1     -13.168 -18.937  29.247  1.00  0.00     0.136 C 
ATOM      2  O   UNL     1     -13.206 -19.582  28.209  1.00  0.00    -0.299 OA
ENDROOT
BRANCH   1   3
ATOM      3  C   UNL     1     -13.398 -19.640  30.571  1.00  0.00     0.053 C 
ATOM      4  C   UNL     1     -12.546 -20.914  30.656  1.00  0.00     0.016 C 
BRANCH   3   5
ATOM      5  C   UNL     1     -13.089 -18.690  31.752  1.00  0.00     0.015 C 
BRANCH   5   6
ATOM      6  C   UNL     1     -11.602 -18.755  32.157  1.00  0.00     0.028 C 
BRANCH   6   7
ATOM      7  C   UNL     1     -11.035 -17.413  32.547  1.00  0.00    -0.028 C 
ATOM      8  C   UNL     1     -10.324 -16.593  31.734  1.00  0.00    -0.070 CG0
ATOM      9  C   UNL     1      -9.926 -15.244  32.276  1.00  0.00     0.039 C 
ATOM     10  G   UNL     1      -9.871 -16.982  30.332  1.00  0.00     0.000 G0
ENDBRANCH   6   7
ENDBRANCH   5   6
ENDBRANCH   3   5
ENDBRANCH   1   3
BRANCH   1  11
ATOM     11  C   UNL     1     -12.906 -17.450  29.177  1.00  0.00     0.087 C 
BRANCH  11  12
ATOM     12  C   UNL     1     -11.629 -17.114  28.361  1.00  0.00     0.066 C 
BRANCH  12  13
ATOM     13  C   UNL     1     -10.639 -16.310  29.193  1.00  0.00     0.140 C 
ATOM     14  O   UNL     1     -10.420 -15.136  28.932  1.00  0.00    -0.299 OA
BRANCH  13  15
ATOM     15  C   UNL     1      -9.875 -16.979  30.311  1.00  0.00     0.106 CG0
ATOM     16  G   UNL     1     -10.337 -16.573  31.705  1.00  0.00     0.000 G0
ENDBRANCH  13  15
ENDBRANCH  12  13
BRANCH  12  17
ATOM     17  C   UNL     1     -11.929 -16.428  26.989  1.00  0.00    -0.006 C 
ATOM     18  C   UNL     1     -13.427 -16.375  26.633  1.00  0.00     0.008 C 
ATOM     19  C   UNL     1     -11.148 -17.090  25.843  1.00  0.00     0.008 C 
ENDBRANCH  12  17
ENDBRANCH  11  12
ENDBRANCH   1  11
TORSDOF 1
ENDMDL
MODEL 2
REMARK VINA RESULT:    -3.885      2.708      4.567
REMARK INTER + INTRA:          -6.150
REMARK INTER:                  -6.143
REMARK INTRA:                  -0.007
REMARK UNBOUND:                -0.221
REMARK SMILES CC1=CCC[C@H](C)C(=O)C[C@@H](C(C)C)C(=O)C1
REMARK SMILES IDX 8 1 9 2 6 3 7 4 5 5 4 6 3 7 2 8 1 9 10 11 11 12 15 13 16 14
REMARK SMILES IDX 17 15 12 17 13 18 14 19
REMARK H PARENT
REMARK Flexibility Score: 70.00
ROOT
ATOM      1  C   UNL     1     -12.948 -18.367  31.708  1.00  0.00     0.136 C 
ATOM      2  O   UNL     1     -13.905 -18.640  32.419  1.00  0.00    -0.299 OA
ENDROOT
BRANCH   1   3
ATOM      3  C   UNL     1     -12.210 -19.482  30.990  1.00  0.00     0.053 C 
ATOM      4  C   UNL     1     -12.492 -20.832  31.666  1.00  0.00     0.016 C 
BRANCH   3   5
ATOM      5  C   UNL     1     -12.606 -19.520  29.496  1.00  0.00     0.015 C 
BRANCH   5   6
ATOM      6  C   UNL     1     -11.809 -18.488  28.672  1.00  0.00     0.028 C 
BRANCH   6   7
ATOM      7  C   UNL     1     -12.677 -17.668  27.750  1.00  0.00    -0.028 C 
ATOM      8  C   UNL     1     -12.946 -16.347  27.891  1.00  0.00    -0.070 CG0
ATOM      9  C   UNL     1     -13.755 -15.678  26.808  1.00  0.00     0.039 C 
ATOM     10  G   UNL     1     -12.517 -15.523  29.099  1.00  0.00     0.000 G0
ENDBRANCH   6   7
ENDBRANCH   5   6
ENDBRANCH   3   5
ENDBRANCH   1   3
BRANCH   1  11
ATOM     11  C   UNL     1     -12.518 -16.924  31.578  1.00  0.00     0.087 C 
BRANCH  11  12
ATOM     12  C   UNL     1     -13.724 -15.965  31.394  1.00  0.00     0.066 C 
BRANCH  12  13
ATOM     13  C   UNL     1     -13.633 -15.210  30.074  1.00  0.00     0.140 C 
ATOM     14  O   UNL     1     -14.486 -14.390  29.770  1.00  0.00    -0.299 OA
BRANCH  13  15
ATOM     15  C   UNL     1     -12.514 -15.515  29.106  1.00  0.00     0.106 CG0
ATOM     16  G   UNL     1     -12.949 -16.331  27.896  1.00  0.00     0.000 G0
ENDBRANCH  13  15
ENDBRANCH  12  13
BRANCH  12  17
ATOM     17  C   UNL     1     -13.942 -14.998  32.604  1.00  0.00    -0.006 C 
ATOM     18  C   UNL     1     -12.984 -15.252  33.783  1.00  0.00     0.008 C 
ATOM     19  C   UNL     1     -15.396 -15.034  33.100  1.00  0.00     0.008 C 
ENDBRANCH  12  17
ENDBRANCH  11  12
ENDBRANCH   1  11
TORSDOF 1
ENDMDL
MODEL 3
REMARK VINA RESULT:    -3.722      1.519      1.707
REMARK INTER + INTRA:          -5.901
REMARK INTER:                  -6.383
REMARK INTRA:                   0.483
REMARK UNBOUND:                -0.221
REMARK SMILES CC1=CCC[C@H](C)C(=O)C[C@@H](C(C)C)C(=O)C1
REMARK SMILES IDX 8 1 9 2 6 3 7 4 5 5 4 6 3 7 2 8 1 9 10 11 11 12 15 13 16 14
REMARK SMILES IDX 17 15 12 17 13 18 14 19
REMARK H PARENT
REMARK Flexibility Score: 70.00
ROOT
ATOM      1  C   UNL     1     -13.011 -19.316  29.404  1.00  0.00     0.136 C 
ATOM      2  O   UNL     1     -13.262 -20.424  28.952  1.00  0.00    -0.299 OA
ENDROOT
BRANCH   1   3
ATOM      3  C   UNL     1     -12.266 -19.198  30.720  1.00  0.00     0.053 C 
ATOM      4  C   UNL     1     -12.507 -20.442  31.586  1.00  0.00     0.016 C 
BRANCH   3   5
ATOM      5  C   UNL     1     -10.755 -18.984  30.471  1.00  0.00     0.015 C 
BRANCH   5   6
ATOM      6  C   UNL     1     -10.120 -18.099  31.562  1.00  0.00     0.028 C 
BRANCH   6   7
ATOM      7  C   UNL     1     -11.137 -17.335  32.372  1.00  0.00    -0.028 C 
ATOM      8  C   UNL     1     -11.829 -16.249  31.945  1.00  0.00    -0.070 CG0
ATOM      9  C   UNL     1     -12.879 -15.681  32.867  1.00  0.00     0.039 C 
ATOM     10  G   UNL     1     -11.568 -15.554  30.615  1.00  0.00     0.000 G0
ENDBRANCH   6   7
ENDBRANCH   5   6
ENDBRANCH   3   5
ENDBRANCH   1   3
BRANCH   1  11
ATOM     11  C   UNL     1     -13.467 -18.093  28.641  1.00  0.00     0.087 C 
BRANCH  11  12
ATOM     12  C   UNL     1     -12.362 -17.006  28.556  1.00  0.00     0.066 C 
BRANCH  12  13
ATOM     13  C   UNL     1     -12.618 -15.879  29.548  1.00  0.00     0.140 C 
ATOM     14  O   UNL     1     -13.634 -15.203  29.468  1.00  0.00    -0.299 OA
BRANCH  13  15
ATOM     15  C   UNL     1     -11.587 -15.553  30.602  1.00  0.00     0.106 CG0
ATOM     16  G   UNL     1     -11.835 -16.233  31.942  1.00  0.00     0.000 G0
ENDBRANCH  13  15
ENDBRANCH  12  13
BRANCH  12  17
ATOM     17  C   UNL     1     -12.131 -16.466  27.107  1.00  0.00    -0.006 C 
ATOM     18  C   UNL     1     -13.430 -16.245  26.310  1.00  0.00     0.008 C 
ATOM     19  C   UNL     1     -11.183 -17.375  26.310  1.00  0.00     0.008 C 
ENDBRANCH  12  17
ENDBRANCH  11  12
ENDBRANCH   1  11
TORSDOF 1
ENDMDL
MODEL 4
REMARK VINA RESULT:    -3.635      2.130      3.721
REMARK INTER + INTRA:          -5.769
REMARK INTER:                  -6.285
REMARK INTRA:                   0.517
REMARK UNBOUND:                -0.221
REMARK SMILES CC1=CCC[C@H](C)C(=O)C[C@@H](C(C)C)C(=O)C1
REMARK SMILES IDX 8 1 9 2 6 3 7 4 5 5 4 6 3 7 2 8 1 9 10 11 11 12 15 13 16 14
REMARK SMILES IDX 17 15 12 17 13 18 14 19
REMARK H PARENT
REMARK Flexibility Score: 70.00
ROOT
ATOM      1  C   UNL     1     -13.297 -15.664  30.967  1.00  0.00     0.136 C 
ATOM      2  O   UNL     1     -14.370 -15.140  31.231  1.00  0.00    -0.299 OA
ENDROOT
BRANCH   1   3
ATOM      3  C   UNL     1     -12.546 -16.414  32.051  1.00  0.00     0.053 C 
ATOM      4  C   UNL     1     -12.240 -15.482  33.232  1.00  0.00     0.016 C 
BRANCH   3   5
ATOM      5  C   UNL     1     -13.352 -17.648  32.516  1.00  0.00     0.015 C 
BRANCH   5   6
ATOM      6  C   UNL     1     -12.749 -18.958  31.970  1.00  0.00     0.028 C 
BRANCH   6   7
ATOM      7  C   UNL     1     -13.557 -19.563  30.850  1.00  0.00    -0.028 C 
ATOM      8  C   UNL     1     -13.126 -19.746  29.578  1.00  0.00    -0.070 CG0
ATOM      9  C   UNL     1     -14.048 -20.461  28.622  1.00  0.00     0.039 C 
ATOM     10  G   UNL     1     -11.791 -19.228  29.058  1.00  0.00     0.000 G0
ENDBRANCH   6   7
ENDBRANCH   5   6
ENDBRANCH   3   5
ENDBRANCH   1   3
BRANCH   1  11
ATOM     11  C   UNL     1     -12.743 -15.535  29.566  1.00  0.00     0.087 C 
BRANCH  11  12
ATOM     12  C   UNL     1     -12.837 -16.865  28.771  1.00  0.00     0.066 C 
BRANCH  12  13
ATOM     13  C   UNL     1     -11.632 -17.756  29.042  1.00  0.00     0.140 C 
ATOM     14  O   UNL     1     -10.525 -17.266  29.212  1.00  0.00    -0.299 OA
BRANCH  13  15
ATOM     15  C   UNL     1     -11.789 -19.258  29.043  1.00  0.00     0.106 CG0
ATOM     16  G   UNL     1     -13.133 -19.739  29.574  1.00  0.00     0.000 G0
ENDBRANCH  13  15
ENDBRANCH  12  13
BRANCH  12  17
ATOM     17  C   UNL     1     -13.077 -16.660  27.240  1.00  0.00    -0.006 C 
ATOM     18  C   UNL     1     -11.780 -16.541  26.417  1.00  0.00     0.008 C 
ATOM     19  C   UNL     1     -13.977 -15.444  26.967  1.00  0.00     0.008 C 
ENDBRANCH  12  17
ENDBRANCH  11  12
ENDBRANCH   1  11
TORSDOF 1
ENDMDL
MODEL 5
REMARK VINA RESULT:    -3.534      2.311      4.959
REMARK INTER + INTRA:          -5.615
REMARK INTER:                  -6.370
REMARK INTRA:                   0.754
REMARK UNBOUND:                -0.221
REMARK SMILES CC1=CCC[C@H](C)C(=O)C[C@@H](C(C)C)C(=O)C1
REMARK SMILES IDX 8 1 9 2 6 3 7 4 5 5 4 6 3 7 2 8 1 9 10 11 11 12 15 13 16 14
REMARK SMILES IDX 17 15 12 17 13 18 14 19
REMARK H PARENT
REMARK Flexibility Score: 70.00
ROOT
ATOM      1  C   UNL     1     -13.623 -15.271  30.275  1.00  0.00     0.136 C 
ATOM      2  O   UNL     1     -14.418 -14.390  30.569  1.00  0.00    -0.299 OA
ENDROOT
BRANCH   1   3
ATOM      3  C   UNL     1     -12.766 -15.119  29.032  1.00  0.00     0.053 C 
ATOM      4  C   UNL     1     -11.312 -15.508  29.333  1.00  0.00     0.016 C 
BRANCH   3   5
ATOM      5  C   UNL     1     -13.336 -15.969  27.872  1.00  0.00     0.015 C 
BRANCH   5   6
ATOM      6  C   UNL     1     -12.496 -17.240  27.636  1.00  0.00     0.028 C 
BRANCH   6   7
ATOM      7  C   UNL     1     -13.170 -18.496  28.128  1.00  0.00    -0.028 C 
ATOM      8  C   UNL     1     -12.791 -19.220  29.211  1.00  0.00    -0.070 CG0
ATOM      9  C   UNL     1     -13.654 -20.393  29.604  1.00  0.00     0.039 C 
ATOM     10  G   UNL     1     -11.526 -18.940  30.011  1.00  0.00     0.000 G0
ENDBRANCH   6   7
ENDBRANCH   5   6
ENDBRANCH   3   5
ENDBRANCH   1   3
BRANCH   1  11
ATOM     11  C   UNL     1     -13.529 -16.498  31.154  1.00  0.00     0.087 C 
BRANCH  11  12
ATOM     12  C   UNL     1     -12.062 -16.849  31.519  1.00  0.00     0.066 C 
BRANCH  12  13
ATOM     13  C   UNL     1     -11.804 -18.344  31.389  1.00  0.00     0.140 C 
ATOM     14  O   UNL     1     -11.767 -19.055  32.383  1.00  0.00    -0.299 OA
BRANCH  13  15
ATOM     15  C   UNL     1     -11.535 -18.948  30.031  1.00  0.00     0.106 CG0
ATOM     16  G   UNL     1     -12.790 -19.209  29.209  1.00  0.00     0.000 G0
ENDBRANCH  13  15
ENDBRANCH  12  13
BRANCH  12  17
ATOM     17  C   UNL     1     -11.619 -16.302  32.915  1.00  0.00    -0.006 C 
ATOM     18  C   UNL     1     -12.676 -15.413  33.599  1.00  0.00     0.008 C 
ATOM     19  C   UNL     1     -10.285 -15.545  32.828  1.00  0.00     0.008 C 
ENDBRANCH  12  17
ENDBRANCH  11  12
ENDBRANCH   1  11
TORSDOF 1
ENDMDL
MODEL 6
REMARK VINA RESULT:    -3.486      1.964      3.676
REMARK INTER + INTRA:          -5.541
REMARK INTER:                  -6.933
REMARK INTRA:                   1.392
REMARK UNBOUND:                -0.221
REMARK SMILES CC1=CCC[C@H](C)C(=O)C[C@@H](C(C)C)C(=O)C1
REMARK SMILES IDX 8 1 9 2 6 3 7 4 5 5 4 6 3 7 2 8 1 9 10 11 11 12 15 13 16 14
REMARK SMILES IDX 17 15 12 17 13 18 14 19
REMARK H PARENT
REMARK Flexibility Score: 70.00
ROOT
ATOM      1  C   UNL     1     -10.788 -16.661  31.049  1.00  0.00     0.136 C 
ATOM      2  O   UNL     1      -9.930 -17.526  30.943  1.00  0.00    -0.299 OA
ENDROOT
BRANCH   1   3
ATOM      3  C   UNL     1     -11.461 -16.438  32.390  1.00  0.00     0.053 C 
ATOM      4  C   UNL     1     -10.627 -15.484  33.257  1.00  0.00     0.016 C 
BRANCH   3   5
ATOM      5  C   UNL     1     -12.895 -15.894  32.194  1.00  0.00     0.015 C 
BRANCH   5   6
ATOM      6  C   UNL     1     -13.921 -17.036  32.053  1.00  0.00     0.028 C 
BRANCH   6   7
ATOM      7  C   UNL     1     -13.287 -18.405  32.040  1.00  0.00    -0.028 C 
ATOM      8  C   UNL     1     -13.009 -19.133  30.931  1.00  0.00    -0.070 CG0
ATOM      9  C   UNL     1     -12.280 -20.440  31.116  1.00  0.00     0.039 C 
ATOM     10  G   UNL     1     -13.433 -18.724  29.526  1.00  0.00     0.000 G0
ENDBRANCH   6   7
ENDBRANCH   5   6
ENDBRANCH   3   5
ENDBRANCH   1   3
BRANCH   1  11
ATOM     11  C   UNL     1     -11.161 -15.846  29.832  1.00  0.00     0.087 C 
BRANCH  11  12
ATOM     12  C   UNL     1     -12.524 -16.279  29.229  1.00  0.00     0.066 C 
BRANCH  12  13
ATOM     13  C   UNL     1     -12.508 -17.747  28.826  1.00  0.00     0.140 C 
ATOM     14  O   UNL     1     -11.778 -18.134  27.925  1.00  0.00    -0.299 OA
BRANCH  13  15
ATOM     15  C   UNL     1     -13.439 -18.726  29.502  1.00  0.00     0.106 CG0
ATOM     16  G   UNL     1     -13.007 -19.122  30.908  1.00  0.00     0.000 G0
ENDBRANCH  13  15
ENDBRANCH  12  13
BRANCH  12  17
ATOM     17  C   UNL     1     -13.009 -15.360  28.060  1.00  0.00    -0.006 C 
ATOM     18  C   UNL     1     -14.050 -14.307  28.487  1.00  0.00     0.008 C 
ATOM     19  C   UNL     1     -13.558 -16.184  26.885  1.00  0.00     0.008 C 
ENDBRANCH  12  17
ENDBRANCH  11  12
ENDBRANCH   1  11
TORSDOF 1
ENDMDL
MODEL 7
REMARK VINA RESULT:    -3.357      2.417      4.800
REMARK INTER + INTRA:          -5.344
REMARK INTER:                  -5.823
REMARK INTRA:                   0.479
REMARK UNBOUND:                -0.221
REMARK SMILES CC1=CCC[C@H](C)C(=O)C[C@@H](C(C)C)C(=O)C1
REMARK SMILES IDX 8 1 9 2 6 3 7 4 5 5 4 6 3 7 2 8 1 9 10 11 11 12 15 13 16 14
REMARK SMILES IDX 17 15 12 17 13 18 14 19
REMARK H PARENT
REMARK Flexibility Score: 70.00
ROOT
ATOM      1  C   UNL     1     -12.478 -16.021  29.534  1.00  0.00     0.136 C 
ATOM      2  O   UNL     1     -11.263 -15.898  29.600  1.00  0.00    -0.299 OA
ENDROOT
BRANCH   1   3
ATOM      3  C   UNL     1     -13.097 -16.671  28.311  1.00  0.00     0.053 C 
ATOM      4  C   UNL     1     -12.127 -16.607  27.122  1.00  0.00     0.016 C 
BRANCH   3   5
ATOM      5  C   UNL     1     -13.499 -18.132  28.617  1.00  0.00     0.015 C 
BRANCH   5   6
ATOM      6  C   UNL     1     -12.265 -19.053  28.708  1.00  0.00     0.028 C 
BRANCH   6   7
ATOM      7  C   UNL     1     -12.385 -20.101  29.786  1.00  0.00    -0.028 C 
ATOM      8  C   UNL     1     -12.288 -19.873  31.119  1.00  0.00    -0.070 CG0
ATOM      9  C   UNL     1     -12.537 -21.036  32.047  1.00  0.00     0.039 C 
ATOM     10  G   UNL     1     -11.898 -18.528  31.718  1.00  0.00     0.000 G0
ENDBRANCH   6   7
ENDBRANCH   5   6
ENDBRANCH   3   5
ENDBRANCH   1   3
BRANCH   1  11
ATOM     11  C   UNL     1     -13.330 -15.505  30.671  1.00  0.00     0.087 C 
BRANCH  11  12
ATOM     12  C   UNL     1     -12.927 -16.124  32.036  1.00  0.00     0.066 C 
BRANCH  12  13
ATOM     13  C   UNL     1     -13.086 -17.639  32.023  1.00  0.00     0.140 C 
ATOM     14  O   UNL     1     -14.160 -18.151  32.299  1.00  0.00    -0.299 OA
BRANCH  13  15
ATOM     15  C   UNL     1     -11.895 -18.519  31.725  1.00  0.00     0.106 CG0
ATOM     16  G   UNL     1     -12.261 -19.876  31.136  1.00  0.00     0.000 G0
ENDBRANCH  13  15
ENDBRANCH  12  13
BRANCH  12  17
ATOM     17  C   UNL     1     -13.658 -15.473  33.255  1.00  0.00    -0.006 C 
ATOM     18  C   UNL     1     -14.745 -14.456  32.859  1.00  0.00     0.008 C 
ATOM     19  C   UNL     1     -12.664 -14.816  34.225  1.00  0.00     0.008 C 
ENDBRANCH  12  17
ENDBRANCH  11  12
ENDBRANCH   1  11
TORSDOF 1
ENDMDL
MODEL 8
REMARK VINA RESULT:    -3.314      3.149      5.061
REMARK INTER + INTRA:          -5.279
REMARK INTER:                  -5.674
REMARK INTRA:                   0.395
REMARK UNBOUND:                -0.221
REMARK SMILES CC1=CCC[C@H](C)C(=O)C[C@@H](C(C)C)C(=O)C1
REMARK SMILES IDX 8 1 9 2 6 3 7 4 5 5 4 6 3 7 2 8 1 9 10 11 11 12 15 13 16 14
REMARK SMILES IDX 17 15 12 17 13 18 14 19
REMARK H PARENT
REMARK Flexibility Score: 70.00
ROOT
ATOM      1  C   UNL     1     -10.744 -15.418  33.450  1.00  0.00     0.136 C 
ATOM      2  O   UNL     1      -9.932 -14.704  32.877  1.00  0.00    -0.299 OA
ENDROOT
BRANCH   1   3
ATOM      3  C   UNL     1     -11.085 -15.141  34.902  1.00  0.00     0.053 C 
ATOM      4  C   UNL     1      -9.921 -14.422  35.599  1.00  0.00     0.016 C 
BRANCH   3   5
ATOM      5  C   UNL     1     -12.386 -14.312  35.006  1.00  0.00     0.015 C 
BRANCH   5   6
ATOM      6  C   UNL     1     -13.601 -15.093  34.465  1.00  0.00     0.028 C 
BRANCH   6   7
ATOM      7  C   UNL     1     -14.335 -14.363  33.368  1.00  0.00    -0.028 C 
ATOM      8  C   UNL     1     -14.564 -14.843  32.120  1.00  0.00    -0.070 CG0
ATOM      9  C   UNL     1     -15.406 -14.004  31.192  1.00  0.00     0.039 C 
ATOM     10  G   UNL     1     -13.979 -16.149  31.599  1.00  0.00     0.000 G0
ENDBRANCH   6   7
ENDBRANCH   5   6
ENDBRANCH   3   5
ENDBRANCH   1   3
BRANCH   1  11
ATOM     11  C   UNL     1     -11.372 -16.567  32.696  1.00  0.00     0.087 C 
BRANCH  11  12
ATOM     12  C   UNL     1     -11.392 -16.324  31.163  1.00  0.00     0.066 C 
BRANCH  12  13
ATOM     13  C   UNL     1     -12.795 -15.986  30.676  1.00  0.00     0.140 C 
ATOM     14  O   UNL     1     -12.969 -15.535  29.554  1.00  0.00    -0.299 OA
BRANCH  13  15
ATOM     15  C   UNL     1     -13.976 -16.153  31.603  1.00  0.00     0.106 CG0
ATOM     16  G   UNL     1     -14.565 -14.838  32.098  1.00  0.00     0.000 G0
ENDBRANCH  13  15
ENDBRANCH  12  13
BRANCH  12  17
ATOM     17  C   UNL     1     -10.756 -17.490  30.339  1.00  0.00    -0.006 C 
ATOM     18  C   UNL     1     -10.088 -17.034  29.028  1.00  0.00     0.008 C 
ATOM     19  C   UNL     1     -11.780 -18.596  30.041  1.00  0.00     0.008 C 
ENDBRANCH  12  17
ENDBRANCH  11  12
ENDBRANCH   1  11
TORSDOF 1
ENDMDL
MODEL 9
REMARK VINA RESULT:    -3.191      2.383      3.799
REMARK INTER + INTRA:          -5.092
REMARK INTER:                  -5.681
REMARK INTRA:                   0.589
REMARK UNBOUND:                -0.221
REMARK SMILES CC1=CCC[C@H](C)C(=O)C[C@@H](C(C)C)C(=O)C1
REMARK SMILES IDX 8 1 9 2 6 3 7 4 5 5 4 6 3 7 2 8 1 9 10 11 11 12 15 13 16 14
REMARK SMILES IDX 17 15 12 17 13 18 14 19
REMARK H PARENT
REMARK Flexibility Score: 70.00
ROOT
ATOM      1  C   UNL     1     -13.521 -15.128  30.298  1.00  0.00     0.136 C 
ATOM      2  O   UNL     1     -14.538 -14.568  29.912  1.00  0.00    -0.299 OA
ENDROOT
BRANCH   1   3
ATOM      3  C   UNL     1     -13.266 -15.271  31.786  1.00  0.00     0.053 C 
ATOM      4  C   UNL     1     -14.553 -14.999  32.578  1.00  0.00     0.016 C 
BRANCH   3   5
ATOM      5  C   UNL     1     -12.706 -16.676  32.109  1.00  0.00     0.015 C 
BRANCH   5   6
ATOM      6  C   UNL     1     -13.808 -17.753  32.049  1.00  0.00     0.028 C 
BRANCH   6   7
ATOM      7  C   UNL     1     -13.265 -19.160  32.093  1.00  0.00    -0.028 C 
ATOM      8  C   UNL     1     -12.874 -19.886  31.018  1.00  0.00    -0.070 CG0
ATOM      9  C   UNL     1     -12.262 -21.241  31.274  1.00  0.00     0.039 C 
ATOM     10  G   UNL     1     -13.062 -19.429  29.577  1.00  0.00     0.000 G0
ENDBRANCH   6   7
ENDBRANCH   5   6
ENDBRANCH   3   5
ENDBRANCH   1   3
BRANCH   1  11
ATOM     11  C   UNL     1     -12.539 -15.651  29.274  1.00  0.00     0.087 C 
BRANCH  11  12
ATOM     12  C   UNL     1     -13.014 -16.979  28.627  1.00  0.00     0.066 C 
BRANCH  12  13
ATOM     13  C   UNL     1     -12.282 -18.175  29.220  1.00  0.00     0.140 C 
ATOM     14  O   UNL     1     -11.069 -18.146  29.370  1.00  0.00    -0.299 OA
BRANCH  13  15
ATOM     15  C   UNL     1     -13.046 -19.429  29.572  1.00  0.00     0.106 CG0
ATOM     16  G   UNL     1     -12.863 -19.880  31.015  1.00  0.00     0.000 G0
ENDBRANCH  13  15
ENDBRANCH  12  13
BRANCH  12  17
ATOM     17  C   UNL     1     -12.945 -16.970  27.064  1.00  0.00    -0.006 C 
ATOM     18  C   UNL     1     -11.511 -16.906  26.505  1.00  0.00     0.008 C 
ATOM     19  C   UNL     1     -13.785 -15.830  26.468  1.00  0.00     0.008 C 
ENDBRANCH  12  17
ENDBRANCH  11  12
ENDBRANCH   1  11
TORSDOF 1
ENDMDL
