MODEL 1
REMARK VINA RESULT:    -4.640      0.000      0.000
REMARK INTER + INTRA:         -10.225
REMARK INTER:                  -8.438
REMARK INTRA:                  -1.787
REMARK UNBOUND:                -1.787
REMARK SMILES CCCCCCCCCCCCCCCC(=O)[O-]
REMARK SMILES IDX 9 1 10 2 11 3 12 4 13 5 14 6 15 7 16 8 17 9 18 10 8 11 7 12
REMARK SMILES IDX 6 13 5 14 4 15 3 16 2 17 1 18
REMARK H PARENT
REMARK Flexibility Score: inf
ROOT
ATOM      1  C   UNL     1      98.412  89.899  91.882  1.00  0.00     0.000 C 
ENDROOT
BRANCH   1   2
ATOM      2  C   UNL     1      99.864  89.551  92.243  1.00  0.00     0.000 C 
BRANCH   2   3
ATOM      3  C   UNL     1     100.012  88.055  92.543  1.00  0.00     0.000 C 
BRANCH   3   4
ATOM      4  C   UNL     1     101.368  87.526  92.052  1.00  0.00     0.000 C 
BRANCH   4   5
ATOM      5  C   UNL     1     101.753  88.059  90.660  1.00  0.00     0.000 C 
BRANCH   5   6
ATOM      6  C   UNL     1     100.948  87.465  89.490  1.00  0.00     0.006 C 
BRANCH   6   7
ATOM      7  C   UNL     1     101.089  88.275  88.195  1.00  0.00     0.053 C 
BRANCH   7   8
ATOM      8  C   UNL     1     100.249  87.676  87.111  1.00  0.00     0.041 C 
ATOM      9  O   UNL     1     100.771  87.345  86.015  1.00  0.00    -0.550 OA
ATOM     10  O   UNL     1      98.879  87.531  87.294  1.00  0.00    -0.550 OA
ENDBRANCH   7   8
ENDBRANCH   6   7
ENDBRANCH   5   6
ENDBRANCH   4   5
ENDBRANCH   3   4
ENDBRANCH   2   3
ENDBRANCH   1   2
BRANCH   1  11
ATOM     11  C   UNL     1      98.288  90.639  90.538  1.00  0.00     0.000 C 
BRANCH  11  12
ATOM     12  C   UNL     1      99.623  90.945  89.834  1.00  0.00    -0.000 C 
BRANCH  12  13
ATOM     13  C   UNL     1      99.582  92.246  89.013  1.00  0.00    -0.000 C 
BRANCH  13  14
ATOM     14  C   UNL     1      98.212  92.484  88.357  1.00  0.00    -0.000 C 
BRANCH  14  15
ATOM     15  C   UNL     1      98.241  92.261  86.835  1.00  0.00    -0.000 C 
BRANCH  15  16
ATOM     16  C   UNL     1      98.964  90.963  86.434  1.00  0.00    -0.000 C 
BRANCH  16  17
ATOM     17  C   UNL     1     100.078  91.136  85.387  1.00  0.00    -0.003 C 
ATOM     18  C   UNL     1     101.459  91.330  86.009  1.00  0.00     0.004 C 
ENDBRANCH  16  17
ENDBRANCH  15  16
ENDBRANCH  14  15
ENDBRANCH  13  14
ENDBRANCH  12  13
ENDBRANCH  11  12
ENDBRANCH   1  11
TORSDOF 14
ENDMDL
MODEL 2
REMARK VINA RESULT:    -4.605      2.086      3.722
REMARK INTER + INTRA:         -10.160
REMARK INTER:                  -8.424
REMARK INTRA:                  -1.737
REMARK UNBOUND:                -1.787
REMARK SMILES CCCCCCCCCCCCCCCC(=O)[O-]
REMARK SMILES IDX 9 1 10 2 11 3 12 4 13 5 14 6 15 7 16 8 17 9 18 10 8 11 7 12
REMARK SMILES IDX 6 13 5 14 4 15 3 16 2 17 1 18
REMARK H PARENT
REMARK Flexibility Score: inf
ROOT
ATOM      1  C   UNL     1     101.581  87.999  90.097  1.00  0.00     0.000 C 
ENDROOT
BRANCH   1   2
ATOM      2  C   UNL     1     101.334  87.018  91.252  1.00  0.00     0.000 C 
BRANCH   2   3
ATOM      3  C   UNL     1     100.363  87.611  92.280  1.00  0.00     0.000 C 
BRANCH   3   4
ATOM      4  C   UNL     1     100.199  89.124  92.072  1.00  0.00     0.000 C 
BRANCH   4   5
ATOM      5  C   UNL     1      98.727  89.559  91.956  1.00  0.00     0.000 C 
BRANCH   5   6
ATOM      6  C   UNL     1      98.474  90.758  91.024  1.00  0.00     0.006 C 
BRANCH   6   7
ATOM      7  C   UNL     1      99.527  90.886  89.917  1.00  0.00     0.053 C 
BRANCH   7   8
ATOM      8  C   UNL     1      99.233  92.072  89.052  1.00  0.00     0.041 C 
ATOM      9  O   UNL     1     100.132  92.921  88.814  1.00  0.00    -0.550 OA
ATOM     10  O   UNL     1      97.952  92.266  88.550  1.00  0.00    -0.550 OA
ENDBRANCH   7   8
ENDBRANCH   6   7
ENDBRANCH   5   6
ENDBRANCH   4   5
ENDBRANCH   3   4
ENDBRANCH   2   3
ENDBRANCH   1   2
BRANCH   1  11
ATOM     11  C   UNL     1     100.756  87.668  88.840  1.00  0.00     0.000 C 
BRANCH  11  12
ATOM     12  C   UNL     1     101.349  88.180  87.514  1.00  0.00    -0.000 C 
BRANCH  12  13
ATOM     13  C   UNL     1     100.335  88.157  86.356  1.00  0.00    -0.000 C 
BRANCH  13  14
ATOM     14  C   UNL     1      99.032  88.896  86.703  1.00  0.00    -0.000 C 
BRANCH  14  15
ATOM     15  C   UNL     1      98.612  89.892  85.608  1.00  0.00    -0.000 C 
BRANCH  15  16
ATOM     16  C   UNL     1      99.813  90.544  84.899  1.00  0.00    -0.000 C 
BRANCH  16  17
ATOM     17  C   UNL     1     100.368  91.803  85.588  1.00  0.00    -0.003 C 
ATOM     18  C   UNL     1     101.829  91.660  86.009  1.00  0.00     0.004 C 
ENDBRANCH  16  17
ENDBRANCH  15  16
ENDBRANCH  14  15
ENDBRANCH  13  14
ENDBRANCH  12  13
ENDBRANCH  11  12
ENDBRANCH   1  11
TORSDOF 14
ENDMDL
MODEL 3
REMARK VINA RESULT:    -4.525      2.309      4.719
REMARK INTER + INTRA:         -10.015
REMARK INTER:                  -8.149
REMARK INTRA:                  -1.866
REMARK UNBOUND:                -1.787
REMARK SMILES CCCCCCCCCCCCCCCC(=O)[O-]
REMARK SMILES IDX 9 1 10 2 11 3 12 4 13 5 14 6 15 7 16 8 17 9 18 10 8 11 7 12
REMARK SMILES IDX 6 13 5 14 4 15 3 16 2 17 1 18
REMARK H PARENT
REMARK Flexibility Score: inf
ROOT
ATOM      1  C   UNL     1     100.129  89.313  85.539  1.00  0.00     0.000 C 
ENDROOT
BRANCH   1   2
ATOM      2  C   UNL     1      99.073  88.853  86.556  1.00  0.00     0.000 C 
BRANCH   2   3
ATOM      3  C   UNL     1      99.581  87.660  87.374  1.00  0.00     0.000 C 
BRANCH   3   4
ATOM      4  C   UNL     1     100.704  88.086  88.331  1.00  0.00     0.000 C 
BRANCH   4   5
ATOM      5  C   UNL     1     100.718  87.277  89.640  1.00  0.00     0.000 C 
BRANCH   5   6
ATOM      6  C   UNL     1     102.016  87.389  90.461  1.00  0.00     0.006 C 
BRANCH   6   7
ATOM      7  C   UNL     1     102.026  88.603  91.398  1.00  0.00     0.053 C 
BRANCH   7   8
ATOM      8  C   UNL     1     101.209  88.325  92.621  1.00  0.00     0.041 C 
ATOM      9  O   UNL     1     101.050  89.218  93.493  1.00  0.00    -0.550 OA
ATOM     10  O   UNL     1     100.665  87.062  92.821  1.00  0.00    -0.550 OA
ENDBRANCH   7   8
ENDBRANCH   6   7
ENDBRANCH   5   6
ENDBRANCH   4   5
ENDBRANCH   3   4
ENDBRANCH   2   3
ENDBRANCH   1   2
BRANCH   1  11
ATOM     11  C   UNL     1     100.115  90.835  85.305  1.00  0.00     0.000 C 
BRANCH  11  12
ATOM     12  C   UNL     1     101.177  91.627  86.090  1.00  0.00    -0.000 C 
BRANCH  12  13
ATOM     13  C   UNL     1     100.669  92.115  87.459  1.00  0.00    -0.000 C 
BRANCH  13  14
ATOM     14  C   UNL     1      99.183  92.512  87.426  1.00  0.00    -0.000 C 
BRANCH  14  15
ATOM     15  C   UNL     1      98.425  92.057  88.684  1.00  0.00    -0.000 C 
BRANCH  15  16
ATOM     16  C   UNL     1      99.343  91.399  89.731  1.00  0.00    -0.000 C 
BRANCH  16  17
ATOM     17  C   UNL     1      98.751  90.161  90.427  1.00  0.00    -0.003 C 
ATOM     18  C   UNL     1      98.283  90.442  91.853  1.00  0.00     0.004 C 
ENDBRANCH  16  17
ENDBRANCH  15  16
ENDBRANCH  14  15
ENDBRANCH  13  14
ENDBRANCH  12  13
ENDBRANCH  11  12
ENDBRANCH   1  11
TORSDOF 14
ENDMDL
MODEL 4
REMARK VINA RESULT:    -4.470      2.162      5.823
REMARK INTER + INTRA:          -9.915
REMARK INTER:                  -7.928
REMARK INTRA:                  -1.987
REMARK UNBOUND:                -1.787
REMARK SMILES CCCCCCCCCCCCCCCC(=O)[O-]
REMARK SMILES IDX 9 1 10 2 11 3 12 4 13 5 14 6 15 7 16 8 17 9 18 10 8 11 7 12
REMARK SMILES IDX 6 13 5 14 4 15 3 16 2 17 1 18
REMARK H PARENT
REMARK Flexibility Score: inf
ROOT
ATOM      1  C   UNL     1     100.051  88.776  88.726  1.00  0.00     0.000 C 
ENDROOT
BRANCH   1   2
ATOM      2  C   UNL     1      99.229  88.381  87.490  1.00  0.00     0.000 C 
BRANCH   2   3
ATOM      3  C   UNL     1     100.132  88.188  86.267  1.00  0.00     0.000 C 
BRANCH   3   4
ATOM      4  C   UNL     1     100.070  89.409  85.338  1.00  0.00     0.000 C 
BRANCH   4   5
ATOM      5  C   UNL     1      98.734  90.169  85.432  1.00  0.00     0.000 C 
BRANCH   5   6
ATOM      6  C   UNL     1      98.862  91.698  85.561  1.00  0.00     0.006 C 
BRANCH   6   7
ATOM      7  C   UNL     1      99.826  92.124  86.676  1.00  0.00     0.053 C 
BRANCH   7   8
ATOM      8  C   UNL     1      99.069  92.428  87.931  1.00  0.00     0.041 C 
ATOM      9  O   UNL     1      99.610  92.255  89.054  1.00  0.00    -0.550 OA
ATOM     10  O   UNL     1      97.748  92.853  87.860  1.00  0.00    -0.550 OA
ENDBRANCH   7   8
ENDBRANCH   6   7
ENDBRANCH   5   6
ENDBRANCH   4   5
ENDBRANCH   3   4
ENDBRANCH   2   3
ENDBRANCH   1   2
BRANCH   1  11
ATOM     11  C   UNL     1     101.438  88.108  88.764  1.00  0.00     0.000 C 
BRANCH  11  12
ATOM     12  C   UNL     1     101.880  87.595  90.147  1.00  0.00    -0.000 C 
BRANCH  12  13
ATOM     13  C   UNL     1     100.751  86.875  90.907  1.00  0.00    -0.000 C 
BRANCH  13  14
ATOM     14  C   UNL     1     100.459  87.519  92.272  1.00  0.00    -0.000 C 
BRANCH  14  15
ATOM     15  C   UNL     1     101.071  88.925  92.403  1.00  0.00    -0.000 C 
BRANCH  15  16
ATOM     16  C   UNL     1     100.038  90.048  92.199  1.00  0.00    -0.000 C 
BRANCH  16  17
ATOM     17  C   UNL     1      98.568  89.609  92.322  1.00  0.00    -0.003 C 
ATOM     18  C   UNL     1      97.673  90.204  91.238  1.00  0.00     0.004 C 
ENDBRANCH  16  17
ENDBRANCH  15  16
ENDBRANCH  14  15
ENDBRANCH  13  14
ENDBRANCH  12  13
ENDBRANCH  11  12
ENDBRANCH   1  11
TORSDOF 14
ENDMDL
MODEL 5
REMARK VINA RESULT:    -4.281     10.702     12.618
REMARK INTER + INTRA:          -9.572
REMARK INTER:                  -7.478
REMARK INTRA:                  -2.094
REMARK UNBOUND:                -1.787
REMARK SMILES CCCCCCCCCCCCCCCC(=O)[O-]
REMARK SMILES IDX 9 1 10 2 11 3 12 4 13 5 14 6 15 7 16 8 17 9 18 10 8 11 7 12
REMARK SMILES IDX 6 13 5 14 4 15 3 16 2 17 1 18
REMARK H PARENT
REMARK Flexibility Score: inf
ROOT
ATOM      1  C   UNL     1     103.099  96.266  98.620  1.00  0.00     0.000 C 
ENDROOT
BRANCH   1   2
ATOM      2  C   UNL     1     103.859  97.391  97.902  1.00  0.00     0.000 C 
BRANCH   2   3
ATOM      3  C   UNL     1     104.877  96.819  96.908  1.00  0.00     0.000 C 
BRANCH   3   4
ATOM      4  C   UNL     1     104.915  97.651  95.618  1.00  0.00     0.000 C 
BRANCH   4   5
ATOM      5  C   UNL     1     103.550  98.265  95.258  1.00  0.00     0.000 C 
BRANCH   5   6
ATOM      6  C   UNL     1     103.579  99.768  94.927  1.00  0.00     0.006 C 
BRANCH   6   7
ATOM      7  C   UNL     1     102.178 100.387  94.834  1.00  0.00     0.053 C 
BRANCH   7   8
ATOM      8  C   UNL     1     101.975 101.384  95.932  1.00  0.00     0.041 C 
ATOM      9  O   UNL     1     102.276 101.090  97.118  1.00  0.00    -0.550 OA
ATOM     10  O   UNL     1     101.405 102.620  95.651  1.00  0.00    -0.550 OA
ENDBRANCH   7   8
ENDBRANCH   6   7
ENDBRANCH   5   6
ENDBRANCH   4   5
ENDBRANCH   3   4
ENDBRANCH   2   3
ENDBRANCH   1   2
BRANCH   1  11
ATOM     11  C   UNL     1     101.574  96.349  98.422  1.00  0.00     0.000 C 
BRANCH  11  12
ATOM     12  C   UNL     1     100.987  97.772  98.459  1.00  0.00    -0.000 C 
BRANCH  12  13
ATOM     13  C   UNL     1     100.236  98.143  97.167  1.00  0.00    -0.000 C 
BRANCH  13  14
ATOM     14  C   UNL     1     100.192  96.982  96.160  1.00  0.00    -0.000 C 
BRANCH  14  15
ATOM     15  C   UNL     1      98.804  96.321  96.083  1.00  0.00    -0.000 C 
BRANCH  15  16
ATOM     16  C   UNL     1      98.803  94.872  96.602  1.00  0.00    -0.000 C 
BRANCH  16  17
ATOM     17  C   UNL     1      98.247  94.692  98.026  1.00  0.00    -0.003 C 
ATOM     18  C   UNL     1      97.516  95.929  98.544  1.00  0.00     0.004 C 
ENDBRANCH  16  17
ENDBRANCH  15  16
ENDBRANCH  14  15
ENDBRANCH  13  14
ENDBRANCH  12  13
ENDBRANCH  11  12
ENDBRANCH   1  11
TORSDOF 14
ENDMDL
MODEL 6
REMARK VINA RESULT:    -4.219     11.582     12.942
REMARK INTER + INTRA:          -9.458
REMARK INTER:                  -7.080
REMARK INTRA:                  -2.378
REMARK UNBOUND:                -1.787
REMARK SMILES CCCCCCCCCCCCCCCC(=O)[O-]
REMARK SMILES IDX 9 1 10 2 11 3 12 4 13 5 14 6 15 7 16 8 17 9 18 10 8 11 7 12
REMARK SMILES IDX 6 13 5 14 4 15 3 16 2 17 1 18
REMARK H PARENT
REMARK Flexibility Score: inf
ROOT
ATOM      1  C   UNL     1     101.441  97.516  98.969  1.00  0.00     0.000 C 
ENDROOT
BRANCH   1   2
ATOM      2  C   UNL     1     102.722  96.856  99.502  1.00  0.00     0.000 C 
BRANCH   2   3
ATOM      3  C   UNL     1     103.004  95.536  98.776  1.00  0.00     0.000 C 
BRANCH   3   4
ATOM      4  C   UNL     1     104.339  95.598  98.021  1.00  0.00     0.000 C 
BRANCH   4   5
ATOM      5  C   UNL     1     104.434  96.799  97.062  1.00  0.00     0.000 C 
BRANCH   5   6
ATOM      6  C   UNL     1     105.841  97.078  96.504  1.00  0.00     0.006 C 
BRANCH   6   7
ATOM      7  C   UNL     1     105.819  97.634  95.075  1.00  0.00     0.053 C 
BRANCH   7   8
ATOM      8  C   UNL     1     106.488  98.972  95.026  1.00  0.00     0.041 C 
ATOM      9  O   UNL     1     105.856  99.982  94.621  1.00  0.00    -0.550 OA
ATOM     10  O   UNL     1     107.827  99.093  95.380  1.00  0.00    -0.550 OA
ENDBRANCH   7   8
ENDBRANCH   6   7
ENDBRANCH   5   6
ENDBRANCH   4   5
ENDBRANCH   3   4
ENDBRANCH   2   3
ENDBRANCH   1   2
BRANCH   1  11
ATOM     11  C   UNL     1     100.753  96.690  97.867  1.00  0.00     0.000 C 
BRANCH  11  12
ATOM     12  C   UNL     1     100.695  97.363  96.484  1.00  0.00    -0.000 C 
BRANCH  12  13
ATOM     13  C   UNL     1     100.979  98.875  96.542  1.00  0.00    -0.000 C 
BRANCH  13  14
ATOM     14  C   UNL     1     102.267  99.260  95.796  1.00  0.00    -0.000 C 
BRANCH  14  15
ATOM     15  C   UNL     1     102.943 100.507  96.392  1.00  0.00    -0.000 C 
BRANCH  15  16
ATOM     16  C   UNL     1     102.393 100.879  97.781  1.00  0.00    -0.000 C 
BRANCH  16  17
ATOM     17  C   UNL     1     103.415 100.796  98.928  1.00  0.00    -0.003 C 
ATOM     18  C   UNL     1     104.671 100.011  98.555  1.00  0.00     0.004 C 
ENDBRANCH  16  17
ENDBRANCH  15  16
ENDBRANCH  14  15
ENDBRANCH  13  14
ENDBRANCH  12  13
ENDBRANCH  11  12
ENDBRANCH   1  11
TORSDOF 14
ENDMDL
MODEL 7
REMARK VINA RESULT:    -4.148     11.850     13.669
REMARK INTER + INTRA:          -9.331
REMARK INTER:                  -7.367
REMARK INTRA:                  -1.964
REMARK UNBOUND:                -1.787
REMARK SMILES CCCCCCCCCCCCCCCC(=O)[O-]
REMARK SMILES IDX 9 1 10 2 11 3 12 4 13 5 14 6 15 7 16 8 17 9 18 10 8 11 7 12
REMARK SMILES IDX 6 13 5 14 4 15 3 16 2 17 1 18
REMARK H PARENT
REMARK Flexibility Score: inf
ROOT
ATOM      1  C   UNL     1     105.562  96.809  96.228  1.00  0.00     0.000 C 
ENDROOT
BRANCH   1   2
ATOM      2  C   UNL     1     105.268  97.660  94.982  1.00  0.00     0.000 C 
BRANCH   2   3
ATOM      3  C   UNL     1     103.983  98.476  95.165  1.00  0.00     0.000 C 
BRANCH   3   4
ATOM      4  C   UNL     1     104.259  99.979  95.010  1.00  0.00     0.000 C 
BRANCH   4   5
ATOM      5  C   UNL     1     105.734 100.290  94.694  1.00  0.00     0.000 C 
BRANCH   5   6
ATOM      6  C   UNL     1     106.477 101.089  95.780  1.00  0.00     0.006 C 
BRANCH   6   7
ATOM      7  C   UNL     1     107.772 100.409  96.242  1.00  0.00     0.053 C 
BRANCH   7   8
ATOM      8  C   UNL     1     107.508  99.533  97.426  1.00  0.00     0.041 C 
ATOM      9  O   UNL     1     108.281  98.576  97.691  1.00  0.00    -0.550 OA
ATOM     10  O   UNL     1     106.379  99.745  98.209  1.00  0.00    -0.550 OA
ENDBRANCH   7   8
ENDBRANCH   6   7
ENDBRANCH   5   6
ENDBRANCH   4   5
ENDBRANCH   3   4
ENDBRANCH   2   3
ENDBRANCH   1   2
BRANCH   1  11
ATOM     11  C   UNL     1     104.432  96.864  97.273  1.00  0.00     0.000 C 
BRANCH  11  12
ATOM     12  C   UNL     1     104.219  95.567  98.074  1.00  0.00    -0.000 C 
BRANCH  12  13
ATOM     13  C   UNL     1     102.920  95.580  98.900  1.00  0.00    -0.000 C 
BRANCH  13  14
ATOM     14  C   UNL     1     102.646  96.951  99.540  1.00  0.00    -0.000 C 
BRANCH  14  15
ATOM     15  C   UNL     1     101.369  97.612  98.992  1.00  0.00    -0.000 C 
BRANCH  15  16
ATOM     16  C   UNL     1     100.650  96.744  97.942  1.00  0.00    -0.000 C 
BRANCH  16  17
ATOM     17  C   UNL     1     100.611  97.340  96.524  1.00  0.00    -0.003 C 
ATOM     18  C   UNL     1     100.615  98.867  96.516  1.00  0.00     0.004 C 
ENDBRANCH  16  17
ENDBRANCH  15  16
ENDBRANCH  14  15
ENDBRANCH  13  14
ENDBRANCH  12  13
ENDBRANCH  11  12
ENDBRANCH   1  11
TORSDOF 14
ENDMDL
MODEL 8
REMARK VINA RESULT:    -4.148     10.731     12.042
REMARK INTER + INTRA:          -9.330
REMARK INTER:                  -7.657
REMARK INTRA:                  -1.673
REMARK UNBOUND:                -1.787
REMARK SMILES CCCCCCCCCCCCCCCC(=O)[O-]
REMARK SMILES IDX 9 1 10 2 11 3 12 4 13 5 14 6 15 7 16 8 17 9 18 10 8 11 7 12
REMARK SMILES IDX 6 13 5 14 4 15 3 16 2 17 1 18
REMARK H PARENT
REMARK Flexibility Score: inf
ROOT
ATOM      1  C   UNL     1     104.325  95.602  98.006  1.00  0.00     0.000 C 
ENDROOT
BRANCH   1   2
ATOM      2  C   UNL     1     103.018  95.463  98.803  1.00  0.00     0.000 C 
BRANCH   2   3
ATOM      3  C   UNL     1     102.553  96.821  99.338  1.00  0.00     0.000 C 
BRANCH   3   4
ATOM      4  C   UNL     1     101.152  97.169  98.814  1.00  0.00     0.000 C 
BRANCH   4   5
ATOM      5  C   UNL     1     100.800  96.436  97.507  1.00  0.00     0.000 C 
BRANCH   5   6
ATOM      6  C   UNL     1      99.293  96.231  97.261  1.00  0.00     0.006 C 
BRANCH   6   7
ATOM      7  C   UNL     1      98.813  94.824  97.637  1.00  0.00     0.053 C 
BRANCH   7   8
ATOM      8  C   UNL     1      97.561  94.901  98.453  1.00  0.00     0.041 C 
ATOM      9  O   UNL     1      96.714  93.971  98.404  1.00  0.00    -0.550 OA
ATOM     10  O   UNL     1      97.306  96.024  99.231  1.00  0.00    -0.550 OA
ENDBRANCH   7   8
ENDBRANCH   6   7
ENDBRANCH   5   6
ENDBRANCH   4   5
ENDBRANCH   3   4
ENDBRANCH   2   3
ENDBRANCH   1   2
BRANCH   1  11
ATOM     11  C   UNL     1     104.515  97.007  97.405  1.00  0.00     0.000 C 
BRANCH  11  12
ATOM     12  C   UNL     1     105.392  97.065  96.142  1.00  0.00    -0.000 C 
BRANCH  12  13
ATOM     13  C   UNL     1     104.788  97.946  95.033  1.00  0.00    -0.000 C 
BRANCH  13  14
ATOM     14  C   UNL     1     103.387  98.467  95.396  1.00  0.00    -0.000 C 
BRANCH  14  15
ATOM     15  C   UNL     1     103.019  99.749  94.628  1.00  0.00    -0.000 C 
BRANCH  15  16
ATOM     16  C   UNL     1     102.048 100.655  95.408  1.00  0.00    -0.000 C 
BRANCH  16  17
ATOM     17  C   UNL     1     101.097  99.915  96.364  1.00  0.00    -0.003 C 
ATOM     18  C   UNL     1      99.713  99.674  95.765  1.00  0.00     0.004 C 
ENDBRANCH  16  17
ENDBRANCH  15  16
ENDBRANCH  14  15
ENDBRANCH  13  14
ENDBRANCH  12  13
ENDBRANCH  11  12
ENDBRANCH   1  11
TORSDOF 14
ENDMDL
MODEL 9
REMARK VINA RESULT:    -4.070     11.019     12.623
REMARK INTER + INTRA:          -9.188
REMARK INTER:                  -6.756
REMARK INTRA:                  -2.432
REMARK UNBOUND:                -1.787
REMARK SMILES CCCCCCCCCCCCCCCC(=O)[O-]
REMARK SMILES IDX 9 1 10 2 11 3 12 4 13 5 14 6 15 7 16 8 17 9 18 10 8 11 7 12
REMARK SMILES IDX 6 13 5 14 4 15 3 16 2 17 1 18
REMARK H PARENT
REMARK Flexibility Score: inf
ROOT
ATOM      1  C   UNL     1     103.564 100.559  97.204  1.00  0.00     0.000 C 
ENDROOT
BRANCH   1   2
ATOM      2  C   UNL     1     103.044  99.900  98.491  1.00  0.00     0.000 C 
BRANCH   2   3
ATOM      3  C   UNL     1     103.820  98.615  98.803  1.00  0.00     0.000 C 
BRANCH   3   4
ATOM      4  C   UNL     1     102.864  97.466  99.153  1.00  0.00     0.000 C 
BRANCH   4   5
ATOM      5  C   UNL     1     101.422  97.716  98.675  1.00  0.00     0.000 C 
BRANCH   5   6
ATOM      6  C   UNL     1     100.873  96.671  97.687  1.00  0.00     0.006 C 
BRANCH   6   7
ATOM      7  C   UNL     1     100.328  97.296  96.397  1.00  0.00     0.053 C 
BRANCH   7   8
ATOM      8  C   UNL     1      99.197  96.477  95.858  1.00  0.00     0.041 C 
ATOM      9  O   UNL     1      98.410  96.968  95.007  1.00  0.00    -0.550 OA
ATOM     10  O   UNL     1      98.983  95.189  96.333  1.00  0.00    -0.550 OA
ENDBRANCH   7   8
ENDBRANCH   6   7
ENDBRANCH   5   6
ENDBRANCH   4   5
ENDBRANCH   3   4
ENDBRANCH   2   3
ENDBRANCH   1   2
BRANCH   1  11
ATOM     11  C   UNL     1     102.807 100.099  95.945  1.00  0.00     0.000 C 
BRANCH  11  12
ATOM     12  C   UNL     1     103.669  99.382  94.890  1.00  0.00    -0.000 C 
BRANCH  12  13
ATOM     13  C   UNL     1     103.891  97.893  95.209  1.00  0.00    -0.000 C 
BRANCH  13  14
ATOM     14  C   UNL     1     105.353  97.460  95.006  1.00  0.00    -0.000 C 
BRANCH  14  15
ATOM     15  C   UNL     1     106.144  97.423  96.325  1.00  0.00    -0.000 C 
BRANCH  15  16
ATOM     16  C   UNL     1     106.972  98.699  96.561  1.00  0.00    -0.000 C 
BRANCH  16  17
ATOM     17  C   UNL     1     107.477  99.391  95.283  1.00  0.00    -0.003 C 
ATOM     18  C   UNL     1     107.045 100.853  95.182  1.00  0.00     0.004 C 
ENDBRANCH  16  17
ENDBRANCH  15  16
ENDBRANCH  14  15
ENDBRANCH  13  14
ENDBRANCH  12  13
ENDBRANCH  11  12
ENDBRANCH   1  11
TORSDOF 14
ENDMDL
