MODEL 1
REMARK VINA RESULT:    37.488      0.000      0.000
REMARK INTER + INTRA:          42.462
REMARK INTER:                  42.967
REMARK INTRA:                  -0.505
REMARK UNBOUND:                -0.505
REMARK SMILES C=C(C)[C@H]1CC[C@]2(C(=O)[O-])CC[C@@]3(C)[C@H](CC[C@H]4[C@@]5(C)CC[C@@H](O)C(C)(C)[C@@H]5CC[C@]43C)[C@H]12
REMARK SMILES IDX 7 1 6 2 33 3 11 4 5 5 15 6 4 7 12 8 16 9 13 10 17 11 31 12
REMARK SMILES IDX 14 13 18 14 30 15 32 16 19 17 29 18 21 19 20 20 28 21 22 22
REMARK SMILES IDX 25 23 23 24 26 25 27 26 8 27 9 28 10 29 2 30 3 31 1 32 24 33
REMARK H PARENT 24 34
REMARK Flexibility Score: inf
ROOT
ATOM      1  C   UNL     1       9.684   0.450 -17.624  1.00  0.00     0.014 C 
ATOM      2  C   UNL     1       9.212   1.313 -18.820  1.00  0.00     0.014 C 
ATOM      3  C   UNL     1       9.148   1.204 -16.361  1.00  0.00     0.012 C 
ATOM      4  C   UNL     1       9.119  -0.998 -17.746  1.00  0.00     0.014 C 
ATOM      5  C   UNL     1       9.035   2.724 -18.282  1.00  0.00     0.009 C 
ATOM      6  C   UNL     1       8.225   0.342 -15.428  1.00  0.00     0.000 C 
ATOM      7  C   UNL     1       8.515   2.530 -16.861  1.00  0.00     0.018 C 
ATOM      8  C   UNL     1       9.113  -1.829 -16.436  1.00  0.00     0.008 C 
ATOM      9  C   UNL     1       6.776   0.185 -15.980  1.00  0.00     0.005 C 
ATOM     10  C   UNL     1       8.886  -1.038 -15.081  1.00  0.00    -0.024 C 
ATOM     11  C   UNL     1       6.084  -1.145 -15.649  1.00  0.00     0.005 C 
ATOM     12  C   UNL     1       7.975  -1.828 -13.977  1.00  0.00    -0.024 C 
ATOM     13  C   UNL     1      10.314  -0.790 -14.481  1.00  0.00     0.012 C 
ATOM     14  C   UNL     1       6.397  -1.619 -14.211  1.00  0.00     0.002 C 
ATOM     15  C   UNL     1       8.398  -3.342 -13.937  1.00  0.00     0.008 C 
ATOM     16  C   UNL     1       8.272  -1.262 -12.544  1.00  0.00     0.012 C 
ATOM     17  C   UNL     1       5.404  -2.751 -13.614  1.00  0.00    -0.026 C 
ATOM     18  C   UNL     1       7.444  -4.255 -13.185  1.00  0.00     0.005 C 
ATOM     19  C   UNL     1       4.021  -2.752 -14.351  1.00  0.00     0.010 C 
ATOM     20  C   UNL     1       5.118  -2.415 -12.101  1.00  0.00     0.012 C 
ATOM     21  C   UNL     1       6.037  -4.177 -13.815  1.00  0.00     0.003 C 
ATOM     22  C   UNL     1       3.083  -3.906 -13.959  1.00  0.00     0.033 C 
ATOM     23  C   UNL     1       5.111  -5.420 -13.475  1.00  0.00    -0.006 C 
ATOM     24  C   UNL     1       3.737  -5.273 -14.204  1.00  0.00     0.120 C 
ATOM     25  C   UNL     1       5.768  -6.735 -13.989  1.00  0.00     0.014 C 
ATOM     26  C   UNL     1       4.882  -5.614 -11.952  1.00  0.00     0.014 C 
ENDROOT
BRANCH   1  27
ATOM     27  C   UNL     1      11.213   0.422 -17.639  1.00  0.00     0.048 C 
ATOM     28  O   UNL     1      11.870   1.448 -17.318  1.00  0.00    -0.550 OA
ATOM     29  O   UNL     1      11.910  -0.720 -18.021  1.00  0.00    -0.550 OA
ENDBRANCH   1  27
BRANCH   7  30
ATOM     30  C   UNL     1       8.793   3.719 -15.947  1.00  0.00    -0.077 C 
ATOM     31  C   UNL     1       8.127   3.859 -14.599  1.00  0.00     0.039 C 
ATOM     32  C   UNL     1       9.611   4.701 -16.357  1.00  0.00     0.008 C 
ENDBRANCH   7  30
BRANCH  24  33
ATOM     33  O   UNL     1       3.900  -5.463 -15.590  1.00  0.00    -0.393 OA
ATOM     34  H   UNL     1       3.235  -6.143 -15.873  1.00  0.00     0.210 HD
ENDBRANCH  24  33
TORSDOF 3
ENDMDL
MODEL 2
REMARK VINA RESULT:    37.711      3.245      6.354
REMARK INTER + INTRA:          42.718
REMARK INTER:                  43.060
REMARK INTRA:                  -0.343
REMARK UNBOUND:                -0.505
REMARK SMILES C=C(C)[C@H]1CC[C@]2(C(=O)[O-])CC[C@@]3(C)[C@H](CC[C@H]4[C@@]5(C)CC[C@@H](O)C(C)(C)[C@@H]5CC[C@]43C)[C@H]12
REMARK SMILES IDX 7 1 6 2 33 3 11 4 5 5 15 6 4 7 12 8 16 9 13 10 17 11 31 12
REMARK SMILES IDX 14 13 18 14 30 15 32 16 19 17 29 18 21 19 20 20 28 21 22 22
REMARK SMILES IDX 25 23 23 24 26 25 27 26 8 27 9 28 10 29 2 30 3 31 1 32 24 33
REMARK H PARENT 24 34
REMARK Flexibility Score: inf
ROOT
ATOM      1  C   UNL     1       7.462  -2.160 -13.591  1.00  0.00     0.014 C 
ATOM      2  C   UNL     1       8.784  -1.655 -12.962  1.00  0.00     0.014 C 
ATOM      3  C   UNL     1       7.836  -3.536 -14.236  1.00  0.00     0.012 C 
ATOM      4  C   UNL     1       6.357  -2.286 -12.499  1.00  0.00     0.014 C 
ATOM      5  C   UNL     1       9.907  -2.320 -13.742  1.00  0.00     0.009 C 
ATOM      6  C   UNL     1       6.979  -4.750 -13.728  1.00  0.00     0.000 C 
ATOM      7  C   UNL     1       9.370  -3.708 -14.078  1.00  0.00     0.018 C 
ATOM      8  C   UNL     1       5.151  -3.191 -12.865  1.00  0.00     0.008 C 
ATOM      9  C   UNL     1       7.420  -5.261 -12.323  1.00  0.00     0.005 C 
ATOM     10  C   UNL     1       5.443  -4.439 -13.798  1.00  0.00    -0.024 C 
ATOM     11  C   UNL     1       6.294  -5.824 -11.443  1.00  0.00     0.005 C 
ATOM     12  C   UNL     1       4.587  -5.782 -13.424  1.00  0.00    -0.024 C 
ATOM     13  C   UNL     1       5.073  -3.987 -15.253  1.00  0.00     0.012 C 
ATOM     14  C   UNL     1       5.278  -6.654 -12.261  1.00  0.00     0.002 C 
ATOM     15  C   UNL     1       3.102  -5.381 -13.096  1.00  0.00     0.008 C 
ATOM     16  C   UNL     1       4.510  -6.725 -14.675  1.00  0.00     0.012 C 
ATOM     17  C   UNL     1       4.317  -7.632 -11.400  1.00  0.00    -0.026 C 
ATOM     18  C   UNL     1       2.273  -6.473 -12.442  1.00  0.00     0.005 C 
ATOM     19  C   UNL     1       4.944  -7.977 -10.006  1.00  0.00     0.010 C 
ATOM     20  C   UNL     1       4.160  -8.991 -12.182  1.00  0.00     0.012 C 
ATOM     21  C   UNL     1       2.940  -6.922 -11.124  1.00  0.00     0.003 C 
ATOM     22  C   UNL     1       4.021  -8.764  -9.060  1.00  0.00     0.033 C 
ATOM     23  C   UNL     1       1.952  -7.653 -10.121  1.00  0.00    -0.006 C 
ATOM     24  C   UNL     1       2.707  -8.013  -8.802  1.00  0.00     0.120 C 
ATOM     25  C   UNL     1       0.779  -6.704  -9.737  1.00  0.00     0.014 C 
ATOM     26  C   UNL     1       1.301  -8.928 -10.722  1.00  0.00     0.014 C 
ENDROOT
BRANCH   1  27
ATOM     27  C   UNL     1       7.035  -1.151 -14.658  1.00  0.00     0.048 C 
ATOM     28  O   UNL     1       5.866  -0.681 -14.657  1.00  0.00    -0.550 OA
ATOM     29  O   UNL     1       7.913  -0.743 -15.658  1.00  0.00    -0.550 OA
ENDBRANCH   1  27
BRANCH   7  30
ATOM     30  C   UNL     1      10.040  -4.337 -15.296  1.00  0.00    -0.077 C 
ATOM     31  C   UNL     1      10.397  -3.523 -16.517  1.00  0.00     0.039 C 
ATOM     32  C   UNL     1      10.281  -5.658 -15.319  1.00  0.00     0.008 C 
ENDBRANCH   7  30
BRANCH  24  33
ATOM     33  O   UNL     1       2.983  -6.845  -8.066  1.00  0.00    -0.393 OA
ATOM     34  H   UNL     1       2.135  -6.331  -8.004  1.00  0.00     0.210 HD
ENDBRANCH  24  33
TORSDOF 3
ENDMDL
MODEL 3
REMARK VINA RESULT:    39.236      0.314      0.562
REMARK INTER + INTRA:          44.465
REMARK INTER:                  45.177
REMARK INTRA:                  -0.712
REMARK UNBOUND:                -0.505
REMARK SMILES C=C(C)[C@H]1CC[C@]2(C(=O)[O-])CC[C@@]3(C)[C@H](CC[C@H]4[C@@]5(C)CC[C@@H](O)C(C)(C)[C@@H]5CC[C@]43C)[C@H]12
REMARK SMILES IDX 7 1 6 2 33 3 11 4 5 5 15 6 4 7 12 8 16 9 13 10 17 11 31 12
REMARK SMILES IDX 14 13 18 14 30 15 32 16 19 17 29 18 21 19 20 20 28 21 22 22
REMARK SMILES IDX 25 23 23 24 26 25 27 26 8 27 9 28 10 29 2 30 3 31 1 32 24 33
REMARK H PARENT 24 34
REMARK Flexibility Score: inf
ROOT
ATOM      1  C   UNL     1       9.799   0.436 -17.553  1.00  0.00     0.014 C 
ATOM      2  C   UNL     1       9.359   1.292 -18.766  1.00  0.00     0.014 C 
ATOM      3  C   UNL     1       9.215   1.187 -16.311  1.00  0.00     0.012 C 
ATOM      4  C   UNL     1       9.252  -1.017 -17.691  1.00  0.00     0.014 C 
ATOM      5  C   UNL     1       9.151   2.702 -18.237  1.00  0.00     0.009 C 
ATOM      6  C   UNL     1       8.270   0.319 -15.406  1.00  0.00     0.000 C 
ATOM      7  C   UNL     1       8.586   2.506 -16.834  1.00  0.00     0.018 C 
ATOM      8  C   UNL     1       9.211  -1.846 -16.380  1.00  0.00     0.008 C 
ATOM      9  C   UNL     1       6.841   0.147 -16.005  1.00  0.00     0.005 C 
ATOM     10  C   UNL     1       8.932  -1.054 -15.034  1.00  0.00    -0.024 C 
ATOM     11  C   UNL     1       6.151  -1.189 -15.693  1.00  0.00     0.005 C 
ATOM     12  C   UNL     1       7.993  -1.851 -13.959  1.00  0.00    -0.024 C 
ATOM     13  C   UNL     1      10.338  -0.792 -14.389  1.00  0.00     0.012 C 
ATOM     14  C   UNL     1       6.421  -1.657 -14.245  1.00  0.00     0.002 C 
ATOM     15  C   UNL     1       8.429  -3.361 -13.902  1.00  0.00     0.008 C 
ATOM     16  C   UNL     1       8.238  -1.279 -12.518  1.00  0.00     0.012 C 
ATOM     17  C   UNL     1       5.420  -2.797 -13.678  1.00  0.00    -0.026 C 
ATOM     18  C   UNL     1       7.459  -4.281 -13.179  1.00  0.00     0.005 C 
ATOM     19  C   UNL     1       4.062  -2.813 -14.460  1.00  0.00     0.010 C 
ATOM     20  C   UNL     1       5.082  -2.461 -12.176  1.00  0.00     0.012 C 
ATOM     21  C   UNL     1       6.073  -4.218 -13.856  1.00  0.00     0.003 C 
ATOM     22  C   UNL     1       3.122  -3.975 -14.096  1.00  0.00     0.033 C 
ATOM     23  C   UNL     1       5.147  -5.468 -13.543  1.00  0.00    -0.006 C 
ATOM     24  C   UNL     1       3.797  -5.335 -14.316  1.00  0.00     0.120 C 
ATOM     25  C   UNL     1       5.833  -6.778 -14.032  1.00  0.00     0.014 C 
ATOM     26  C   UNL     1       4.871  -5.662 -12.027  1.00  0.00     0.014 C 
ENDROOT
BRANCH   1  27
ATOM     27  C   UNL     1      11.328   0.423 -17.519  1.00  0.00     0.048 C 
ATOM     28  O   UNL     1      11.954   1.240 -16.793  1.00  0.00    -0.550 OA
ATOM     29  O   UNL     1      12.059  -0.473 -18.294  1.00  0.00    -0.550 OA
ENDBRANCH   1  27
BRANCH   7  30
ATOM     30  C   UNL     1       8.823   3.700 -15.914  1.00  0.00    -0.077 C 
ATOM     31  C   UNL     1      10.213   4.125 -15.504  1.00  0.00     0.039 C 
ATOM     32  C   UNL     1       7.778   4.372 -15.406  1.00  0.00     0.008 C 
ENDBRANCH   7  30
BRANCH  24  33
ATOM     33  O   UNL     1       4.007  -5.526 -15.695  1.00  0.00    -0.393 OA
ATOM     34  H   UNL     1       3.272  -5.058 -16.172  1.00  0.00     0.210 HD
ENDBRANCH  24  33
TORSDOF 3
ENDMDL
MODEL 4
REMARK VINA RESULT:    40.165      1.605      8.271
REMARK INTER + INTRA:          45.531
REMARK INTER:                  46.118
REMARK INTRA:                  -0.587
REMARK UNBOUND:                -0.505
REMARK SMILES C=C(C)[C@H]1CC[C@]2(C(=O)[O-])CC[C@@]3(C)[C@H](CC[C@H]4[C@@]5(C)CC[C@@H](O)C(C)(C)[C@@H]5CC[C@]43C)[C@H]12
REMARK SMILES IDX 7 1 6 2 33 3 11 4 5 5 15 6 4 7 12 8 16 9 13 10 17 11 31 12
REMARK SMILES IDX 14 13 18 14 30 15 32 16 19 17 29 18 21 19 20 20 28 21 22 22
REMARK SMILES IDX 25 23 23 24 26 25 27 26 8 27 9 28 10 29 2 30 3 31 1 32 24 33
REMARK H PARENT 24 34
REMARK Flexibility Score: inf
ROOT
ATOM      1  C   UNL     1       4.143  -5.641 -13.924  1.00  0.00     0.014 C 
ATOM      2  C   UNL     1       4.197  -7.126 -14.360  1.00  0.00     0.014 C 
ATOM      3  C   UNL     1       5.306  -5.494 -12.887  1.00  0.00     0.012 C 
ATOM      4  C   UNL     1       4.317  -4.708 -15.161  1.00  0.00     0.014 C 
ATOM      5  C   UNL     1       4.851  -7.881 -13.214  1.00  0.00     0.009 C 
ATOM      6  C   UNL     1       6.365  -4.391 -13.244  1.00  0.00     0.000 C 
ATOM      7  C   UNL     1       5.893  -6.913 -12.662  1.00  0.00     0.018 C 
ATOM      8  C   UNL     1       4.738  -3.248 -14.847  1.00  0.00     0.008 C 
ATOM      9  C   UNL     1       7.370  -4.844 -14.345  1.00  0.00     0.005 C 
ATOM     10  C   UNL     1       5.676  -3.024 -13.588  1.00  0.00    -0.024 C 
ATOM     11  C   UNL     1       7.876  -3.732 -15.275  1.00  0.00     0.005 C 
ATOM     12  C   UNL     1       6.812  -1.864 -13.786  1.00  0.00    -0.024 C 
ATOM     13  C   UNL     1       4.727  -2.612 -12.410  1.00  0.00     0.012 C 
ATOM     14  C   UNL     1       8.139  -2.413 -14.513  1.00  0.00     0.002 C 
ATOM     15  C   UNL     1       6.175  -0.626 -14.517  1.00  0.00     0.008 C 
ATOM     16  C   UNL     1       7.281  -1.339 -12.384  1.00  0.00     0.012 C 
ATOM     17  C   UNL     1       9.062  -1.329 -15.285  1.00  0.00    -0.026 C 
ATOM     18  C   UNL     1       7.172   0.396 -15.036  1.00  0.00     0.005 C 
ATOM     19  C   UNL     1       9.958  -2.008 -16.377  1.00  0.00     0.010 C 
ATOM     20  C   UNL     1      10.035  -0.668 -14.238  1.00  0.00     0.012 C 
ATOM     21  C   UNL     1       8.151  -0.279 -16.022  1.00  0.00     0.003 C 
ATOM     22  C   UNL     1      10.740  -1.029 -17.270  1.00  0.00     0.033 C 
ATOM     23  C   UNL     1       8.883   0.737 -16.997  1.00  0.00    -0.006 C 
ATOM     24  C   UNL     1       9.802  -0.048 -17.987  1.00  0.00     0.120 C 
ATOM     25  C   UNL     1       7.835   1.508 -17.852  1.00  0.00     0.014 C 
ATOM     26  C   UNL     1       9.711   1.815 -16.248  1.00  0.00     0.014 C 
ENDROOT
BRANCH   1  27
ATOM     27  C   UNL     1       2.785  -5.395 -13.265  1.00  0.00     0.048 C 
ATOM     28  O   UNL     1       1.893  -4.744 -13.872  1.00  0.00    -0.550 OA
ATOM     29  O   UNL     1       2.509  -5.864 -11.984  1.00  0.00    -0.550 OA
ENDBRANCH   1  27
BRANCH   7  30
ATOM     30  C   UNL     1       6.268  -7.192 -11.209  1.00  0.00    -0.077 C 
ATOM     31  C   UNL     1       5.224  -7.499 -10.163  1.00  0.00     0.039 C 
ATOM     32  C   UNL     1       7.552  -7.118 -10.824  1.00  0.00     0.008 C 
ENDBRANCH   7  30
BRANCH  24  33
ATOM     33  O   UNL     1       9.018  -0.758 -18.917  1.00  0.00    -0.393 OA
ATOM     34  H   UNL     1       9.640  -1.148 -19.586  1.00  0.00     0.210 HD
ENDBRANCH  24  33
TORSDOF 3
ENDMDL
