MODEL 1
REMARK VINA RESULT:    -4.292      0.000      0.000
REMARK INTER + INTRA:          -5.642
REMARK INTER:                  -5.547
REMARK INTRA:                  -0.095
REMARK UNBOUND:                -0.095
REMARK SMILES CCCCCCC(C)=O
REMARK SMILES IDX 4 1 3 2 2 3 1 4 5 5 6 6 7 7 9 8 8 9
REMARK H PARENT
REMARK Flexibility Score: inf
ROOT
ATOM      1  C   UNL     1      25.475  56.663  -9.110  1.00  0.00     0.000 C 
ENDROOT
BRANCH   1   2
ATOM      2  C   UNL     1      24.007  56.234  -9.254  1.00  0.00    -0.000 C 
BRANCH   2   3
ATOM      3  C   UNL     1      23.733  54.854  -8.637  1.00  0.00    -0.003 C 
ATOM      4  C   UNL     1      22.469  54.829  -7.778  1.00  0.00     0.004 C 
ENDBRANCH   2   3
ENDBRANCH   1   2
BRANCH   1   5
ATOM      5  C   UNL     1      25.655  58.139  -9.498  1.00  0.00     0.008 C 
BRANCH   5   6
ATOM      6  C   UNL     1      26.711  58.326 -10.597  1.00  0.00     0.075 C 
BRANCH   6   7
ATOM      7  C   UNL     1      27.559  59.548 -10.362  1.00  0.00     0.129 C 
ATOM      8  O   UNL     1      27.196  60.389  -9.553  1.00  0.00    -0.300 OA
ATOM      9  C   UNL     1      28.860  59.736 -11.082  1.00  0.00     0.087 C 
ENDBRANCH   6   7
ENDBRANCH   5   6
ENDBRANCH   1   5
TORSDOF 5
ENDMDL
MODEL 2
REMARK VINA RESULT:    -4.131      2.123      5.752
REMARK INTER + INTRA:          -5.434
REMARK INTER:                  -5.337
REMARK INTRA:                  -0.096
REMARK UNBOUND:                -0.095
REMARK SMILES CCCCCCC(C)=O
REMARK SMILES IDX 4 1 3 2 2 3 1 4 5 5 6 6 7 7 9 8 8 9
REMARK H PARENT
REMARK Flexibility Score: inf
ROOT
ATOM      1  C   UNL     1      26.283  58.831  -9.789  1.00  0.00     0.000 C 
ENDROOT
BRANCH   1   2
ATOM      2  C   UNL     1      27.468  59.075 -10.735  1.00  0.00    -0.000 C 
BRANCH   2   3
ATOM      3  C   UNL     1      28.356  60.244 -10.280  1.00  0.00    -0.003 C 
ATOM      4  C   UNL     1      29.814  59.834 -10.075  1.00  0.00     0.004 C 
ENDBRANCH   2   3
ENDBRANCH   1   2
BRANCH   1   5
ATOM      5  C   UNL     1      25.911  57.341  -9.749  1.00  0.00     0.008 C 
BRANCH   5   6
ATOM      6  C   UNL     1      24.607  57.088  -8.980  1.00  0.00     0.075 C 
BRANCH   6   7
ATOM      7  C   UNL     1      24.534  55.683  -8.442  1.00  0.00     0.129 C 
ATOM      8  O   UNL     1      25.565  55.082  -8.179  1.00  0.00    -0.300 OA
ATOM      9  C   UNL     1      23.214  55.019  -8.192  1.00  0.00     0.087 C 
ENDBRANCH   6   7
ENDBRANCH   5   6
ENDBRANCH   1   5
TORSDOF 5
ENDMDL
MODEL 3
REMARK VINA RESULT:    -3.592     17.242     19.061
REMARK INTER + INTRA:          -4.737
REMARK INTER:                  -4.240
REMARK INTRA:                  -0.497
REMARK UNBOUND:                -0.095
REMARK SMILES CCCCCCC(C)=O
REMARK SMILES IDX 4 1 3 2 2 3 1 4 5 5 6 6 7 7 9 8 8 9
REMARK H PARENT
REMARK Flexibility Score: inf
ROOT
ATOM      1  C   UNL     1      15.972  42.929   0.557  1.00  0.00     0.000 C 
ENDROOT
BRANCH   1   2
ATOM      2  C   UNL     1      15.701  44.263   1.269  1.00  0.00    -0.000 C 
BRANCH   2   3
ATOM      3  C   UNL     1      15.000  45.284   0.360  1.00  0.00    -0.003 C 
ATOM      4  C   UNL     1      15.678  45.427  -1.003  1.00  0.00     0.004 C 
ENDBRANCH   2   3
ENDBRANCH   1   2
BRANCH   1   5
ATOM      5  C   UNL     1      17.397  42.432   0.847  1.00  0.00     0.008 C 
BRANCH   5   6
ATOM      6  C   UNL     1      18.296  43.542   1.408  1.00  0.00     0.075 C 
BRANCH   6   7
ATOM      7  C   UNL     1      19.420  43.886   0.467  1.00  0.00     0.129 C 
ATOM      8  O   UNL     1      20.418  43.182   0.436  1.00  0.00    -0.300 OA
ATOM      9  C   UNL     1      19.323  45.063  -0.456  1.00  0.00     0.087 C 
ENDBRANCH   6   7
ENDBRANCH   5   6
ENDBRANCH   1   5
TORSDOF 5
ENDMDL
MODEL 4
REMARK VINA RESULT:    -3.586      1.990      3.397
REMARK INTER + INTRA:          -4.728
REMARK INTER:                  -4.513
REMARK INTRA:                  -0.216
REMARK UNBOUND:                -0.095
REMARK SMILES CCCCCCC(C)=O
REMARK SMILES IDX 4 1 3 2 2 3 1 4 5 5 6 6 7 7 9 8 8 9
REMARK H PARENT
REMARK Flexibility Score: inf
ROOT
ATOM      1  C   UNL     1      26.928  60.041  -9.903  1.00  0.00     0.000 C 
ENDROOT
BRANCH   1   2
ATOM      2  C   UNL     1      26.737  58.534 -10.138  1.00  0.00    -0.000 C 
BRANCH   2   3
ATOM      3  C   UNL     1      25.490  57.981  -9.431  1.00  0.00    -0.003 C 
ATOM      4  C   UNL     1      25.460  56.453  -9.391  1.00  0.00     0.004 C 
ENDBRANCH   2   3
ENDBRANCH   1   2
BRANCH   1   5
ATOM      5  C   UNL     1      28.165  60.559 -10.653  1.00  0.00     0.008 C 
BRANCH   5   6
ATOM      6  C   UNL     1      29.036  59.418 -11.196  1.00  0.00     0.075 C 
BRANCH   6   7
ATOM      7  C   UNL     1      30.409  59.413 -10.576  1.00  0.00     0.129 C 
ATOM      8  O   UNL     1      30.534  59.641  -9.382  1.00  0.00    -0.300 OA
ATOM      9  C   UNL     1      31.625  59.103 -11.396  1.00  0.00     0.087 C 
ENDBRANCH   6   7
ENDBRANCH   5   6
ENDBRANCH   1   5
TORSDOF 5
ENDMDL
MODEL 5
REMARK VINA RESULT:    -3.584     17.344     19.381
REMARK INTER + INTRA:          -4.727
REMARK INTER:                  -4.129
REMARK INTRA:                  -0.598
REMARK UNBOUND:                -0.095
REMARK SMILES CCCCCCC(C)=O
REMARK SMILES IDX 4 1 3 2 2 3 1 4 5 5 6 6 7 7 9 8 8 9
REMARK H PARENT
REMARK Flexibility Score: inf
ROOT
ATOM      1  C   UNL     1      18.155  42.474  -0.334  1.00  0.00     0.000 C 
ENDROOT
BRANCH   1   2
ATOM      2  C   UNL     1      18.899  42.788   0.973  1.00  0.00    -0.000 C 
BRANCH   2   3
ATOM      3  C   UNL     1      19.525  44.191   0.973  1.00  0.00    -0.003 C 
ATOM      4  C   UNL     1      19.311  44.934  -0.346  1.00  0.00     0.004 C 
ENDBRANCH   2   3
ENDBRANCH   1   2
BRANCH   1   5
ATOM      5  C   UNL     1      16.680  42.143  -0.059  1.00  0.00     0.008 C 
BRANCH   5   6
ATOM      6  C   UNL     1      15.726  43.134  -0.739  1.00  0.00     0.075 C 
BRANCH   6   7
ATOM      7  C   UNL     1      15.676  44.455  -0.016  1.00  0.00     0.129 C 
ATOM      8  O   UNL     1      15.806  45.494  -0.645  1.00  0.00    -0.300 OA
ATOM      9  C   UNL     1      15.438  44.517   1.463  1.00  0.00     0.087 C 
ENDBRANCH   6   7
ENDBRANCH   5   6
ENDBRANCH   1   5
TORSDOF 5
ENDMDL
MODEL 6
REMARK VINA RESULT:    -3.529      3.777      5.800
REMARK INTER + INTRA:          -4.656
REMARK INTER:                  -4.457
REMARK INTRA:                  -0.199
REMARK UNBOUND:                -0.095
REMARK SMILES CCCCCCC(C)=O
REMARK SMILES IDX 4 1 3 2 2 3 1 4 5 5 6 6 7 7 9 8 8 9
REMARK H PARENT
REMARK Flexibility Score: inf
ROOT
ATOM      1  C   UNL     1      30.034  59.628 -10.683  1.00  0.00     0.000 C 
ENDROOT
BRANCH   1   2
ATOM      2  C   UNL     1      28.627  59.586 -11.298  1.00  0.00    -0.000 C 
BRANCH   2   3
ATOM      3  C   UNL     1      27.517  59.683 -10.239  1.00  0.00    -0.003 C 
ATOM      4  C   UNL     1      26.635  58.436 -10.191  1.00  0.00     0.004 C 
ENDBRANCH   2   3
ENDBRANCH   1   2
BRANCH   1   5
ATOM      5  C   UNL     1      31.057  58.952 -11.609  1.00  0.00     0.008 C 
BRANCH   5   6
ATOM      6  C   UNL     1      30.404  58.378 -12.875  1.00  0.00     0.075 C 
BRANCH   6   7
ATOM      7  C   UNL     1      31.289  57.367 -13.556  1.00  0.00     0.129 C 
ATOM      8  O   UNL     1      30.879  56.230 -13.737  1.00  0.00    -0.300 OA
ATOM      9  C   UNL     1      32.656  57.741 -14.044  1.00  0.00     0.087 C 
ENDBRANCH   6   7
ENDBRANCH   5   6
ENDBRANCH   1   5
TORSDOF 5
ENDMDL
MODEL 7
REMARK VINA RESULT:    -3.514     16.240     17.748
REMARK INTER + INTRA:          -4.636
REMARK INTER:                  -4.431
REMARK INTRA:                  -0.205
REMARK UNBOUND:                -0.095
REMARK SMILES CCCCCCC(C)=O
REMARK SMILES IDX 4 1 3 2 2 3 1 4 5 5 6 6 7 7 9 8 8 9
REMARK H PARENT
REMARK Flexibility Score: inf
ROOT
ATOM      1  C   UNL     1      32.995  46.187   1.778  1.00  0.00     0.000 C 
ENDROOT
BRANCH   1   2
ATOM      2  C   UNL     1      32.909  46.598   3.256  1.00  0.00    -0.000 C 
BRANCH   2   3
ATOM      3  C   UNL     1      32.871  48.122   3.443  1.00  0.00    -0.003 C 
ATOM      4  C   UNL     1      31.588  48.604   4.121  1.00  0.00     0.004 C 
ENDBRANCH   2   3
ENDBRANCH   1   2
BRANCH   1   5
ATOM      5  C   UNL     1      32.100  44.971   1.495  1.00  0.00     0.008 C 
BRANCH   5   6
ATOM      6  C   UNL     1      30.630  45.365   1.296  1.00  0.00     0.075 C 
BRANCH   6   7
ATOM      7  C   UNL     1      30.051  44.769   0.040  1.00  0.00     0.129 C 
ATOM      8  O   UNL     1      30.716  43.983  -0.618  1.00  0.00    -0.300 OA
ATOM      9  C   UNL     1      28.658  45.101  -0.402  1.00  0.00     0.087 C 
ENDBRANCH   6   7
ENDBRANCH   5   6
ENDBRANCH   1   5
TORSDOF 5
ENDMDL
MODEL 8
REMARK VINA RESULT:    -3.484     18.182     18.857
REMARK INTER + INTRA:          -4.598
REMARK INTER:                  -4.273
REMARK INTRA:                  -0.324
REMARK UNBOUND:                -0.095
REMARK SMILES CCCCCCC(C)=O
REMARK SMILES IDX 4 1 3 2 2 3 1 4 5 5 6 6 7 7 9 8 8 9
REMARK H PARENT
REMARK Flexibility Score: inf
ROOT
ATOM      1  C   UNL     1      15.398  42.341 -12.302  1.00  0.00     0.000 C 
ENDROOT
BRANCH   1   2
ATOM      2  C   UNL     1      15.963  40.915 -12.373  1.00  0.00    -0.000 C 
BRANCH   2   3
ATOM      3  C   UNL     1      17.499  40.887 -12.334  1.00  0.00    -0.003 C 
ATOM      4  C   UNL     1      18.055  40.876 -10.910  1.00  0.00     0.004 C 
ENDBRANCH   2   3
ENDBRANCH   1   2
BRANCH   1   5
ATOM      5  C   UNL     1      14.102  42.459 -13.119  1.00  0.00     0.008 C 
BRANCH   5   6
ATOM      6  C   UNL     1      14.369  42.474 -14.631  1.00  0.00     0.075 C 
BRANCH   6   7
ATOM      7  C   UNL     1      15.170  43.679 -15.050  1.00  0.00     0.129 C 
ATOM      8  O   UNL     1      14.769  44.798 -14.769  1.00  0.00    -0.300 OA
ATOM      9  C   UNL     1      16.469  43.527 -15.781  1.00  0.00     0.087 C 
ENDBRANCH   6   7
ENDBRANCH   5   6
ENDBRANCH   1   5
TORSDOF 5
ENDMDL
MODEL 9
REMARK VINA RESULT:    -3.455     16.363     17.460
REMARK INTER + INTRA:          -4.559
REMARK INTER:                  -4.393
REMARK INTRA:                  -0.166
REMARK UNBOUND:                -0.095
REMARK SMILES CCCCCCC(C)=O
REMARK SMILES IDX 4 1 3 2 2 3 1 4 5 5 6 6 7 7 9 8 8 9
REMARK H PARENT
REMARK Flexibility Score: inf
ROOT
ATOM      1  C   UNL     1      32.586  45.477   0.673  1.00  0.00     0.000 C 
ENDROOT
BRANCH   1   2
ATOM      2  C   UNL     1      31.407  44.675   0.101  1.00  0.00    -0.000 C 
BRANCH   2   3
ATOM      3  C   UNL     1      30.062  45.078   0.725  1.00  0.00    -0.003 C 
ATOM      4  C   UNL     1      28.918  45.088  -0.289  1.00  0.00     0.004 C 
ENDBRANCH   2   3
ENDBRANCH   1   2
BRANCH   1   5
ATOM      5  C   UNL     1      32.317  45.881   2.131  1.00  0.00     0.008 C 
BRANCH   5   6
ATOM      6  C   UNL     1      33.449  46.736   2.715  1.00  0.00     0.075 C 
BRANCH   6   7
ATOM      7  C   UNL     1      32.925  47.836   3.600  1.00  0.00     0.129 C 
ATOM      8  O   UNL     1      31.746  47.846   3.919  1.00  0.00    -0.300 OA
ATOM      9  C   UNL     1      33.835  48.906   4.124  1.00  0.00     0.087 C 
ENDBRANCH   6   7
ENDBRANCH   5   6
ENDBRANCH   1   5
TORSDOF 5
ENDMDL
