MODEL 1
REMARK VINA RESULT:    -4.467      0.000      0.000
REMARK INTER + INTRA:          -5.465
REMARK INTER:                  -5.381
REMARK INTRA:                  -0.084
REMARK UNBOUND:                -0.084
REMARK SMILES CC[C@H](C)[C@H]([NH3+])C(=O)[O-]
REMARK SMILES IDX 3 1 4 2 5 3 6 4 7 8 8 9 9 10 2 11 1 12
REMARK H PARENT 6 5 6 6 6 7
REMARK Flexibility Score: inf
ROOT
ATOM      1  C   UNL     1     -28.707 -21.769  19.533  1.00  0.00     0.050 C 
ATOM      2  C   UNL     1     -29.543 -21.431  18.278  1.00  0.00     0.014 C 
ENDROOT
BRANCH   1   3
ATOM      3  C   UNL     1     -27.756 -22.976  19.245  1.00  0.00     0.230 C 
BRANCH   3   4
ATOM      4  N   UNL     1     -28.016 -24.115  20.140  1.00  0.00    -0.350 N 
ATOM      5  H   UNL     1     -27.939 -25.014  19.613  1.00  0.00     0.345 HD
ATOM      6  H   UNL     1     -27.298 -24.148  20.901  1.00  0.00     0.345 HD
ATOM      7  H   UNL     1     -28.965 -24.037  20.574  1.00  0.00     0.345 HD
ENDBRANCH   3   4
BRANCH   3   8
ATOM      8  C   UNL     1     -26.311 -22.564  19.380  1.00  0.00     0.099 C 
ATOM      9  O   UNL     1     -25.980 -21.678  20.212  1.00  0.00    -0.544 OA
ATOM     10  O   UNL     1     -25.336 -23.155  18.584  1.00  0.00    -0.544 OA
ENDBRANCH   3   8
ENDBRANCH   1   3
BRANCH   1  11
ATOM     11  C   UNL     1     -29.634 -22.050  20.745  1.00  0.00     0.006 C 
ATOM     12  C   UNL     1     -30.134 -20.782  21.442  1.00  0.00     0.004 C 
ENDBRANCH   1  11
TORSDOF 4
ENDMDL
MODEL 2
REMARK VINA RESULT:    -4.372      1.883      2.372
REMARK INTER + INTRA:          -5.351
REMARK INTER:                  -5.287
REMARK INTRA:                  -0.064
REMARK UNBOUND:                -0.084
REMARK SMILES CC[C@H](C)[C@H]([NH3+])C(=O)[O-]
REMARK SMILES IDX 3 1 4 2 5 3 6 4 7 8 8 9 9 10 2 11 1 12
REMARK H PARENT 6 5 6 6 6 7
REMARK Flexibility Score: inf
ROOT
ATOM      1  C   UNL     1     -29.282 -21.753  20.361  1.00  0.00     0.050 C 
ATOM      2  C   UNL     1     -29.756 -20.527  21.173  1.00  0.00     0.014 C 
ENDROOT
BRANCH   1   3
ATOM      3  C   UNL     1     -27.834 -21.518  19.819  1.00  0.00     0.230 C 
BRANCH   3   4
ATOM      4  N   UNL     1     -27.825 -20.713  18.587  1.00  0.00    -0.350 N 
ATOM      5  H   UNL     1     -27.251 -19.851  18.723  1.00  0.00     0.345 HD
ATOM      6  H   UNL     1     -27.381 -21.251  17.807  1.00  0.00     0.345 HD
ATOM      7  H   UNL     1     -28.798 -20.452  18.307  1.00  0.00     0.345 HD
ENDBRANCH   3   4
BRANCH   3   8
ATOM      8  C   UNL     1     -27.143 -22.834  19.551  1.00  0.00     0.099 C 
ATOM      9  O   UNL     1     -26.187 -22.893  18.733  1.00  0.00    -0.544 OA
ATOM     10  O   UNL     1     -27.561 -23.989  20.203  1.00  0.00    -0.544 OA
ENDBRANCH   3   8
ENDBRANCH   1   3
BRANCH   1  11
ATOM     11  C   UNL     1     -30.277 -22.063  19.212  1.00  0.00     0.006 C 
ATOM     12  C   UNL     1     -31.653 -22.525  19.700  1.00  0.00     0.004 C 
ENDBRANCH   1  11
TORSDOF 4
ENDMDL
MODEL 3
REMARK VINA RESULT:    -4.354      2.908      4.128
REMARK INTER + INTRA:          -5.330
REMARK INTER:                  -5.247
REMARK INTRA:                  -0.082
REMARK UNBOUND:                -0.084
REMARK SMILES CC[C@H](C)[C@H]([NH3+])C(=O)[O-]
REMARK SMILES IDX 3 1 4 2 5 3 6 4 7 8 8 9 9 10 2 11 1 12
REMARK H PARENT 6 5 6 6 6 7
REMARK Flexibility Score: inf
ROOT
ATOM      1  C   UNL     1     -27.909 -22.347  19.832  1.00  0.00     0.050 C 
ATOM      2  C   UNL     1     -27.726 -23.835  20.205  1.00  0.00     0.014 C 
ENDROOT
BRANCH   1   3
ATOM      3  C   UNL     1     -29.265 -22.136  19.083  1.00  0.00     0.230 C 
BRANCH   3   4
ATOM      4  N   UNL     1     -29.255 -20.928  18.243  1.00  0.00    -0.350 N 
ATOM      5  H   UNL     1     -29.273 -21.191  17.232  1.00  0.00     0.345 HD
ATOM      6  H   UNL     1     -30.113 -20.356  18.422  1.00  0.00     0.345 HD
ATOM      7  H   UNL     1     -28.411 -20.343  18.445  1.00  0.00     0.345 HD
ENDBRANCH   3   4
BRANCH   3   8
ATOM      8  C   UNL     1     -30.409 -22.044  20.064  1.00  0.00     0.099 C 
ATOM      9  O   UNL     1     -30.242 -21.491  21.183  1.00  0.00    -0.544 OA
ATOM     10  O   UNL     1     -31.653 -22.575  19.740  1.00  0.00    -0.544 OA
ENDBRANCH   3   8
ENDBRANCH   1   3
BRANCH   1  11
ATOM     11  C   UNL     1     -26.707 -21.846  18.987  1.00  0.00     0.006 C 
ATOM     12  C   UNL     1     -25.486 -22.767  19.052  1.00  0.00     0.004 C 
ENDBRANCH   1  11
TORSDOF 4
ENDMDL
MODEL 4
REMARK VINA RESULT:    -4.275      1.914      2.374
REMARK INTER + INTRA:          -5.235
REMARK INTER:                  -5.156
REMARK INTRA:                  -0.078
REMARK UNBOUND:                -0.084
REMARK SMILES CC[C@H](C)[C@H]([NH3+])C(=O)[O-]
REMARK SMILES IDX 3 1 4 2 5 3 6 4 7 8 8 9 9 10 2 11 1 12
REMARK H PARENT 6 5 6 6 6 7
REMARK Flexibility Score: inf
ROOT
ATOM      1  C   UNL     1     -29.656 -22.017  20.436  1.00  0.00     0.050 C 
ATOM      2  C   UNL     1     -30.130 -20.929  21.426  1.00  0.00     0.014 C 
ENDROOT
BRANCH   1   3
ATOM      3  C   UNL     1     -28.292 -21.607  19.790  1.00  0.00     0.230 C 
BRANCH   3   4
ATOM      4  N   UNL     1     -28.471 -20.928  18.498  1.00  0.00    -0.350 N 
ATOM      5  H   UNL     1     -28.450 -21.623  17.718  1.00  0.00     0.345 HD
ATOM      6  H   UNL     1     -29.408 -20.462  18.461  1.00  0.00     0.345 HD
ATOM      7  H   UNL     1     -27.728 -20.205  18.352  1.00  0.00     0.345 HD
ENDBRANCH   3   4
BRANCH   3   8
ATOM      8  C   UNL     1     -27.409 -22.815  19.593  1.00  0.00     0.099 C 
ATOM      9  O   UNL     1     -27.679 -23.899  20.175  1.00  0.00    -0.544 OA
ATOM     10  O   UNL     1     -26.290 -22.737  18.772  1.00  0.00    -0.544 OA
ENDBRANCH   3   8
ENDBRANCH   1   3
BRANCH   1  11
ATOM     11  C   UNL     1     -30.741 -22.282  19.359  1.00  0.00     0.006 C 
ATOM     12  C   UNL     1     -32.124 -22.581  19.941  1.00  0.00     0.004 C 
ENDBRANCH   1  11
TORSDOF 4
ENDMDL
MODEL 5
REMARK VINA RESULT:    -3.899      2.167      2.631
REMARK INTER + INTRA:          -4.781
REMARK INTER:                  -4.912
REMARK INTRA:                   0.131
REMARK UNBOUND:                -0.084
REMARK SMILES CC[C@H](C)[C@H]([NH3+])C(=O)[O-]
REMARK SMILES IDX 3 1 4 2 5 3 6 4 7 8 8 9 9 10 2 11 1 12
REMARK H PARENT 6 5 6 6 6 7
REMARK Flexibility Score: inf
ROOT
ATOM      1  C   UNL     1     -29.354 -20.795  20.399  1.00  0.00     0.050 C 
ATOM      2  C   UNL     1     -30.210 -21.941  20.983  1.00  0.00     0.014 C 
ENDROOT
BRANCH   1   3
ATOM      3  C   UNL     1     -28.000 -21.353  19.851  1.00  0.00     0.230 C 
BRANCH   3   4
ATOM      4  N   UNL     1     -27.475 -20.545  18.738  1.00  0.00    -0.350 N 
ATOM      5  H   UNL     1     -27.199 -19.597  19.079  1.00  0.00     0.345 HD
ATOM      6  H   UNL     1     -26.612 -20.988  18.346  1.00  0.00     0.345 HD
ATOM      7  H   UNL     1     -28.186 -20.457  17.976  1.00  0.00     0.345 HD
ENDBRANCH   3   4
BRANCH   3   8
ATOM      8  C   UNL     1     -28.157 -22.782  19.390  1.00  0.00     0.099 C 
ATOM      9  O   UNL     1     -28.724 -23.036  18.295  1.00  0.00    -0.544 OA
ATOM     10  O   UNL     1     -27.681 -23.827  20.175  1.00  0.00    -0.544 OA
ENDBRANCH   3   8
ENDBRANCH   1   3
BRANCH   1  11
ATOM     11  C   UNL     1     -29.126 -19.689  21.463  1.00  0.00     0.006 C 
ATOM     12  C   UNL     1     -30.377 -19.357  22.280  1.00  0.00     0.004 C 
ENDBRANCH   1  11
TORSDOF 4
ENDMDL
MODEL 6
REMARK VINA RESULT:    -3.690      3.175      4.170
REMARK INTER + INTRA:          -4.529
REMARK INTER:                  -4.449
REMARK INTRA:                  -0.081
REMARK UNBOUND:                -0.084
REMARK SMILES CC[C@H](C)[C@H]([NH3+])C(=O)[O-]
REMARK SMILES IDX 3 1 4 2 5 3 6 4 7 8 8 9 9 10 2 11 1 12
REMARK H PARENT 6 5 6 6 6 7
REMARK Flexibility Score: inf
ROOT
ATOM      1  C   UNL     1     -28.988 -22.041  19.566  1.00  0.00     0.050 C 
ATOM      2  C   UNL     1     -29.759 -22.267  18.246  1.00  0.00     0.014 C 
ENDROOT
BRANCH   1   3
ATOM      3  C   UNL     1     -29.436 -20.700  20.235  1.00  0.00     0.230 C 
BRANCH   3   4
ATOM      4  N   UNL     1     -28.292 -19.906  20.708  1.00  0.00    -0.350 N 
ATOM      5  H   UNL     1     -27.544 -20.534  21.079  1.00  0.00     0.345 HD
ATOM      6  H   UNL     1     -27.870 -19.370  19.914  1.00  0.00     0.345 HD
ATOM      7  H   UNL     1     -28.590 -19.231  21.450  1.00  0.00     0.345 HD
ENDBRANCH   3   4
BRANCH   3   8
ATOM      8  C   UNL     1     -30.365 -20.965  21.395  1.00  0.00     0.099 C 
ATOM      9  O   UNL     1     -30.964 -22.069  21.488  1.00  0.00    -0.544 OA
ATOM     10  O   UNL     1     -30.569 -19.989  22.364  1.00  0.00    -0.544 OA
ENDBRANCH   3   8
ENDBRANCH   1   3
BRANCH   1  11
ATOM     11  C   UNL     1     -27.457 -22.069  19.314  1.00  0.00     0.006 C 
ATOM     12  C   UNL     1     -26.771 -23.332  19.841  1.00  0.00     0.004 C 
ENDBRANCH   1  11
TORSDOF 4
ENDMDL
MODEL 7
REMARK VINA RESULT:    -3.619      2.526      3.744
REMARK INTER + INTRA:          -4.443
REMARK INTER:                  -4.435
REMARK INTRA:                  -0.008
REMARK UNBOUND:                -0.084
REMARK SMILES CC[C@H](C)[C@H]([NH3+])C(=O)[O-]
REMARK SMILES IDX 3 1 4 2 5 3 6 4 7 8 8 9 9 10 2 11 1 12
REMARK H PARENT 6 5 6 6 6 7
REMARK Flexibility Score: inf
ROOT
ATOM      1  C   UNL     1     -27.555 -21.533  19.727  1.00  0.00     0.050 C 
ATOM      2  C   UNL     1     -27.798 -20.196  20.463  1.00  0.00     0.014 C 
ENDROOT
BRANCH   1   3
ATOM      3  C   UNL     1     -28.685 -22.557  20.074  1.00  0.00     0.230 C 
BRANCH   3   4
ATOM      4  N   UNL     1     -28.235 -23.950  19.932  1.00  0.00    -0.350 N 
ATOM      5  H   UNL     1     -28.244 -24.232  18.925  1.00  0.00     0.345 HD
ATOM      6  H   UNL     1     -27.247 -24.047  20.264  1.00  0.00     0.345 HD
ATOM      7  H   UNL     1     -28.843 -24.595  20.488  1.00  0.00     0.345 HD
ENDBRANCH   3   4
BRANCH   3   8
ATOM      8  C   UNL     1     -29.894 -22.338  19.197  1.00  0.00     0.099 C 
ATOM      9  O   UNL     1     -29.750 -22.085  17.971  1.00  0.00    -0.544 OA
ATOM     10  O   UNL     1     -31.173 -22.408  19.737  1.00  0.00    -0.544 OA
ENDBRANCH   3   8
ENDBRANCH   1   3
BRANCH   1  11
ATOM     11  C   UNL     1     -26.151 -22.096  20.070  1.00  0.00     0.006 C 
ATOM     12  C   UNL     1     -25.361 -22.563  18.845  1.00  0.00     0.004 C 
ENDBRANCH   1  11
TORSDOF 4
ENDMDL
MODEL 8
REMARK VINA RESULT:    -3.588      3.348      4.092
REMARK INTER + INTRA:          -4.407
REMARK INTER:                  -4.328
REMARK INTRA:                  -0.079
REMARK UNBOUND:                -0.084
REMARK SMILES CC[C@H](C)[C@H]([NH3+])C(=O)[O-]
REMARK SMILES IDX 3 1 4 2 5 3 6 4 7 8 8 9 9 10 2 11 1 12
REMARK H PARENT 6 5 6 6 6 7
REMARK Flexibility Score: inf
ROOT
ATOM      1  C   UNL     1     -28.767 -22.218  20.147  1.00  0.00     0.050 C 
ATOM      2  C   UNL     1     -27.728 -23.310  19.809  1.00  0.00     0.014 C 
ENDROOT
BRANCH   1   3
ATOM      3  C   UNL     1     -29.975 -22.291  19.157  1.00  0.00     0.230 C 
BRANCH   3   4
ATOM      4  N   UNL     1     -30.040 -21.117  18.272  1.00  0.00    -0.350 N 
ATOM      5  H   UNL     1     -30.098 -21.420  17.273  1.00  0.00     0.345 HD
ATOM      6  H   UNL     1     -30.904 -20.562  18.470  1.00  0.00     0.345 HD
ATOM      7  H   UNL     1     -29.204 -20.502  18.409  1.00  0.00     0.345 HD
ENDBRANCH   3   4
BRANCH   3   8
ATOM      8  C   UNL     1     -31.278 -22.412  19.909  1.00  0.00     0.099 C 
ATOM      9  O   UNL     1     -32.302 -22.868  19.335  1.00  0.00    -0.544 OA
ATOM     10  O   UNL     1     -31.357 -22.016  21.240  1.00  0.00    -0.544 OA
ENDBRANCH   3   8
ENDBRANCH   1   3
BRANCH   1  11
ATOM     11  C   UNL     1     -28.105 -20.814  20.137  1.00  0.00     0.006 C 
ATOM     12  C   UNL     1     -28.685 -19.855  21.180  1.00  0.00     0.004 C 
ENDBRANCH   1  11
TORSDOF 4
ENDMDL
MODEL 9
REMARK VINA RESULT:    -3.556      2.053      2.893
REMARK INTER + INTRA:          -4.368
REMARK INTER:                  -4.291
REMARK INTRA:                  -0.076
REMARK UNBOUND:                -0.084
REMARK SMILES CC[C@H](C)[C@H]([NH3+])C(=O)[O-]
REMARK SMILES IDX 3 1 4 2 5 3 6 4 7 8 8 9 9 10 2 11 1 12
REMARK H PARENT 6 5 6 6 6 7
REMARK Flexibility Score: inf
ROOT
ATOM      1  C   UNL     1     -30.558 -21.243  20.792  1.00  0.00     0.050 C 
ATOM      2  C   UNL     1     -31.630 -22.003  21.605  1.00  0.00     0.014 C 
ENDROOT
BRANCH   1   3
ATOM      3  C   UNL     1     -29.848 -22.211  19.790  1.00  0.00     0.230 C 
BRANCH   3   4
ATOM      4  N   UNL     1     -28.889 -23.102  20.462  1.00  0.00    -0.350 N 
ATOM      5  H   UNL     1     -28.961 -22.994  21.499  1.00  0.00     0.345 HD
ATOM      6  H   UNL     1     -29.112 -24.101  20.246  1.00  0.00     0.345 HD
ATOM      7  H   UNL     1     -27.912 -22.898  20.149  1.00  0.00     0.345 HD
ENDBRANCH   3   4
BRANCH   3   8
ATOM      8  C   UNL     1     -29.128 -21.434  18.715  1.00  0.00     0.099 C 
ATOM      9  O   UNL     1     -29.750 -21.038  17.694  1.00  0.00    -0.544 OA
ATOM     10  O   UNL     1     -27.771 -21.155  18.842  1.00  0.00    -0.544 OA
ENDBRANCH   3   8
ENDBRANCH   1   3
BRANCH   1  11
ATOM     11  C   UNL     1     -29.539 -20.558  21.742  1.00  0.00     0.006 C 
ATOM     12  C   UNL     1     -29.824 -19.072  21.978  1.00  0.00     0.004 C 
ENDBRANCH   1  11
TORSDOF 4
ENDMDL
