MODEL 1
REMARK VINA RESULT:    -3.884      0.000      0.000
REMARK INTER + INTRA:          -5.942
REMARK INTER:                  -5.474
REMARK INTRA:                  -0.468
REMARK UNBOUND:                -0.468
REMARK SMILES CCCCCCCCC(=O)[O-]
REMARK SMILES IDX 6 1 7 2 8 3 9 4 10 5 11 6 5 7 4 8 3 9 2 10 1 11
REMARK H PARENT
REMARK Flexibility Score: inf
ROOT
ATOM      1  C   UNL     1       5.795  44.878  10.000  1.00  0.00     0.000 C 
ENDROOT
BRANCH   1   2
ATOM      2  C   UNL     1       6.351  44.732  11.428  1.00  0.00     0.006 C 
BRANCH   2   3
ATOM      3  C   UNL     1       7.213  43.478  11.642  1.00  0.00     0.053 C 
BRANCH   3   4
ATOM      4  C   UNL     1       6.854  42.758  12.906  1.00  0.00     0.041 C 
ATOM      5  O   UNL     1       7.541  41.776  13.291  1.00  0.00    -0.550 OA
ATOM      6  O   UNL     1       5.782  43.191  13.674  1.00  0.00    -0.550 OA
ENDBRANCH   3   4
ENDBRANCH   2   3
ENDBRANCH   1   2
BRANCH   1   7
ATOM      7  C   UNL     1       4.263  44.761   9.943  1.00  0.00     0.000 C 
BRANCH   7   8
ATOM      8  C   UNL     1       3.613  44.763  11.337  1.00  0.00    -0.000 C 
BRANCH   8   9
ATOM      9  C   UNL     1       2.621  43.610  11.594  1.00  0.00    -0.000 C 
BRANCH   9  10
ATOM     10  C   UNL     1       1.984  43.008  10.329  1.00  0.00    -0.003 C 
ATOM     11  C   UNL     1       0.546  42.538  10.552  1.00  0.00     0.004 C 
ENDBRANCH   9  10
ENDBRANCH   8   9
ENDBRANCH   7   8
ENDBRANCH   1   7
TORSDOF 7
ENDMDL
MODEL 2
REMARK VINA RESULT:    -3.845      1.141      1.636
REMARK INTER + INTRA:          -5.886
REMARK INTER:                  -5.436
REMARK INTRA:                  -0.449
REMARK UNBOUND:                -0.468
REMARK SMILES CCCCCCCCC(=O)[O-]
REMARK SMILES IDX 6 1 7 2 8 3 9 4 10 5 11 6 5 7 4 8 3 9 2 10 1 11
REMARK H PARENT
REMARK Flexibility Score: inf
ROOT
ATOM      1  C   UNL     1       5.529  44.953  12.276  1.00  0.00     0.000 C 
ENDROOT
BRANCH   1   2
ATOM      2  C   UNL     1       6.576  45.115  11.159  1.00  0.00     0.006 C 
BRANCH   2   3
ATOM      3  C   UNL     1       7.805  44.206  11.312  1.00  0.00     0.053 C 
BRANCH   3   4
ATOM      4  C   UNL     1       7.422  42.781  11.569  1.00  0.00     0.041 C 
ATOM      5  O   UNL     1       7.577  42.280  12.714  1.00  0.00    -0.550 OA
ATOM      6  O   UNL     1       6.865  42.015  10.553  1.00  0.00    -0.550 OA
ENDBRANCH   3   4
ENDBRANCH   2   3
ENDBRANCH   1   2
BRANCH   1   7
ATOM      7  C   UNL     1       4.093  44.842  11.735  1.00  0.00     0.000 C 
BRANCH   7   8
ATOM      8  C   UNL     1       4.039  44.290  10.300  1.00  0.00    -0.000 C 
BRANCH   8   9
ATOM      9  C   UNL     1       2.985  43.188  10.067  1.00  0.00    -0.000 C 
BRANCH   9  10
ATOM     10  C   UNL     1       1.770  43.241  11.010  1.00  0.00    -0.003 C 
ATOM     11  C   UNL     1       0.559  42.485  10.465  1.00  0.00     0.004 C 
ENDBRANCH   9  10
ENDBRANCH   8   9
ENDBRANCH   7   8
ENDBRANCH   1   7
TORSDOF 7
ENDMDL
MODEL 3
REMARK VINA RESULT:    -3.516      2.584      4.897
REMARK INTER + INTRA:          -5.423
REMARK INTER:                  -5.138
REMARK INTRA:                  -0.284
REMARK UNBOUND:                -0.468
REMARK SMILES CCCCCCCCC(=O)[O-]
REMARK SMILES IDX 6 1 7 2 8 3 9 4 10 5 11 6 5 7 4 8 3 9 2 10 1 11
REMARK H PARENT
REMARK Flexibility Score: inf
ROOT
ATOM      1  C   UNL     1       4.816  44.341  12.033  1.00  0.00     0.000 C 
ENDROOT
BRANCH   1   2
ATOM      2  C   UNL     1       3.831  44.799  10.941  1.00  0.00     0.006 C 
BRANCH   2   3
ATOM      3  C   UNL     1       3.099  43.648  10.233  1.00  0.00     0.053 C 
BRANCH   3   4
ATOM      4  C   UNL     1       1.799  43.314  10.898  1.00  0.00     0.041 C 
ATOM      5  O   UNL     1       0.954  42.590  10.309  1.00  0.00    -0.550 OA
ATOM      6  O   UNL     1       1.534  43.776  12.180  1.00  0.00    -0.550 OA
ENDBRANCH   3   4
ENDBRANCH   2   3
ENDBRANCH   1   2
BRANCH   1   7
ATOM      7  C   UNL     1       6.140  45.125  12.005  1.00  0.00     0.000 C 
BRANCH   7   8
ATOM      8  C   UNL     1       7.186  44.495  11.069  1.00  0.00    -0.000 C 
BRANCH   8   9
ATOM      9  C   UNL     1       6.854  43.067  10.591  1.00  0.00    -0.000 C 
BRANCH   9  10
ATOM     10  C   UNL     1       7.623  41.946  11.312  1.00  0.00    -0.003 C 
ATOM     11  C   UNL     1       7.626  42.106  12.832  1.00  0.00     0.004 C 
ENDBRANCH   9  10
ENDBRANCH   8   9
ENDBRANCH   7   8
ENDBRANCH   1   7
TORSDOF 7
ENDMDL
MODEL 4
REMARK VINA RESULT:    -3.267      1.745      2.467
REMARK INTER + INTRA:          -5.072
REMARK INTER:                  -4.772
REMARK INTRA:                  -0.300
REMARK UNBOUND:                -0.468
REMARK SMILES CCCCCCCCC(=O)[O-]
REMARK SMILES IDX 6 1 7 2 8 3 9 4 10 5 11 6 5 7 4 8 3 9 2 10 1 11
REMARK H PARENT
REMARK Flexibility Score: inf
ROOT
ATOM      1  C   UNL     1       5.489  43.467  13.363  1.00  0.00     0.000 C 
ENDROOT
BRANCH   1   2
ATOM      2  C   UNL     1       6.848  42.749  13.284  1.00  0.00     0.006 C 
BRANCH   2   3
ATOM      3  C   UNL     1       7.670  43.095  12.032  1.00  0.00     0.053 C 
BRANCH   3   4
ATOM      4  C   UNL     1       7.204  42.336  10.827  1.00  0.00     0.041 C 
ATOM      5  O   UNL     1       6.563  42.925   9.917  1.00  0.00    -0.550 OA
ATOM      6  O   UNL     1       7.506  40.988  10.693  1.00  0.00    -0.550 OA
ENDBRANCH   3   4
ENDBRANCH   2   3
ENDBRANCH   1   2
BRANCH   1   7
ATOM      7  C   UNL     1       5.471  44.795  12.586  1.00  0.00     0.000 C 
BRANCH   7   8
ATOM      8  C   UNL     1       4.393  44.828  11.488  1.00  0.00    -0.000 C 
BRANCH   8   9
ATOM      9  C   UNL     1       3.245  43.816  11.674  1.00  0.00    -0.000 C 
BRANCH   9  10
ATOM     10  C   UNL     1       2.398  43.555  10.416  1.00  0.00    -0.003 C 
ATOM     11  C   UNL     1       1.115  42.779  10.711  1.00  0.00     0.004 C 
ENDBRANCH   9  10
ENDBRANCH   8   9
ENDBRANCH   7   8
ENDBRANCH   1   7
TORSDOF 7
ENDMDL
MODEL 5
REMARK VINA RESULT:    -2.600      1.195      1.718
REMARK INTER + INTRA:          -4.132
REMARK INTER:                  -4.208
REMARK INTRA:                   0.076
REMARK UNBOUND:                -0.468
REMARK SMILES CCCCCCCCC(=O)[O-]
REMARK SMILES IDX 6 1 7 2 8 3 9 4 10 5 11 6 5 7 4 8 3 9 2 10 1 11
REMARK H PARENT
REMARK Flexibility Score: inf
ROOT
ATOM      1  C   UNL     1       7.214  44.150  10.841  1.00  0.00     0.000 C 
ENDROOT
BRANCH   1   2
ATOM      2  C   UNL     1       7.436  42.672  11.210  1.00  0.00     0.006 C 
BRANCH   2   3
ATOM      3  C   UNL     1       7.791  42.439  12.687  1.00  0.00     0.053 C 
BRANCH   3   4
ATOM      4  C   UNL     1       6.602  42.601  13.584  1.00  0.00     0.041 C 
ATOM      5  O   UNL     1       6.412  41.797  14.534  1.00  0.00    -0.550 OA
ATOM      6  O   UNL     1       5.721  43.657  13.389  1.00  0.00    -0.550 OA
ENDBRANCH   3   4
ENDBRANCH   2   3
ENDBRANCH   1   2
BRANCH   1   7
ATOM      7  C   UNL     1       5.992  44.358   9.929  1.00  0.00     0.000 C 
BRANCH   7   8
ATOM      8  C   UNL     1       4.822  45.049  10.650  1.00  0.00    -0.000 C 
BRANCH   8   9
ATOM      9  C   UNL     1       3.487  45.041   9.877  1.00  0.00    -0.000 C 
BRANCH   9  10
ATOM     10  C   UNL     1       2.584  43.826  10.152  1.00  0.00    -0.003 C 
ATOM     11  C   UNL     1       2.376  43.563  11.643  1.00  0.00     0.004 C 
ENDBRANCH   9  10
ENDBRANCH   8   9
ENDBRANCH   7   8
ENDBRANCH   1   7
TORSDOF 7
ENDMDL
MODEL 6
REMARK VINA RESULT:    -1.347      1.375      1.777
REMARK INTER + INTRA:          -2.366
REMARK INTER:                  -2.085
REMARK INTRA:                  -0.281
REMARK UNBOUND:                -0.468
REMARK SMILES CCCCCCCCC(=O)[O-]
REMARK SMILES IDX 6 1 7 2 8 3 9 4 10 5 11 6 5 7 4 8 3 9 2 10 1 11
REMARK H PARENT
REMARK Flexibility Score: inf
ROOT
ATOM      1  C   UNL     1       5.144  43.658   9.875  1.00  0.00     0.000 C 
ENDROOT
BRANCH   1   2
ATOM      2  C   UNL     1       6.271  44.626  10.277  1.00  0.00     0.006 C 
BRANCH   2   3
ATOM      3  C   UNL     1       6.722  44.493  11.740  1.00  0.00     0.053 C 
BRANCH   3   4
ATOM      4  C   UNL     1       7.373  43.171  12.010  1.00  0.00     0.041 C 
ATOM      5  O   UNL     1       8.198  42.692  11.189  1.00  0.00    -0.550 OA
ATOM      6  O   UNL     1       7.091  42.483  13.183  1.00  0.00    -0.550 OA
ENDBRANCH   3   4
ENDBRANCH   2   3
ENDBRANCH   1   2
BRANCH   1   7
ATOM      7  C   UNL     1       3.787  44.035  10.495  1.00  0.00     0.000 C 
BRANCH   7   8
ATOM      8  C   UNL     1       2.618  43.224   9.908  1.00  0.00    -0.000 C 
BRANCH   8   9
ATOM      9  C   UNL     1       1.408  43.054  10.849  1.00  0.00    -0.000 C 
BRANCH   9  10
ATOM     10  C   UNL     1       1.552  43.733  12.222  1.00  0.00    -0.003 C 
ATOM     11  C   UNL     1       0.217  43.903  12.947  1.00  0.00     0.004 C 
ENDBRANCH   9  10
ENDBRANCH   8   9
ENDBRANCH   7   8
ENDBRANCH   1   7
TORSDOF 7
ENDMDL
MODEL 7
REMARK VINA RESULT:    -1.242      1.682      2.738
REMARK INTER + INTRA:          -2.218
REMARK INTER:                  -2.098
REMARK INTRA:                  -0.120
REMARK UNBOUND:                -0.468
REMARK SMILES CCCCCCCCC(=O)[O-]
REMARK SMILES IDX 6 1 7 2 8 3 9 4 10 5 11 6 5 7 4 8 3 9 2 10 1 11
REMARK H PARENT
REMARK Flexibility Score: inf
ROOT
ATOM      1  C   UNL     1       4.582  45.125  11.810  1.00  0.00     0.000 C 
ENDROOT
BRANCH   1   2
ATOM      2  C   UNL     1       5.936  44.523  12.227  1.00  0.00     0.006 C 
BRANCH   2   3
ATOM      3  C   UNL     1       5.826  43.347  13.210  1.00  0.00     0.053 C 
BRANCH   3   4
ATOM      4  C   UNL     1       7.066  42.506  13.222  1.00  0.00     0.041 C 
ATOM      5  O   UNL     1       7.246  41.658  14.135  1.00  0.00    -0.550 OA
ATOM      6  O   UNL     1       8.006  42.636  12.209  1.00  0.00    -0.550 OA
ENDBRANCH   3   4
ENDBRANCH   2   3
ENDBRANCH   1   2
BRANCH   1   7
ATOM      7  C   UNL     1       3.481  44.061  11.654  1.00  0.00     0.000 C 
BRANCH   7   8
ATOM      8  C   UNL     1       3.356  43.541  10.211  1.00  0.00    -0.000 C 
BRANCH   8   9
ATOM      9  C   UNL     1       4.098  42.218   9.930  1.00  0.00    -0.000 C 
BRANCH   9  10
ATOM     10  C   UNL     1       5.631  42.331   9.875  1.00  0.00    -0.003 C 
ATOM     11  C   UNL     1       6.333  40.979   9.986  1.00  0.00     0.004 C 
ENDBRANCH   9  10
ENDBRANCH   8   9
ENDBRANCH   7   8
ENDBRANCH   1   7
TORSDOF 7
ENDMDL
