MODEL 1
REMARK VINA RESULT:    11.259      0.000      0.000
REMARK INTER + INTRA:          21.853
REMARK INTER:                  21.791
REMARK INTRA:                   0.062
REMARK UNBOUND:                 0.062
REMARK SMILES CCCCCCCCCCCCCCCCCC(=O)[O-]
REMARK SMILES IDX 10 1 11 2 12 3 13 4 14 5 15 6 16 7 17 8 18 9 19 10 20 11
REMARK SMILES IDX 9 12 8 13 7 14 6 15 5 16 4 17 3 18 2 19 1 20
REMARK H PARENT
REMARK Flexibility Score: inf
ROOT
ATOM      1  C   UNL     1     -18.990  16.368  16.427  1.00  0.00     0.000 C 
ENDROOT
BRANCH   1   2
ATOM      2  C   UNL     1     -19.124  17.792  16.987  1.00  0.00     0.000 C 
BRANCH   2   3
ATOM      3  C   UNL     1     -18.638  17.899  18.442  1.00  0.00     0.000 C 
BRANCH   3   4
ATOM      4  C   UNL     1     -19.042  16.679  19.287  1.00  0.00     0.000 C 
BRANCH   4   5
ATOM      5  C   UNL     1     -18.565  16.784  20.744  1.00  0.00     0.000 C 
BRANCH   5   6
ATOM      6  C   UNL     1     -18.812  18.175  21.353  1.00  0.00     0.000 C 
BRANCH   6   7
ATOM      7  C   UNL     1     -17.506  18.942  21.622  1.00  0.00     0.006 C 
BRANCH   7   8
ATOM      8  C   UNL     1     -17.754  20.369  22.128  1.00  0.00     0.053 C 
BRANCH   8   9
ATOM      9  C   UNL     1     -18.696  21.092  21.216  1.00  0.00     0.041 C 
ATOM     10  O   UNL     1     -19.124  20.528  20.173  1.00  0.00    -0.550 OA
ATOM     11  O   UNL     1     -19.066  22.401  21.493  1.00  0.00    -0.550 OA
ENDBRANCH   8   9
ENDBRANCH   7   8
ENDBRANCH   6   7
ENDBRANCH   5   6
ENDBRANCH   4   5
ENDBRANCH   3   4
ENDBRANCH   2   3
ENDBRANCH   1   2
BRANCH   1  12
ATOM     12  C   UNL     1     -18.733  16.399  14.913  1.00  0.00     0.000 C 
BRANCH  12  13
ATOM     13  C   UNL     1     -17.573  17.331  14.527  1.00  0.00    -0.000 C 
BRANCH  13  14
ATOM     14  C   UNL     1     -17.517  17.612  13.015  1.00  0.00    -0.000 C 
BRANCH  14  15
ATOM     15  C   UNL     1     -18.804  17.165  12.291  1.00  0.00    -0.000 C 
BRANCH  15  16
ATOM     16  C   UNL     1     -18.947  17.758  10.879  1.00  0.00    -0.000 C 
BRANCH  16  17
ATOM     17  C   UNL     1     -17.948  17.156   9.876  1.00  0.00    -0.000 C 
BRANCH  17  18
ATOM     18  C   UNL     1     -17.589  15.694  10.219  1.00  0.00    -0.000 C 
BRANCH  18  19
ATOM     19  C   UNL     1     -16.421  15.136   9.388  1.00  0.00    -0.003 C 
ATOM     20  C   UNL     1     -16.417  13.610   9.310  1.00  0.00     0.004 C 
ENDBRANCH  18  19
ENDBRANCH  17  18
ENDBRANCH  16  17
ENDBRANCH  15  16
ENDBRANCH  14  15
ENDBRANCH  13  14
ENDBRANCH  12  13
ENDBRANCH   1  12
TORSDOF 16
ENDMDL
MODEL 2
REMARK VINA RESULT:    13.106      1.526      2.157
REMARK INTER + INTRA:          25.426
REMARK INTER:                  24.627
REMARK INTRA:                   0.799
REMARK UNBOUND:                 0.062
REMARK SMILES CCCCCCCCCCCCCCCCCC(=O)[O-]
REMARK SMILES IDX 10 1 11 2 12 3 13 4 14 5 15 6 16 7 17 8 18 9 19 10 20 11
REMARK SMILES IDX 9 12 8 13 7 14 6 15 5 16 4 17 3 18 2 19 1 20
REMARK H PARENT
REMARK Flexibility Score: inf
ROOT
ATOM      1  C   UNL     1     -19.112  16.241  16.141  1.00  0.00     0.000 C 
ENDROOT
BRANCH   1   2
ATOM      2  C   UNL     1     -19.123  17.686  16.663  1.00  0.00     0.000 C 
BRANCH   2   3
ATOM      3  C   UNL     1     -18.768  17.774  18.157  1.00  0.00     0.000 C 
BRANCH   3   4
ATOM      4  C   UNL     1     -19.123  16.487  18.921  1.00  0.00     0.000 C 
BRANCH   4   5
ATOM      5  C   UNL     1     -18.700  16.540  20.397  1.00  0.00     0.000 C 
BRANCH   5   6
ATOM      6  C   UNL     1     -19.053  17.877  21.071  1.00  0.00     0.000 C 
BRANCH   6   7
ATOM      7  C   UNL     1     -18.505  19.090  20.300  1.00  0.00     0.006 C 
BRANCH   7   8
ATOM      8  C   UNL     1     -18.836  20.422  20.985  1.00  0.00     0.053 C 
BRANCH   8   9
ATOM      9  C   UNL     1     -18.008  20.595  22.220  1.00  0.00     0.041 C 
ATOM     10  O   UNL     1     -17.896  19.648  23.044  1.00  0.00    -0.550 OA
ATOM     11  O   UNL     1     -17.397  21.814  22.484  1.00  0.00    -0.550 OA
ENDBRANCH   8   9
ENDBRANCH   7   8
ENDBRANCH   6   7
ENDBRANCH   5   6
ENDBRANCH   4   5
ENDBRANCH   3   4
ENDBRANCH   2   3
ENDBRANCH   1   2
BRANCH   1  12
ATOM     12  C   UNL     1     -19.092  16.216  14.605  1.00  0.00     0.000 C 
BRANCH  12  13
ATOM     13  C   UNL     1     -18.684  17.566  13.995  1.00  0.00    -0.000 C 
BRANCH  13  14
ATOM     14  C   UNL     1     -18.902  17.618  12.473  1.00  0.00    -0.000 C 
BRANCH  14  15
ATOM     15  C   UNL     1     -18.726  16.236  11.811  1.00  0.00    -0.000 C 
BRANCH  15  16
ATOM     16  C   UNL     1     -18.262  16.314  10.347  1.00  0.00    -0.000 C 
BRANCH  16  17
ATOM     17  C   UNL     1     -17.836  17.732   9.932  1.00  0.00    -0.000 C 
BRANCH  17  18
ATOM     18  C   UNL     1     -17.182  17.758   8.533  1.00  0.00    -0.000 C 
BRANCH  18  19
ATOM     19  C   UNL     1     -17.681  18.908   7.642  1.00  0.00    -0.003 C 
ATOM     20  C   UNL     1     -18.693  18.456   6.591  1.00  0.00     0.004 C 
ENDBRANCH  18  19
ENDBRANCH  17  18
ENDBRANCH  16  17
ENDBRANCH  15  16
ENDBRANCH  14  15
ENDBRANCH  13  14
ENDBRANCH  12  13
ENDBRANCH   1  12
TORSDOF 16
ENDMDL
