MODEL 1
REMARK VINA RESULT:    -5.911      0.000      0.000
REMARK INTER + INTRA:          -7.154
REMARK INTER:                  -6.948
REMARK INTRA:                  -0.206
REMARK UNBOUND:                -0.206
REMARK SMILES O=c1c(O)c(-c2ccc(O)c(O)c2)oc2cc(O)ccc12
REMARK SMILES IDX 5 1 3 2 2 3 1 4 21 5 15 6 14 7 16 8 17 9 19 10 20 11 6 12
REMARK SMILES IDX 7 13 8 14 9 15 13 16 11 17 10 18 12 20 4 22 18 24
REMARK H PARENT 10 19 12 21 4 23 18 25
REMARK Flexibility Score: inf
ROOT
ATOM      1  C   UNL     1      -3.692  -6.380   1.102  1.00  0.00     0.180 A 
ATOM      2  C   UNL     1      -4.426  -6.925   2.175  1.00  0.00     0.208 A 
ATOM      3  C   UNL     1      -3.762  -7.188   3.384  1.00  0.00     0.235 A 
ATOM      4  O   UNL     1      -4.394  -7.684   4.356  1.00  0.00    -0.285 OA
ATOM      5  C   UNL     1      -2.396  -6.885   3.500  1.00  0.00     0.069 A 
ATOM      6  C   UNL     1      -1.739  -6.319   2.387  1.00  0.00     0.142 A 
ATOM      7  O   UNL     1      -2.401  -6.095   1.258  1.00  0.00    -0.452 OA
ATOM      8  C   UNL     1      -0.380  -5.994   2.467  1.00  0.00     0.094 A 
ATOM      9  C   UNL     1       0.334  -6.230   3.647  1.00  0.00     0.119 A 
ATOM     10  C   UNL     1      -0.316  -6.792   4.755  1.00  0.00     0.047 A 
ATOM     11  C   UNL     1      -1.674  -7.118   4.685  1.00  0.00     0.020 A 
ENDROOT
BRANCH   1  12
ATOM     12  C   UNL     1      -4.316  -6.094  -0.211  1.00  0.00     0.025 A 
ATOM     13  C   UNL     1      -4.004  -6.904  -1.314  1.00  0.00     0.016 A 
ATOM     14  C   UNL     1      -4.596  -6.664  -2.557  1.00  0.00     0.051 A 
ATOM     15  C   UNL     1      -5.519  -5.625  -2.713  1.00  0.00     0.157 A 
ATOM     16  C   UNL     1      -5.259  -5.062  -0.364  1.00  0.00     0.062 A 
ATOM     17  C   UNL     1      -5.856  -4.822  -1.611  1.00  0.00     0.158 A 
BRANCH  15  18
ATOM     18  O   UNL     1      -6.091  -5.409  -3.966  1.00  0.00    -0.504 OA
ATOM     19  H   UNL     1      -6.191  -4.480  -4.359  1.00  0.00     0.293 HD
ENDBRANCH  15  18
BRANCH  17  20
ATOM     20  O   UNL     1      -6.785  -3.792  -1.755  1.00  0.00    -0.504 OA
ATOM     21  H   UNL     1      -7.376  -3.720  -2.574  1.00  0.00     0.293 HD
ENDBRANCH  17  20
ENDBRANCH   1  12
BRANCH   2  22
ATOM     22  O   UNL     1      -5.795  -7.170   2.046  1.00  0.00    -0.502 OA
ATOM     23  H   UNL     1      -6.461  -6.918   2.767  1.00  0.00     0.293 HD
ENDBRANCH   2  22
BRANCH   9  24
ATOM     24  O   UNL     1       1.686  -5.901   3.709  1.00  0.00    -0.508 OA
ATOM     25  H   UNL     1       2.316  -6.105   2.942  1.00  0.00     0.293 HD
ENDBRANCH   9  24
TORSDOF 5
ENDMDL
MODEL 2
REMARK VINA RESULT:    -5.745      1.756      1.911
REMARK INTER + INTRA:          -6.959
REMARK INTER:                  -6.644
REMARK INTRA:                  -0.315
REMARK UNBOUND:                -0.206
REMARK SMILES O=c1c(O)c(-c2ccc(O)c(O)c2)oc2cc(O)ccc12
REMARK SMILES IDX 5 1 3 2 2 3 1 4 21 5 15 6 14 7 16 8 17 9 19 10 20 11 6 12
REMARK SMILES IDX 7 13 8 14 9 15 13 16 11 17 10 18 12 20 4 22 18 24
REMARK H PARENT 10 19 12 21 4 23 18 25
REMARK Flexibility Score: inf
ROOT
ATOM      1  C   UNL     1      -3.320  -7.230   1.339  1.00  0.00     0.180 A 
ATOM      2  C   UNL     1      -3.649  -8.569   1.635  1.00  0.00     0.208 A 
ATOM      3  C   UNL     1      -2.765  -9.324   2.422  1.00  0.00     0.235 A 
ATOM      4  O   UNL     1      -3.032 -10.527   2.692  1.00  0.00    -0.285 OA
ATOM      5  C   UNL     1      -1.592  -8.726   2.909  1.00  0.00     0.069 A 
ATOM      6  C   UNL     1      -1.347  -7.374   2.588  1.00  0.00     0.142 A 
ATOM      7  O   UNL     1      -2.204  -6.697   1.833  1.00  0.00    -0.452 OA
ATOM      8  C   UNL     1      -0.194  -6.740   3.062  1.00  0.00     0.094 A 
ATOM      9  C   UNL     1       0.722  -7.441   3.855  1.00  0.00     0.119 A 
ATOM     10  C   UNL     1       0.482  -8.784   4.175  1.00  0.00     0.047 A 
ATOM     11  C   UNL     1      -0.669  -9.426   3.707  1.00  0.00     0.020 A 
ENDROOT
BRANCH   1  12
ATOM     12  C   UNL     1      -4.190  -6.374   0.500  1.00  0.00     0.025 A 
ATOM     13  C   UNL     1      -3.989  -6.338  -0.890  1.00  0.00     0.016 A 
ATOM     14  C   UNL     1      -4.810  -5.554  -1.703  1.00  0.00     0.051 A 
ATOM     15  C   UNL     1      -5.853  -4.807  -1.146  1.00  0.00     0.157 A 
ATOM     16  C   UNL     1      -5.251  -5.639   1.056  1.00  0.00     0.062 A 
ATOM     17  C   UNL     1      -6.078  -4.853   0.240  1.00  0.00     0.158 A 
BRANCH  15  18
ATOM     18  O   UNL     1      -6.655  -4.032  -1.983  1.00  0.00    -0.504 OA
ATOM     19  H   UNL     1      -7.101  -4.416  -2.807  1.00  0.00     0.293 HD
ENDBRANCH  15  18
BRANCH  17  20
ATOM     20  O   UNL     1      -7.125  -4.122   0.802  1.00  0.00    -0.504 OA
ATOM     21  H   UNL     1      -8.089  -4.423   0.718  1.00  0.00     0.293 HD
ENDBRANCH  17  20
ENDBRANCH   1  12
BRANCH   2  22
ATOM     22  O   UNL     1      -4.847  -9.121   1.177  1.00  0.00    -0.502 OA
ATOM     23  H   UNL     1      -5.686  -9.140   1.744  1.00  0.00     0.293 HD
ENDBRANCH   2  22
BRANCH   9  24
ATOM     24  O   UNL     1       1.865  -6.794   4.319  1.00  0.00    -0.508 OA
ATOM     25  H   UNL     1       2.775  -6.968   3.909  1.00  0.00     0.293 HD
ENDBRANCH   9  24
TORSDOF 5
ENDMDL
MODEL 3
REMARK VINA RESULT:    -5.745      9.020     10.626
REMARK INTER + INTRA:          -6.958
REMARK INTER:                  -6.642
REMARK INTRA:                  -0.317
REMARK UNBOUND:                -0.206
REMARK SMILES O=c1c(O)c(-c2ccc(O)c(O)c2)oc2cc(O)ccc12
REMARK SMILES IDX 5 1 3 2 2 3 1 4 21 5 15 6 14 7 16 8 17 9 19 10 20 11 6 12
REMARK SMILES IDX 7 13 8 14 9 15 13 16 11 17 10 18 12 20 4 22 18 24
REMARK H PARENT 10 19 12 21 4 23 18 25
REMARK Flexibility Score: inf
ROOT
ATOM      1  C   UNL     1       3.908  -5.849  -4.963  1.00  0.00     0.180 A 
ATOM      2  C   UNL     1       4.987  -5.995  -4.068  1.00  0.00     0.208 A 
ATOM      3  C   UNL     1       5.959  -4.983  -4.011  1.00  0.00     0.235 A 
ATOM      4  O   UNL     1       6.940  -5.095  -3.225  1.00  0.00    -0.285 OA
ATOM      5  C   UNL     1       5.823  -3.848  -4.826  1.00  0.00     0.069 A 
ATOM      6  C   UNL     1       4.700  -3.767  -5.677  1.00  0.00     0.142 A 
ATOM      7  O   UNL     1       3.808  -4.750  -5.709  1.00  0.00    -0.452 OA
ATOM      8  C   UNL     1       4.524  -2.648  -6.498  1.00  0.00     0.094 A 
ATOM      9  C   UNL     1       5.458  -1.606  -6.481  1.00  0.00     0.119 A 
ATOM     10  C   UNL     1       6.574  -1.683  -5.637  1.00  0.00     0.047 A 
ATOM     11  C   UNL     1       6.758  -2.797  -4.812  1.00  0.00     0.020 A 
ENDROOT
BRANCH   1  12
ATOM     12  C   UNL     1       2.853  -6.880  -5.096  1.00  0.00     0.025 A 
ATOM     13  C   UNL     1       3.028  -7.931  -6.012  1.00  0.00     0.016 A 
ATOM     14  C   UNL     1       2.055  -8.926  -6.140  1.00  0.00     0.051 A 
ATOM     15  C   UNL     1       0.904  -8.897  -5.347  1.00  0.00     0.157 A 
ATOM     16  C   UNL     1       1.705  -6.864  -4.285  1.00  0.00     0.062 A 
ATOM     17  C   UNL     1       0.729  -7.864  -4.411  1.00  0.00     0.158 A 
BRANCH  15  18
ATOM     18  O   UNL     1      -0.049  -9.903  -5.499  1.00  0.00    -0.504 OA
ATOM     19  H   UNL     1      -1.031  -9.696  -5.644  1.00  0.00     0.293 HD
ENDBRANCH  15  18
BRANCH  17  20
ATOM     20  O   UNL     1      -0.409  -7.836  -3.606  1.00  0.00    -0.504 OA
ATOM     21  H   UNL     1      -1.271  -8.287  -3.888  1.00  0.00     0.293 HD
ENDBRANCH  17  20
ENDBRANCH   1  12
BRANCH   2  22
ATOM     22  O   UNL     1       5.070  -7.112  -3.234  1.00  0.00    -0.502 OA
ATOM     23  H   UNL     1       4.248  -7.603  -2.904  1.00  0.00     0.293 HD
ENDBRANCH   2  22
BRANCH   9  24
ATOM     24  O   UNL     1       5.266  -0.499  -7.305  1.00  0.00    -0.508 OA
ATOM     25  H   UNL     1       4.567  -0.499  -8.038  1.00  0.00     0.293 HD
ENDBRANCH   9  24
TORSDOF 5
ENDMDL
MODEL 4
REMARK VINA RESULT:    -5.579      2.156      2.689
REMARK INTER + INTRA:          -6.764
REMARK INTER:                  -6.574
REMARK INTRA:                  -0.190
REMARK UNBOUND:                -0.206
REMARK SMILES O=c1c(O)c(-c2ccc(O)c(O)c2)oc2cc(O)ccc12
REMARK SMILES IDX 5 1 3 2 2 3 1 4 21 5 15 6 14 7 16 8 17 9 19 10 20 11 6 12
REMARK SMILES IDX 7 13 8 14 9 15 13 16 11 17 10 18 12 20 4 22 18 24
REMARK H PARENT 10 19 12 21 4 23 18 25
REMARK Flexibility Score: inf
ROOT
ATOM      1  C   UNL     1      -2.265  -7.329   2.274  1.00  0.00     0.180 A 
ATOM      2  C   UNL     1      -2.755  -8.588   2.677  1.00  0.00     0.208 A 
ATOM      3  C   UNL     1      -1.945  -9.401   3.487  1.00  0.00     0.235 A 
ATOM      4  O   UNL     1      -2.358 -10.536   3.852  1.00  0.00    -0.285 OA
ATOM      5  C   UNL     1      -0.684  -8.936   3.889  1.00  0.00     0.069 A 
ATOM      6  C   UNL     1      -0.276  -7.654   3.463  1.00  0.00     0.142 A 
ATOM      7  O   UNL     1      -1.068  -6.919   2.690  1.00  0.00    -0.452 OA
ATOM      8  C   UNL     1       0.970  -7.150   3.852  1.00  0.00     0.094 A 
ATOM      9  C   UNL     1       1.818  -7.914   4.662  1.00  0.00     0.119 A 
ATOM     10  C   UNL     1       1.417  -9.188   5.086  1.00  0.00     0.047 A 
ATOM     11  C   UNL     1       0.172  -9.699   4.705  1.00  0.00     0.020 A 
ENDROOT
BRANCH   1  12
ATOM     12  C   UNL     1      -3.049  -6.422   1.405  1.00  0.00     0.025 A 
ATOM     13  C   UNL     1      -3.303  -6.791   0.074  1.00  0.00     0.016 A 
ATOM     14  C   UNL     1      -4.058  -5.961  -0.759  1.00  0.00     0.051 A 
ATOM     15  C   UNL     1      -4.584  -4.760  -0.272  1.00  0.00     0.157 A 
ATOM     16  C   UNL     1      -3.595  -5.225   1.898  1.00  0.00     0.062 A 
ATOM     17  C   UNL     1      -4.355  -4.391   1.064  1.00  0.00     0.158 A 
BRANCH  15  18
ATOM     18  O   UNL     1      -5.331  -3.951  -1.127  1.00  0.00    -0.504 OA
ATOM     19  H   UNL     1      -4.970  -3.633  -2.018  1.00  0.00     0.293 HD
ENDBRANCH  15  18
BRANCH  17  20
ATOM     20  O   UNL     1      -4.888  -3.202   1.561  1.00  0.00    -0.504 OA
ATOM     21  H   UNL     1      -4.753  -2.318   1.084  1.00  0.00     0.293 HD
ENDBRANCH  17  20
ENDBRANCH   1  12
BRANCH   2  22
ATOM     22  O   UNL     1      -4.034  -9.004   2.301  1.00  0.00    -0.502 OA
ATOM     23  H   UNL     1      -4.196  -9.599   1.497  1.00  0.00     0.293 HD
ENDBRANCH   2  22
BRANCH   9  24
ATOM     24  O   UNL     1       3.056  -7.397   5.039  1.00  0.00    -0.508 OA
ATOM     25  H   UNL     1       3.616  -7.837   5.759  1.00  0.00     0.293 HD
ENDBRANCH   9  24
TORSDOF 5
ENDMDL
MODEL 5
REMARK VINA RESULT:    -5.563      2.038      6.813
REMARK INTER + INTRA:          -6.745
REMARK INTER:                  -6.471
REMARK INTRA:                  -0.274
REMARK UNBOUND:                -0.206
REMARK SMILES O=c1c(O)c(-c2ccc(O)c(O)c2)oc2cc(O)ccc12
REMARK SMILES IDX 5 1 3 2 2 3 1 4 21 5 15 6 14 7 16 8 17 9 19 10 20 11 6 12
REMARK SMILES IDX 7 13 8 14 9 15 13 16 11 17 10 18 12 20 4 22 18 24
REMARK H PARENT 10 19 12 21 4 23 18 25
REMARK Flexibility Score: inf
ROOT
ATOM      1  C   UNL     1      -2.208  -6.884   3.613  1.00  0.00     0.180 A 
ATOM      2  C   UNL     1      -3.222  -6.691   4.574  1.00  0.00     0.208 A 
ATOM      3  C   UNL     1      -4.377  -5.983   4.205  1.00  0.00     0.235 A 
ATOM      4  O   UNL     1      -5.293  -5.788   5.050  1.00  0.00    -0.285 OA
ATOM      5  C   UNL     1      -4.503  -5.505   2.892  1.00  0.00     0.069 A 
ATOM      6  C   UNL     1      -3.454  -5.761   1.983  1.00  0.00     0.142 A 
ATOM      7  O   UNL     1      -2.374  -6.427   2.374  1.00  0.00    -0.452 OA
ATOM      8  C   UNL     1      -3.547  -5.310   0.662  1.00  0.00     0.094 A 
ATOM      9  C   UNL     1      -4.676  -4.602   0.235  1.00  0.00     0.119 A 
ATOM     10  C   UNL     1      -5.720  -4.345   1.136  1.00  0.00     0.047 A 
ATOM     11  C   UNL     1      -5.637  -4.794   2.457  1.00  0.00     0.020 A 
ENDROOT
BRANCH   1  12
ATOM     12  C   UNL     1      -0.952  -7.602   3.930  1.00  0.00     0.025 A 
ATOM     13  C   UNL     1      -0.949  -9.006   3.955  1.00  0.00     0.016 A 
ATOM     14  C   UNL     1       0.229  -9.706   4.232  1.00  0.00     0.051 A 
ATOM     15  C   UNL     1       1.422  -9.016   4.471  1.00  0.00     0.157 A 
ATOM     16  C   UNL     1       0.252  -6.912   4.150  1.00  0.00     0.062 A 
ATOM     17  C   UNL     1       1.436  -7.613   4.426  1.00  0.00     0.158 A 
BRANCH  15  18
ATOM     18  O   UNL     1       2.580  -9.742   4.746  1.00  0.00    -0.504 OA
ATOM     19  H   UNL     1       3.242  -9.995   4.022  1.00  0.00     0.293 HD
ENDBRANCH  15  18
BRANCH  17  20
ATOM     20  O   UNL     1       2.624  -6.918   4.649  1.00  0.00    -0.504 OA
ATOM     21  H   UNL     1       3.407  -7.344   5.130  1.00  0.00     0.293 HD
ENDBRANCH  17  20
ENDBRANCH   1  12
BRANCH   2  22
ATOM     22  O   UNL     1      -3.089  -7.220   5.860  1.00  0.00    -0.502 OA
ATOM     23  H   UNL     1      -3.792  -7.822   6.272  1.00  0.00     0.293 HD
ENDBRANCH   2  22
BRANCH   9  24
ATOM     24  O   UNL     1      -4.752  -4.160  -1.084  1.00  0.00    -0.508 OA
ATOM     25  H   UNL     1      -4.722  -3.173  -1.314  1.00  0.00     0.293 HD
ENDBRANCH   9  24
TORSDOF 5
ENDMDL
MODEL 6
REMARK VINA RESULT:    -5.468      2.455      3.505
REMARK INTER + INTRA:          -6.632
REMARK INTER:                  -6.370
REMARK INTRA:                  -0.262
REMARK UNBOUND:                -0.206
REMARK SMILES O=c1c(O)c(-c2ccc(O)c(O)c2)oc2cc(O)ccc12
REMARK SMILES IDX 5 1 3 2 2 3 1 4 21 5 15 6 14 7 16 8 17 9 19 10 20 11 6 12
REMARK SMILES IDX 7 13 8 14 9 15 13 16 11 17 10 18 12 20 4 22 18 24
REMARK H PARENT 10 19 12 21 4 23 18 25
REMARK Flexibility Score: inf
ROOT
ATOM      1  C   UNL     1      -2.627  -7.118   3.143  1.00  0.00     0.180 A 
ATOM      2  C   UNL     1      -2.928  -8.495   3.179  1.00  0.00     0.208 A 
ATOM      3  C   UNL     1      -1.920  -9.398   3.555  1.00  0.00     0.235 A 
ATOM      4  O   UNL     1      -2.162 -10.636   3.585  1.00  0.00    -0.285 OA
ATOM      5  C   UNL     1      -0.651  -8.909   3.902  1.00  0.00     0.069 A 
ATOM      6  C   UNL     1      -0.437  -7.515   3.863  1.00  0.00     0.142 A 
ATOM      7  O   UNL     1      -1.415  -6.695   3.494  1.00  0.00    -0.452 OA
ATOM      8  C   UNL     1       0.811  -6.988   4.212  1.00  0.00     0.094 A 
ATOM      9  C   UNL     1       1.853  -7.839   4.598  1.00  0.00     0.119 A 
ATOM     10  C   UNL     1       1.645  -9.224   4.636  1.00  0.00     0.047 A 
ATOM     11  C   UNL     1       0.400  -9.760   4.292  1.00  0.00     0.020 A 
ENDROOT
BRANCH   1  12
ATOM     12  C   UNL     1      -3.630  -6.106   2.739  1.00  0.00     0.025 A 
ATOM     13  C   UNL     1      -4.626  -5.719   3.651  1.00  0.00     0.016 A 
ATOM     14  C   UNL     1      -5.570  -4.751   3.299  1.00  0.00     0.051 A 
ATOM     15  C   UNL     1      -5.524  -4.144   2.040  1.00  0.00     0.157 A 
ATOM     16  C   UNL     1      -3.574  -5.479   1.482  1.00  0.00     0.062 A 
ATOM     17  C   UNL     1      -4.520  -4.506   1.128  1.00  0.00     0.158 A 
BRANCH  15  18
ATOM     18  O   UNL     1      -6.481  -3.183   1.716  1.00  0.00    -0.504 OA
ATOM     19  H   UNL     1      -6.639  -2.880   0.762  1.00  0.00     0.293 HD
ENDBRANCH  15  18
BRANCH  17  20
ATOM     20  O   UNL     1      -4.459  -3.895  -0.125  1.00  0.00    -0.504 OA
ATOM     21  H   UNL     1      -3.762  -3.193  -0.341  1.00  0.00     0.293 HD
ENDBRANCH  17  20
ENDBRANCH   1  12
BRANCH   2  22
ATOM     22  O   UNL     1      -4.215  -8.948   2.876  1.00  0.00    -0.502 OA
ATOM     23  H   UNL     1      -4.417  -9.483   2.040  1.00  0.00     0.293 HD
ENDBRANCH   2  22
BRANCH   9  24
ATOM     24  O   UNL     1       3.090  -7.297   4.941  1.00  0.00    -0.508 OA
ATOM     25  H   UNL     1       3.357  -7.160   5.909  1.00  0.00     0.293 HD
ENDBRANCH   9  24
TORSDOF 5
ENDMDL
MODEL 7
REMARK VINA RESULT:    -5.463     11.796     13.350
REMARK INTER + INTRA:          -6.627
REMARK INTER:                  -6.374
REMARK INTRA:                  -0.253
REMARK UNBOUND:                -0.206
REMARK SMILES O=c1c(O)c(-c2ccc(O)c(O)c2)oc2cc(O)ccc12
REMARK SMILES IDX 5 1 3 2 2 3 1 4 21 5 15 6 14 7 16 8 17 9 19 10 20 11 6 12
REMARK SMILES IDX 7 13 8 14 9 15 13 16 11 17 10 18 12 20 4 22 18 24
REMARK H PARENT 10 19 12 21 4 23 18 25
REMARK Flexibility Score: inf
ROOT
ATOM      1  C   UNL     1       6.379  -6.266  -6.097  1.00  0.00     0.180 A 
ATOM      2  C   UNL     1       5.241  -7.099  -6.125  1.00  0.00     0.208 A 
ATOM      3  C   UNL     1       5.404  -8.455  -6.455  1.00  0.00     0.235 A 
ATOM      4  O   UNL     1       4.400  -9.218  -6.497  1.00  0.00    -0.285 OA
ATOM      5  C   UNL     1       6.689  -8.949  -6.727  1.00  0.00     0.069 A 
ATOM      6  C   UNL     1       7.779  -8.056  -6.653  1.00  0.00     0.142 A 
ATOM      7  O   UNL     1       7.582  -6.779  -6.347  1.00  0.00    -0.452 OA
ATOM      8  C   UNL     1       9.077  -8.513  -6.908  1.00  0.00     0.094 A 
ATOM      9  C   UNL     1       9.301  -9.855  -7.237  1.00  0.00     0.119 A 
ATOM     10  C   UNL     1       8.220 -10.744  -7.311  1.00  0.00     0.047 A 
ATOM     11  C   UNL     1       6.920 -10.297  -7.057  1.00  0.00     0.020 A 
ENDROOT
BRANCH   1  12
ATOM     12  C   UNL     1       6.288  -4.823  -5.778  1.00  0.00     0.025 A 
ATOM     13  C   UNL     1       6.113  -4.421  -4.444  1.00  0.00     0.016 A 
ATOM     14  C   UNL     1       6.045  -3.065  -4.117  1.00  0.00     0.051 A 
ATOM     15  C   UNL     1       6.166  -2.090  -5.112  1.00  0.00     0.157 A 
ATOM     16  C   UNL     1       6.430  -3.842  -6.774  1.00  0.00     0.062 A 
ATOM     17  C   UNL     1       6.364  -2.479  -6.447  1.00  0.00     0.158 A 
BRANCH  15  18
ATOM     18  O   UNL     1       6.091  -0.744  -4.755  1.00  0.00    -0.504 OA
ATOM     19  H   UNL     1       6.162  -0.438  -3.792  1.00  0.00     0.293 HD
ENDBRANCH  15  18
BRANCH  17  20
ATOM     20  O   UNL     1       6.500  -1.513  -7.443  1.00  0.00    -0.504 OA
ATOM     21  H   UNL     1       6.052  -0.607  -7.371  1.00  0.00     0.293 HD
ENDBRANCH  17  20
ENDBRANCH   1  12
BRANCH   2  22
ATOM     22  O   UNL     1       3.982  -6.589  -5.802  1.00  0.00    -0.502 OA
ATOM     23  H   UNL     1       3.859  -5.673  -5.386  1.00  0.00     0.293 HD
ENDBRANCH   2  22
BRANCH   9  24
ATOM     24  O   UNL     1      10.599 -10.293  -7.487  1.00  0.00    -0.508 OA
ATOM     25  H   UNL     1      11.373 -10.022  -6.892  1.00  0.00     0.293 HD
ENDBRANCH   9  24
TORSDOF 5
ENDMDL
MODEL 8
REMARK VINA RESULT:    -5.416      2.581      3.976
REMARK INTER + INTRA:          -6.572
REMARK INTER:                  -6.461
REMARK INTRA:                  -0.111
REMARK UNBOUND:                -0.206
REMARK SMILES O=c1c(O)c(-c2ccc(O)c(O)c2)oc2cc(O)ccc12
REMARK SMILES IDX 5 1 3 2 2 3 1 4 21 5 15 6 14 7 16 8 17 9 19 10 20 11 6 12
REMARK SMILES IDX 7 13 8 14 9 15 13 16 11 17 10 18 12 20 4 22 18 24
REMARK H PARENT 10 19 12 21 4 23 18 25
REMARK Flexibility Score: inf
ROOT
ATOM      1  C   UNL     1      -1.558  -6.955   2.268  1.00  0.00     0.180 A 
ATOM      2  C   UNL     1      -0.392  -6.358   2.791  1.00  0.00     0.208 A 
ATOM      3  C   UNL     1       0.456  -7.128   3.603  1.00  0.00     0.235 A 
ATOM      4  O   UNL     1       1.500  -6.613   4.091  1.00  0.00    -0.285 OA
ATOM      5  C   UNL     1       0.136  -8.471   3.857  1.00  0.00     0.069 A 
ATOM      6  C   UNL     1      -1.036  -9.001   3.276  1.00  0.00     0.142 A 
ATOM      7  O   UNL     1      -1.817  -8.236   2.521  1.00  0.00    -0.452 OA
ATOM      8  C   UNL     1      -1.384 -10.338   3.498  1.00  0.00     0.094 A 
ATOM      9  C   UNL     1      -0.574 -11.155   4.295  1.00  0.00     0.119 A 
ATOM     10  C   UNL     1       0.590 -10.631   4.874  1.00  0.00     0.047 A 
ATOM     11  C   UNL     1       0.947  -9.297   4.657  1.00  0.00     0.020 A 
ENDROOT
BRANCH   1  12
ATOM     12  C   UNL     1      -2.512  -6.205   1.420  1.00  0.00     0.025 A 
ATOM     13  C   UNL     1      -2.846  -6.703   0.150  1.00  0.00     0.016 A 
ATOM     14  C   UNL     1      -3.759  -6.022  -0.659  1.00  0.00     0.051 A 
ATOM     15  C   UNL     1      -4.365  -4.846  -0.207  1.00  0.00     0.157 A 
ATOM     16  C   UNL     1      -3.137  -5.033   1.881  1.00  0.00     0.062 A 
ATOM     17  C   UNL     1      -4.056  -4.350   1.070  1.00  0.00     0.158 A 
BRANCH  15  18
ATOM     18  O   UNL     1      -5.270  -4.188  -1.038  1.00  0.00    -0.504 OA
ATOM     19  H   UNL     1      -5.558  -4.571  -1.931  1.00  0.00     0.293 HD
ENDBRANCH  15  18
BRANCH  17  20
ATOM     20  O   UNL     1      -4.667  -3.184   1.533  1.00  0.00    -0.504 OA
ATOM     21  H   UNL     1      -4.479  -2.282   1.113  1.00  0.00     0.293 HD
ENDBRANCH  17  20
ENDBRANCH   1  12
BRANCH   2  22
ATOM     22  O   UNL     1      -0.075  -5.034   2.481  1.00  0.00    -0.502 OA
ATOM     23  H   UNL     1      -0.786  -4.329   2.322  1.00  0.00     0.293 HD
ENDBRANCH   2  22
BRANCH   9  24
ATOM     24  O   UNL     1      -0.936 -12.484   4.505  1.00  0.00    -0.508 OA
ATOM     25  H   UNL     1      -1.745 -12.731   5.064  1.00  0.00     0.293 HD
ENDBRANCH   9  24
TORSDOF 5
ENDMDL
MODEL 9
REMARK VINA RESULT:    -5.292      2.056      6.648
REMARK INTER + INTRA:          -6.426
REMARK INTER:                  -6.102
REMARK INTRA:                  -0.324
REMARK UNBOUND:                -0.206
REMARK SMILES O=c1c(O)c(-c2ccc(O)c(O)c2)oc2cc(O)ccc12
REMARK SMILES IDX 5 1 3 2 2 3 1 4 21 5 15 6 14 7 16 8 17 9 19 10 20 11 6 12
REMARK SMILES IDX 7 13 8 14 9 15 13 16 11 17 10 18 12 20 4 22 18 24
REMARK H PARENT 10 19 12 21 4 23 18 25
REMARK Flexibility Score: inf
ROOT
ATOM      1  C   UNL     1      -2.867  -7.282   0.927  1.00  0.00     0.180 A 
ATOM      2  C   UNL     1      -4.188  -7.023   1.348  1.00  0.00     0.208 A 
ATOM      3  C   UNL     1      -5.231  -7.150   0.416  1.00  0.00     0.235 A 
ATOM      4  O   UNL     1      -6.420  -6.915   0.766  1.00  0.00    -0.285 OA
ATOM      5  C   UNL     1      -4.938  -7.547  -0.898  1.00  0.00     0.069 A 
ATOM      6  C   UNL     1      -3.592  -7.811  -1.233  1.00  0.00     0.142 A 
ATOM      7  O   UNL     1      -2.634  -7.670  -0.325  1.00  0.00    -0.452 OA
ATOM      8  C   UNL     1      -3.261  -8.219  -2.529  1.00  0.00     0.094 A 
ATOM      9  C   UNL     1      -4.259  -8.366  -3.500  1.00  0.00     0.119 A 
ATOM     10  C   UNL     1      -5.596  -8.105  -3.170  1.00  0.00     0.047 A 
ATOM     11  C   UNL     1      -5.937  -7.699  -1.877  1.00  0.00     0.020 A 
ENDROOT
BRANCH   1  12
ATOM     12  C   UNL     1      -1.711  -7.151   1.844  1.00  0.00     0.025 A 
ATOM     13  C   UNL     1      -1.265  -8.276   2.556  1.00  0.00     0.016 A 
ATOM     14  C   UNL     1      -0.164  -8.181   3.411  1.00  0.00     0.051 A 
ATOM     15  C   UNL     1       0.517  -6.969   3.556  1.00  0.00     0.157 A 
ATOM     16  C   UNL     1      -1.012  -5.938   1.975  1.00  0.00     0.062 A 
ATOM     17  C   UNL     1       0.094  -5.842   2.832  1.00  0.00     0.158 A 
BRANCH  15  18
ATOM     18  O   UNL     1       1.610  -6.904   4.418  1.00  0.00    -0.504 OA
ATOM     19  H   UNL     1       1.952  -6.026   4.789  1.00  0.00     0.293 HD
ENDBRANCH  15  18
BRANCH  17  20
ATOM     20  O   UNL     1       0.777  -4.633   2.960  1.00  0.00    -0.504 OA
ATOM     21  H   UNL     1       1.785  -4.579   2.876  1.00  0.00     0.293 HD
ENDBRANCH  17  20
ENDBRANCH   1  12
BRANCH   2  22
ATOM     22  O   UNL     1      -4.454  -6.677   2.675  1.00  0.00    -0.502 OA
ATOM     23  H   UNL     1      -4.329  -7.329   3.440  1.00  0.00     0.293 HD
ENDBRANCH   2  22
BRANCH   9  24
ATOM     24  O   UNL     1      -3.911  -8.773  -4.786  1.00  0.00    -0.508 OA
ATOM     25  H   UNL     1      -4.551  -8.672  -5.565  1.00  0.00     0.293 HD
ENDBRANCH   9  24
TORSDOF 5
ENDMDL
