MODEL 1
REMARK VINA RESULT:    -4.941      0.000      0.000
REMARK INTER + INTRA:          -6.751
REMARK INTER:                  -6.385
REMARK INTRA:                  -0.366
REMARK UNBOUND:                -0.366
REMARK SMILES C=CC(=O)CCCCC
REMARK SMILES IDX 6 1 7 2 8 3 9 4 5 5 3 6 4 7 2 8 1 9
REMARK H PARENT
REMARK Flexibility Score: inf
ROOT
ATOM      1  C   UNL     1      48.221   1.285  18.313  1.00  0.00     0.008 C 
ENDROOT
BRANCH   1   2
ATOM      2  C   UNL     1      47.362   1.981  19.378  1.00  0.00     0.000 C 
BRANCH   2   3
ATOM      3  C   UNL     1      46.313   2.924  18.767  1.00  0.00    -0.003 C 
ATOM      4  C   UNL     1      46.044   2.632  17.291  1.00  0.00     0.004 C 
ENDBRANCH   2   3
ENDBRANCH   1   2
BRANCH   1   5
ATOM      5  C   UNL     1      49.596   1.959  18.190  1.00  0.00     0.080 C 
BRANCH   5   6
ATOM      6  C   UNL     1      49.670   2.949  17.049  1.00  0.00     0.155 C 
ATOM      7  O   UNL     1      50.089   4.121  17.256  1.00  0.00    -0.295 OA
BRANCH   6   8
ATOM      8  C   UNL     1      49.267   2.588  15.676  1.00  0.00     0.039 C 
ATOM      9  C   UNL     1      49.509   3.352  14.611  1.00  0.00     0.012 C 
ENDBRANCH   6   8
ENDBRANCH   5   6
ENDBRANCH   1   5
TORSDOF 5
ENDMDL
MODEL 2
REMARK VINA RESULT:    -4.846      1.698      2.524
REMARK INTER + INTRA:          -6.628
REMARK INTER:                  -6.114
REMARK INTRA:                  -0.514
REMARK UNBOUND:                -0.366
REMARK SMILES C=CC(=O)CCCCC
REMARK SMILES IDX 6 1 7 2 8 3 9 4 5 5 3 6 4 7 2 8 1 9
REMARK H PARENT
REMARK Flexibility Score: inf
ROOT
ATOM      1  C   UNL     1      48.234   1.393  18.371  1.00  0.00     0.008 C 
ENDROOT
BRANCH   1   2
ATOM      2  C   UNL     1      47.233   1.989  19.372  1.00  0.00     0.000 C 
BRANCH   2   3
ATOM      3  C   UNL     1      46.170   2.867  18.693  1.00  0.00    -0.003 C 
ATOM      4  C   UNL     1      46.166   2.719  17.171  1.00  0.00     0.004 C 
ENDBRANCH   2   3
ENDBRANCH   1   2
BRANCH   1   5
ATOM      5  C   UNL     1      49.663   1.868  18.674  1.00  0.00     0.080 C 
BRANCH   5   6
ATOM      6  C   UNL     1      49.858   3.348  18.434  1.00  0.00     0.155 C 
ATOM      7  O   UNL     1      49.727   3.822  17.272  1.00  0.00    -0.295 OA
BRANCH   6   8
ATOM      8  C   UNL     1      50.199   4.277  19.529  1.00  0.00     0.039 C 
ATOM      9  C   UNL     1      49.336   4.654  20.472  1.00  0.00     0.012 C 
ENDBRANCH   6   8
ENDBRANCH   5   6
ENDBRANCH   1   5
TORSDOF 5
ENDMDL
MODEL 3
REMARK VINA RESULT:    -4.627      1.945      3.668
REMARK INTER + INTRA:          -6.346
REMARK INTER:                  -5.942
REMARK INTRA:                  -0.404
REMARK UNBOUND:                -0.366
REMARK SMILES C=CC(=O)CCCCC
REMARK SMILES IDX 6 1 7 2 8 3 9 4 5 5 3 6 4 7 2 8 1 9
REMARK H PARENT
REMARK Flexibility Score: inf
ROOT
ATOM      1  C   UNL     1      46.613   2.337  17.405  1.00  0.00     0.008 C 
ENDROOT
BRANCH   1   2
ATOM      2  C   UNL     1      47.833   1.441  17.148  1.00  0.00     0.000 C 
BRANCH   2   3
ATOM      3  C   UNL     1      49.005   2.206  16.513  1.00  0.00    -0.003 C 
ATOM      4  C   UNL     1      48.730   2.615  15.067  1.00  0.00     0.004 C 
ENDBRANCH   2   3
ENDBRANCH   1   2
BRANCH   1   5
ATOM      5  C   UNL     1      46.503   2.702  18.892  1.00  0.00     0.080 C 
BRANCH   5   6
ATOM      6  C   UNL     1      47.097   4.054  19.216  1.00  0.00     0.155 C 
ATOM      7  O   UNL     1      46.540   5.106  18.797  1.00  0.00    -0.295 OA
BRANCH   6   8
ATOM      8  C   UNL     1      48.326   4.193  20.023  1.00  0.00     0.039 C 
ATOM      9  C   UNL     1      49.554   4.050  19.527  1.00  0.00     0.012 C 
ENDBRANCH   6   8
ENDBRANCH   5   6
ENDBRANCH   1   5
TORSDOF 5
ENDMDL
MODEL 4
REMARK VINA RESULT:    -4.459      1.306      1.899
REMARK INTER + INTRA:          -6.129
REMARK INTER:                  -5.745
REMARK INTRA:                  -0.384
REMARK UNBOUND:                -0.366
REMARK SMILES C=CC(=O)CCCCC
REMARK SMILES IDX 6 1 7 2 8 3 9 4 5 5 3 6 4 7 2 8 1 9
REMARK H PARENT
REMARK Flexibility Score: inf
ROOT
ATOM      1  C   UNL     1      48.446   1.167  18.627  1.00  0.00     0.008 C 
ENDROOT
BRANCH   1   2
ATOM      2  C   UNL     1      47.351   1.897  19.418  1.00  0.00     0.000 C 
BRANCH   2   3
ATOM      3  C   UNL     1      46.354   2.630  18.507  1.00  0.00    -0.003 C 
ATOM      4  C   UNL     1      46.392   4.147  18.690  1.00  0.00     0.004 C 
ENDBRANCH   2   3
ENDBRANCH   1   2
BRANCH   1   5
ATOM      5  C   UNL     1      48.328   1.463  17.125  1.00  0.00     0.080 C 
BRANCH   5   6
ATOM      6  C   UNL     1      49.233   2.585  16.669  1.00  0.00     0.155 C 
ATOM      7  O   UNL     1      49.026   3.153  15.562  1.00  0.00    -0.295 OA
BRANCH   6   8
ATOM      8  C   UNL     1      50.368   3.053  17.489  1.00  0.00     0.039 C 
ATOM      9  C   UNL     1      50.320   4.134  18.267  1.00  0.00     0.012 C 
ENDBRANCH   6   8
ENDBRANCH   5   6
ENDBRANCH   1   5
TORSDOF 5
ENDMDL
MODEL 5
REMARK VINA RESULT:    -4.423      1.479      4.380
REMARK INTER + INTRA:          -6.083
REMARK INTER:                  -5.925
REMARK INTRA:                  -0.158
REMARK UNBOUND:                -0.366
REMARK SMILES C=CC(=O)CCCCC
REMARK SMILES IDX 6 1 7 2 8 3 9 4 5 5 3 6 4 7 2 8 1 9
REMARK H PARENT
REMARK Flexibility Score: inf
ROOT
ATOM      1  C   UNL     1      49.336   2.551  16.273  1.00  0.00     0.008 C 
ENDROOT
BRANCH   1   2
ATOM      2  C   UNL     1      48.995   2.807  14.798  1.00  0.00     0.000 C 
BRANCH   2   3
ATOM      3  C   UNL     1      49.779   3.991  14.208  1.00  0.00    -0.003 C 
ATOM      4  C   UNL     1      51.152   3.584  13.675  1.00  0.00     0.004 C 
ENDBRANCH   2   3
ENDBRANCH   1   2
BRANCH   1   5
ATOM      5  C   UNL     1      48.301   1.620  16.922  1.00  0.00     0.080 C 
BRANCH   5   6
ATOM      6  C   UNL     1      48.420   1.561  18.428  1.00  0.00     0.155 C 
ATOM      7  O   UNL     1      49.478   1.131  18.963  1.00  0.00    -0.295 OA
BRANCH   6   8
ATOM      8  C   UNL     1      47.323   2.001  19.314  1.00  0.00     0.039 C 
ATOM      9  C   UNL     1      46.330   2.798  18.919  1.00  0.00     0.012 C 
ENDBRANCH   6   8
ENDBRANCH   5   6
ENDBRANCH   1   5
TORSDOF 5
ENDMDL
MODEL 6
REMARK VINA RESULT:    -4.415      1.312      3.610
REMARK INTER + INTRA:          -6.072
REMARK INTER:                  -5.713
REMARK INTRA:                  -0.359
REMARK UNBOUND:                -0.366
REMARK SMILES C=CC(=O)CCCCC
REMARK SMILES IDX 6 1 7 2 8 3 9 4 5 5 3 6 4 7 2 8 1 9
REMARK H PARENT
REMARK Flexibility Score: inf
ROOT
ATOM      1  C   UNL     1      49.564   1.901  17.448  1.00  0.00     0.008 C 
ENDROOT
BRANCH   1   2
ATOM      2  C   UNL     1      48.804   1.522  16.169  1.00  0.00     0.000 C 
BRANCH   2   3
ATOM      3  C   UNL     1      48.646   2.707  15.203  1.00  0.00    -0.003 C 
ATOM      4  C   UNL     1      49.978   3.376  14.865  1.00  0.00     0.004 C 
ENDBRANCH   2   3
ENDBRANCH   1   2
BRANCH   1   5
ATOM      5  C   UNL     1      48.790   1.458  18.698  1.00  0.00     0.080 C 
BRANCH   5   6
ATOM      6  C   UNL     1      47.839   2.516  19.211  1.00  0.00     0.155 C 
ATOM      7  O   UNL     1      48.269   3.454  19.936  1.00  0.00    -0.295 OA
BRANCH   6   8
ATOM      8  C   UNL     1      46.398   2.493  18.886  1.00  0.00     0.039 C 
ATOM      9  C   UNL     1      45.902   2.873  17.709  1.00  0.00     0.012 C 
ENDBRANCH   6   8
ENDBRANCH   5   6
ENDBRANCH   1   5
TORSDOF 5
ENDMDL
MODEL 7
REMARK VINA RESULT:    -4.358      1.438      1.894
REMARK INTER + INTRA:          -5.999
REMARK INTER:                  -5.839
REMARK INTRA:                  -0.160
REMARK UNBOUND:                -0.366
REMARK SMILES C=CC(=O)CCCCC
REMARK SMILES IDX 6 1 7 2 8 3 9 4 5 5 3 6 4 7 2 8 1 9
REMARK H PARENT
REMARK Flexibility Score: inf
ROOT
ATOM      1  C   UNL     1      48.394   1.394  17.108  1.00  0.00     0.008 C 
ENDROOT
BRANCH   1   2
ATOM      2  C   UNL     1      48.404   1.214  18.633  1.00  0.00     0.000 C 
BRANCH   2   3
ATOM      3  C   UNL     1      47.529   2.250  19.356  1.00  0.00    -0.003 C 
ATOM      4  C   UNL     1      46.316   2.678  18.531  1.00  0.00     0.004 C 
ENDBRANCH   2   3
ENDBRANCH   1   2
BRANCH   1   5
ATOM      5  C   UNL     1      49.422   2.450  16.673  1.00  0.00     0.080 C 
BRANCH   5   6
ATOM      6  C   UNL     1      49.125   3.042  15.314  1.00  0.00     0.155 C 
ATOM      7  O   UNL     1      47.942   3.059  14.878  1.00  0.00    -0.295 OA
BRANCH   6   8
ATOM      8  C   UNL     1      50.188   3.615  14.464  1.00  0.00     0.039 C 
ATOM      9  C   UNL     1      51.421   3.875  14.900  1.00  0.00     0.012 C 
ENDBRANCH   6   8
ENDBRANCH   5   6
ENDBRANCH   1   5
TORSDOF 5
ENDMDL
MODEL 8
REMARK VINA RESULT:    -4.199      1.943      3.016
REMARK INTER + INTRA:          -5.793
REMARK INTER:                  -5.279
REMARK INTRA:                  -0.514
REMARK UNBOUND:                -0.366
REMARK SMILES C=CC(=O)CCCCC
REMARK SMILES IDX 6 1 7 2 8 3 9 4 5 5 3 6 4 7 2 8 1 9
REMARK H PARENT
REMARK Flexibility Score: inf
ROOT
ATOM      1  C   UNL     1      47.487   3.472  19.045  1.00  0.00     0.008 C 
ENDROOT
BRANCH   1   2
ATOM      2  C   UNL     1      47.325   1.986  19.398  1.00  0.00     0.000 C 
BRANCH   2   3
ATOM      3  C   UNL     1      48.411   1.105  18.759  1.00  0.00    -0.003 C 
ATOM      4  C   UNL     1      48.498   1.281  17.243  1.00  0.00     0.004 C 
ENDBRANCH   2   3
ENDBRANCH   1   2
BRANCH   1   5
ATOM      5  C   UNL     1      48.542   4.137  19.940  1.00  0.00     0.080 C 
BRANCH   5   6
ATOM      6  C   UNL     1      49.842   4.413  19.219  1.00  0.00     0.155 C 
ATOM      7  O   UNL     1      49.882   5.269  18.293  1.00  0.00    -0.295 OA
BRANCH   6   8
ATOM      8  C   UNL     1      51.091   3.706  19.567  1.00  0.00     0.039 C 
ATOM      9  C   UNL     1      51.639   2.759  18.806  1.00  0.00     0.012 C 
ENDBRANCH   6   8
ENDBRANCH   5   6
ENDBRANCH   1   5
TORSDOF 5
ENDMDL
MODEL 9
REMARK VINA RESULT:    -4.145      2.346      3.658
REMARK INTER + INTRA:          -5.723
REMARK INTER:                  -5.191
REMARK INTRA:                  -0.531
REMARK UNBOUND:                -0.366
REMARK SMILES C=CC(=O)CCCCC
REMARK SMILES IDX 6 1 7 2 8 3 9 4 5 5 3 6 4 7 2 8 1 9
REMARK H PARENT
REMARK Flexibility Score: inf
ROOT
ATOM      1  C   UNL     1      49.988   3.495  18.439  1.00  0.00     0.008 C 
ENDROOT
BRANCH   1   2
ATOM      2  C   UNL     1      50.402   4.179  19.750  1.00  0.00     0.000 C 
BRANCH   2   3
ATOM      3  C   UNL     1      49.194   4.619  20.593  1.00  0.00    -0.003 C 
ATOM      4  C   UNL     1      48.288   5.606  19.857  1.00  0.00     0.004 C 
ENDBRANCH   2   3
ENDBRANCH   1   2
BRANCH   1   5
ATOM      5  C   UNL     1      49.676   2.009  18.670  1.00  0.00     0.080 C 
BRANCH   5   6
ATOM      6  C   UNL     1      48.266   1.631  18.275  1.00  0.00     0.155 C 
ATOM      7  O   UNL     1      48.068   0.899  17.267  1.00  0.00    -0.295 OA
BRANCH   6   8
ATOM      8  C   UNL     1      47.092   2.093  19.041  1.00  0.00     0.039 C 
ATOM      9  C   UNL     1      46.121   2.844  18.521  1.00  0.00     0.012 C 
ENDBRANCH   6   8
ENDBRANCH   5   6
ENDBRANCH   1   5
TORSDOF 5
ENDMDL
