MODEL 1
REMARK VINA RESULT:    -5.130      0.000      0.000
REMARK INTER + INTRA:          -5.473
REMARK INTER:                  -5.429
REMARK INTRA:                  -0.043
REMARK UNBOUND:                -0.043
REMARK SMILES COc1ccc2ccc(=O)oc2c1
REMARK SMILES IDX 3 1 13 2 12 3 6 4 5 5 4 6 7 7 8 8 9 9 10 10 11 11 2 12 1 13
REMARK H PARENT
REMARK Flexibility Score: inf
ROOT
ATOM      1  C   UNL     1      -4.911   1.349  -9.063  1.00  0.00     0.122 A 
ATOM      2  C   UNL     1      -5.817   0.456  -8.476  1.00  0.00     0.094 A 
ATOM      3  C   UNL     1      -7.195   0.628  -8.643  1.00  0.00     0.142 A 
ATOM      4  C   UNL     1      -7.678   1.712  -9.409  1.00  0.00     0.018 A 
ATOM      5  C   UNL     1      -6.777   2.608  -9.996  1.00  0.00     0.016 A 
ATOM      6  C   UNL     1      -5.401   2.429  -9.825  1.00  0.00     0.047 A 
ATOM      7  C   UNL     1      -9.061   1.859  -9.557  1.00  0.00     0.019 A 
ATOM      8  C   UNL     1      -9.916   0.938  -8.952  1.00  0.00     0.094 A 
ATOM      9  C   UNL     1      -9.366  -0.111  -8.207  1.00  0.00     0.336 A 
ATOM     10  O   UNL     1     -10.120  -0.952  -7.652  1.00  0.00    -0.246 OA
ATOM     11  O   UNL     1      -8.046  -0.227  -8.082  1.00  0.00    -0.423 OA
ENDROOT
BRANCH   1  12
ATOM     12  O   UNL     1      -3.540   1.131  -8.865  1.00  0.00    -0.497 OA
ATOM     13  C   UNL     1      -2.989  -0.036  -8.267  1.00  0.00     0.278 C 
ENDBRANCH   1  12
TORSDOF 1
ENDMDL
MODEL 2
REMARK VINA RESULT:    -4.360      1.628      2.137
REMARK INTER + INTRA:          -4.658
REMARK INTER:                  -4.626
REMARK INTRA:                  -0.032
REMARK UNBOUND:                -0.043
REMARK SMILES COc1ccc2ccc(=O)oc2c1
REMARK SMILES IDX 3 1 13 2 12 3 6 4 5 5 4 6 7 7 8 8 9 9 10 10 11 11 2 12 1 13
REMARK H PARENT
REMARK Flexibility Score: inf
ROOT
ATOM      1  C   UNL     1      -4.568   0.275  -9.099  1.00  0.00     0.122 A 
ATOM      2  C   UNL     1      -5.624   1.058  -8.616  1.00  0.00     0.094 A 
ATOM      3  C   UNL     1      -6.952   0.676  -8.837  1.00  0.00     0.142 A 
ATOM      4  C   UNL     1      -7.230  -0.508  -9.552  1.00  0.00     0.018 A 
ATOM      5  C   UNL     1      -6.179  -1.294 -10.039  1.00  0.00     0.016 A 
ATOM      6  C   UNL     1      -4.854  -0.906  -9.814  1.00  0.00     0.047 A 
ATOM      7  C   UNL     1      -8.567  -0.864  -9.758  1.00  0.00     0.019 A 
ATOM      8  C   UNL     1      -9.578  -0.047  -9.253  1.00  0.00     0.094 A 
ATOM      9  C   UNL     1      -9.227   1.112  -8.553  1.00  0.00     0.336 A 
ATOM     10  O   UNL     1     -10.125   1.864  -8.090  1.00  0.00    -0.246 OA
ATOM     11  O   UNL     1      -7.947   1.428  -8.373  1.00  0.00    -0.423 OA
ENDROOT
BRANCH   1  12
ATOM     12  O   UNL     1      -3.256   0.703  -8.851  1.00  0.00    -0.497 OA
ATOM     13  C   UNL     1      -2.234   0.780  -9.838  1.00  0.00     0.278 C 
ENDBRANCH   1  12
TORSDOF 1
ENDMDL
MODEL 3
REMARK VINA RESULT:    -4.350      1.781      4.580
REMARK INTER + INTRA:          -4.647
REMARK INTER:                  -4.613
REMARK INTRA:                  -0.034
REMARK UNBOUND:                -0.043
REMARK SMILES COc1ccc2ccc(=O)oc2c1
REMARK SMILES IDX 3 1 13 2 12 3 6 4 5 5 4 6 7 7 8 8 9 9 10 10 11 11 2 12 1 13
REMARK H PARENT
REMARK Flexibility Score: inf
ROOT
ATOM      1  C   UNL     1      -7.656   1.476  -9.413  1.00  0.00     0.122 A 
ATOM      2  C   UNL     1      -7.195   0.157  -9.305  1.00  0.00     0.094 A 
ATOM      3  C   UNL     1      -5.854  -0.106  -9.007  1.00  0.00     0.142 A 
ATOM      4  C   UNL     1      -4.956   0.966  -8.812  1.00  0.00     0.018 A 
ATOM      5  C   UNL     1      -5.410   2.286  -8.919  1.00  0.00     0.016 A 
ATOM      6  C   UNL     1      -6.753   2.541  -9.218  1.00  0.00     0.047 A 
ATOM      7  C   UNL     1      -3.621   0.672  -8.515  1.00  0.00     0.019 A 
ATOM      8  C   UNL     1      -3.219  -0.660  -8.419  1.00  0.00     0.094 A 
ATOM      9  C   UNL     1      -4.165  -1.670  -8.625  1.00  0.00     0.336 A 
ATOM     10  O   UNL     1      -3.821  -2.879  -8.544  1.00  0.00    -0.246 OA
ATOM     11  O   UNL     1      -5.428  -1.362  -8.906  1.00  0.00    -0.423 OA
ENDROOT
BRANCH   1  12
ATOM     12  O   UNL     1      -9.009   1.685  -9.714  1.00  0.00    -0.497 OA
ATOM     13  C   UNL     1     -10.080   1.456  -8.805  1.00  0.00     0.278 C 
ENDBRANCH   1  12
TORSDOF 1
ENDMDL
MODEL 4
REMARK VINA RESULT:    -4.137     18.778     20.541
REMARK INTER + INTRA:          -4.422
REMARK INTER:                  -4.389
REMARK INTRA:                  -0.033
REMARK UNBOUND:                -0.043
REMARK SMILES COc1ccc2ccc(=O)oc2c1
REMARK SMILES IDX 3 1 13 2 12 3 6 4 5 5 4 6 7 7 8 8 9 9 10 10 11 11 2 12 1 13
REMARK H PARENT
REMARK Flexibility Score: inf
ROOT
ATOM      1  C   UNL     1       1.128  -6.542   9.220  1.00  0.00     0.122 A 
ATOM      2  C   UNL     1       1.076  -6.834   7.850  1.00  0.00     0.094 A 
ATOM      3  C   UNL     1       0.314  -7.909   7.380  1.00  0.00     0.142 A 
ATOM      4  C   UNL     1      -0.409  -8.707   8.292  1.00  0.00     0.018 A 
ATOM      5  C   UNL     1      -0.360  -8.422   9.662  1.00  0.00     0.016 A 
ATOM      6  C   UNL     1       0.404  -7.346  10.124  1.00  0.00     0.047 A 
ATOM      7  C   UNL     1      -1.160  -9.776   7.792  1.00  0.00     0.019 A 
ATOM      8  C   UNL     1      -1.176 -10.018   6.419  1.00  0.00     0.094 A 
ATOM      9  C   UNL     1      -0.435  -9.184   5.574  1.00  0.00     0.336 A 
ATOM     10  O   UNL     1      -0.435  -9.387   4.332  1.00  0.00    -0.246 OA
ATOM     11  O   UNL     1       0.272  -8.175   6.077  1.00  0.00    -0.423 OA
ENDROOT
BRANCH   1  12
ATOM     12  O   UNL     1       1.906  -5.454   9.639  1.00  0.00    -0.497 OA
ATOM     13  C   UNL     1       3.240  -5.558  10.125  1.00  0.00     0.278 C 
ENDBRANCH   1  12
TORSDOF 1
ENDMDL
MODEL 5
REMARK VINA RESULT:    -3.945      2.845      4.692
REMARK INTER + INTRA:          -4.219
REMARK INTER:                  -4.176
REMARK INTRA:                  -0.042
REMARK UNBOUND:                -0.043
REMARK SMILES COc1ccc2ccc(=O)oc2c1
REMARK SMILES IDX 3 1 13 2 12 3 6 4 5 5 4 6 7 7 8 8 9 9 10 10 11 11 2 12 1 13
REMARK H PARENT
REMARK Flexibility Score: inf
ROOT
ATOM      1  C   UNL     1      -4.495   0.803  -8.991  1.00  0.00     0.122 A 
ATOM      2  C   UNL     1      -5.441  -0.160  -9.366  1.00  0.00     0.094 A 
ATOM      3  C   UNL     1      -5.105  -1.518  -9.382  1.00  0.00     0.142 A 
ATOM      4  C   UNL     1      -3.803  -1.922  -9.018  1.00  0.00     0.018 A 
ATOM      5  C   UNL     1      -2.853  -0.964  -8.644  1.00  0.00     0.016 A 
ATOM      6  C   UNL     1      -3.196   0.391  -8.630  1.00  0.00     0.047 A 
ATOM      7  C   UNL     1      -3.497  -3.287  -9.044  1.00  0.00     0.019 A 
ATOM      8  C   UNL     1      -4.479  -4.201  -9.424  1.00  0.00     0.094 A 
ATOM      9  C   UNL     1      -5.749  -3.728  -9.772  1.00  0.00     0.336 A 
ATOM     10  O   UNL     1      -6.648  -4.537 -10.119  1.00  0.00    -0.246 OA
ATOM     11  O   UNL     1      -6.012  -2.424  -9.739  1.00  0.00    -0.423 OA
ENDROOT
BRANCH   1  12
ATOM     12  O   UNL     1      -4.882   2.151  -8.992  1.00  0.00    -0.497 OA
ATOM     13  C   UNL     1      -6.232   2.600  -8.992  1.00  0.00     0.278 C 
ENDBRANCH   1  12
TORSDOF 1
ENDMDL
MODEL 6
REMARK VINA RESULT:    -3.826      2.149      3.352
REMARK INTER + INTRA:          -4.093
REMARK INTER:                  -4.050
REMARK INTRA:                  -0.043
REMARK UNBOUND:                -0.043
REMARK SMILES COc1ccc2ccc(=O)oc2c1
REMARK SMILES IDX 3 1 13 2 12 3 6 4 5 5 4 6 7 7 8 8 9 9 10 10 11 11 2 12 1 13
REMARK H PARENT
REMARK Flexibility Score: inf
ROOT
ATOM      1  C   UNL     1      -4.121  -1.629  -8.806  1.00  0.00     0.122 A 
ATOM      2  C   UNL     1      -5.432  -1.321  -9.191  1.00  0.00     0.094 A 
ATOM      3  C   UNL     1      -5.850   0.010  -9.293  1.00  0.00     0.142 A 
ATOM      4  C   UNL     1      -4.943   1.053  -9.006  1.00  0.00     0.018 A 
ATOM      5  C   UNL     1      -3.631   0.751  -8.619  1.00  0.00     0.016 A 
ATOM      6  C   UNL     1      -3.221  -0.582  -8.520  1.00  0.00     0.047 A 
ATOM      7  C   UNL     1      -5.390   2.374  -9.116  1.00  0.00     0.019 A 
ATOM      8  C   UNL     1      -6.706   2.621  -9.505  1.00  0.00     0.094 A 
ATOM      9  C   UNL     1      -7.548   1.537  -9.774  1.00  0.00     0.336 A 
ATOM     10  O   UNL     1      -8.740   1.739 -10.125  1.00  0.00    -0.246 OA
ATOM     11  O   UNL     1      -7.098   0.290  -9.660  1.00  0.00    -0.423 OA
ENDROOT
BRANCH   1  12
ATOM     12  O   UNL     1      -3.753  -2.979  -8.719  1.00  0.00    -0.497 OA
ATOM     13  C   UNL     1      -4.568  -4.064  -9.148  1.00  0.00     0.278 C 
ENDBRANCH   1  12
TORSDOF 1
ENDMDL
MODEL 7
REMARK VINA RESULT:    -3.752      1.287      1.304
REMARK INTER + INTRA:          -4.014
REMARK INTER:                  -3.984
REMARK INTRA:                  -0.031
REMARK UNBOUND:                -0.043
REMARK SMILES COc1ccc2ccc(=O)oc2c1
REMARK SMILES IDX 3 1 13 2 12 3 6 4 5 5 4 6 7 7 8 8 9 9 10 10 11 11 2 12 1 13
REMARK H PARENT
REMARK Flexibility Score: inf
ROOT
ATOM      1  C   UNL     1      -4.847   0.654  -9.129  1.00  0.00     0.122 A 
ATOM      2  C   UNL     1      -5.780  -0.366  -9.355  1.00  0.00     0.094 A 
ATOM      3  C   UNL     1      -7.152  -0.094  -9.330  1.00  0.00     0.142 A 
ATOM      4  C   UNL     1      -7.601   1.221  -9.077  1.00  0.00     0.018 A 
ATOM      5  C   UNL     1      -6.673   2.244  -8.850  1.00  0.00     0.016 A 
ATOM      6  C   UNL     1      -5.303   1.964  -8.876  1.00  0.00     0.047 A 
ATOM      7  C   UNL     1      -8.978   1.462  -9.058  1.00  0.00     0.019 A 
ATOM      8  C   UNL     1      -9.861   0.408  -9.290  1.00  0.00     0.094 A 
ATOM      9  C   UNL     1      -9.344  -0.869  -9.535  1.00  0.00     0.336 A 
ATOM     10  O   UNL     1     -10.124  -1.834  -9.745  1.00  0.00    -0.246 OA
ATOM     11  O   UNL     1      -8.029  -1.071  -9.546  1.00  0.00    -0.423 OA
ENDROOT
BRANCH   1  12
ATOM     12  O   UNL     1      -3.484   0.328  -9.165  1.00  0.00    -0.497 OA
ATOM     13  C   UNL     1      -2.543   0.898 -10.068  1.00  0.00     0.278 C 
ENDBRANCH   1  12
TORSDOF 1
ENDMDL
MODEL 8
REMARK VINA RESULT:    -3.668      1.624      5.349
REMARK INTER + INTRA:          -3.926
REMARK INTER:                  -3.890
REMARK INTRA:                  -0.036
REMARK UNBOUND:                -0.043
REMARK SMILES COc1ccc2ccc(=O)oc2c1
REMARK SMILES IDX 3 1 13 2 12 3 6 4 5 5 4 6 7 7 8 8 9 9 10 10 11 11 2 12 1 13
REMARK H PARENT
REMARK Flexibility Score: inf
ROOT
ATOM      1  C   UNL     1      -7.327   0.977  -9.064  1.00  0.00     0.122 A 
ATOM      2  C   UNL     1      -6.051   1.555  -9.078  1.00  0.00     0.094 A 
ATOM      3  C   UNL     1      -4.929   0.794  -9.424  1.00  0.00     0.142 A 
ATOM      4  C   UNL     1      -5.083  -0.568  -9.761  1.00  0.00     0.018 A 
ATOM      5  C   UNL     1      -6.355  -1.152  -9.748  1.00  0.00     0.016 A 
ATOM      6  C   UNL     1      -7.472  -0.384  -9.402  1.00  0.00     0.047 A 
ATOM      7  C   UNL     1      -3.942  -1.303 -10.101  1.00  0.00     0.019 A 
ATOM      8  C   UNL     1      -2.697  -0.674 -10.099  1.00  0.00     0.094 A 
ATOM      9  C   UNL     1      -2.621   0.679  -9.754  1.00  0.00     0.336 A 
ATOM     10  O   UNL     1      -1.506   1.264  -9.745  1.00  0.00    -0.246 OA
ATOM     11  O   UNL     1      -3.722   1.355  -9.434  1.00  0.00    -0.423 OA
ENDROOT
BRANCH   1  12
ATOM     12  O   UNL     1      -8.418   1.783  -8.711  1.00  0.00    -0.497 OA
ATOM     13  C   UNL     1      -9.767   1.333  -8.657  1.00  0.00     0.278 C 
ENDBRANCH   1  12
TORSDOF 1
ENDMDL
MODEL 9
REMARK VINA RESULT:    -3.627      3.235      4.830
REMARK INTER + INTRA:          -3.882
REMARK INTER:                  -3.843
REMARK INTRA:                  -0.039
REMARK UNBOUND:                -0.043
REMARK SMILES COc1ccc2ccc(=O)oc2c1
REMARK SMILES IDX 3 1 13 2 12 3 6 4 5 5 4 6 7 7 8 8 9 9 10 10 11 11 2 12 1 13
REMARK H PARENT
REMARK Flexibility Score: inf
ROOT
ATOM      1  C   UNL     1      -4.240  -3.502  -9.761  1.00  0.00     0.122 A 
ATOM      2  C   UNL     1      -5.337  -2.631  -9.794  1.00  0.00     0.094 A 
ATOM      3  C   UNL     1      -5.188  -1.286  -9.441  1.00  0.00     0.142 A 
ATOM      4  C   UNL     1      -3.922  -0.801  -9.048  1.00  0.00     0.018 A 
ATOM      5  C   UNL     1      -2.822  -1.667  -9.012  1.00  0.00     0.016 A 
ATOM      6  C   UNL     1      -2.979  -3.010  -9.367  1.00  0.00     0.047 A 
ATOM      7  C   UNL     1      -3.804   0.549  -8.700  1.00  0.00     0.019 A 
ATOM      8  C   UNL     1      -4.930   1.370  -8.752  1.00  0.00     0.094 A 
ATOM      9  C   UNL     1      -6.153   0.820  -9.151  1.00  0.00     0.336 A 
ATOM     10  O   UNL     1      -7.181   1.544  -9.203  1.00  0.00    -0.246 OA
ATOM     11  O   UNL     1      -6.237  -0.468  -9.476  1.00  0.00    -0.423 OA
ENDROOT
BRANCH   1  12
ATOM     12  O   UNL     1      -4.444  -4.841 -10.125  1.00  0.00    -0.497 OA
ATOM     13  C   UNL     1      -5.576  -5.615  -9.745  1.00  0.00     0.278 C 
ENDBRANCH   1  12
TORSDOF 1
ENDMDL
