MODEL 1
REMARK VINA RESULT:    -3.092      0.000      0.000
REMARK INTER + INTRA:          -4.141
REMARK INTER:                  -3.905
REMARK INTRA:                  -0.236
REMARK UNBOUND:                -0.236
REMARK SMILES CCCCC[C@@H](C)O
REMARK SMILES IDX 4 1 3 2 2 3 1 4 5 5 6 6 7 7 8 8
REMARK H PARENT 8 9
REMARK Flexibility Score: inf
ROOT
ATOM      1  C   UNL     1     150.424 151.078 144.910  1.00  0.00     0.003 C 
ENDROOT
BRANCH   1   2
ATOM      2  C   UNL     1     151.346 151.885 145.839  1.00  0.00    -0.000 C 
BRANCH   2   3
ATOM      3  C   UNL     1     152.716 152.175 145.208  1.00  0.00    -0.003 C 
ATOM      4  C   UNL     1     153.850 151.723 146.125  1.00  0.00     0.004 C 
ENDBRANCH   2   3
ENDBRANCH   1   2
BRANCH   1   5
ATOM      5  C   UNL     1     151.186 150.015 144.099  1.00  0.00     0.031 C 
BRANCH   5   6
ATOM      6  C   UNL     1     151.485 148.741 144.917  1.00  0.00     0.111 C 
ATOM      7  C   UNL     1     150.277 148.291 145.741  1.00  0.00     0.038 C 
BRANCH   6   8
ATOM      8  O   UNL     1     151.838 147.699 144.044  1.00  0.00    -0.393 OA
ATOM      9  H   UNL     1     151.650 146.849 144.521  1.00  0.00     0.210 HD
ENDBRANCH   6   8
ENDBRANCH   5   6
ENDBRANCH   1   5
TORSDOF 5
ENDMDL
MODEL 2
REMARK VINA RESULT:    -3.088      1.458      2.166
REMARK INTER + INTRA:          -4.137
REMARK INTER:                  -3.819
REMARK INTRA:                  -0.318
REMARK UNBOUND:                -0.236
REMARK SMILES CCCCC[C@@H](C)O
REMARK SMILES IDX 4 1 3 2 2 3 1 4 5 5 6 6 7 7 8 8
REMARK H PARENT 8 9
REMARK Flexibility Score: inf
ROOT
ATOM      1  C   UNL     1     151.663 149.901 144.721  1.00  0.00     0.003 C 
ENDROOT
BRANCH   1   2
ATOM      2  C   UNL     1     151.920 151.411 144.588  1.00  0.00    -0.000 C 
BRANCH   2   3
ATOM      3  C   UNL     1     151.671 152.173 145.898  1.00  0.00    -0.003 C 
ATOM      4  C   UNL     1     150.602 153.246 145.715  1.00  0.00     0.004 C 
ENDBRANCH   2   3
ENDBRANCH   1   2
BRANCH   1   5
ATOM      5  C   UNL     1     151.158 149.510 146.122  1.00  0.00     0.031 C 
BRANCH   5   6
ATOM      6  C   UNL     1     149.818 148.746 146.080  1.00  0.00     0.111 C 
ATOM      7  C   UNL     1     148.715 149.558 145.397  1.00  0.00     0.038 C 
BRANCH   6   8
ATOM      8  O   UNL     1     149.987 147.546 145.371  1.00  0.00    -0.393 OA
ATOM      9  H   UNL     1     149.705 146.811 145.976  1.00  0.00     0.210 HD
ENDBRANCH   6   8
ENDBRANCH   5   6
ENDBRANCH   1   5
TORSDOF 5
ENDMDL
MODEL 3
REMARK VINA RESULT:    -2.990      3.119      4.807
REMARK INTER + INTRA:          -4.012
REMARK INTER:                  -3.761
REMARK INTRA:                  -0.250
REMARK UNBOUND:                -0.236
REMARK SMILES CCCCC[C@@H](C)O
REMARK SMILES IDX 4 1 3 2 2 3 1 4 5 5 6 6 7 7 8 8
REMARK H PARENT 8 9
REMARK Flexibility Score: inf
ROOT
ATOM      1  C   UNL     1     149.936 150.925 145.644  1.00  0.00     0.003 C 
ENDROOT
BRANCH   1   2
ATOM      2  C   UNL     1     149.779 149.492 145.110  1.00  0.00    -0.000 C 
BRANCH   2   3
ATOM      3  C   UNL     1     148.461 148.836 145.548  1.00  0.00    -0.003 C 
ATOM      4  C   UNL     1     147.386 149.887 145.814  1.00  0.00     0.004 C 
ENDBRANCH   2   3
ENDBRANCH   1   2
BRANCH   1   5
ATOM      5  C   UNL     1     150.292 151.933 144.536  1.00  0.00     0.031 C 
BRANCH   5   6
ATOM      6  C   UNL     1     149.843 153.371 144.871  1.00  0.00     0.111 C 
ATOM      7  C   UNL     1     148.966 153.421 146.125  1.00  0.00     0.038 C 
BRANCH   6   8
ATOM      8  O   UNL     1     150.975 154.173 145.091  1.00  0.00    -0.393 OA
ATOM      9  H   UNL     1     151.752 153.681 144.715  1.00  0.00     0.210 HD
ENDBRANCH   6   8
ENDBRANCH   5   6
ENDBRANCH   1   5
TORSDOF 5
ENDMDL
MODEL 4
REMARK VINA RESULT:    -2.887      2.771      3.914
REMARK INTER + INTRA:          -3.882
REMARK INTER:                  -3.708
REMARK INTRA:                  -0.174
REMARK UNBOUND:                -0.236
REMARK SMILES CCCCC[C@@H](C)O
REMARK SMILES IDX 4 1 3 2 2 3 1 4 5 5 6 6 7 7 8 8
REMARK H PARENT 8 9
REMARK Flexibility Score: inf
ROOT
ATOM      1  C   UNL     1     149.589 150.250 144.718  1.00  0.00     0.003 C 
ENDROOT
BRANCH   1   2
ATOM      2  C   UNL     1     150.118 149.062 145.538  1.00  0.00    -0.000 C 
BRANCH   2   3
ATOM      3  C   UNL     1     151.613 148.800 145.305  1.00  0.00    -0.003 C 
ATOM      4  C   UNL     1     152.092 147.598 146.114  1.00  0.00     0.004 C 
ENDBRANCH   2   3
ENDBRANCH   1   2
BRANCH   1   5
ATOM      5  C   UNL     1     150.620 151.386 144.591  1.00  0.00     0.031 C 
BRANCH   5   6
ATOM      6  C   UNL     1     150.040 152.764 144.976  1.00  0.00     0.111 C 
ATOM      7  C   UNL     1     149.033 152.662 146.125  1.00  0.00     0.038 C 
BRANCH   6   8
ATOM      8  O   UNL     1     151.084 153.613 145.377  1.00  0.00    -0.393 OA
ATOM      9  H   UNL     1     151.759 153.602 144.649  1.00  0.00     0.210 HD
ENDBRANCH   6   8
ENDBRANCH   5   6
ENDBRANCH   1   5
TORSDOF 5
ENDMDL
MODEL 5
REMARK VINA RESULT:    -2.884      2.109      3.287
REMARK INTER + INTRA:          -3.878
REMARK INTER:                  -3.644
REMARK INTRA:                  -0.234
REMARK UNBOUND:                -0.236
REMARK SMILES CCCCC[C@@H](C)O
REMARK SMILES IDX 4 1 3 2 2 3 1 4 5 5 6 6 7 7 8 8
REMARK H PARENT 8 9
REMARK Flexibility Score: inf
ROOT
ATOM      1  C   UNL     1     151.306 149.754 144.463  1.00  0.00     0.003 C 
ENDROOT
BRANCH   1   2
ATOM      2  C   UNL     1     151.126 150.855 143.406  1.00  0.00    -0.000 C 
BRANCH   2   3
ATOM      3  C   UNL     1     150.156 150.451 142.286  1.00  0.00    -0.003 C 
ATOM      4  C   UNL     1     150.721 150.807 140.914  1.00  0.00     0.004 C 
ENDBRANCH   2   3
ENDBRANCH   1   2
BRANCH   1   5
ATOM      5  C   UNL     1     150.395 149.956 145.687  1.00  0.00     0.031 C 
BRANCH   5   6
ATOM      6  C   UNL     1     149.308 148.867 145.809  1.00  0.00     0.111 C 
ATOM      7  C   UNL     1     148.027 149.247 145.061  1.00  0.00     0.038 C 
BRANCH   6   8
ATOM      8  O   UNL     1     149.793 147.664 145.271  1.00  0.00    -0.393 OA
ATOM      9  H   UNL     1     149.145 147.377 144.576  1.00  0.00     0.210 HD
ENDBRANCH   6   8
ENDBRANCH   5   6
ENDBRANCH   1   5
TORSDOF 5
ENDMDL
MODEL 6
REMARK VINA RESULT:    -2.862      2.003      3.843
REMARK INTER + INTRA:          -3.851
REMARK INTER:                  -3.701
REMARK INTRA:                  -0.150
REMARK UNBOUND:                -0.236
REMARK SMILES CCCCC[C@@H](C)O
REMARK SMILES IDX 4 1 3 2 2 3 1 4 5 5 6 6 7 7 8 8
REMARK H PARENT 8 9
REMARK Flexibility Score: inf
ROOT
ATOM      1  C   UNL     1     150.744 151.446 145.221  1.00  0.00     0.003 C 
ENDROOT
BRANCH   1   2
ATOM      2  C   UNL     1     150.098 150.186 145.817  1.00  0.00    -0.000 C 
BRANCH   2   3
ATOM      3  C   UNL     1     148.877 149.708 145.015  1.00  0.00    -0.003 C 
ATOM      4  C   UNL     1     147.590 149.884 145.817  1.00  0.00     0.004 C 
ENDBRANCH   2   3
ENDBRANCH   1   2
BRANCH   1   5
ATOM      5  C   UNL     1     151.923 151.120 144.287  1.00  0.00     0.031 C 
BRANCH   5   6
ATOM      6  C   UNL     1     153.294 151.430 144.927  1.00  0.00     0.111 C 
ATOM      7  C   UNL     1     153.168 152.374 146.125  1.00  0.00     0.038 C 
BRANCH   6   8
ATOM      8  O   UNL     1     153.883 150.234 145.366  1.00  0.00    -0.393 OA
ATOM      9  H   UNL     1     153.939 150.288 146.357  1.00  0.00     0.210 HD
ENDBRANCH   6   8
ENDBRANCH   5   6
ENDBRANCH   1   5
TORSDOF 5
ENDMDL
MODEL 7
REMARK VINA RESULT:    -2.646      8.723     10.244
REMARK INTER + INTRA:          -3.578
REMARK INTER:                  -3.325
REMARK INTRA:                  -0.253
REMARK UNBOUND:                -0.236
REMARK SMILES CCCCC[C@@H](C)O
REMARK SMILES IDX 4 1 3 2 2 3 1 4 5 5 6 6 7 7 8 8
REMARK H PARENT 8 9
REMARK Flexibility Score: inf
ROOT
ATOM      1  C   UNL     1     144.142 148.238 138.522  1.00  0.00     0.003 C 
ENDROOT
BRANCH   1   2
ATOM      2  C   UNL     1     142.933 147.298 138.647  1.00  0.00    -0.000 C 
BRANCH   2   3
ATOM      3  C   UNL     1     142.590 146.962 140.107  1.00  0.00    -0.003 C 
ATOM      4  C   UNL     1     141.133 147.293 140.420  1.00  0.00     0.004 C 
ENDBRANCH   2   3
ENDBRANCH   1   2
BRANCH   1   5
ATOM      5  C   UNL     1     145.053 148.197 139.763  1.00  0.00     0.031 C 
BRANCH   5   6
ATOM      6  C   UNL     1     145.529 149.599 140.199  1.00  0.00     0.111 C 
ATOM      7  C   UNL     1     144.490 150.680 139.891  1.00  0.00     0.038 C 
BRANCH   6   8
ATOM      8  O   UNL     1     145.770 149.599 141.582  1.00  0.00    -0.393 OA
ATOM      9  H   UNL     1     146.672 149.993 141.717  1.00  0.00     0.210 HD
ENDBRANCH   6   8
ENDBRANCH   5   6
ENDBRANCH   1   5
TORSDOF 5
ENDMDL
MODEL 8
REMARK VINA RESULT:    -2.628      7.369      8.167
REMARK INTER + INTRA:          -3.555
REMARK INTER:                  -3.231
REMARK INTRA:                  -0.324
REMARK UNBOUND:                -0.236
REMARK SMILES CCCCC[C@@H](C)O
REMARK SMILES IDX 4 1 3 2 2 3 1 4 5 5 6 6 7 7 8 8
REMARK H PARENT 8 9
REMARK Flexibility Score: inf
ROOT
ATOM      1  C   UNL     1     156.045 152.999 138.809  1.00  0.00     0.003 C 
ENDROOT
BRANCH   1   2
ATOM      2  C   UNL     1     156.673 154.386 139.023  1.00  0.00    -0.000 C 
BRANCH   2   3
ATOM      3  C   UNL     1     157.847 154.358 140.014  1.00  0.00    -0.003 C 
ATOM      4  C   UNL     1     159.149 153.984 139.312  1.00  0.00     0.004 C 
ENDBRANCH   2   3
ENDBRANCH   1   2
BRANCH   1   5
ATOM      5  C   UNL     1     155.936 152.192 140.115  1.00  0.00     0.031 C 
BRANCH   5   6
ATOM      6  C   UNL     1     156.471 150.751 139.972  1.00  0.00     0.111 C 
ATOM      7  C   UNL     1     157.646 150.670 138.994  1.00  0.00     0.038 C 
BRANCH   6   8
ATOM      8  O   UNL     1     156.906 150.290 141.225  1.00  0.00    -0.393 OA
ATOM      9  H   UNL     1     157.619 149.620 141.053  1.00  0.00     0.210 HD
ENDBRANCH   6   8
ENDBRANCH   5   6
ENDBRANCH   1   5
TORSDOF 5
ENDMDL
MODEL 9
REMARK VINA RESULT:    -2.608      9.101     10.524
REMARK INTER + INTRA:          -3.530
REMARK INTER:                  -3.232
REMARK INTRA:                  -0.298
REMARK UNBOUND:                -0.236
REMARK SMILES CCCCC[C@@H](C)O
REMARK SMILES IDX 4 1 3 2 2 3 1 4 5 5 6 6 7 7 8 8
REMARK H PARENT 8 9
REMARK Flexibility Score: inf
ROOT
ATOM      1  C   UNL     1     144.186 147.539 139.759  1.00  0.00     0.003 C 
ENDROOT
BRANCH   1   2
ATOM      2  C   UNL     1     144.863 146.371 139.025  1.00  0.00    -0.000 C 
BRANCH   2   3
ATOM      3  C   UNL     1     144.710 146.460 137.499  1.00  0.00    -0.003 C 
ATOM      4  C   UNL     1     143.254 146.696 137.106  1.00  0.00     0.004 C 
ENDBRANCH   2   3
ENDBRANCH   1   2
BRANCH   1   5
ATOM      5  C   UNL     1     145.097 148.775 139.868  1.00  0.00     0.031 C 
BRANCH   5   6
ATOM      6  C   UNL     1     144.332 150.100 139.657  1.00  0.00     0.111 C 
ATOM      7  C   UNL     1     142.901 149.865 139.166  1.00  0.00     0.038 C 
BRANCH   6   8
ATOM      8  O   UNL     1     144.273 150.801 140.872  1.00  0.00    -0.393 OA
ATOM      9  H   UNL     1     144.121 151.756 140.646  1.00  0.00     0.210 HD
ENDBRANCH   6   8
ENDBRANCH   5   6
ENDBRANCH   1   5
TORSDOF 5
ENDMDL
