MODEL 1
REMARK VINA RESULT:    -1.733      0.000      0.000
REMARK INTER + INTRA:          -6.204
REMARK INTER:                  -3.355
REMARK INTRA:                  -2.849
REMARK UNBOUND:                -2.849
REMARK SMILES CCCCCCCCCCCCCCCCCC(=O)[O-]
REMARK SMILES IDX 10 1 11 2 12 3 13 4 14 5 15 6 16 7 17 8 18 9 19 10 20 11
REMARK SMILES IDX 9 12 8 13 7 14 6 15 5 16 4 17 3 18 2 19 1 20
REMARK H PARENT
REMARK Flexibility Score: inf
ROOT
ATOM      1  C   UNL     1     117.090  15.443  28.508  1.00  0.00     0.000 C 
ENDROOT
BRANCH   1   2
ATOM      2  C   UNL     1     117.063  13.973  28.980  1.00  0.00     0.000 C 
BRANCH   2   3
ATOM      3  C   UNL     1     115.872  13.167  28.426  1.00  0.00     0.000 C 
BRANCH   3   4
ATOM      4  C   UNL     1     115.047  13.893  27.348  1.00  0.00     0.000 C 
BRANCH   4   5
ATOM      5  C   UNL     1     114.140  12.980  26.497  1.00  0.00     0.000 C 
BRANCH   5   6
ATOM      6  C   UNL     1     114.831  12.306  25.296  1.00  0.00     0.000 C 
BRANCH   6   7
ATOM      7  C   UNL     1     116.164  12.948  24.862  1.00  0.00     0.006 C 
BRANCH   7   8
ATOM      8  C   UNL     1     116.647  12.527  23.465  1.00  0.00     0.053 C 
BRANCH   8   9
ATOM      9  C   UNL     1     116.710  13.688  22.520  1.00  0.00     0.041 C 
ATOM     10  O   UNL     1     117.821  14.100  22.097  1.00  0.00    -0.550 OA
ATOM     11  O   UNL     1     115.539  14.294  22.082  1.00  0.00    -0.550 OA
ENDBRANCH   8   9
ENDBRANCH   7   8
ENDBRANCH   6   7
ENDBRANCH   5   6
ENDBRANCH   4   5
ENDBRANCH   3   4
ENDBRANCH   2   3
ENDBRANCH   1   2
BRANCH   1  12
ATOM     12  C   UNL     1     118.523  15.964  28.299  1.00  0.00     0.000 C 
BRANCH  12  13
ATOM     13  C   UNL     1     118.750  16.524  26.886  1.00  0.00    -0.000 C 
BRANCH  13  14
ATOM     14  C   UNL     1     117.799  15.913  25.845  1.00  0.00    -0.000 C 
BRANCH  14  15
ATOM     15  C   UNL     1     117.888  16.662  24.511  1.00  0.00    -0.000 C 
BRANCH  15  16
ATOM     16  C   UNL     1     116.504  17.154  24.062  1.00  0.00    -0.000 C 
BRANCH  16  17
ATOM     17  C   UNL     1     115.362  16.544  24.889  1.00  0.00    -0.000 C 
BRANCH  17  18
ATOM     18  C   UNL     1     114.472  17.609  25.549  1.00  0.00    -0.000 C 
BRANCH  18  19
ATOM     19  C   UNL     1     115.307  18.811  26.008  1.00  0.00    -0.003 C 
ATOM     20  C   UNL     1     115.680  18.693  27.483  1.00  0.00     0.004 C 
ENDBRANCH  18  19
ENDBRANCH  17  18
ENDBRANCH  16  17
ENDBRANCH  15  16
ENDBRANCH  14  15
ENDBRANCH  13  14
ENDBRANCH  12  13
ENDBRANCH   1  12
TORSDOF 16
ENDMDL
MODEL 2
REMARK VINA RESULT:    -1.725      2.631      6.002
REMARK INTER + INTRA:          -6.187
REMARK INTER:                  -3.089
REMARK INTRA:                  -3.098
REMARK UNBOUND:                -2.849
REMARK SMILES CCCCCCCCCCCCCCCCCC(=O)[O-]
REMARK SMILES IDX 10 1 11 2 12 3 13 4 14 5 15 6 16 7 17 8 18 9 19 10 20 11
REMARK SMILES IDX 9 12 8 13 7 14 6 15 5 16 4 17 3 18 2 19 1 20
REMARK H PARENT
REMARK Flexibility Score: inf
ROOT
ATOM      1  C   UNL     1     117.362  14.237  21.404  1.00  0.00     0.000 C 
ENDROOT
BRANCH   1   2
ATOM      2  C   UNL     1     118.185  14.933  22.510  1.00  0.00     0.000 C 
BRANCH   2   3
ATOM      3  C   UNL     1     119.003  16.138  22.005  1.00  0.00     0.000 C 
BRANCH   3   4
ATOM      4  C   UNL     1     118.178  17.408  21.728  1.00  0.00     0.000 C 
BRANCH   4   5
ATOM      5  C   UNL     1     117.518  18.040  22.971  1.00  0.00     0.000 C 
BRANCH   5   6
ATOM      6  C   UNL     1     118.464  18.282  24.164  1.00  0.00     0.000 C 
BRANCH   6   7
ATOM      7  C   UNL     1     117.929  17.809  25.530  1.00  0.00     0.006 C 
BRANCH   7   8
ATOM      8  C   UNL     1     118.479  16.451  25.993  1.00  0.00     0.053 C 
BRANCH   8   9
ATOM      9  C   UNL     1     118.048  16.118  27.389  1.00  0.00     0.041 C 
ATOM     10  O   UNL     1     116.841  15.861  27.634  1.00  0.00    -0.550 OA
ATOM     11  O   UNL     1     118.986  16.059  28.412  1.00  0.00    -0.550 OA
ENDBRANCH   8   9
ENDBRANCH   7   8
ENDBRANCH   6   7
ENDBRANCH   5   6
ENDBRANCH   4   5
ENDBRANCH   3   4
ENDBRANCH   2   3
ENDBRANCH   1   2
BRANCH   1  12
ATOM     12  C   UNL     1     117.064  12.764  21.737  1.00  0.00     0.000 C 
BRANCH  12  13
ATOM     13  C   UNL     1     115.559  12.478  21.864  1.00  0.00    -0.000 C 
BRANCH  13  14
ATOM     14  C   UNL     1     115.132  12.174  23.308  1.00  0.00    -0.000 C 
BRANCH  14  15
ATOM     15  C   UNL     1     116.340  12.185  24.253  1.00  0.00    -0.000 C 
BRANCH  15  16
ATOM     16  C   UNL     1     116.230  13.326  25.274  1.00  0.00    -0.000 C 
BRANCH  16  17
ATOM     17  C   UNL     1     114.942  14.147  25.110  1.00  0.00    -0.000 C 
BRANCH  17  18
ATOM     18  C   UNL     1     115.190  15.519  24.465  1.00  0.00    -0.000 C 
BRANCH  18  19
ATOM     19  C   UNL     1     114.003  15.935  23.588  1.00  0.00    -0.003 C 
ATOM     20  C   UNL     1     114.440  16.175  22.146  1.00  0.00     0.004 C 
ENDBRANCH  18  19
ENDBRANCH  17  18
ENDBRANCH  16  17
ENDBRANCH  15  16
ENDBRANCH  14  15
ENDBRANCH  13  14
ENDBRANCH  12  13
ENDBRANCH   1  12
TORSDOF 16
ENDMDL
MODEL 3
REMARK VINA RESULT:    -1.712      1.794      3.567
REMARK INTER + INTRA:          -6.162
REMARK INTER:                  -3.206
REMARK INTRA:                  -2.957
REMARK UNBOUND:                -2.849
REMARK SMILES CCCCCCCCCCCCCCCCCC(=O)[O-]
REMARK SMILES IDX 10 1 11 2 12 3 13 4 14 5 15 6 16 7 17 8 18 9 19 10 20 11
REMARK SMILES IDX 9 12 8 13 7 14 6 15 5 16 4 17 3 18 2 19 1 20
REMARK H PARENT
REMARK Flexibility Score: inf
ROOT
ATOM      1  C   UNL     1     114.404  15.224  26.974  1.00  0.00     0.000 C 
ENDROOT
BRANCH   1   2
ATOM      2  C   UNL     1     114.535  14.235  25.795  1.00  0.00     0.000 C 
BRANCH   2   3
ATOM      3  C   UNL     1     115.677  13.216  25.967  1.00  0.00     0.000 C 
BRANCH   3   4
ATOM      4  C   UNL     1     116.325  12.743  24.652  1.00  0.00     0.000 C 
BRANCH   4   5
ATOM      5  C   UNL     1     116.016  13.621  23.422  1.00  0.00     0.000 C 
BRANCH   5   6
ATOM      6  C   UNL     1     117.210  13.873  22.480  1.00  0.00     0.000 C 
BRANCH   6   7
ATOM      7  C   UNL     1     116.848  14.499  21.118  1.00  0.00     0.006 C 
BRANCH   7   8
ATOM      8  C   UNL     1     117.826  15.581  20.636  1.00  0.00     0.053 C 
BRANCH   8   9
ATOM      9  C   UNL     1     119.171  15.011  20.301  1.00  0.00     0.041 C 
ATOM     10  O   UNL     1     119.272  14.079  19.462  1.00  0.00    -0.550 OA
ATOM     11  O   UNL     1     120.315  15.532  20.892  1.00  0.00    -0.550 OA
ENDBRANCH   8   9
ENDBRANCH   7   8
ENDBRANCH   6   7
ENDBRANCH   5   6
ENDBRANCH   4   5
ENDBRANCH   3   4
ENDBRANCH   2   3
ENDBRANCH   1   2
BRANCH   1  12
ATOM     12  C   UNL     1     115.132  14.728  28.236  1.00  0.00     0.000 C 
BRANCH  12  13
ATOM     13  C   UNL     1     116.234  15.694  28.702  1.00  0.00    -0.000 C 
BRANCH  13  14
ATOM     14  C   UNL     1     117.640  15.084  28.598  1.00  0.00    -0.000 C 
BRANCH  14  15
ATOM     15  C   UNL     1     118.593  16.023  27.848  1.00  0.00    -0.000 C 
BRANCH  15  16
ATOM     16  C   UNL     1     117.841  16.837  26.785  1.00  0.00    -0.000 C 
BRANCH  16  17
ATOM     17  C   UNL     1     117.883  16.181  25.396  1.00  0.00    -0.000 C 
BRANCH  17  18
ATOM     18  C   UNL     1     117.417  17.127  24.279  1.00  0.00    -0.000 C 
BRANCH  18  19
ATOM     19  C   UNL     1     115.890  17.261  24.276  1.00  0.00    -0.003 C 
ATOM     20  C   UNL     1     115.347  17.348  22.853  1.00  0.00     0.004 C 
ENDBRANCH  18  19
ENDBRANCH  17  18
ENDBRANCH  16  17
ENDBRANCH  15  16
ENDBRANCH  14  15
ENDBRANCH  13  14
ENDBRANCH  12  13
ENDBRANCH   1  12
TORSDOF 16
ENDMDL
MODEL 4
REMARK VINA RESULT:    -1.708      2.675      5.158
REMARK INTER + INTRA:          -6.155
REMARK INTER:                  -3.541
REMARK INTRA:                  -2.614
REMARK UNBOUND:                -2.849
REMARK SMILES CCCCCCCCCCCCCCCCCC(=O)[O-]
REMARK SMILES IDX 10 1 11 2 12 3 13 4 14 5 15 6 16 7 17 8 18 9 19 10 20 11
REMARK SMILES IDX 9 12 8 13 7 14 6 15 5 16 4 17 3 18 2 19 1 20
REMARK H PARENT
REMARK Flexibility Score: inf
ROOT
ATOM      1  C   UNL     1     115.511  15.365  24.641  1.00  0.00     0.000 C 
ENDROOT
BRANCH   1   2
ATOM      2  C   UNL     1     114.058  14.849  24.548  1.00  0.00     0.000 C 
BRANCH   2   3
ATOM      3  C   UNL     1     113.128  15.421  25.634  1.00  0.00     0.000 C 
BRANCH   3   4
ATOM      4  C   UNL     1     113.516  15.051  27.078  1.00  0.00     0.000 C 
BRANCH   4   5
ATOM      5  C   UNL     1     113.481  13.541  27.394  1.00  0.00     0.000 C 
BRANCH   5   6
ATOM      6  C   UNL     1     114.745  12.985  28.078  1.00  0.00     0.000 C 
BRANCH   6   7
ATOM      7  C   UNL     1     115.546  14.010  28.906  1.00  0.00     0.006 C 
BRANCH   7   8
ATOM      8  C   UNL     1     117.002  14.195  28.450  1.00  0.00     0.053 C 
BRANCH   8   9
ATOM      9  C   UNL     1     117.307  15.623  28.114  1.00  0.00     0.041 C 
ATOM     10  O   UNL     1     116.453  16.521  28.333  1.00  0.00    -0.550 OA
ATOM     11  O   UNL     1     118.546  15.966  27.589  1.00  0.00    -0.550 OA
ENDBRANCH   8   9
ENDBRANCH   7   8
ENDBRANCH   6   7
ENDBRANCH   5   6
ENDBRANCH   4   5
ENDBRANCH   3   4
ENDBRANCH   2   3
ENDBRANCH   1   2
BRANCH   1  12
ATOM     12  C   UNL     1     116.530  14.222  24.793  1.00  0.00     0.000 C 
BRANCH  12  13
ATOM     13  C   UNL     1     115.883  12.832  24.672  1.00  0.00    -0.000 C 
BRANCH  13  14
ATOM     14  C   UNL     1     116.696  11.875  23.787  1.00  0.00    -0.000 C 
BRANCH  14  15
ATOM     15  C   UNL     1     116.285  12.005  22.315  1.00  0.00    -0.000 C 
BRANCH  15  16
ATOM     16  C   UNL     1     117.306  12.842  21.531  1.00  0.00    -0.000 C 
BRANCH  16  17
ATOM     17  C   UNL     1     116.731  14.186  21.057  1.00  0.00    -0.000 C 
BRANCH  17  18
ATOM     18  C   UNL     1     117.813  15.261  20.869  1.00  0.00    -0.000 C 
BRANCH  18  19
ATOM     19  C   UNL     1     118.803  15.252  22.040  1.00  0.00    -0.003 C 
ATOM     20  C   UNL     1     119.987  16.175  21.767  1.00  0.00     0.004 C 
ENDBRANCH  18  19
ENDBRANCH  17  18
ENDBRANCH  16  17
ENDBRANCH  15  16
ENDBRANCH  14  15
ENDBRANCH  13  14
ENDBRANCH  12  13
ENDBRANCH   1  12
TORSDOF 16
ENDMDL
MODEL 5
REMARK VINA RESULT:    -1.701      1.963      4.753
REMARK INTER + INTRA:          -6.142
REMARK INTER:                  -3.739
REMARK INTRA:                  -2.404
REMARK UNBOUND:                -2.849
REMARK SMILES CCCCCCCCCCCCCCCCCC(=O)[O-]
REMARK SMILES IDX 10 1 11 2 12 3 13 4 14 5 15 6 16 7 17 8 18 9 19 10 20 11
REMARK SMILES IDX 9 12 8 13 7 14 6 15 5 16 4 17 3 18 2 19 1 20
REMARK H PARENT
REMARK Flexibility Score: inf
ROOT
ATOM      1  C   UNL     1     114.556  12.815  25.266  1.00  0.00     0.000 C 
ENDROOT
BRANCH   1   2
ATOM      2  C   UNL     1     116.083  12.822  25.034  1.00  0.00     0.000 C 
BRANCH   2   3
ATOM      3  C   UNL     1     116.526  12.003  23.806  1.00  0.00     0.000 C 
BRANCH   3   4
ATOM      4  C   UNL     1     117.005  12.843  22.608  1.00  0.00     0.000 C 
BRANCH   4   5
ATOM      5  C   UNL     1     116.213  14.144  22.367  1.00  0.00     0.000 C 
BRANCH   5   6
ATOM      6  C   UNL     1     117.067  15.424  22.271  1.00  0.00     0.000 C 
BRANCH   6   7
ATOM      7  C   UNL     1     118.587  15.190  22.170  1.00  0.00     0.006 C 
BRANCH   7   8
ATOM      8  C   UNL     1     119.436  16.154  23.014  1.00  0.00     0.053 C 
BRANCH   8   9
ATOM      9  C   UNL     1     120.438  16.894  22.181  1.00  0.00     0.041 C 
ATOM     10  O   UNL     1     120.971  17.946  22.619  1.00  0.00    -0.550 OA
ATOM     11  O   UNL     1     120.807  16.402  20.935  1.00  0.00    -0.550 OA
ENDBRANCH   8   9
ENDBRANCH   7   8
ENDBRANCH   6   7
ENDBRANCH   5   6
ENDBRANCH   4   5
ENDBRANCH   3   4
ENDBRANCH   2   3
ENDBRANCH   1   2
BRANCH   1  12
ATOM     12  C   UNL     1     114.171  12.162  26.605  1.00  0.00     0.000 C 
BRANCH  12  13
ATOM     13  C   UNL     1     114.531  13.039  27.816  1.00  0.00    -0.000 C 
BRANCH  13  14
ATOM     14  C   UNL     1     115.594  12.395  28.719  1.00  0.00    -0.000 C 
BRANCH  14  15
ATOM     15  C   UNL     1     116.710  13.392  29.052  1.00  0.00    -0.000 C 
BRANCH  15  16
ATOM     16  C   UNL     1     116.488  14.729  28.329  1.00  0.00    -0.000 C 
BRANCH  16  17
ATOM     17  C   UNL     1     117.757  15.244  27.632  1.00  0.00    -0.000 C 
BRANCH  17  18
ATOM     18  C   UNL     1     117.458  15.952  26.302  1.00  0.00    -0.000 C 
BRANCH  18  19
ATOM     19  C   UNL     1     115.952  16.192  26.136  1.00  0.00    -0.003 C 
ATOM     20  C   UNL     1     115.681  17.341  25.170  1.00  0.00     0.004 C 
ENDBRANCH  18  19
ENDBRANCH  17  18
ENDBRANCH  16  17
ENDBRANCH  15  16
ENDBRANCH  14  15
ENDBRANCH  13  14
ENDBRANCH  12  13
ENDBRANCH   1  12
TORSDOF 16
ENDMDL
MODEL 6
REMARK VINA RESULT:    -1.689      2.653      5.386
REMARK INTER + INTRA:          -6.118
REMARK INTER:                  -3.322
REMARK INTRA:                  -2.796
REMARK UNBOUND:                -2.849
REMARK SMILES CCCCCCCCCCCCCCCCCC(=O)[O-]
REMARK SMILES IDX 10 1 11 2 12 3 13 4 14 5 15 6 16 7 17 8 18 9 19 10 20 11
REMARK SMILES IDX 9 12 8 13 7 14 6 15 5 16 4 17 3 18 2 19 1 20
REMARK H PARENT
REMARK Flexibility Score: inf
ROOT
ATOM      1  C   UNL     1     115.734  15.351  24.883  1.00  0.00     0.000 C 
ENDROOT
BRANCH   1   2
ATOM      2  C   UNL     1     116.698  16.504  25.240  1.00  0.00     0.000 C 
BRANCH   2   3
ATOM      3  C   UNL     1     117.837  16.085  26.190  1.00  0.00     0.000 C 
BRANCH   3   4
ATOM      4  C   UNL     1     117.792  16.742  27.581  1.00  0.00     0.000 C 
BRANCH   4   5
ATOM      5  C   UNL     1     117.049  15.929  28.662  1.00  0.00     0.000 C 
BRANCH   5   6
ATOM      6  C   UNL     1     117.259  14.404  28.594  1.00  0.00     0.000 C 
BRANCH   6   7
ATOM      7  C   UNL     1     115.989  13.558  28.815  1.00  0.00     0.006 C 
BRANCH   7   8
ATOM      8  C   UNL     1     114.687  14.238  28.365  1.00  0.00     0.053 C 
BRANCH   8   9
ATOM      9  C   UNL     1     113.556  13.262  28.252  1.00  0.00     0.041 C 
ATOM     10  O   UNL     1     112.365  13.663  28.330  1.00  0.00    -0.550 OA
ATOM     11  O   UNL     1     113.816  11.916  28.027  1.00  0.00    -0.550 OA
ENDBRANCH   8   9
ENDBRANCH   7   8
ENDBRANCH   6   7
ENDBRANCH   5   6
ENDBRANCH   4   5
ENDBRANCH   3   4
ENDBRANCH   2   3
ENDBRANCH   1   2
BRANCH   1  12
ATOM     12  C   UNL     1     116.398  13.970  25.019  1.00  0.00     0.000 C 
BRANCH  12  13
ATOM     13  C   UNL     1     115.384  12.816  24.962  1.00  0.00    -0.000 C 
BRANCH  13  14
ATOM     14  C   UNL     1     115.580  11.914  23.734  1.00  0.00    -0.000 C 
BRANCH  14  15
ATOM     15  C   UNL     1     117.053  11.876  23.309  1.00  0.00    -0.000 C 
BRANCH  15  16
ATOM     16  C   UNL     1     117.215  12.323  21.848  1.00  0.00    -0.000 C 
BRANCH  16  17
ATOM     17  C   UNL     1     116.034  13.172  21.353  1.00  0.00    -0.000 C 
BRANCH  17  18
ATOM     18  C   UNL     1     116.349  14.676  21.340  1.00  0.00    -0.000 C 
BRANCH  18  19
ATOM     19  C   UNL     1     117.840  14.925  21.597  1.00  0.00    -0.003 C 
ATOM     20  C   UNL     1     118.124  16.411  21.794  1.00  0.00     0.004 C 
ENDBRANCH  18  19
ENDBRANCH  17  18
ENDBRANCH  16  17
ENDBRANCH  15  16
ENDBRANCH  14  15
ENDBRANCH  13  14
ENDBRANCH  12  13
ENDBRANCH   1  12
TORSDOF 16
ENDMDL
MODEL 7
REMARK VINA RESULT:    -1.683      2.784      5.533
REMARK INTER + INTRA:          -6.107
REMARK INTER:                  -3.297
REMARK INTRA:                  -2.810
REMARK UNBOUND:                -2.849
REMARK SMILES CCCCCCCCCCCCCCCCCC(=O)[O-]
REMARK SMILES IDX 10 1 11 2 12 3 13 4 14 5 15 6 16 7 17 8 18 9 19 10 20 11
REMARK SMILES IDX 9 12 8 13 7 14 6 15 5 16 4 17 3 18 2 19 1 20
REMARK H PARENT
REMARK Flexibility Score: inf
ROOT
ATOM      1  C   UNL     1     115.540  16.699  23.848  1.00  0.00     0.000 C 
ENDROOT
BRANCH   1   2
ATOM      2  C   UNL     1     115.564  15.912  25.177  1.00  0.00     0.000 C 
BRANCH   2   3
ATOM      3  C   UNL     1     116.703  14.879  25.263  1.00  0.00     0.000 C 
BRANCH   3   4
ATOM      4  C   UNL     1     116.243  13.424  25.468  1.00  0.00     0.000 C 
BRANCH   4   5
ATOM      5  C   UNL     1     114.992  13.256  26.356  1.00  0.00     0.000 C 
BRANCH   5   6
ATOM      6  C   UNL     1     115.254  12.650  27.749  1.00  0.00     0.000 C 
BRANCH   6   7
ATOM      7  C   UNL     1     115.557  13.674  28.862  1.00  0.00     0.006 C 
BRANCH   7   8
ATOM      8  C   UNL     1     117.050  13.986  29.047  1.00  0.00     0.053 C 
BRANCH   8   9
ATOM      9  C   UNL     1     117.362  15.424  28.763  1.00  0.00     0.041 C 
ATOM     10  O   UNL     1     116.438  16.278  28.742  1.00  0.00    -0.550 OA
ATOM     11  O   UNL     1     118.675  15.824  28.554  1.00  0.00    -0.550 OA
ENDBRANCH   8   9
ENDBRANCH   7   8
ENDBRANCH   6   7
ENDBRANCH   5   6
ENDBRANCH   4   5
ENDBRANCH   3   4
ENDBRANCH   2   3
ENDBRANCH   1   2
BRANCH   1  12
ATOM     12  C   UNL     1     114.529  16.120  22.843  1.00  0.00     0.000 C 
BRANCH  12  13
ATOM     13  C   UNL     1     113.468  15.233  23.515  1.00  0.00    -0.000 C 
BRANCH  13  14
ATOM     14  C   UNL     1     113.489  13.787  22.996  1.00  0.00    -0.000 C 
BRANCH  14  15
ATOM     15  C   UNL     1     114.342  13.670  21.727  1.00  0.00    -0.000 C 
BRANCH  15  16
ATOM     16  C   UNL     1     115.483  12.660  21.922  1.00  0.00    -0.000 C 
BRANCH  16  17
ATOM     17  C   UNL     1     116.776  13.082  21.207  1.00  0.00    -0.000 C 
BRANCH  17  18
ATOM     18  C   UNL     1     117.606  14.084  22.024  1.00  0.00    -0.000 C 
BRANCH  18  19
ATOM     19  C   UNL     1     118.039  15.271  21.157  1.00  0.00    -0.003 C 
ATOM     20  C   UNL     1     119.543  15.507  21.256  1.00  0.00     0.004 C 
ENDBRANCH  18  19
ENDBRANCH  17  18
ENDBRANCH  16  17
ENDBRANCH  15  16
ENDBRANCH  14  15
ENDBRANCH  13  14
ENDBRANCH  12  13
ENDBRANCH   1  12
TORSDOF 16
ENDMDL
MODEL 8
REMARK VINA RESULT:    -1.629      2.601      4.693
REMARK INTER + INTRA:          -6.002
REMARK INTER:                  -3.580
REMARK INTRA:                  -2.422
REMARK UNBOUND:                -2.849
REMARK SMILES CCCCCCCCCCCCCCCCCC(=O)[O-]
REMARK SMILES IDX 10 1 11 2 12 3 13 4 14 5 15 6 16 7 17 8 18 9 19 10 20 11
REMARK SMILES IDX 9 12 8 13 7 14 6 15 5 16 4 17 3 18 2 19 1 20
REMARK H PARENT
REMARK Flexibility Score: inf
ROOT
ATOM      1  C   UNL     1     115.434  15.247  23.893  1.00  0.00     0.000 C 
ENDROOT
BRANCH   1   2
ATOM      2  C   UNL     1     116.378  14.555  24.900  1.00  0.00     0.000 C 
BRANCH   2   3
ATOM      3  C   UNL     1     116.307  13.016  24.858  1.00  0.00     0.000 C 
BRANCH   3   4
ATOM      4  C   UNL     1     115.015  12.413  25.441  1.00  0.00     0.000 C 
BRANCH   4   5
ATOM      5  C   UNL     1     114.524  13.068  26.749  1.00  0.00     0.000 C 
BRANCH   5   6
ATOM      6  C   UNL     1     115.050  12.420  28.045  1.00  0.00     0.000 C 
BRANCH   6   7
ATOM      7  C   UNL     1     115.595  13.407  29.096  1.00  0.00     0.006 C 
BRANCH   7   8
ATOM      8  C   UNL     1     117.077  13.772  28.917  1.00  0.00     0.053 C 
BRANCH   8   9
ATOM      9  C   UNL     1     117.255  15.193  28.477  1.00  0.00     0.041 C 
ATOM     10  O   UNL     1     116.256  15.950  28.365  1.00  0.00    -0.550 OA
ATOM     11  O   UNL     1     118.527  15.690  28.223  1.00  0.00    -0.550 OA
ENDBRANCH   8   9
ENDBRANCH   7   8
ENDBRANCH   6   7
ENDBRANCH   5   6
ENDBRANCH   4   5
ENDBRANCH   3   4
ENDBRANCH   2   3
ENDBRANCH   1   2
BRANCH   1  12
ATOM     12  C   UNL     1     116.203  15.991  22.787  1.00  0.00     0.000 C 
BRANCH  12  13
ATOM     13  C   UNL     1     116.467  15.113  21.554  1.00  0.00    -0.000 C 
BRANCH  13  14
ATOM     14  C   UNL     1     117.937  15.139  21.110  1.00  0.00    -0.000 C 
BRANCH  14  15
ATOM     15  C   UNL     1     118.874  15.270  22.317  1.00  0.00    -0.000 C 
BRANCH  15  16
ATOM     16  C   UNL     1     119.895  16.397  22.102  1.00  0.00    -0.000 C 
BRANCH  16  17
ATOM     17  C   UNL     1     119.954  17.376  23.285  1.00  0.00    -0.000 C 
BRANCH  17  18
ATOM     18  C   UNL     1     119.426  16.762  24.590  1.00  0.00    -0.000 C 
BRANCH  18  19
ATOM     19  C   UNL     1     119.020  17.857  25.585  1.00  0.00    -0.003 C 
ATOM     20  C   UNL     1     117.505  18.036  25.620  1.00  0.00     0.004 C 
ENDBRANCH  18  19
ENDBRANCH  17  18
ENDBRANCH  16  17
ENDBRANCH  15  16
ENDBRANCH  14  15
ENDBRANCH  13  14
ENDBRANCH  12  13
ENDBRANCH   1  12
TORSDOF 16
ENDMDL
MODEL 9
REMARK VINA RESULT:    -1.629      2.254      4.403
REMARK INTER + INTRA:          -6.001
REMARK INTER:                  -3.130
REMARK INTRA:                  -2.871
REMARK UNBOUND:                -2.849
REMARK SMILES CCCCCCCCCCCCCCCCCC(=O)[O-]
REMARK SMILES IDX 10 1 11 2 12 3 13 4 14 5 15 6 16 7 17 8 18 9 19 10 20 11
REMARK SMILES IDX 9 12 8 13 7 14 6 15 5 16 4 17 3 18 2 19 1 20
REMARK H PARENT
REMARK Flexibility Score: inf
ROOT
ATOM      1  C   UNL     1     119.558  18.736  23.966  1.00  0.00     0.000 C 
ENDROOT
BRANCH   1   2
ATOM      2  C   UNL     1     120.842  17.886  23.853  1.00  0.00     0.000 C 
BRANCH   2   3
ATOM      3  C   UNL     1     120.573  16.390  23.604  1.00  0.00     0.000 C 
BRANCH   3   4
ATOM      4  C   UNL     1     119.831  16.076  22.292  1.00  0.00     0.000 C 
BRANCH   4   5
ATOM      5  C   UNL     1     118.372  15.608  22.466  1.00  0.00     0.000 C 
BRANCH   5   6
ATOM      6  C   UNL     1     117.932  14.468  21.526  1.00  0.00     0.000 C 
BRANCH   6   7
ATOM      7  C   UNL     1     117.028  13.399  22.172  1.00  0.00     0.006 C 
BRANCH   7   8
ATOM      8  C   UNL     1     116.123  13.928  23.297  1.00  0.00     0.053 C 
BRANCH   8   9
ATOM      9  C   UNL     1     116.082  12.995  24.468  1.00  0.00     0.041 C 
ATOM     10  O   UNL     1     116.655  11.876  24.406  1.00  0.00    -0.550 OA
ATOM     11  O   UNL     1     115.440  13.375  25.640  1.00  0.00    -0.550 OA
ENDBRANCH   8   9
ENDBRANCH   7   8
ENDBRANCH   6   7
ENDBRANCH   5   6
ENDBRANCH   4   5
ENDBRANCH   3   4
ENDBRANCH   2   3
ENDBRANCH   1   2
BRANCH   1  12
ATOM     12  C   UNL     1     119.469  19.485  25.308  1.00  0.00     0.000 C 
BRANCH  12  13
ATOM     13  C   UNL     1     119.970  18.642  26.492  1.00  0.00    -0.000 C 
BRANCH  13  14
ATOM     14  C   UNL     1     118.826  17.979  27.274  1.00  0.00    -0.000 C 
BRANCH  14  15
ATOM     15  C   UNL     1     118.855  16.455  27.106  1.00  0.00    -0.000 C 
BRANCH  15  16
ATOM     16  C   UNL     1     117.810  15.995  26.079  1.00  0.00    -0.000 C 
BRANCH  16  17
ATOM     17  C   UNL     1     116.526  16.838  26.121  1.00  0.00    -0.000 C 
BRANCH  17  18
ATOM     18  C   UNL     1     116.157  17.425  24.750  1.00  0.00    -0.000 C 
BRANCH  18  19
ATOM     19  C   UNL     1     115.879  18.929  24.855  1.00  0.00    -0.003 C 
ATOM     20  C   UNL     1     115.797  19.572  23.474  1.00  0.00     0.004 C 
ENDBRANCH  18  19
ENDBRANCH  17  18
ENDBRANCH  16  17
ENDBRANCH  15  16
ENDBRANCH  14  15
ENDBRANCH  13  14
ENDBRANCH  12  13
ENDBRANCH   1  12
TORSDOF 16
ENDMDL
