MODEL 1
REMARK VINA RESULT:    -4.091      0.000      0.000
REMARK INTER + INTRA:          -7.407
REMARK INTER:                  -6.243
REMARK INTRA:                  -1.164
REMARK UNBOUND:                -1.164
REMARK SMILES CCCCCCCCCCC(=O)[O-]
REMARK SMILES IDX 7 1 8 2 9 3 10 4 11 5 12 6 13 7 6 8 5 9 4 10 3 11 2 12 1 13
REMARK H PARENT
REMARK Flexibility Score: inf
ROOT
ATOM      1  C   UNL     1      17.925  11.382  -7.136  1.00  0.00     0.000 C 
ENDROOT
BRANCH   1   2
ATOM      2  C   UNL     1      17.443  11.893  -5.770  1.00  0.00     0.000 C 
BRANCH   2   3
ATOM      3  C   UNL     1      18.404  12.952  -5.211  1.00  0.00     0.006 C 
BRANCH   3   4
ATOM      4  C   UNL     1      17.662  14.114  -4.537  1.00  0.00     0.053 C 
BRANCH   4   5
ATOM      5  C   UNL     1      17.300  15.186  -5.518  1.00  0.00     0.041 C 
ATOM      6  O   UNL     1      18.112  15.517  -6.423  1.00  0.00    -0.550 OA
ATOM      7  O   UNL     1      16.082  15.845  -5.413  1.00  0.00    -0.550 OA
ENDBRANCH   4   5
ENDBRANCH   3   4
ENDBRANCH   2   3
ENDBRANCH   1   2
BRANCH   1   8
ATOM      8  C   UNL     1      18.793  12.408  -7.883  1.00  0.00     0.000 C 
BRANCH   8   9
ATOM      9  C   UNL     1      18.234  12.753  -9.274  1.00  0.00    -0.000 C 
BRANCH   9  10
ATOM     10  C   UNL     1      17.210  13.899  -9.230  1.00  0.00    -0.000 C 
BRANCH  10  11
ATOM     11  C   UNL     1      15.904  13.559  -9.969  1.00  0.00    -0.000 C 
BRANCH  11  12
ATOM     12  C   UNL     1      14.969  12.673  -9.133  1.00  0.00    -0.003 C 
ATOM     13  C   UNL     1      14.682  13.258  -7.750  1.00  0.00     0.004 C 
ENDBRANCH  11  12
ENDBRANCH  10  11
ENDBRANCH   9  10
ENDBRANCH   8   9
ENDBRANCH   1   8
TORSDOF 9
ENDMDL
MODEL 2
REMARK VINA RESULT:    -3.928      1.640      2.873
REMARK INTER + INTRA:          -7.158
REMARK INTER:                  -6.083
REMARK INTRA:                  -1.075
REMARK UNBOUND:                -1.164
REMARK SMILES CCCCCCCCCCC(=O)[O-]
REMARK SMILES IDX 7 1 8 2 9 3 10 4 11 5 12 6 13 7 6 8 5 9 4 10 3 11 2 12 1 13
REMARK H PARENT
REMARK Flexibility Score: inf
ROOT
ATOM      1  C   UNL     1      15.622  13.103  -6.618  1.00  0.00     0.000 C 
ENDROOT
BRANCH   1   2
ATOM      2  C   UNL     1      16.796  12.163  -6.931  1.00  0.00     0.000 C 
BRANCH   2   3
ATOM      3  C   UNL     1      17.590  11.833  -5.659  1.00  0.00     0.006 C 
BRANCH   3   4
ATOM      4  C   UNL     1      18.833  12.718  -5.502  1.00  0.00     0.053 C 
BRANCH   4   5
ATOM      5  C   UNL     1      18.717  13.637  -4.324  1.00  0.00     0.041 C 
ATOM      6  O   UNL     1      19.490  13.504  -3.339  1.00  0.00    -0.550 OA
ATOM      7  O   UNL     1      17.732  14.616  -4.299  1.00  0.00    -0.550 OA
ENDBRANCH   4   5
ENDBRANCH   3   4
ENDBRANCH   2   3
ENDBRANCH   1   2
BRANCH   1   8
ATOM      8  C   UNL     1      14.792  13.455  -7.863  1.00  0.00     0.000 C 
BRANCH   8   9
ATOM      9  C   UNL     1      15.348  12.811  -9.145  1.00  0.00    -0.000 C 
BRANCH   9  10
ATOM     10  C   UNL     1      15.920  13.848 -10.124  1.00  0.00    -0.000 C 
BRANCH  10  11
ATOM     11  C   UNL     1      17.454  13.954 -10.049  1.00  0.00    -0.000 C 
BRANCH  11  12
ATOM     12  C   UNL     1      17.924  15.328  -9.548  1.00  0.00    -0.003 C 
ATOM     13  C   UNL     1      18.290  15.322  -8.064  1.00  0.00     0.004 C 
ENDBRANCH  11  12
ENDBRANCH  10  11
ENDBRANCH   9  10
ENDBRANCH   8   9
ENDBRANCH   1   8
TORSDOF 9
ENDMDL
MODEL 3
REMARK VINA RESULT:    -3.821      1.541      3.073
REMARK INTER + INTRA:          -6.995
REMARK INTER:                  -5.945
REMARK INTRA:                  -1.050
REMARK UNBOUND:                -1.164
REMARK SMILES CCCCCCCCCCC(=O)[O-]
REMARK SMILES IDX 7 1 8 2 9 3 10 4 11 5 12 6 13 7 6 8 5 9 4 10 3 11 2 12 1 13
REMARK H PARENT
REMARK Flexibility Score: inf
ROOT
ATOM      1  C   UNL     1      14.751  13.250  -7.448  1.00  0.00     0.000 C 
ENDROOT
BRANCH   1   2
ATOM      2  C   UNL     1      15.938  13.127  -6.481  1.00  0.00     0.000 C 
BRANCH   2   3
ATOM      3  C   UNL     1      16.305  14.495  -5.888  1.00  0.00     0.006 C 
BRANCH   3   4
ATOM      4  C   UNL     1      17.812  14.778  -5.966  1.00  0.00     0.053 C 
BRANCH   4   5
ATOM      5  C   UNL     1      18.501  14.480  -4.669  1.00  0.00     0.041 C 
ATOM      6  O   UNL     1      18.537  13.302  -4.227  1.00  0.00    -0.550 OA
ATOM      7  O   UNL     1      19.073  15.510  -3.933  1.00  0.00    -0.550 OA
ENDBRANCH   4   5
ENDBRANCH   3   4
ENDBRANCH   2   3
ENDBRANCH   1   2
BRANCH   1   8
ATOM      8  C   UNL     1      15.135  12.937  -8.903  1.00  0.00     0.000 C 
BRANCH   8   9
ATOM      9  C   UNL     1      16.307  13.799  -9.404  1.00  0.00    -0.000 C 
BRANCH   9  10
ATOM     10  C   UNL     1      17.494  12.952  -9.893  1.00  0.00    -0.000 C 
BRANCH  10  11
ATOM     11  C   UNL     1      18.756  13.146  -9.036  1.00  0.00    -0.000 C 
BRANCH  11  12
ATOM     12  C   UNL     1      19.392  11.812  -8.615  1.00  0.00    -0.003 C 
ATOM     13  C   UNL     1      18.700  11.183  -7.406  1.00  0.00     0.004 C 
ENDBRANCH  11  12
ENDBRANCH  10  11
ENDBRANCH   9  10
ENDBRANCH   8   9
ENDBRANCH   1   8
TORSDOF 9
ENDMDL
MODEL 4
REMARK VINA RESULT:    -3.819      2.177      4.456
REMARK INTER + INTRA:          -6.993
REMARK INTER:                  -6.087
REMARK INTRA:                  -0.906
REMARK UNBOUND:                -1.164
REMARK SMILES CCCCCCCCCCC(=O)[O-]
REMARK SMILES IDX 7 1 8 2 9 3 10 4 11 5 12 6 13 7 6 8 5 9 4 10 3 11 2 12 1 13
REMARK H PARENT
REMARK Flexibility Score: inf
ROOT
ATOM      1  C   UNL     1      18.393  11.428  -6.250  1.00  0.00     0.000 C 
ENDROOT
BRANCH   1   2
ATOM      2  C   UNL     1      18.870  11.989  -7.598  1.00  0.00     0.000 C 
BRANCH   2   3
ATOM      3  C   UNL     1      17.710  12.642  -8.362  1.00  0.00     0.006 C 
BRANCH   3   4
ATOM      4  C   UNL     1      16.400  12.618  -7.563  1.00  0.00     0.053 C 
BRANCH   4   5
ATOM      5  C   UNL     1      15.224  12.996  -8.412  1.00  0.00     0.041 C 
ATOM      6  O   UNL     1      14.099  13.197  -7.882  1.00  0.00    -0.550 OA
ATOM      7  O   UNL     1      15.363  13.094  -9.790  1.00  0.00    -0.550 OA
ENDBRANCH   4   5
ENDBRANCH   3   4
ENDBRANCH   2   3
ENDBRANCH   1   2
BRANCH   1   8
ATOM      8  C   UNL     1      19.419  11.632  -5.124  1.00  0.00     0.000 C 
BRANCH   8   9
ATOM      9  C   UNL     1      19.995  13.059  -5.101  1.00  0.00    -0.000 C 
BRANCH   9  10
ATOM     10  C   UNL     1      19.734  13.778  -3.767  1.00  0.00    -0.000 C 
BRANCH  10  11
ATOM     11  C   UNL     1      18.789  14.983  -3.916  1.00  0.00    -0.000 C 
BRANCH  11  12
ATOM     12  C   UNL     1      17.498  14.628  -4.668  1.00  0.00    -0.003 C 
ATOM     13  C   UNL     1      16.819  15.851  -5.285  1.00  0.00     0.004 C 
ENDBRANCH  11  12
ENDBRANCH  10  11
ENDBRANCH   9  10
ENDBRANCH   8   9
ENDBRANCH   1   8
TORSDOF 9
ENDMDL
MODEL 5
REMARK VINA RESULT:    -3.770      2.307      3.060
REMARK INTER + INTRA:          -6.917
REMARK INTER:                  -5.633
REMARK INTRA:                  -1.284
REMARK UNBOUND:                -1.164
REMARK SMILES CCCCCCCCCCC(=O)[O-]
REMARK SMILES IDX 7 1 8 2 9 3 10 4 11 5 12 6 13 7 6 8 5 9 4 10 3 11 2 12 1 13
REMARK H PARENT
REMARK Flexibility Score: inf
ROOT
ATOM      1  C   UNL     1      18.198  15.132  -6.415  1.00  0.00     0.000 C 
ENDROOT
BRANCH   1   2
ATOM      2  C   UNL     1      17.193  14.417  -5.500  1.00  0.00     0.000 C 
BRANCH   2   3
ATOM      3  C   UNL     1      17.801  13.133  -4.915  1.00  0.00     0.006 C 
BRANCH   3   4
ATOM      4  C   UNL     1      17.576  11.916  -5.822  1.00  0.00     0.053 C 
BRANCH   4   5
ATOM      5  C   UNL     1      18.856  11.197  -6.116  1.00  0.00     0.041 C 
ATOM      6  O   UNL     1      19.734  11.076  -5.221  1.00  0.00    -0.550 OA
ATOM      7  O   UNL     1      19.095  10.691  -7.387  1.00  0.00    -0.550 OA
ENDBRANCH   4   5
ENDBRANCH   3   4
ENDBRANCH   2   3
ENDBRANCH   1   2
BRANCH   1   8
ATOM      8  C   UNL     1      17.772  15.117  -7.892  1.00  0.00     0.000 C 
BRANCH   8   9
ATOM      9  C   UNL     1      18.518  14.049  -8.711  1.00  0.00    -0.000 C 
BRANCH   9  10
ATOM     10  C   UNL     1      17.561  13.078  -9.424  1.00  0.00    -0.000 C 
BRANCH  10  11
ATOM     11  C   UNL     1      16.161  13.678  -9.643  1.00  0.00    -0.000 C 
BRANCH  11  12
ATOM     12  C   UNL     1      15.043  12.776  -9.098  1.00  0.00    -0.003 C 
ATOM     13  C   UNL     1      14.528  13.234  -7.734  1.00  0.00     0.004 C 
ENDBRANCH  11  12
ENDBRANCH  10  11
ENDBRANCH   9  10
ENDBRANCH   8   9
ENDBRANCH   1   8
TORSDOF 9
ENDMDL
MODEL 6
REMARK VINA RESULT:    -3.674      1.694      4.541
REMARK INTER + INTRA:          -6.772
REMARK INTER:                  -5.822
REMARK INTRA:                  -0.950
REMARK UNBOUND:                -1.164
REMARK SMILES CCCCCCCCCCC(=O)[O-]
REMARK SMILES IDX 7 1 8 2 9 3 10 4 11 5 12 6 13 7 6 8 5 9 4 10 3 11 2 12 1 13
REMARK H PARENT
REMARK Flexibility Score: inf
ROOT
ATOM      1  C   UNL     1      15.587  13.192  -6.559  1.00  0.00     0.000 C 
ENDROOT
BRANCH   1   2
ATOM      2  C   UNL     1      14.677  13.427  -7.774  1.00  0.00     0.000 C 
BRANCH   2   3
ATOM      3  C   UNL     1      15.248  12.749  -9.027  1.00  0.00     0.006 C 
BRANCH   3   4
ATOM      4  C   UNL     1      15.945  13.746  -9.963  1.00  0.00     0.053 C 
BRANCH   4   5
ATOM      5  C   UNL     1      17.399  13.894  -9.634  1.00  0.00     0.041 C 
ATOM      6  O   UNL     1      18.186  12.922  -9.787  1.00  0.00    -0.550 OA
ATOM      7  O   UNL     1      17.880  15.094  -9.126  1.00  0.00    -0.550 OA
ENDBRANCH   4   5
ENDBRANCH   3   4
ENDBRANCH   2   3
ENDBRANCH   1   2
BRANCH   1   8
ATOM      8  C   UNL     1      16.257  14.481  -6.058  1.00  0.00     0.000 C 
BRANCH   8   9
ATOM      9  C   UNL     1      17.461  14.204  -5.141  1.00  0.00    -0.000 C 
BRANCH   9  10
ATOM     10  C   UNL     1      18.639  13.563  -5.894  1.00  0.00    -0.000 C 
BRANCH  10  11
ATOM     11  C   UNL     1      19.205  12.329  -5.172  1.00  0.00    -0.000 C 
BRANCH  11  12
ATOM     12  C   UNL     1      19.486  11.162  -6.132  1.00  0.00    -0.003 C 
ATOM     13  C   UNL     1      18.296  10.845  -7.038  1.00  0.00     0.004 C 
ENDBRANCH  11  12
ENDBRANCH  10  11
ENDBRANCH   9  10
ENDBRANCH   8   9
ENDBRANCH   1   8
TORSDOF 9
ENDMDL
MODEL 7
REMARK VINA RESULT:    -3.610      9.803     10.969
REMARK INTER + INTRA:          -6.674
REMARK INTER:                  -6.133
REMARK INTRA:                  -0.541
REMARK UNBOUND:                -1.164
REMARK SMILES CCCCCCCCCCC(=O)[O-]
REMARK SMILES IDX 7 1 8 2 9 3 10 4 11 5 12 6 13 7 6 8 5 9 4 10 3 11 2 12 1 13
REMARK H PARENT
REMARK Flexibility Score: inf
ROOT
ATOM      1  C   UNL     1      17.342   3.047  -3.241  1.00  0.00     0.000 C 
ENDROOT
BRANCH   1   2
ATOM      2  C   UNL     1      18.407   3.810  -2.440  1.00  0.00     0.000 C 
BRANCH   2   3
ATOM      3  C   UNL     1      17.860   4.242  -1.072  1.00  0.00     0.006 C 
BRANCH   3   4
ATOM      4  C   UNL     1      16.359   3.957  -0.928  1.00  0.00     0.053 C 
BRANCH   4   5
ATOM      5  C   UNL     1      16.082   2.979   0.172  1.00  0.00     0.041 C 
ATOM      6  O   UNL     1      14.902   2.793   0.572  1.00  0.00    -0.550 OA
ATOM      7  O   UNL     1      17.129   2.299   0.780  1.00  0.00    -0.550 OA
ENDBRANCH   4   5
ENDBRANCH   3   4
ENDBRANCH   2   3
ENDBRANCH   1   2
BRANCH   1   8
ATOM      8  C   UNL     1      17.734   2.848  -4.714  1.00  0.00     0.000 C 
BRANCH   8   9
ATOM      9  C   UNL     1      16.612   2.198  -5.541  1.00  0.00    -0.000 C 
BRANCH   9  10
ATOM     10  C   UNL     1      15.802   3.228  -6.346  1.00  0.00    -0.000 C 
BRANCH  10  11
ATOM     11  C   UNL     1      16.678   4.351  -6.926  1.00  0.00    -0.000 C 
BRANCH  11  12
ATOM     12  C   UNL     1      15.958   5.708  -6.945  1.00  0.00    -0.003 C 
ATOM     13  C   UNL     1      14.479   5.597  -6.578  1.00  0.00     0.004 C 
ENDBRANCH  11  12
ENDBRANCH  10  11
ENDBRANCH   9  10
ENDBRANCH   8   9
ENDBRANCH   1   8
TORSDOF 9
ENDMDL
MODEL 8
REMARK VINA RESULT:    -3.502      2.416      4.780
REMARK INTER + INTRA:          -6.509
REMARK INTER:                  -5.647
REMARK INTRA:                  -0.862
REMARK UNBOUND:                -1.164
REMARK SMILES CCCCCCCCCCC(=O)[O-]
REMARK SMILES IDX 7 1 8 2 9 3 10 4 11 5 12 6 13 7 6 8 5 9 4 10 3 11 2 12 1 13
REMARK H PARENT
REMARK Flexibility Score: inf
ROOT
ATOM      1  C   UNL     1      17.589  14.731  -4.441  1.00  0.00     0.000 C 
ENDROOT
BRANCH   1   2
ATOM      2  C   UNL     1      16.705  14.959  -5.676  1.00  0.00     0.000 C 
BRANCH   2   3
ATOM      3  C   UNL     1      16.317  13.624  -6.326  1.00  0.00     0.006 C 
BRANCH   3   4
ATOM      4  C   UNL     1      16.403  13.675  -7.858  1.00  0.00     0.053 C 
BRANCH   4   5
ATOM      5  C   UNL     1      15.141  13.189  -8.502  1.00  0.00     0.041 C 
ATOM      6  O   UNL     1      14.068  13.151  -7.843  1.00  0.00    -0.550 OA
ATOM      7  O   UNL     1      15.156  12.746  -9.818  1.00  0.00    -0.550 OA
ENDBRANCH   4   5
ENDBRANCH   3   4
ENDBRANCH   2   3
ENDBRANCH   1   2
BRANCH   1   8
ATOM      8  C   UNL     1      18.977  15.379  -4.574  1.00  0.00     0.000 C 
BRANCH   8   9
ATOM      9  C   UNL     1      20.120  14.354  -4.477  1.00  0.00    -0.000 C 
BRANCH   9  10
ATOM     10  C   UNL     1      20.010  13.248  -5.540  1.00  0.00    -0.000 C 
BRANCH  10  11
ATOM     11  C   UNL     1      20.057  11.834  -4.933  1.00  0.00    -0.000 C 
BRANCH  11  12
ATOM     12  C   UNL     1      19.969  10.733  -6.000  1.00  0.00    -0.003 C 
ATOM     13  C   UNL     1      18.881  11.004  -7.040  1.00  0.00     0.004 C 
ENDBRANCH  11  12
ENDBRANCH  10  11
ENDBRANCH   9  10
ENDBRANCH   8   9
ENDBRANCH   1   8
TORSDOF 9
ENDMDL
MODEL 9
REMARK VINA RESULT:    -3.496      2.365      3.752
REMARK INTER + INTRA:          -6.500
REMARK INTER:                  -5.674
REMARK INTRA:                  -0.825
REMARK UNBOUND:                -1.164
REMARK SMILES CCCCCCCCCCC(=O)[O-]
REMARK SMILES IDX 7 1 8 2 9 3 10 4 11 5 12 6 13 7 6 8 5 9 4 10 3 11 2 12 1 13
REMARK H PARENT
REMARK Flexibility Score: inf
ROOT
ATOM      1  C   UNL     1      18.099  14.422  -4.210  1.00  0.00     0.000 C 
ENDROOT
BRANCH   1   2
ATOM      2  C   UNL     1      19.422  13.643  -4.201  1.00  0.00     0.000 C 
BRANCH   2   3
ATOM      3  C   UNL     1      19.746  13.094  -5.598  1.00  0.00     0.006 C 
BRANCH   3   4
ATOM      4  C   UNL     1      19.568  11.572  -5.681  1.00  0.00     0.053 C 
BRANCH   4   5
ATOM      5  C   UNL     1      19.010  11.150  -7.006  1.00  0.00     0.041 C 
ATOM      6  O   UNL     1      17.902  10.553  -7.066  1.00  0.00    -0.550 OA
ATOM      7  O   UNL     1      19.728  11.384  -8.171  1.00  0.00    -0.550 OA
ENDBRANCH   4   5
ENDBRANCH   3   4
ENDBRANCH   2   3
ENDBRANCH   1   2
BRANCH   1   8
ATOM      8  C   UNL     1      17.752  14.989  -5.596  1.00  0.00     0.000 C 
BRANCH   8   9
ATOM      9  C   UNL     1      16.277  14.766  -5.974  1.00  0.00    -0.000 C 
BRANCH   9  10
ATOM     10  C   UNL     1      16.006  13.335  -6.468  1.00  0.00    -0.000 C 
BRANCH  10  11
ATOM     11  C   UNL     1      14.803  13.255  -7.424  1.00  0.00    -0.000 C 
BRANCH  11  12
ATOM     12  C   UNL     1      15.201  12.789  -8.833  1.00  0.00    -0.003 C 
ATOM     13  C   UNL     1      16.627  13.192  -9.207  1.00  0.00     0.004 C 
ENDBRANCH  11  12
ENDBRANCH  10  11
ENDBRANCH   9  10
ENDBRANCH   8   9
ENDBRANCH   1   8
TORSDOF 9
ENDMDL
