MODEL 1
REMARK VINA RESULT:    -3.659      0.000      0.000
REMARK INTER + INTRA:          -6.395
REMARK INTER:                  -5.049
REMARK INTRA:                  -1.345
REMARK UNBOUND:                -1.345
REMARK SMILES CCCCc1cccc(O)c1CCCC
REMARK SMILES IDX 5 1 11 2 9 3 8 4 7 5 6 6 4 7 3 8 2 9 1 10 12 11 13 12 14 13
REMARK SMILES IDX 15 14 10 15
REMARK H PARENT 10 16
REMARK Flexibility Score: inf
ROOT
ATOM      1  C   UNL     1    -100.995  -7.338 -68.230  1.00  0.00    -0.041 A 
ATOM      2  C   UNL     1    -101.591  -8.392 -67.473  1.00  0.00    -0.003 A 
ATOM      3  C   UNL     1    -101.066  -8.692 -66.191  1.00  0.00     0.119 A 
ATOM      4  C   UNL     1     -99.999  -7.951 -65.671  1.00  0.00     0.046 A 
ATOM      5  C   UNL     1     -99.454  -6.897 -66.395  1.00  0.00     0.004 A 
ATOM      6  C   UNL     1     -99.951  -6.589 -67.658  1.00  0.00     0.004 A 
ENDROOT
BRANCH   1   7
ATOM      7  C   UNL     1    -101.415  -6.981 -69.645  1.00  0.00     0.036 C 
BRANCH   7   8
ATOM      8  C   UNL     1    -100.250  -7.093 -70.650  1.00  0.00     0.004 C 
BRANCH   8   9
ATOM      9  C   UNL     1    -100.048  -8.519 -71.182  1.00  0.00    -0.003 C 
ATOM     10  C   UNL     1    -101.076  -8.854 -72.259  1.00  0.00     0.004 C 
ENDBRANCH   8   9
ENDBRANCH   7   8
ENDBRANCH   1   7
BRANCH   2  11
ATOM     11  C   UNL     1    -102.816  -9.160 -67.959  1.00  0.00     0.040 C 
BRANCH  11  12
ATOM     12  C   UNL     1    -102.487 -10.385 -68.831  1.00  0.00     0.005 C 
BRANCH  12  13
ATOM     13  C   UNL     1    -103.468 -10.616 -69.993  1.00  0.00    -0.003 C 
ATOM     14  C   UNL     1    -104.249  -9.355 -70.358  1.00  0.00     0.004 C 
ENDBRANCH  12  13
ENDBRANCH  11  12
ENDBRANCH   2  11
BRANCH   3  15
ATOM     15  O   UNL     1    -101.608  -9.726 -65.427  1.00  0.00    -0.508 OA
ATOM     16  H   UNL     1    -101.024 -10.350 -64.882  1.00  0.00     0.293 HD
ENDBRANCH   3  15
TORSDOF 7
ENDMDL
MODEL 2
REMARK VINA RESULT:    -3.637     11.390     13.081
REMARK INTER + INTRA:          -6.364
REMARK INTER:                  -5.236
REMARK INTRA:                  -1.128
REMARK UNBOUND:                -1.345
REMARK SMILES CCCCc1cccc(O)c1CCCC
REMARK SMILES IDX 5 1 11 2 9 3 8 4 7 5 6 6 4 7 3 8 2 9 1 10 12 11 13 12 14 13
REMARK SMILES IDX 15 14 10 15
REMARK H PARENT 10 16
REMARK Flexibility Score: inf
ROOT
ATOM      1  C   UNL     1     -95.450 -18.322 -64.917  1.00  0.00    -0.041 A 
ATOM      2  C   UNL     1     -95.827 -17.050 -64.388  1.00  0.00    -0.003 A 
ATOM      3  C   UNL     1     -97.203 -16.714 -64.336  1.00  0.00     0.119 A 
ATOM      4  C   UNL     1     -98.172 -17.625 -64.772  1.00  0.00     0.046 A 
ATOM      5  C   UNL     1     -97.799 -18.878 -65.243  1.00  0.00     0.004 A 
ATOM      6  C   UNL     1     -96.453 -19.226 -65.310  1.00  0.00     0.004 A 
ENDROOT
BRANCH   1   7
ATOM      7  C   UNL     1     -94.007 -18.759 -65.102  1.00  0.00     0.036 C 
BRANCH   7   8
ATOM      8  C   UNL     1     -93.598 -19.868 -64.111  1.00  0.00     0.004 C 
BRANCH   8   9
ATOM      9  C   UNL     1     -92.081 -20.093 -64.051  1.00  0.00    -0.003 C 
ATOM     10  C   UNL     1     -91.397 -19.012 -63.219  1.00  0.00     0.004 C 
ENDBRANCH   8   9
ENDBRANCH   7   8
ENDBRANCH   1   7
BRANCH   2  11
ATOM     11  C   UNL     1     -94.812 -16.068 -63.812  1.00  0.00     0.040 C 
BRANCH  11  12
ATOM     12  C   UNL     1     -94.124 -16.555 -62.524  1.00  0.00     0.005 C 
BRANCH  12  13
ATOM     13  C   UNL     1     -95.028 -17.388 -61.599  1.00  0.00    -0.003 C 
ATOM     14  C   UNL     1     -94.242 -18.402 -60.771  1.00  0.00     0.004 C 
ENDBRANCH  12  13
ENDBRANCH  11  12
ENDBRANCH   2  11
BRANCH   3  15
ATOM     15  O   UNL     1     -97.611 -15.475 -63.842  1.00  0.00    -0.508 OA
ATOM     16  H   UNL     1     -97.334 -15.149 -62.923  1.00  0.00     0.293 HD
ENDBRANCH   3  15
TORSDOF 7
ENDMDL
MODEL 3
REMARK VINA RESULT:    -3.506     11.879     13.151
REMARK INTER + INTRA:          -6.183
REMARK INTER:                  -4.846
REMARK INTRA:                  -1.337
REMARK UNBOUND:                -1.345
REMARK SMILES CCCCc1cccc(O)c1CCCC
REMARK SMILES IDX 5 1 11 2 9 3 8 4 7 5 6 6 4 7 3 8 2 9 1 10 12 11 13 12 14 13
REMARK SMILES IDX 15 14 10 15
REMARK H PARENT 10 16
REMARK Flexibility Score: inf
ROOT
ATOM      1  C   UNL     1     -95.084 -17.739 -63.279  1.00  0.00    -0.041 A 
ATOM      2  C   UNL     1     -96.289 -18.107 -63.954  1.00  0.00    -0.003 A 
ATOM      3  C   UNL     1     -97.006 -17.109 -64.661  1.00  0.00     0.119 A 
ATOM      4  C   UNL     1     -96.526 -15.795 -64.715  1.00  0.00     0.046 A 
ATOM      5  C   UNL     1     -95.330 -15.456 -64.094  1.00  0.00     0.004 A 
ATOM      6  C   UNL     1     -94.613 -16.419 -63.389  1.00  0.00     0.004 A 
ENDROOT
BRANCH   1   7
ATOM      7  C   UNL     1     -94.278 -18.698 -62.422  1.00  0.00     0.036 C 
BRANCH   7   8
ATOM      8  C   UNL     1     -92.796 -18.762 -62.847  1.00  0.00     0.004 C 
BRANCH   8   9
ATOM      9  C   UNL     1     -92.594 -19.382 -64.237  1.00  0.00    -0.003 C 
ATOM     10  C   UNL     1     -91.878 -20.726 -64.141  1.00  0.00     0.004 C 
ENDBRANCH   8   9
ENDBRANCH   7   8
ENDBRANCH   1   7
BRANCH   2  11
ATOM     11  C   UNL     1     -96.796 -19.544 -64.003  1.00  0.00     0.040 C 
BRANCH  11  12
ATOM     12  C   UNL     1     -96.161 -20.400 -65.113  1.00  0.00     0.005 C 
BRANCH  12  13
ATOM     13  C   UNL     1     -95.826 -21.840 -64.689  1.00  0.00    -0.003 C 
ATOM     14  C   UNL     1     -95.630 -21.974 -63.180  1.00  0.00     0.004 C 
ENDBRANCH  12  13
ENDBRANCH  11  12
ENDBRANCH   2  11
BRANCH   3  15
ATOM     15  O   UNL     1     -98.196 -17.423 -65.318  1.00  0.00    -0.508 OA
ATOM     16  H   UNL     1     -98.577 -16.829 -66.046  1.00  0.00     0.293 HD
ENDBRANCH   3  15
TORSDOF 7
ENDMDL
MODEL 4
REMARK VINA RESULT:    -3.487      1.520      1.966
REMARK INTER + INTRA:          -6.158
REMARK INTER:                  -4.997
REMARK INTRA:                  -1.160
REMARK UNBOUND:                -1.345
REMARK SMILES CCCCc1cccc(O)c1CCCC
REMARK SMILES IDX 5 1 11 2 9 3 8 4 7 5 6 6 4 7 3 8 2 9 1 10 12 11 13 12 14 13
REMARK SMILES IDX 15 14 10 15
REMARK H PARENT 10 16
REMARK Flexibility Score: inf
ROOT
ATOM      1  C   UNL     1    -100.367  -6.806 -66.861  1.00  0.00    -0.041 A 
ATOM      2  C   UNL     1    -101.249  -7.689 -66.165  1.00  0.00    -0.003 A 
ATOM      3  C   UNL     1    -101.952  -7.200 -65.036  1.00  0.00     0.119 A 
ATOM      4  C   UNL     1    -101.802  -5.869 -64.629  1.00  0.00     0.046 A 
ATOM      5  C   UNL     1    -100.977  -5.005 -65.338  1.00  0.00     0.004 A 
ATOM      6  C   UNL     1    -100.272  -5.466 -66.446  1.00  0.00     0.004 A 
ENDROOT
BRANCH   1   7
ATOM      7  C   UNL     1     -99.498  -7.238 -68.029  1.00  0.00     0.036 C 
BRANCH   7   8
ATOM      8  C   UNL     1     -99.897  -6.541 -69.346  1.00  0.00     0.004 C 
BRANCH   8   9
ATOM      9  C   UNL     1    -100.806  -7.404 -70.233  1.00  0.00    -0.003 C 
ATOM     10  C   UNL     1     -99.989  -8.383 -71.070  1.00  0.00     0.004 C 
ENDBRANCH   8   9
ENDBRANCH   7   8
ENDBRANCH   1   7
BRANCH   2  11
ATOM     11  C   UNL     1    -101.517  -9.116 -66.632  1.00  0.00     0.040 C 
BRANCH  11  12
ATOM     12  C   UNL     1    -102.655  -9.240 -67.661  1.00  0.00     0.005 C 
BRANCH  12  13
ATOM     13  C   UNL     1    -102.464 -10.375 -68.681  1.00  0.00    -0.003 C 
ATOM     14  C   UNL     1    -103.265 -10.150 -69.962  1.00  0.00     0.004 C 
ENDBRANCH  12  13
ENDBRANCH  11  12
ENDBRANCH   2  11
BRANCH   3  15
ATOM     15  O   UNL     1    -102.809  -8.035 -64.319  1.00  0.00    -0.508 OA
ATOM     16  H   UNL     1    -103.398  -8.720 -64.781  1.00  0.00     0.293 HD
ENDBRANCH   3  15
TORSDOF 7
ENDMDL
MODEL 5
REMARK VINA RESULT:    -3.472     12.828     14.231
REMARK INTER + INTRA:          -6.137
REMARK INTER:                  -4.949
REMARK INTRA:                  -1.188
REMARK UNBOUND:                -1.345
REMARK SMILES CCCCc1cccc(O)c1CCCC
REMARK SMILES IDX 5 1 11 2 9 3 8 4 7 5 6 6 4 7 3 8 2 9 1 10 12 11 13 12 14 13
REMARK SMILES IDX 15 14 10 15
REMARK H PARENT 10 16
REMARK Flexibility Score: inf
ROOT
ATOM      1  C   UNL     1     -93.854 -20.007 -63.095  1.00  0.00    -0.041 A 
ATOM      2  C   UNL     1     -93.081 -18.830 -62.852  1.00  0.00    -0.003 A 
ATOM      3  C   UNL     1     -91.687 -18.865 -63.106  1.00  0.00     0.119 A 
ATOM      4  C   UNL     1     -91.088 -20.025 -63.610  1.00  0.00     0.046 A 
ATOM      5  C   UNL     1     -91.854 -21.150 -63.888  1.00  0.00     0.004 A 
ATOM      6  C   UNL     1     -93.223 -21.140 -63.639  1.00  0.00     0.004 A 
ENDROOT
BRANCH   1   7
ATOM      7  C   UNL     1     -95.336 -20.116 -62.781  1.00  0.00     0.036 C 
BRANCH   7   8
ATOM      8  C   UNL     1     -96.137 -20.740 -63.942  1.00  0.00     0.004 C 
BRANCH   8   9
ATOM      9  C   UNL     1     -96.231 -19.823 -65.170  1.00  0.00    -0.003 C 
ATOM     10  C   UNL     1     -97.653 -19.302 -65.360  1.00  0.00     0.004 C 
ENDBRANCH   8   9
ENDBRANCH   7   8
ENDBRANCH   1   7
BRANCH   2  11
ATOM     11  C   UNL     1     -93.709 -17.516 -62.396  1.00  0.00     0.040 C 
BRANCH  11  12
ATOM     12  C   UNL     1     -94.361 -16.703 -63.528  1.00  0.00     0.005 C 
BRANCH  12  13
ATOM     13  C   UNL     1     -95.883 -16.528 -63.384  1.00  0.00    -0.003 C 
ATOM     14  C   UNL     1     -96.513 -15.866 -64.608  1.00  0.00     0.004 C 
ENDBRANCH  12  13
ENDBRANCH  11  12
ENDBRANCH   2  11
BRANCH   3  15
ATOM     15  O   UNL     1     -90.895 -17.742 -62.865  1.00  0.00    -0.508 OA
ATOM     16  H   UNL     1     -90.660 -17.086 -63.601  1.00  0.00     0.293 HD
ENDBRANCH   3  15
TORSDOF 7
ENDMDL
MODEL 6
REMARK VINA RESULT:    -3.419     12.232     13.715
REMARK INTER + INTRA:          -6.063
REMARK INTER:                  -4.784
REMARK INTRA:                  -1.279
REMARK UNBOUND:                -1.345
REMARK SMILES CCCCc1cccc(O)c1CCCC
REMARK SMILES IDX 5 1 11 2 9 3 8 4 7 5 6 6 4 7 3 8 2 9 1 10 12 11 13 12 14 13
REMARK SMILES IDX 15 14 10 15
REMARK H PARENT 10 16
REMARK Flexibility Score: inf
ROOT
ATOM      1  C   UNL     1     -95.239 -18.238 -64.517  1.00  0.00    -0.041 A 
ATOM      2  C   UNL     1     -94.234 -17.893 -63.561  1.00  0.00    -0.003 A 
ATOM      3  C   UNL     1     -94.107 -16.537 -63.167  1.00  0.00     0.119 A 
ATOM      4  C   UNL     1     -94.967 -15.563 -63.687  1.00  0.00     0.046 A 
ATOM      5  C   UNL     1     -95.971 -15.916 -64.581  1.00  0.00     0.004 A 
ATOM      6  C   UNL     1     -96.110 -17.239 -64.987  1.00  0.00     0.004 A 
ENDROOT
BRANCH   1   7
ATOM      7  C   UNL     1     -95.415 -19.638 -65.078  1.00  0.00     0.036 C 
BRANCH   7   8
ATOM      8  C   UNL     1     -96.684 -20.330 -64.540  1.00  0.00     0.004 C 
BRANCH   8   9
ATOM      9  C   UNL     1     -96.532 -20.832 -63.098  1.00  0.00    -0.003 C 
ATOM     10  C   UNL     1     -97.385 -20.009 -62.136  1.00  0.00     0.004 C 
ENDBRANCH   8   9
ENDBRANCH   7   8
ENDBRANCH   1   7
BRANCH   2  11
ATOM     11  C   UNL     1     -93.341 -18.935 -62.897  1.00  0.00     0.040 C 
BRANCH  11  12
ATOM     12  C   UNL     1     -92.016 -19.194 -63.637  1.00  0.00     0.005 C 
BRANCH  12  13
ATOM     13  C   UNL     1     -91.869 -20.623 -64.187  1.00  0.00    -0.003 C 
ATOM     14  C   UNL     1     -92.796 -21.617 -63.489  1.00  0.00     0.004 C 
ENDBRANCH  12  13
ENDBRANCH  11  12
ENDBRANCH   2  11
BRANCH   3  15
ATOM     15  O   UNL     1     -93.127 -16.155 -62.250  1.00  0.00    -0.508 OA
ATOM     16  H   UNL     1     -93.347 -15.980 -61.276  1.00  0.00     0.293 HD
ENDBRANCH   3  15
TORSDOF 7
ENDMDL
MODEL 7
REMARK VINA RESULT:    -3.409      2.331      4.268
REMARK INTER + INTRA:          -6.049
REMARK INTER:                  -4.828
REMARK INTRA:                  -1.221
REMARK UNBOUND:                -1.345
REMARK SMILES CCCCc1cccc(O)c1CCCC
REMARK SMILES IDX 5 1 11 2 9 3 8 4 7 5 6 6 4 7 3 8 2 9 1 10 12 11 13 12 14 13
REMARK SMILES IDX 15 14 10 15
REMARK H PARENT 10 16
REMARK Flexibility Score: inf
ROOT
ATOM      1  C   UNL     1     -99.967  -6.475 -67.177  1.00  0.00    -0.041 A 
ATOM      2  C   UNL     1    -100.298  -6.174 -68.534  1.00  0.00    -0.003 A 
ATOM      3  C   UNL     1    -101.019  -4.985 -68.811  1.00  0.00     0.119 A 
ATOM      4  C   UNL     1    -101.375  -4.114 -67.775  1.00  0.00     0.046 A 
ATOM      5  C   UNL     1    -101.009  -4.392 -66.464  1.00  0.00     0.004 A 
ATOM      6  C   UNL     1    -100.307  -5.557 -66.168  1.00  0.00     0.004 A 
ENDROOT
BRANCH   1   7
ATOM      7  C   UNL     1     -99.274  -7.756 -66.749  1.00  0.00     0.036 C 
BRANCH   7   8
ATOM      8  C   UNL     1     -99.897  -8.365 -65.476  1.00  0.00     0.004 C 
BRANCH   8   9
ATOM      9  C   UNL     1    -101.106  -9.264 -65.768  1.00  0.00    -0.003 C 
ATOM     10  C   UNL     1    -102.414  -8.560 -65.416  1.00  0.00     0.004 C 
ENDBRANCH   8   9
ENDBRANCH   7   8
ENDBRANCH   1   7
BRANCH   2  11
ATOM     11  C   UNL     1     -99.846  -7.044 -69.702  1.00  0.00     0.040 C 
BRANCH  11  12
ATOM     12  C   UNL     1    -100.927  -8.004 -70.229  1.00  0.00     0.005 C 
BRANCH  12  13
ATOM     13  C   UNL     1    -102.004  -8.374 -69.194  1.00  0.00    -0.003 C 
ATOM     14  C   UNL     1    -102.347  -9.862 -69.214  1.00  0.00     0.004 C 
ENDBRANCH  12  13
ENDBRANCH  11  12
ENDBRANCH   2  11
BRANCH   3  15
ATOM     15  O   UNL     1    -101.378  -4.663 -70.121  1.00  0.00    -0.508 OA
ATOM     16  H   UNL     1    -101.670  -5.372 -70.784  1.00  0.00     0.293 HD
ENDBRANCH   3  15
TORSDOF 7
ENDMDL
MODEL 8
REMARK VINA RESULT:    -3.403      2.148      5.333
REMARK INTER + INTRA:          -6.042
REMARK INTER:                  -4.793
REMARK INTRA:                  -1.249
REMARK UNBOUND:                -1.345
REMARK SMILES CCCCc1cccc(O)c1CCCC
REMARK SMILES IDX 5 1 11 2 9 3 8 4 7 5 6 6 4 7 3 8 2 9 1 10 12 11 13 12 14 13
REMARK SMILES IDX 15 14 10 15
REMARK H PARENT 10 16
REMARK Flexibility Score: inf
ROOT
ATOM      1  C   UNL     1    -101.940  -8.412 -69.357  1.00  0.00    -0.041 A 
ATOM      2  C   UNL     1    -100.880  -7.494 -69.632  1.00  0.00    -0.003 A 
ATOM      3  C   UNL     1    -100.263  -7.527 -70.907  1.00  0.00     0.119 A 
ATOM      4  C   UNL     1    -100.704  -8.426 -71.885  1.00  0.00     0.046 A 
ATOM      5  C   UNL     1    -101.766  -9.284 -71.625  1.00  0.00     0.004 A 
ATOM      6  C   UNL     1    -102.382  -9.273 -70.377  1.00  0.00     0.004 A 
ENDROOT
BRANCH   1   7
ATOM      7  C   UNL     1    -102.619  -8.528 -68.004  1.00  0.00     0.036 C 
BRANCH   7   8
ATOM      8  C   UNL     1    -102.161  -9.776 -67.222  1.00  0.00     0.004 C 
BRANCH   8   9
ATOM      9  C   UNL     1    -101.927  -9.500 -65.731  1.00  0.00    -0.003 C 
ATOM     10  C   UNL     1    -102.827  -8.374 -65.231  1.00  0.00     0.004 C 
ENDBRANCH   8   9
ENDBRANCH   7   8
ENDBRANCH   1   7
BRANCH   2  11
ATOM     11  C   UNL     1    -100.434  -6.433 -68.631  1.00  0.00     0.040 C 
BRANCH  11  12
ATOM     12  C   UNL     1     -99.331  -6.901 -67.665  1.00  0.00     0.005 C 
BRANCH  12  13
ATOM     13  C   UNL     1     -99.666  -6.700 -66.177  1.00  0.00    -0.003 C 
ATOM     14  C   UNL     1    -100.508  -5.450 -65.931  1.00  0.00     0.004 C 
ENDBRANCH  12  13
ENDBRANCH  11  12
ENDBRANCH   2  11
BRANCH   3  15
ATOM     15  O   UNL     1     -99.212  -6.660 -71.209  1.00  0.00    -0.508 OA
ATOM     16  H   UNL     1     -98.630  -6.791 -72.028  1.00  0.00     0.293 HD
ENDBRANCH   3  15
TORSDOF 7
ENDMDL
MODEL 9
REMARK VINA RESULT:    -3.286      1.888      4.152
REMARK INTER + INTRA:          -5.880
REMARK INTER:                  -4.594
REMARK INTRA:                  -1.286
REMARK UNBOUND:                -1.345
REMARK SMILES CCCCc1cccc(O)c1CCCC
REMARK SMILES IDX 5 1 11 2 9 3 8 4 7 5 6 6 4 7 3 8 2 9 1 10 12 11 13 12 14 13
REMARK SMILES IDX 15 14 10 15
REMARK H PARENT 10 16
REMARK Flexibility Score: inf
ROOT
ATOM      1  C   UNL     1    -100.943  -7.204 -68.925  1.00  0.00    -0.041 A 
ATOM      2  C   UNL     1    -101.884  -8.262 -69.119  1.00  0.00    -0.003 A 
ATOM      3  C   UNL     1    -101.836  -9.003 -70.327  1.00  0.00     0.119 A 
ATOM      4  C   UNL     1    -100.869  -8.717 -71.297  1.00  0.00     0.046 A 
ATOM      5  C   UNL     1     -99.929  -7.716 -71.080  1.00  0.00     0.004 A 
ATOM      6  C   UNL     1     -99.961  -6.972 -69.905  1.00  0.00     0.004 A 
ENDROOT
BRANCH   1   7
ATOM      7  C   UNL     1    -100.950  -6.289 -67.714  1.00  0.00     0.036 C 
BRANCH   7   8
ATOM      8  C   UNL     1     -99.779  -6.578 -66.753  1.00  0.00     0.004 C 
BRANCH   8   9
ATOM      9  C   UNL     1    -100.195  -7.399 -65.525  1.00  0.00    -0.003 C 
ATOM     10  C   UNL     1     -99.524  -8.769 -65.525  1.00  0.00     0.004 C 
ENDBRANCH   8   9
ENDBRANCH   7   8
ENDBRANCH   1   7
BRANCH   2  11
ATOM     11  C   UNL     1    -102.890  -8.672 -68.049  1.00  0.00     0.040 C 
BRANCH  11  12
ATOM     12  C   UNL     1    -102.443  -9.864 -67.186  1.00  0.00     0.005 C 
BRANCH  12  13
ATOM     13  C   UNL     1    -103.098  -9.919 -65.795  1.00  0.00    -0.003 C 
ATOM     14  C   UNL     1    -103.632  -8.560 -65.347  1.00  0.00     0.004 C 
ENDBRANCH  12  13
ENDBRANCH  11  12
ENDBRANCH   2  11
BRANCH   3  15
ATOM     15  O   UNL     1    -102.748 -10.032 -70.563  1.00  0.00    -0.508 OA
ATOM     16  H   UNL     1    -102.496 -10.857 -71.095  1.00  0.00     0.293 HD
ENDBRANCH   3  15
TORSDOF 7
ENDMDL
