MODEL 1
REMARK VINA RESULT:   102.516      0.000      0.000
REMARK INTER + INTRA:         111.358
REMARK INTER:                 111.506
REMARK INTRA:                  -0.147
REMARK UNBOUND:                -0.147
REMARK SMILES C[C@H]1[C@H](C)CC[C@@]2(C(=O)[O-])CC[C@@]3(C)C(=CC[C@@H]4[C@]5(C)CC[C@H](O)C(C)(C)[C@H]5CC[C@@]43C)[C@@H]12
REMARK SMILES IDX 7 1 6 2 11 3 33 4 5 5 12 6 15 7 2 8 3 9 13 10 16 11 1 12
REMARK SMILES IDX 4 13 14 14 31 15 17 16 18 17 30 18 32 19 19 20 29 21 28 22
REMARK SMILES IDX 21 23 20 24 25 25 22 26 23 27 26 28 27 29 8 30 9 31 10 32
REMARK SMILES IDX 24 33
REMARK H PARENT 24 34
REMARK Flexibility Score: inf
ROOT
ATOM      1  C   UNL     1     122.789  69.147  -2.157  1.00  0.00     0.017 C 
ATOM      2  C   UNL     1     122.935  68.221  -3.404  1.00  0.00     0.014 C 
ATOM      3  C   UNL     1     121.388  69.783  -2.176  1.00  0.00     0.014 C 
ATOM      4  C   UNL     1     123.033  68.320  -0.838  1.00  0.00     0.030 C 
ATOM      5  C   UNL     1     124.116  67.265  -3.247  1.00  0.00     0.004 C 
ATOM      6  C   UNL     1     121.066  70.566  -0.888  1.00  0.00     0.013 C 
ATOM      7  C   UNL     1     122.399  68.932   0.439  1.00  0.00    -0.063 C 
ATOM      8  C   UNL     1     122.972  66.759  -0.950  1.00  0.00    -0.003 C 
ATOM      9  C   UNL     1     123.852  66.219  -2.137  1.00  0.00    -0.011 C 
ATOM     10  C   UNL     1     121.058  69.716   0.433  1.00  0.00    -0.006 C 
ATOM     11  C   UNL     1     123.209  68.941   1.506  1.00  0.00    -0.027 C 
ATOM     12  C   UNL     1     121.558  66.166  -1.008  1.00  0.00     0.008 C 
ATOM     13  C   UNL     1     125.187  65.657  -1.626  1.00  0.00     0.008 C 
ATOM     14  C   UNL     1     119.881  68.705   0.324  1.00  0.00     0.017 C 
ATOM     15  C   UNL     1     120.815  70.651   1.768  1.00  0.00    -0.020 C 
ATOM     16  C   UNL     1     123.125  69.910   2.622  1.00  0.00     0.032 C 
ATOM     17  C   UNL     1     122.195  71.136   2.389  1.00  0.00     0.006 C 
ATOM     18  C   UNL     1     120.053  69.905   2.923  1.00  0.00     0.008 C 
ATOM     19  C   UNL     1     119.892  71.844   1.342  1.00  0.00     0.012 C 
ATOM     20  C   UNL     1     122.075  72.015   3.736  1.00  0.00    -0.025 C 
ATOM     21  C   UNL     1     119.875  70.721   4.227  1.00  0.00     0.005 C 
ATOM     22  C   UNL     1     121.215  71.229   4.803  1.00  0.00     0.003 C 
ATOM     23  C   UNL     1     123.484  72.267   4.382  1.00  0.00     0.010 C 
ATOM     24  C   UNL     1     121.496  73.424   3.371  1.00  0.00     0.012 C 
ATOM     25  C   UNL     1     121.128  71.885   6.244  1.00  0.00    -0.006 C 
ATOM     26  C   UNL     1     123.432  72.956   5.760  1.00  0.00     0.033 C 
ATOM     27  C   UNL     1     122.577  72.171   6.768  1.00  0.00     0.120 C 
ATOM     28  C   UNL     1     120.447  70.900   7.236  1.00  0.00     0.014 C 
ATOM     29  C   UNL     1     120.291  73.190   6.294  1.00  0.00     0.014 C 
ENDROOT
BRANCH   1  30
ATOM     30  C   UNL     1     123.804  70.293  -2.268  1.00  0.00     0.048 C 
ATOM     31  O   UNL     1     123.520  71.351  -2.893  1.00  0.00    -0.550 OA
ATOM     32  O   UNL     1     125.095  70.145  -1.772  1.00  0.00    -0.550 OA
ENDBRANCH   1  30
BRANCH  27  33
ATOM     33  O   UNL     1     123.246  70.965   7.063  1.00  0.00    -0.393 OA
ATOM     34  H   UNL     1     122.653  70.218   6.787  1.00  0.00     0.210 HD
ENDBRANCH  27  33
TORSDOF 2
ENDMDL
