MODEL 1
REMARK VINA RESULT:    -7.155      0.000      0.000
REMARK INTER + INTRA:         -12.599
REMARK INTER:                 -11.129
REMARK INTRA:                  -1.470
REMARK UNBOUND:                -1.470
REMARK SMILES C[C@]12C[C@]3(O)O[C@H](O1)[C@@]1(COC(=O)c4ccccc4)[C@@H]3C[C@]12O[C@H]1O[C@@H](CO)[C@H](O)[C@@H](O)[C@@H]1O
REMARK SMILES IDX 1 1 2 2 3 3 4 4 20 5 21 6 22 7 9 8 7 9 8 10 6 11 23 12 24 13
REMARK SMILES IDX 33 14 25 15 31 16 26 17 29 18 34 19 32 21 27 23 28 24 30 26
REMARK SMILES IDX 5 28 10 30 11 31 12 32 13 33 14 34 15 35 19 36 16 37 18 38
REMARK SMILES IDX 17 39
REMARK H PARENT 34 20 32 22 28 25 30 27 5 29
REMARK Flexibility Score: inf
ROOT
ATOM      1  C   UNL     1     -17.230  -5.811 -16.814  1.00  0.00     0.046 C 
ATOM      2  C   UNL     1     -17.280  -4.292 -16.823  1.00  0.00     0.104 C 
ATOM      3  C   UNL     1     -18.209  -3.829 -15.604  1.00  0.00     0.104 C 
ATOM      4  C   UNL     1     -18.238  -2.278 -15.707  1.00  0.00     0.175 C 
ATOM      5  C   UNL     1     -16.788  -1.725 -15.858  1.00  0.00     0.070 C 
ATOM      6  C   UNL     1     -15.742  -2.748 -15.396  1.00  0.00     0.050 C 
ATOM      7  C   UNL     1     -15.919  -3.458 -16.756  1.00  0.00     0.115 C 
ATOM      8  C   UNL     1     -16.520  -2.128 -17.282  1.00  0.00     0.096 C 
ATOM      9  C   UNL     1     -17.895  -2.427 -17.889  1.00  0.00     0.267 C 
ATOM     10  O   UNL     1     -17.973  -3.852 -17.995  1.00  0.00    -0.342 OA
ATOM     11  O   UNL     1     -18.858  -1.965 -16.933  1.00  0.00    -0.320 OA
ENDROOT
BRANCH   7  12
ATOM     12  O   UNL     1     -14.692  -3.708 -17.430  1.00  0.00    -0.339 OA
BRANCH  12  13
ATOM     13  C   UNL     1     -13.671  -4.511 -16.869  1.00  0.00     0.282 C 
ATOM     14  C   UNL     1     -12.208  -3.989 -16.918  1.00  0.00     0.202 C 
ATOM     15  O   UNL     1     -13.678  -5.746 -17.581  1.00  0.00    -0.341 OA
ATOM     16  C   UNL     1     -11.948  -3.391 -18.316  1.00  0.00     0.179 C 
ATOM     17  C   UNL     1     -13.391  -5.560 -18.990  1.00  0.00     0.178 C 
ATOM     18  C   UNL     1     -12.723  -4.156 -19.421  1.00  0.00     0.177 C 
BRANCH  14  19
ATOM     19  O   UNL     1     -11.385  -5.112 -16.669  1.00  0.00    -0.385 OA
ATOM     20  H   UNL     1     -10.454  -4.802 -16.498  1.00  0.00     0.211 HD
ENDBRANCH  14  19
BRANCH  16  21
ATOM     21  O   UNL     1     -12.293  -2.021 -18.350  1.00  0.00    -0.387 OA
ATOM     22  H   UNL     1     -11.466  -1.460 -18.469  1.00  0.00     0.211 HD
ENDBRANCH  16  21
BRANCH  17  23
ATOM     23  C   UNL     1     -14.702  -5.815 -19.767  1.00  0.00     0.191 C 
BRANCH  23  24
ATOM     24  O   UNL     1     -14.577  -5.399 -21.092  1.00  0.00    -0.394 OA
ATOM     25  H   UNL     1     -14.898  -4.473 -21.169  1.00  0.00     0.210 HD
ENDBRANCH  23  24
ENDBRANCH  17  23
BRANCH  18  26
ATOM     26  O   UNL     1     -11.910  -4.249 -20.563  1.00  0.00    -0.387 OA
ATOM     27  H   UNL     1     -12.417  -3.903 -21.352  1.00  0.00     0.211 HD
ENDBRANCH  18  26
ENDBRANCH  12  13
ENDBRANCH   7  12
BRANCH   4  28
ATOM     28  O   UNL     1     -18.914  -1.683 -14.600  1.00  0.00    -0.365 OA
ATOM     29  H   UNL     1     -18.228  -1.055 -14.200  1.00  0.00     0.214 HD
ENDBRANCH   4  28
BRANCH   8  30
ATOM     30  C   UNL     1     -15.674  -1.100 -18.112  1.00  0.00     0.249 C 
BRANCH  30  31
ATOM     31  O   UNL     1     -16.350   0.142 -18.325  1.00  0.00    -0.461 OA
BRANCH  31  32
ATOM     32  C   UNL     1     -15.998   1.410 -17.812  1.00  0.00     0.338 C 
ATOM     33  O   UNL     1     -14.883   1.906 -18.128  1.00  0.00    -0.246 OA
BRANCH  32  34
ATOM     34  C   UNL     1     -16.835   2.148 -16.810  1.00  0.00     0.060 A 
ATOM     35  C   UNL     1     -17.450   1.518 -15.717  1.00  0.00     0.015 A 
ATOM     36  C   UNL     1     -16.946   3.528 -16.935  1.00  0.00     0.015 A 
ATOM     37  C   UNL     1     -18.032   2.279 -14.702  1.00  0.00     0.001 A 
ATOM     38  C   UNL     1     -17.522   4.292 -15.909  1.00  0.00     0.001 A 
ATOM     39  C   UNL     1     -17.963   3.653 -14.746  1.00  0.00     0.000 A 
ENDBRANCH  32  34
ENDBRANCH  31  32
ENDBRANCH  30  31
ENDBRANCH   8  30
TORSDOF 12
ENDMDL
MODEL 2
REMARK VINA RESULT:    -6.956      0.813      2.158
REMARK INTER + INTRA:         -12.289
REMARK INTER:                 -10.667
REMARK INTRA:                  -1.622
REMARK UNBOUND:                -1.470
REMARK SMILES C[C@]12C[C@]3(O)O[C@H](O1)[C@@]1(COC(=O)c4ccccc4)[C@@H]3C[C@]12O[C@H]1O[C@@H](CO)[C@H](O)[C@@H](O)[C@@H]1O
REMARK SMILES IDX 1 1 2 2 3 3 4 4 20 5 21 6 22 7 9 8 7 9 8 10 6 11 23 12 24 13
REMARK SMILES IDX 33 14 25 15 31 16 26 17 29 18 34 19 32 21 27 23 28 24 30 26
REMARK SMILES IDX 5 28 10 30 11 31 12 32 13 33 14 34 15 35 19 36 16 37 18 38
REMARK SMILES IDX 17 39
REMARK H PARENT 34 20 32 22 28 25 30 27 5 29
REMARK Flexibility Score: inf
ROOT
ATOM      1  C   UNL     1     -17.563  -5.581 -17.025  1.00  0.00     0.046 C 
ATOM      2  C   UNL     1     -17.491  -4.064 -16.940  1.00  0.00     0.104 C 
ATOM      3  C   UNL     1     -18.375  -3.606 -15.686  1.00  0.00     0.104 C 
ATOM      4  C   UNL     1     -18.281  -2.054 -15.694  1.00  0.00     0.175 C 
ATOM      5  C   UNL     1     -16.792  -1.610 -15.824  1.00  0.00     0.070 C 
ATOM      6  C   UNL     1     -15.829  -2.739 -15.436  1.00  0.00     0.050 C 
ATOM      7  C   UNL     1     -16.067  -3.346 -16.835  1.00  0.00     0.115 C 
ATOM      8  C   UNL     1     -16.563  -1.943 -17.273  1.00  0.00     0.096 C 
ATOM      9  C   UNL     1     -17.961  -2.095 -17.884  1.00  0.00     0.267 C 
ATOM     10  O   UNL     1     -18.152  -3.499 -18.076  1.00  0.00    -0.342 OA
ATOM     11  O   UNL     1     -18.879  -1.618 -16.892  1.00  0.00    -0.320 OA
ENDROOT
BRANCH   7  12
ATOM     12  O   UNL     1     -14.867  -3.652 -17.535  1.00  0.00    -0.339 OA
BRANCH  12  13
ATOM     13  C   UNL     1     -14.870  -4.248 -18.817  1.00  0.00     0.282 C 
ATOM     14  C   UNL     1     -14.741  -5.793 -18.915  1.00  0.00     0.202 C 
ATOM     15  O   UNL     1     -13.757  -3.710 -19.527  1.00  0.00    -0.341 OA
ATOM     16  C   UNL     1     -13.655  -6.258 -17.922  1.00  0.00     0.179 C 
ATOM     17  C   UNL     1     -12.499  -4.024 -18.880  1.00  0.00     0.178 C 
ATOM     18  C   UNL     1     -12.515  -5.214 -17.790  1.00  0.00     0.177 C 
BRANCH  14  19
ATOM     19  O   UNL     1     -14.379  -6.071 -20.254  1.00  0.00    -0.385 OA
ATOM     20  H   UNL     1     -14.911  -5.489 -20.863  1.00  0.00     0.211 HD
ENDBRANCH  14  19
BRANCH  16  21
ATOM     21  O   UNL     1     -14.214  -6.521 -16.652  1.00  0.00    -0.387 OA
ATOM     22  H   UNL     1     -13.958  -7.447 -16.348  1.00  0.00     0.211 HD
ENDBRANCH  16  21
BRANCH  17  23
ATOM     23  C   UNL     1     -11.953  -2.715 -18.266  1.00  0.00     0.191 C 
BRANCH  23  24
ATOM     24  O   UNL     1     -11.969  -2.780 -16.873  1.00  0.00    -0.394 OA
ATOM     25  H   UNL     1     -11.275  -2.182 -16.516  1.00  0.00     0.210 HD
ENDBRANCH  23  24
ENDBRANCH  17  23
BRANCH  18  26
ATOM     26  O   UNL     1     -11.290  -5.893 -17.682  1.00  0.00    -0.387 OA
ATOM     27  H   UNL     1     -10.732  -5.687 -18.486  1.00  0.00     0.211 HD
ENDBRANCH  18  26
ENDBRANCH  12  13
ENDBRANCH   7  12
BRANCH   4  28
ATOM     28  O   UNL     1     -18.902  -1.477 -14.546  1.00  0.00    -0.365 OA
ATOM     29  H   UNL     1     -19.244  -0.582 -14.873  1.00  0.00     0.214 HD
ENDBRANCH   4  28
BRANCH   8  30
ATOM     30  C   UNL     1     -15.641  -0.936 -18.046  1.00  0.00     0.249 C 
BRANCH  30  31
ATOM     31  O   UNL     1     -16.285   0.308 -18.330  1.00  0.00    -0.461 OA
BRANCH  31  32
ATOM     32  C   UNL     1     -15.965   1.581 -17.805  1.00  0.00     0.338 C 
ATOM     33  O   UNL     1     -14.865   2.109 -18.120  1.00  0.00    -0.246 OA
BRANCH  32  34
ATOM     34  C   UNL     1     -16.818   2.286 -16.793  1.00  0.00     0.060 A 
ATOM     35  C   UNL     1     -17.403   1.630 -15.699  1.00  0.00     0.015 A 
ATOM     36  C   UNL     1     -16.974   3.662 -16.909  1.00  0.00     0.015 A 
ATOM     37  C   UNL     1     -18.001   2.367 -14.675  1.00  0.00     0.001 A 
ATOM     38  C   UNL     1     -17.567   4.402 -15.875  1.00  0.00     0.001 A 
ATOM     39  C   UNL     1     -17.978   3.742 -14.712  1.00  0.00     0.000 A 
ENDBRANCH  32  34
ENDBRANCH  31  32
ENDBRANCH  30  31
ENDBRANCH   8  30
TORSDOF 12
ENDMDL
MODEL 3
REMARK VINA RESULT:    -6.537      1.659      2.979
REMARK INTER + INTRA:         -11.637
REMARK INTER:                 -10.118
REMARK INTRA:                  -1.519
REMARK UNBOUND:                -1.470
REMARK SMILES C[C@]12C[C@]3(O)O[C@H](O1)[C@@]1(COC(=O)c4ccccc4)[C@@H]3C[C@]12O[C@H]1O[C@@H](CO)[C@H](O)[C@@H](O)[C@@H]1O
REMARK SMILES IDX 1 1 2 2 3 3 4 4 20 5 21 6 22 7 9 8 7 9 8 10 6 11 23 12 24 13
REMARK SMILES IDX 33 14 25 15 31 16 26 17 29 18 34 19 32 21 27 23 28 24 30 26
REMARK SMILES IDX 5 28 10 30 11 31 12 32 13 33 14 34 15 35 19 36 16 37 18 38
REMARK SMILES IDX 17 39
REMARK H PARENT 34 20 32 22 28 25 30 27 5 29
REMARK Flexibility Score: inf
ROOT
ATOM      1  C   UNL     1     -14.716  -5.963 -19.018  1.00  0.00     0.046 C 
ATOM      2  C   UNL     1     -15.299  -4.738 -18.331  1.00  0.00     0.104 C 
ATOM      3  C   UNL     1     -16.017  -5.232 -16.988  1.00  0.00     0.104 C 
ATOM      4  C   UNL     1     -16.615  -3.936 -16.371  1.00  0.00     0.175 C 
ATOM      5  C   UNL     1     -15.532  -2.815 -16.330  1.00  0.00     0.070 C 
ATOM      6  C   UNL     1     -14.116  -3.393 -16.441  1.00  0.00     0.050 C 
ATOM      7  C   UNL     1     -14.345  -3.511 -17.964  1.00  0.00     0.115 C 
ATOM      8  C   UNL     1     -15.482  -2.470 -17.793  1.00  0.00     0.096 C 
ATOM      9  C   UNL     1     -16.764  -3.054 -18.396  1.00  0.00     0.267 C 
ATOM     10  O   UNL     1     -16.357  -4.209 -19.135  1.00  0.00    -0.342 OA
ATOM     11  O   UNL     1     -17.575  -3.458 -17.285  1.00  0.00    -0.320 OA
ENDROOT
BRANCH   7  12
ATOM     12  O   UNL     1     -13.303  -2.934 -18.742  1.00  0.00    -0.339 OA
BRANCH  12  13
ATOM     13  C   UNL     1     -12.545  -3.688 -19.668  1.00  0.00     0.282 C 
ATOM     14  C   UNL     1     -11.191  -4.289 -19.200  1.00  0.00     0.202 C 
ATOM     15  O   UNL     1     -12.241  -2.820 -20.758  1.00  0.00    -0.341 OA
ATOM     16  C   UNL     1     -10.441  -3.224 -18.375  1.00  0.00     0.179 C 
ATOM     17  C   UNL     1     -11.448  -1.682 -20.337  1.00  0.00     0.178 C 
ATOM     18  C   UNL     1     -10.713  -1.791 -18.904  1.00  0.00     0.177 C 
BRANCH  14  19
ATOM     19  O   UNL     1     -10.487  -4.629 -20.380  1.00  0.00    -0.385 OA
ATOM     20  H   UNL     1     -11.005  -4.314 -21.171  1.00  0.00     0.211 HD
ENDBRANCH  14  19
BRANCH  16  21
ATOM     21  O   UNL     1     -10.792  -3.305 -17.009  1.00  0.00    -0.387 OA
ATOM     22  H   UNL     1     -11.791  -3.391 -16.915  1.00  0.00     0.211 HD
ENDBRANCH  16  21
BRANCH  17  23
ATOM     23  C   UNL     1     -12.358  -0.433 -20.402  1.00  0.00     0.191 C 
BRANCH  23  24
ATOM     24  O   UNL     1     -12.115   0.409 -19.318  1.00  0.00    -0.394 OA
ATOM     25  H   UNL     1     -11.851   1.295 -19.653  1.00  0.00     0.210 HD
ENDBRANCH  23  24
ENDBRANCH  17  23
BRANCH  18  26
ATOM     26  O   UNL     1      -9.526  -1.045 -18.824  1.00  0.00    -0.387 OA
ATOM     27  H   UNL     1      -9.117  -1.180 -17.921  1.00  0.00     0.211 HD
ENDBRANCH  18  26
ENDBRANCH  12  13
ENDBRANCH   7  12
BRANCH   4  28
ATOM     28  O   UNL     1     -17.177  -4.170 -15.080  1.00  0.00    -0.365 OA
ATOM     29  H   UNL     1     -17.522  -3.263 -14.793  1.00  0.00     0.214 HD
ENDBRANCH   4  28
BRANCH   8  30
ATOM     30  C   UNL     1     -15.273  -0.947 -18.107  1.00  0.00     0.249 C 
BRANCH  30  31
ATOM     31  O   UNL     1     -16.489  -0.195 -18.075  1.00  0.00    -0.461 OA
BRANCH  31  32
ATOM     32  C   UNL     1     -17.176   0.280 -16.935  1.00  0.00     0.338 C 
ATOM     33  O   UNL     1     -17.950  -0.504 -16.322  1.00  0.00    -0.246 OA
BRANCH  32  34
ATOM     34  C   UNL     1     -17.122   1.709 -16.484  1.00  0.00     0.060 A 
ATOM     35  C   UNL     1     -16.638   2.747 -17.295  1.00  0.00     0.015 A 
ATOM     36  C   UNL     1     -17.640   2.024 -15.233  1.00  0.00     0.015 A 
ATOM     37  C   UNL     1     -16.812   4.078 -16.913  1.00  0.00     0.001 A 
ATOM     38  C   UNL     1     -17.823   3.362 -14.854  1.00  0.00     0.001 A 
ATOM     39  C   UNL     1     -17.501   4.379 -15.759  1.00  0.00     0.000 A 
ENDBRANCH  32  34
ENDBRANCH  31  32
ENDBRANCH  30  31
ENDBRANCH   8  30
TORSDOF 12
ENDMDL
MODEL 4
REMARK VINA RESULT:    -6.269      2.312      4.419
REMARK INTER + INTRA:         -11.220
REMARK INTER:                  -9.481
REMARK INTRA:                  -1.740
REMARK UNBOUND:                -1.470
REMARK SMILES C[C@]12C[C@]3(O)O[C@H](O1)[C@@]1(COC(=O)c4ccccc4)[C@@H]3C[C@]12O[C@H]1O[C@@H](CO)[C@H](O)[C@@H](O)[C@@H]1O
REMARK SMILES IDX 1 1 2 2 3 3 4 4 20 5 21 6 22 7 9 8 7 9 8 10 6 11 23 12 24 13
REMARK SMILES IDX 33 14 25 15 31 16 26 17 29 18 34 19 32 21 27 23 28 24 30 26
REMARK SMILES IDX 5 28 10 30 11 31 12 32 13 33 14 34 15 35 19 36 16 37 18 38
REMARK SMILES IDX 17 39
REMARK H PARENT 34 20 32 22 28 25 30 27 5 29
REMARK Flexibility Score: inf
ROOT
ATOM      1  C   UNL     1     -11.255  -5.303 -20.128  1.00  0.00     0.046 C 
ATOM      2  C   UNL     1     -12.432  -4.812 -19.300  1.00  0.00     0.104 C 
ATOM      3  C   UNL     1     -12.754  -5.933 -18.202  1.00  0.00     0.104 C 
ATOM      4  C   UNL     1     -13.982  -5.375 -17.430  1.00  0.00     0.175 C 
ATOM      5  C   UNL     1     -13.722  -3.897 -17.006  1.00  0.00     0.070 C 
ATOM      6  C   UNL     1     -12.226  -3.559 -17.025  1.00  0.00     0.050 C 
ATOM      7  C   UNL     1     -12.339  -3.400 -18.557  1.00  0.00     0.115 C 
ATOM      8  C   UNL     1     -13.867  -3.230 -18.346  1.00  0.00     0.096 C 
ATOM      9  C   UNL     1     -14.592  -4.247 -19.234  1.00  0.00     0.267 C 
ATOM     10  O   UNL     1     -13.600  -4.766 -20.124  1.00  0.00    -0.342 OA
ATOM     11  O   UNL     1     -15.039  -5.289 -18.357  1.00  0.00    -0.320 OA
ENDROOT
BRANCH   7  12
ATOM     12  O   UNL     1     -11.801  -2.177 -19.043  1.00  0.00    -0.339 OA
BRANCH  12  13
ATOM     13  C   UNL     1     -10.422  -1.872 -18.961  1.00  0.00     0.282 C 
ATOM     14  C   UNL     1     -10.003  -0.387 -18.779  1.00  0.00     0.202 C 
ATOM     15  O   UNL     1      -9.828  -2.307 -20.181  1.00  0.00    -0.341 OA
ATOM     16  C   UNL     1     -10.864   0.484 -19.717  1.00  0.00     0.179 C 
ATOM     17  C   UNL     1     -10.382  -1.616 -21.329  1.00  0.00     0.178 C 
ATOM     18  C   UNL     1     -11.199  -0.255 -21.039  1.00  0.00     0.177 C 
BRANCH  14  19
ATOM     19  O   UNL     1      -8.631  -0.324 -19.120  1.00  0.00    -0.385 OA
ATOM     20  H   UNL     1      -8.545  -0.050 -20.074  1.00  0.00     0.211 HD
ENDBRANCH  14  19
BRANCH  16  21
ATOM     21  O   UNL     1     -12.057   0.885 -19.077  1.00  0.00    -0.387 OA
ATOM     22  H   UNL     1     -11.858   1.591 -18.387  1.00  0.00     0.211 HD
ENDBRANCH  16  21
BRANCH  17  23
ATOM     23  C   UNL     1     -11.249  -2.631 -22.107  1.00  0.00     0.191 C 
BRANCH  23  24
ATOM     24  O   UNL     1     -12.604  -2.345 -21.948  1.00  0.00    -0.394 OA
ATOM     25  H   UNL     1     -12.796  -1.468 -22.348  1.00  0.00     0.210 HD
ENDBRANCH  23  24
ENDBRANCH  17  23
BRANCH  18  26
ATOM     26  O   UNL     1     -11.148   0.666 -22.098  1.00  0.00    -0.387 OA
ATOM     27  H   UNL     1     -11.586   1.518 -21.811  1.00  0.00     0.211 HD
ENDBRANCH  18  26
ENDBRANCH  12  13
ENDBRANCH   7  12
BRANCH   4  28
ATOM     28  O   UNL     1     -14.322  -6.191 -16.309  1.00  0.00    -0.365 OA
ATOM     29  H   UNL     1     -15.053  -6.798 -16.656  1.00  0.00     0.214 HD
ENDBRANCH   4  28
BRANCH   8  30
ATOM     30  C   UNL     1     -14.552  -1.819 -18.312  1.00  0.00     0.249 C 
BRANCH  30  31
ATOM     31  O   UNL     1     -15.978  -1.886 -18.392  1.00  0.00    -0.461 OA
BRANCH  31  32
ATOM     32  C   UNL     1     -16.909  -1.668 -17.351  1.00  0.00     0.338 C 
ATOM     33  O   UNL     1     -17.603  -2.638 -16.944  1.00  0.00    -0.246 OA
BRANCH  32  34
ATOM     34  C   UNL     1     -17.198  -0.310 -16.783  1.00  0.00     0.060 A 
ATOM     35  C   UNL     1     -17.761  -0.119 -15.513  1.00  0.00     0.015 A 
ATOM     36  C   UNL     1     -16.825   0.805 -17.524  1.00  0.00     0.015 A 
ATOM     37  C   UNL     1     -17.807   1.157 -14.948  1.00  0.00     0.001 A 
ATOM     38  C   UNL     1     -16.863   2.085 -16.953  1.00  0.00     0.001 A 
ATOM     39  C   UNL     1     -17.257   2.227 -15.618  1.00  0.00     0.000 A 
ENDBRANCH  32  34
ENDBRANCH  31  32
ENDBRANCH  30  31
ENDBRANCH   8  30
TORSDOF 12
ENDMDL
MODEL 5
REMARK VINA RESULT:    -6.130      2.509      6.642
REMARK INTER + INTRA:         -11.004
REMARK INTER:                  -9.599
REMARK INTRA:                  -1.404
REMARK UNBOUND:                -1.470
REMARK SMILES C[C@]12C[C@]3(O)O[C@H](O1)[C@@]1(COC(=O)c4ccccc4)[C@@H]3C[C@]12O[C@H]1O[C@@H](CO)[C@H](O)[C@@H](O)[C@@H]1O
REMARK SMILES IDX 1 1 2 2 3 3 4 4 20 5 21 6 22 7 9 8 7 9 8 10 6 11 23 12 24 13
REMARK SMILES IDX 33 14 25 15 31 16 26 17 29 18 34 19 32 21 27 23 28 24 30 26
REMARK SMILES IDX 5 28 10 30 11 31 12 32 13 33 14 34 15 35 19 36 16 37 18 38
REMARK SMILES IDX 17 39
REMARK H PARENT 34 20 32 22 28 25 30 27 5 29
REMARK Flexibility Score: inf
ROOT
ATOM      1  C   UNL     1     -15.352  -6.857 -16.878  1.00  0.00     0.046 C 
ATOM      2  C   UNL     1     -14.338  -6.080 -17.702  1.00  0.00     0.104 C 
ATOM      3  C   UNL     1     -13.726  -7.083 -18.790  1.00  0.00     0.104 C 
ATOM      4  C   UNL     1     -12.680  -6.229 -19.559  1.00  0.00     0.175 C 
ATOM      5  C   UNL     1     -13.314  -4.872 -19.994  1.00  0.00     0.070 C 
ATOM      6  C   UNL     1     -14.846  -4.936 -19.986  1.00  0.00     0.050 C 
ATOM      7  C   UNL     1     -14.789  -4.745 -18.454  1.00  0.00     0.115 C 
ATOM      8  C   UNL     1     -13.358  -4.183 -18.657  1.00  0.00     0.096 C 
ATOM      9  C   UNL     1     -12.399  -4.972 -17.759  1.00  0.00     0.267 C 
ATOM     10  O   UNL     1     -13.228  -5.727 -16.871  1.00  0.00    -0.342 OA
ATOM     11  O   UNL     1     -11.689  -5.866 -18.626  1.00  0.00    -0.320 OA
ENDROOT
BRANCH   7  12
ATOM     12  O   UNL     1     -15.632  -3.702 -17.980  1.00  0.00    -0.339 OA
BRANCH  12  13
ATOM     13  C   UNL     1     -15.832  -3.460 -16.601  1.00  0.00     0.282 C 
ATOM     14  C   UNL     1     -17.196  -3.855 -15.970  1.00  0.00     0.202 C 
ATOM     15  O   UNL     1     -15.693  -2.055 -16.402  1.00  0.00    -0.341 OA
ATOM     16  C   UNL     1     -18.322  -3.427 -16.933  1.00  0.00     0.179 C 
ATOM     17  C   UNL     1     -16.684  -1.303 -17.147  1.00  0.00     0.178 C 
ATOM     18  C   UNL     1     -17.966  -2.120 -17.688  1.00  0.00     0.177 C 
BRANCH  14  19
ATOM     19  O   UNL     1     -17.271  -3.164 -14.738  1.00  0.00    -0.385 OA
ATOM     20  H   UNL     1     -16.608  -2.420 -14.740  1.00  0.00     0.211 HD
ENDBRANCH  14  19
BRANCH  16  21
ATOM     21  O   UNL     1     -18.609  -4.453 -17.861  1.00  0.00    -0.387 OA
ATOM     22  H   UNL     1     -18.057  -4.330 -18.693  1.00  0.00     0.211 HD
ENDBRANCH  16  21
BRANCH  17  23
ATOM     23  C   UNL     1     -15.950  -0.588 -18.304  1.00  0.00     0.191 C 
BRANCH  23  24
ATOM     24  O   UNL     1     -15.573   0.700 -17.926  1.00  0.00    -0.394 OA
ATOM     25  H   UNL     1     -15.390   1.230 -18.733  1.00  0.00     0.210 HD
ENDBRANCH  23  24
ENDBRANCH  17  23
BRANCH  18  26
ATOM     26  O   UNL     1     -19.125  -1.333 -17.803  1.00  0.00    -0.387 OA
ATOM     27  H   UNL     1     -19.354  -0.959 -16.905  1.00  0.00     0.211 HD
ENDBRANCH  18  26
ENDBRANCH  12  13
ENDBRANCH   7  12
BRANCH   4  28
ATOM     28  O   UNL     1     -12.132  -6.932 -20.673  1.00  0.00    -0.365 OA
ATOM     29  H   UNL     1     -12.354  -6.348 -21.469  1.00  0.00     0.214 HD
ENDBRANCH   4  28
BRANCH   8  30
ATOM     30  C   UNL     1     -13.063  -2.643 -18.697  1.00  0.00     0.249 C 
BRANCH  30  31
ATOM     31  O   UNL     1     -11.687  -2.328 -18.472  1.00  0.00    -0.461 OA
BRANCH  31  32
ATOM     32  C   UNL     1     -10.683  -2.117 -19.444  1.00  0.00     0.338 C 
ATOM     33  O   UNL     1     -10.093  -3.116 -19.934  1.00  0.00    -0.246 OA
BRANCH  32  34
ATOM     34  C   UNL     1     -10.200  -0.753 -19.837  1.00  0.00     0.060 A 
ATOM     35  C   UNL     1      -9.225  -0.544 -20.824  1.00  0.00     0.015 A 
ATOM     36  C   UNL     1     -10.797   0.353 -19.243  1.00  0.00     0.015 A 
ATOM     37  C   UNL     1      -8.971   0.743 -21.302  1.00  0.00     0.001 A 
ATOM     38  C   UNL     1     -10.549   1.645 -19.731  1.00  0.00     0.001 A 
ATOM     39  C   UNL     1      -9.711   1.807 -20.839  1.00  0.00     0.000 A 
ENDBRANCH  32  34
ENDBRANCH  31  32
ENDBRANCH  30  31
ENDBRANCH   8  30
TORSDOF 12
ENDMDL
MODEL 6
REMARK VINA RESULT:    -6.126      2.466      6.569
REMARK INTER + INTRA:         -10.998
REMARK INTER:                  -9.423
REMARK INTRA:                  -1.575
REMARK UNBOUND:                -1.470
REMARK SMILES C[C@]12C[C@]3(O)O[C@H](O1)[C@@]1(COC(=O)c4ccccc4)[C@@H]3C[C@]12O[C@H]1O[C@@H](CO)[C@H](O)[C@@H](O)[C@@H]1O
REMARK SMILES IDX 1 1 2 2 3 3 4 4 20 5 21 6 22 7 9 8 7 9 8 10 6 11 23 12 24 13
REMARK SMILES IDX 33 14 25 15 31 16 26 17 29 18 34 19 32 21 27 23 28 24 30 26
REMARK SMILES IDX 5 28 10 30 11 31 12 32 13 33 14 34 15 35 19 36 16 37 18 38
REMARK SMILES IDX 17 39
REMARK H PARENT 34 20 32 22 28 25 30 27 5 29
REMARK Flexibility Score: inf
ROOT
ATOM      1  C   UNL     1     -16.016  -6.617 -16.826  1.00  0.00     0.046 C 
ATOM      2  C   UNL     1     -14.859  -5.881 -17.484  1.00  0.00     0.104 C 
ATOM      3  C   UNL     1     -14.163  -6.893 -18.512  1.00  0.00     0.104 C 
ATOM      4  C   UNL     1     -12.977  -6.084 -19.108  1.00  0.00     0.175 C 
ATOM      5  C   UNL     1     -13.471  -4.683 -19.581  1.00  0.00     0.070 C 
ATOM      6  C   UNL     1     -14.992  -4.657 -19.779  1.00  0.00     0.050 C 
ATOM      7  C   UNL     1     -15.132  -4.505 -18.249  1.00  0.00     0.115 C 
ATOM      8  C   UNL     1     -13.657  -4.024 -18.242  1.00  0.00     0.096 C 
ATOM      9  C   UNL     1     -12.872  -4.888 -17.248  1.00  0.00     0.267 C 
ATOM     10  O   UNL     1     -13.854  -5.613 -16.502  1.00  0.00    -0.342 OA
ATOM     11  O   UNL     1     -12.102  -5.801 -18.040  1.00  0.00    -0.320 OA
ENDROOT
BRANCH   7  12
ATOM     12  O   UNL     1     -15.972  -3.426 -17.858  1.00  0.00    -0.339 OA
BRANCH  12  13
ATOM     13  C   UNL     1     -17.289  -3.276 -18.351  1.00  0.00     0.282 C 
ATOM     14  C   UNL     1     -17.711  -1.897 -18.929  1.00  0.00     0.202 C 
ATOM     15  O   UNL     1     -18.171  -3.539 -17.263  1.00  0.00    -0.341 OA
ATOM     16  C   UNL     1     -17.176  -0.791 -17.995  1.00  0.00     0.179 C 
ATOM     17  C   UNL     1     -17.981  -2.601 -16.174  1.00  0.00     0.178 C 
ATOM     18  C   UNL     1     -17.179  -1.242 -16.511  1.00  0.00     0.177 C 
BRANCH  14  19
ATOM     19  O   UNL     1     -19.125  -1.907 -18.970  1.00  0.00    -0.385 OA
ATOM     20  H   UNL     1     -19.432  -2.742 -19.420  1.00  0.00     0.211 HD
ENDBRANCH  14  19
BRANCH  16  21
ATOM     21  O   UNL     1     -15.874  -0.398 -18.375  1.00  0.00    -0.387 OA
ATOM     22  H   UNL     1     -15.572  -0.930 -19.175  1.00  0.00     0.211 HD
ENDBRANCH  16  21
BRANCH  17  23
ATOM     23  C   UNL     1     -17.311  -3.369 -15.012  1.00  0.00     0.191 C 
BRANCH  23  24
ATOM     24  O   UNL     1     -16.124  -2.746 -14.629  1.00  0.00    -0.394 OA
ATOM     25  H   UNL     1     -15.604  -3.363 -14.068  1.00  0.00     0.210 HD
ENDBRANCH  23  24
ENDBRANCH  17  23
BRANCH  18  26
ATOM     26  O   UNL     1     -17.556  -0.154 -15.707  1.00  0.00    -0.387 OA
ATOM     27  H   UNL     1     -17.801  -0.490 -14.798  1.00  0.00     0.211 HD
ENDBRANCH  18  26
ENDBRANCH  12  13
ENDBRANCH   7  12
BRANCH   4  28
ATOM     28  O   UNL     1     -12.323  -6.793 -20.160  1.00  0.00    -0.365 OA
ATOM     29  H   UNL     1     -12.131  -6.082 -20.855  1.00  0.00     0.214 HD
ENDBRANCH   4  28
BRANCH   8  30
ATOM     30  C   UNL     1     -13.276  -2.503 -18.194  1.00  0.00     0.249 C 
BRANCH  30  31
ATOM     31  O   UNL     1     -11.882  -2.280 -17.965  1.00  0.00    -0.461 OA
BRANCH  31  32
ATOM     32  C   UNL     1     -10.856  -2.185 -18.932  1.00  0.00     0.338 C 
ATOM     33  O   UNL     1     -10.151  -3.202 -19.170  1.00  0.00    -0.246 OA
BRANCH  32  34
ATOM     34  C   UNL     1     -10.484  -0.899 -19.607  1.00  0.00     0.060 A 
ATOM     35  C   UNL     1     -10.975   0.349 -19.194  1.00  0.00     0.015 A 
ATOM     36  C   UNL     1      -9.558  -0.943 -20.642  1.00  0.00     0.015 A 
ATOM     37  C   UNL     1     -10.432   1.526 -19.712  1.00  0.00     0.001 A 
ATOM     38  C   UNL     1      -9.006   0.240 -21.155  1.00  0.00     0.001 A 
ATOM     39  C   UNL     1      -9.379   1.467 -20.597  1.00  0.00     0.000 A 
ENDBRANCH  32  34
ENDBRANCH  31  32
ENDBRANCH  30  31
ENDBRANCH   8  30
TORSDOF 12
ENDMDL
MODEL 7
REMARK VINA RESULT:    -5.993      2.470      4.411
REMARK INTER + INTRA:         -10.791
REMARK INTER:                  -8.635
REMARK INTRA:                  -2.156
REMARK UNBOUND:                -1.470
REMARK SMILES C[C@]12C[C@]3(O)O[C@H](O1)[C@@]1(COC(=O)c4ccccc4)[C@@H]3C[C@]12O[C@H]1O[C@@H](CO)[C@H](O)[C@@H](O)[C@@H]1O
REMARK SMILES IDX 1 1 2 2 3 3 4 4 20 5 21 6 22 7 9 8 7 9 8 10 6 11 23 12 24 13
REMARK SMILES IDX 33 14 25 15 31 16 26 17 29 18 34 19 32 21 27 23 28 24 30 26
REMARK SMILES IDX 5 28 10 30 11 31 12 32 13 33 14 34 15 35 19 36 16 37 18 38
REMARK SMILES IDX 17 39
REMARK H PARENT 34 20 32 22 28 25 30 27 5 29
REMARK Flexibility Score: inf
ROOT
ATOM      1  C   UNL     1     -13.720  -6.364 -20.897  1.00  0.00     0.046 C 
ATOM      2  C   UNL     1     -14.230  -5.764 -19.596  1.00  0.00     0.104 C 
ATOM      3  C   UNL     1     -14.577  -6.975 -18.607  1.00  0.00     0.104 C 
ATOM      4  C   UNL     1     -15.123  -6.283 -17.327  1.00  0.00     0.175 C 
ATOM      5  C   UNL     1     -14.156  -5.143 -16.881  1.00  0.00     0.070 C 
ATOM      6  C   UNL     1     -12.760  -5.316 -17.493  1.00  0.00     0.050 C 
ATOM      7  C   UNL     1     -13.321  -4.717 -18.801  1.00  0.00     0.115 C 
ATOM      8  C   UNL     1     -14.471  -4.126 -17.944  1.00  0.00     0.096 C 
ATOM      9  C   UNL     1     -15.805  -4.572 -18.554  1.00  0.00     0.267 C 
ATOM     10  O   UNL     1     -15.484  -5.120 -19.835  1.00  0.00    -0.342 OA
ATOM     11  O   UNL     1     -16.303  -5.610 -17.701  1.00  0.00    -0.320 OA
ENDROOT
BRANCH   7  12
ATOM     12  O   UNL     1     -12.537  -3.650 -19.320  1.00  0.00    -0.339 OA
BRANCH  12  13
ATOM     13  C   UNL     1     -11.576  -3.845 -20.340  1.00  0.00     0.282 C 
ATOM     14  C   UNL     1     -10.077  -3.923 -19.938  1.00  0.00     0.202 C 
ATOM     15  O   UNL     1     -11.692  -2.741 -21.234  1.00  0.00    -0.341 OA
ATOM     16  C   UNL     1      -9.791  -2.821 -18.898  1.00  0.00     0.179 C 
ATOM     17  C   UNL     1     -11.411  -1.480 -20.576  1.00  0.00     0.178 C 
ATOM     18  C   UNL     1     -10.640  -1.549 -19.160  1.00  0.00     0.177 C 
BRANCH  14  19
ATOM     19  O   UNL     1      -9.343  -3.721 -21.130  1.00  0.00    -0.385 OA
ATOM     20  H   UNL     1      -9.717  -4.304 -21.846  1.00  0.00     0.211 HD
ENDBRANCH  14  19
BRANCH  16  21
ATOM     21  O   UNL     1     -10.025  -3.292 -17.587  1.00  0.00    -0.387 OA
ATOM     22  H   UNL     1     -10.023  -4.299 -17.577  1.00  0.00     0.211 HD
ENDBRANCH  16  21
BRANCH  17  23
ATOM     23  C   UNL     1     -12.750  -0.718 -20.443  1.00  0.00     0.191 C 
BRANCH  23  24
ATOM     24  O   UNL     1     -12.879  -0.168 -19.169  1.00  0.00    -0.394 OA
ATOM     25  H   UNL     1     -12.034   0.267 -18.920  1.00  0.00     0.210 HD
ENDBRANCH  23  24
ENDBRANCH  17  23
BRANCH  18  26
ATOM     26  O   UNL     1      -9.854  -0.416 -18.893  1.00  0.00    -0.387 OA
ATOM     27  H   UNL     1      -8.967  -0.712 -18.538  1.00  0.00     0.211 HD
ENDBRANCH  18  26
ENDBRANCH  12  13
ENDBRANCH   7  12
BRANCH   4  28
ATOM     28  O   UNL     1     -15.353  -7.217 -16.273  1.00  0.00    -0.365 OA
ATOM     29  H   UNL     1     -15.573  -8.082 -16.752  1.00  0.00     0.214 HD
ENDBRANCH   4  28
BRANCH   8  30
ATOM     30  C   UNL     1     -14.467  -2.636 -17.455  1.00  0.00     0.249 C 
BRANCH  30  31
ATOM     31  O   UNL     1     -15.324  -1.790 -18.225  1.00  0.00    -0.461 OA
BRANCH  31  32
ATOM     32  C   UNL     1     -16.369  -0.964 -17.750  1.00  0.00     0.338 C 
ATOM     33  O   UNL     1     -16.345   0.265 -18.027  1.00  0.00    -0.246 OA
BRANCH  32  34
ATOM     34  C   UNL     1     -17.447  -1.456 -16.831  1.00  0.00     0.060 A 
ATOM     35  C   UNL     1     -18.264  -2.556 -17.133  1.00  0.00     0.015 A 
ATOM     36  C   UNL     1     -17.591  -0.835 -15.596  1.00  0.00     0.015 A 
ATOM     37  C   UNL     1     -19.097  -3.103 -16.156  1.00  0.00     0.001 A 
ATOM     38  C   UNL     1     -18.422  -1.392 -14.611  1.00  0.00     0.001 A 
ATOM     39  C   UNL     1     -19.086  -2.594 -14.877  1.00  0.00     0.000 A 
ENDBRANCH  32  34
ENDBRANCH  31  32
ENDBRANCH  30  31
ENDBRANCH   8  30
TORSDOF 12
ENDMDL
MODEL 8
REMARK VINA RESULT:    -5.809      3.485      6.814
REMARK INTER + INTRA:         -10.505
REMARK INTER:                  -9.251
REMARK INTRA:                  -1.253
REMARK UNBOUND:                -1.470
REMARK SMILES C[C@]12C[C@]3(O)O[C@H](O1)[C@@]1(COC(=O)c4ccccc4)[C@@H]3C[C@]12O[C@H]1O[C@@H](CO)[C@H](O)[C@@H](O)[C@@H]1O
REMARK SMILES IDX 1 1 2 2 3 3 4 4 20 5 21 6 22 7 9 8 7 9 8 10 6 11 23 12 24 13
REMARK SMILES IDX 33 14 25 15 31 16 26 17 29 18 34 19 32 21 27 23 28 24 30 26
REMARK SMILES IDX 5 28 10 30 11 31 12 32 13 33 14 34 15 35 19 36 16 37 18 38
REMARK SMILES IDX 17 39
REMARK H PARENT 34 20 32 22 28 25 30 27 5 29
REMARK Flexibility Score: inf
ROOT
ATOM      1  C   UNL     1     -12.696  -5.042 -16.523  1.00  0.00     0.046 C 
ATOM      2  C   UNL     1     -12.233  -4.165 -17.674  1.00  0.00     0.104 C 
ATOM      3  C   UNL     1     -11.336  -5.070 -18.644  1.00  0.00     0.104 C 
ATOM      4  C   UNL     1     -10.874  -4.097 -19.764  1.00  0.00     0.175 C 
ATOM      5  C   UNL     1     -12.096  -3.304 -20.320  1.00  0.00     0.070 C 
ATOM      6  C   UNL     1     -13.421  -4.001 -19.986  1.00  0.00     0.050 C 
ATOM      7  C   UNL     1     -13.314  -3.399 -18.568  1.00  0.00     0.115 C 
ATOM      8  C   UNL     1     -12.324  -2.366 -19.167  1.00  0.00     0.096 C 
ATOM      9  C   UNL     1     -11.031  -2.405 -18.346  1.00  0.00     0.267 C 
ATOM     10  O   UNL     1     -11.335  -3.169 -17.175  1.00  0.00    -0.342 OA
ATOM     11  O   UNL     1     -10.076  -3.115 -19.145  1.00  0.00    -0.320 OA
ENDROOT
BRANCH   7  12
ATOM     12  O   UNL     1     -14.491  -2.721 -18.147  1.00  0.00    -0.339 OA
BRANCH  12  13
ATOM     13  C   UNL     1     -14.934  -2.738 -16.804  1.00  0.00     0.282 C 
ATOM     14  C   UNL     1     -15.877  -3.886 -16.350  1.00  0.00     0.202 C 
ATOM     15  O   UNL     1     -15.651  -1.524 -16.590  1.00  0.00    -0.341 OA
ATOM     16  C   UNL     1     -16.939  -4.110 -17.447  1.00  0.00     0.179 C 
ATOM     17  C   UNL     1     -16.812  -1.422 -17.453  1.00  0.00     0.178 C 
ATOM     18  C   UNL     1     -17.326  -2.783 -18.151  1.00  0.00     0.177 C 
BRANCH  14  19
ATOM     19  O   UNL     1     -16.463  -3.453 -15.137  1.00  0.00    -0.385 OA
ATOM     20  H   UNL     1     -16.840  -2.540 -15.264  1.00  0.00     0.211 HD
ENDBRANCH  14  19
BRANCH  16  21
ATOM     21  O   UNL     1     -16.485  -5.046 -18.403  1.00  0.00    -0.387 OA
ATOM     22  H   UNL     1     -16.469  -4.624 -19.317  1.00  0.00     0.211 HD
ENDBRANCH  16  21
BRANCH  17  23
ATOM     23  C   UNL     1     -16.510  -0.334 -18.509  1.00  0.00     0.191 C 
BRANCH  23  24
ATOM     24  O   UNL     1     -16.102   0.849 -17.894  1.00  0.00    -0.394 OA
ATOM     25  H   UNL     1     -16.155   0.738 -16.919  1.00  0.00     0.210 HD
ENDBRANCH  23  24
ENDBRANCH  17  23
BRANCH  18  26
ATOM     26  O   UNL     1     -18.706  -2.794 -18.410  1.00  0.00    -0.387 OA
ATOM     27  H   UNL     1     -18.852  -2.822 -19.399  1.00  0.00     0.211 HD
ENDBRANCH  18  26
ENDBRANCH  12  13
ENDBRANCH   7  12
BRANCH   4  28
ATOM     28  O   UNL     1     -10.172  -4.777 -20.805  1.00  0.00    -0.365 OA
ATOM     29  H   UNL     1     -10.558  -4.390 -21.657  1.00  0.00     0.214 HD
ENDBRANCH   4  28
BRANCH   8  30
ATOM     30  C   UNL     1     -12.772  -0.918 -19.571  1.00  0.00     0.249 C 
BRANCH  30  31
ATOM     31  O   UNL     1     -11.678  -0.006 -19.695  1.00  0.00    -0.461 OA
BRANCH  31  32
ATOM     32  C   UNL     1     -10.987   0.351 -20.875  1.00  0.00     0.338 C 
ATOM     33  O   UNL     1     -10.905  -0.491 -21.809  1.00  0.00    -0.246 OA
BRANCH  32  34
ATOM     34  C   UNL     1     -10.240   1.643 -21.026  1.00  0.00     0.060 A 
ATOM     35  C   UNL     1      -8.973   1.726 -21.624  1.00  0.00     0.015 A 
ATOM     36  C   UNL     1     -10.864   2.815 -20.617  1.00  0.00     0.015 A 
ATOM     37  C   UNL     1      -8.422   2.970 -21.935  1.00  0.00     0.001 A 
ATOM     38  C   UNL     1     -10.314   4.065 -20.938  1.00  0.00     0.001 A 
ATOM     39  C   UNL     1      -9.140   4.120 -21.698  1.00  0.00     0.000 A 
ENDBRANCH  32  34
ENDBRANCH  31  32
ENDBRANCH  30  31
ENDBRANCH   8  30
TORSDOF 12
ENDMDL
MODEL 9
REMARK VINA RESULT:    -5.735      2.655      5.827
REMARK INTER + INTRA:         -10.389
REMARK INTER:                  -8.519
REMARK INTRA:                  -1.870
REMARK UNBOUND:                -1.470
REMARK SMILES C[C@]12C[C@]3(O)O[C@H](O1)[C@@]1(COC(=O)c4ccccc4)[C@@H]3C[C@]12O[C@H]1O[C@@H](CO)[C@H](O)[C@@H](O)[C@@H]1O
REMARK SMILES IDX 1 1 2 2 3 3 4 4 20 5 21 6 22 7 9 8 7 9 8 10 6 11 23 12 24 13
REMARK SMILES IDX 33 14 25 15 31 16 26 17 29 18 34 19 32 21 27 23 28 24 30 26
REMARK SMILES IDX 5 28 10 30 11 31 12 32 13 33 14 34 15 35 19 36 16 37 18 38
REMARK SMILES IDX 17 39
REMARK H PARENT 34 20 32 22 28 25 30 27 5 29
REMARK Flexibility Score: inf
ROOT
ATOM      1  C   UNL     1     -10.376  -3.591 -21.880  1.00  0.00     0.046 C 
ATOM      2  C   UNL     1     -10.878  -3.057 -20.548  1.00  0.00     0.104 C 
ATOM      3  C   UNL     1     -11.045  -1.471 -20.693  1.00  0.00     0.104 C 
ATOM      4  C   UNL     1     -11.519  -1.002 -19.290  1.00  0.00     0.175 C 
ATOM      5  C   UNL     1     -12.708  -1.886 -18.804  1.00  0.00     0.070 C 
ATOM      6  C   UNL     1     -13.380  -2.620 -19.972  1.00  0.00     0.050 C 
ATOM      7  C   UNL     1     -12.225  -3.643 -19.919  1.00  0.00     0.115 C 
ATOM      8  C   UNL     1     -11.957  -3.147 -18.475  1.00  0.00     0.096 C 
ATOM      9  C   UNL     1     -10.485  -2.731 -18.373  1.00  0.00     0.267 C 
ATOM     10  O   UNL     1      -9.857  -3.225 -19.560  1.00  0.00    -0.342 OA
ATOM     11  O   UNL     1     -10.477  -1.297 -18.389  1.00  0.00    -0.320 OA
ENDROOT
BRANCH   7  12
ATOM     12  O   UNL     1     -12.664  -4.995 -19.869  1.00  0.00    -0.339 OA
BRANCH  12  13
ATOM     13  C   UNL     1     -13.237  -5.646 -20.987  1.00  0.00     0.282 C 
ATOM     14  C   UNL     1     -14.350  -6.700 -20.738  1.00  0.00     0.202 C 
ATOM     15  O   UNL     1     -12.179  -6.332 -21.653  1.00  0.00    -0.341 OA
ATOM     16  C   UNL     1     -13.931  -7.583 -19.545  1.00  0.00     0.179 C 
ATOM     17  C   UNL     1     -11.566  -7.335 -20.804  1.00  0.00     0.178 C 
ATOM     18  C   UNL     1     -12.395  -7.793 -19.497  1.00  0.00     0.177 C 
BRANCH  14  19
ATOM     19  O   UNL     1     -14.451  -7.451 -21.934  1.00  0.00    -0.385 OA
ATOM     20  H   UNL     1     -14.898  -8.319 -21.736  1.00  0.00     0.211 HD
ENDBRANCH  14  19
BRANCH  16  21
ATOM     21  O   UNL     1     -14.377  -7.026 -18.325  1.00  0.00    -0.387 OA
ATOM     22  H   UNL     1     -14.773  -7.745 -17.742  1.00  0.00     0.211 HD
ENDBRANCH  16  21
BRANCH  17  23
ATOM     23  C   UNL     1     -10.160  -6.819 -20.419  1.00  0.00     0.191 C 
BRANCH  23  24
ATOM     24  O   UNL     1     -10.165  -6.296 -19.127  1.00  0.00    -0.394 OA
ATOM     25  H   UNL     1     -10.085  -5.318 -19.176  1.00  0.00     0.210 HD
ENDBRANCH  23  24
ENDBRANCH  17  23
BRANCH  18  26
ATOM     26  O   UNL     1     -12.130  -9.113 -19.099  1.00  0.00    -0.387 OA
ATOM     27  H   UNL     1     -12.929  -9.476 -18.620  1.00  0.00     0.211 HD
ENDBRANCH  18  26
ENDBRANCH  12  13
ENDBRANCH   7  12
BRANCH   4  28
ATOM     28  O   UNL     1     -11.858   0.385 -19.277  1.00  0.00    -0.365 OA
ATOM     29  H   UNL     1     -11.342   0.758 -18.490  1.00  0.00     0.214 HD
ENDBRANCH   4  28
BRANCH   8  30
ATOM     30  C   UNL     1     -12.483  -3.920 -17.215  1.00  0.00     0.249 C 
BRANCH  30  31
ATOM     31  O   UNL     1     -13.598  -3.281 -16.590  1.00  0.00    -0.461 OA
BRANCH  31  32
ATOM     32  C   UNL     1     -14.969  -3.574 -16.771  1.00  0.00     0.338 C 
ATOM     33  O   UNL     1     -15.288  -4.614 -17.407  1.00  0.00    -0.246 OA
BRANCH  32  34
ATOM     34  C   UNL     1     -16.067  -2.644 -16.348  1.00  0.00     0.060 A 
ATOM     35  C   UNL     1     -16.683  -2.714 -15.090  1.00  0.00     0.015 A 
ATOM     36  C   UNL     1     -16.439  -1.627 -17.219  1.00  0.00     0.015 A 
ATOM     37  C   UNL     1     -17.540  -1.695 -14.668  1.00  0.00     0.001 A 
ATOM     38  C   UNL     1     -17.293  -0.599 -16.791  1.00  0.00     0.001 A 
ATOM     39  C   UNL     1     -17.748  -0.595 -15.469  1.00  0.00     0.000 A 
ENDBRANCH  32  34
ENDBRANCH  31  32
ENDBRANCH  30  31
ENDBRANCH   8  30
TORSDOF 12
ENDMDL
