MODEL 1
REMARK VINA RESULT:    -3.486      0.000      0.000
REMARK INTER + INTRA:          -6.027
REMARK INTER:                  -5.320
REMARK INTRA:                  -0.707
REMARK UNBOUND:                -0.707
REMARK SMILES CCCCCCCCCCC(=O)[O-]
REMARK SMILES IDX 7 1 8 2 9 3 10 4 11 5 12 6 13 7 6 8 5 9 4 10 3 11 2 12 1 13
REMARK H PARENT
REMARK Flexibility Score: inf
ROOT
ATOM      1  C   UNL     1       7.478   8.511  33.886  1.00  0.00     0.000 C 
ENDROOT
BRANCH   1   2
ATOM      2  C   UNL     1       6.620   9.494  33.074  1.00  0.00     0.000 C 
BRANCH   2   3
ATOM      3  C   UNL     1       5.613  10.259  33.948  1.00  0.00     0.006 C 
BRANCH   3   4
ATOM      4  C   UNL     1       5.258  11.636  33.372  1.00  0.00     0.053 C 
BRANCH   4   5
ATOM      5  C   UNL     1       5.257  12.669  34.455  1.00  0.00     0.041 C 
ATOM      6  O   UNL     1       5.202  13.892  34.164  1.00  0.00    -0.550 OA
ATOM      7  O   UNL     1       5.369  12.282  35.785  1.00  0.00    -0.550 OA
ENDBRANCH   4   5
ENDBRANCH   3   4
ENDBRANCH   2   3
ENDBRANCH   1   2
BRANCH   1   8
ATOM      8  C   UNL     1       7.225   8.610  35.401  1.00  0.00     0.000 C 
BRANCH   8   9
ATOM      9  C   UNL     1       6.882   7.258  36.064  1.00  0.00    -0.000 C 
BRANCH   9  10
ATOM     10  C   UNL     1       6.998   6.082  35.078  1.00  0.00    -0.000 C 
BRANCH  10  11
ATOM     11  C   UNL     1       5.630   5.436  34.773  1.00  0.00    -0.000 C 
BRANCH  11  12
ATOM     12  C   UNL     1       5.073   5.797  33.386  1.00  0.00    -0.003 C 
ATOM     13  C   UNL     1       4.875   4.578  32.487  1.00  0.00     0.004 C 
ENDBRANCH  11  12
ENDBRANCH  10  11
ENDBRANCH   9  10
ENDBRANCH   8   9
ENDBRANCH   1   8
TORSDOF 9
ENDMDL
MODEL 2
REMARK VINA RESULT:    -3.474      4.315      6.709
REMARK INTER + INTRA:          -6.009
REMARK INTER:                  -5.322
REMARK INTRA:                  -0.687
REMARK UNBOUND:                -0.707
REMARK SMILES CCCCCCCCCCC(=O)[O-]
REMARK SMILES IDX 7 1 8 2 9 3 10 4 11 5 12 6 13 7 6 8 5 9 4 10 3 11 2 12 1 13
REMARK H PARENT
REMARK Flexibility Score: inf
ROOT
ATOM      1  C   UNL     1       6.774   5.966  35.654  1.00  0.00     0.000 C 
ENDROOT
BRANCH   1   2
ATOM      2  C   UNL     1       7.405   4.636  36.097  1.00  0.00     0.000 C 
BRANCH   2   3
ATOM      3  C   UNL     1       8.910   4.764  36.383  1.00  0.00     0.006 C 
BRANCH   3   4
ATOM      4  C   UNL     1       9.663   5.502  35.269  1.00  0.00     0.053 C 
BRANCH   4   5
ATOM      5  C   UNL     1      10.757   4.642  34.721  1.00  0.00     0.041 C 
ATOM      6  O   UNL     1      10.952   3.490  35.188  1.00  0.00    -0.550 OA
ATOM      7  O   UNL     1      11.594   5.132  33.726  1.00  0.00    -0.550 OA
ENDBRANCH   4   5
ENDBRANCH   3   4
ENDBRANCH   2   3
ENDBRANCH   1   2
BRANCH   1   8
ATOM      8  C   UNL     1       5.845   5.809  34.438  1.00  0.00     0.000 C 
BRANCH   8   9
ATOM      9  C   UNL     1       6.073   6.873  33.342  1.00  0.00    -0.000 C 
BRANCH   9  10
ATOM     10  C   UNL     1       7.373   7.667  33.563  1.00  0.00    -0.000 C 
BRANCH  10  11
ATOM     11  C   UNL     1       7.193   9.174  33.282  1.00  0.00    -0.000 C 
BRANCH  11  12
ATOM     12  C   UNL     1       5.973   9.791  33.985  1.00  0.00    -0.003 C 
ATOM     13  C   UNL     1       5.488  11.078  33.321  1.00  0.00     0.004 C 
ENDBRANCH  11  12
ENDBRANCH  10  11
ENDBRANCH   9  10
ENDBRANCH   8   9
ENDBRANCH   1   8
TORSDOF 9
ENDMDL
MODEL 3
REMARK VINA RESULT:    -3.473      1.845      2.847
REMARK INTER + INTRA:          -6.007
REMARK INTER:                  -5.330
REMARK INTRA:                  -0.677
REMARK UNBOUND:                -0.707
REMARK SMILES CCCCCCCCCCC(=O)[O-]
REMARK SMILES IDX 7 1 8 2 9 3 10 4 11 5 12 6 13 7 6 8 5 9 4 10 3 11 2 12 1 13
REMARK H PARENT
REMARK Flexibility Score: inf
ROOT
ATOM      1  C   UNL     1       8.112   7.331  33.757  1.00  0.00     0.000 C 
ENDROOT
BRANCH   1   2
ATOM      2  C   UNL     1       7.846   8.813  33.450  1.00  0.00     0.000 C 
BRANCH   2   3
ATOM      3  C   UNL     1       6.350   9.163  33.486  1.00  0.00     0.006 C 
BRANCH   3   4
ATOM      4  C   UNL     1       6.059  10.571  32.950  1.00  0.00     0.053 C 
BRANCH   4   5
ATOM      5  C   UNL     1       5.299  11.368  33.963  1.00  0.00     0.041 C 
ATOM      6  O   UNL     1       5.021  12.575  33.740  1.00  0.00    -0.550 OA
ATOM      7  O   UNL     1       4.940  10.791  35.175  1.00  0.00    -0.550 OA
ENDBRANCH   4   5
ENDBRANCH   3   4
ENDBRANCH   2   3
ENDBRANCH   1   2
BRANCH   1   8
ATOM      8  C   UNL     1       6.837   6.566  34.152  1.00  0.00     0.000 C 
BRANCH   8   9
ATOM      9  C   UNL     1       6.909   5.917  35.551  1.00  0.00    -0.000 C 
BRANCH   9  10
ATOM     10  C   UNL     1       7.940   6.610  36.460  1.00  0.00    -0.000 C 
BRANCH  10  11
ATOM     11  C   UNL     1       9.043   5.642  36.939  1.00  0.00    -0.000 C 
BRANCH  11  12
ATOM     12  C   UNL     1       9.398   4.555  35.910  1.00  0.00    -0.003 C 
ATOM     13  C   UNL     1       9.232   3.138  36.457  1.00  0.00     0.004 C 
ENDBRANCH  11  12
ENDBRANCH  10  11
ENDBRANCH   9  10
ENDBRANCH   8   9
ENDBRANCH   1   8
TORSDOF 9
ENDMDL
MODEL 4
REMARK VINA RESULT:    -3.472      3.253      7.267
REMARK INTER + INTRA:          -6.006
REMARK INTER:                  -5.575
REMARK INTRA:                  -0.431
REMARK UNBOUND:                -0.707
REMARK SMILES CCCCCCCCCCC(=O)[O-]
REMARK SMILES IDX 7 1 8 2 9 3 10 4 11 5 12 6 13 7 6 8 5 9 4 10 3 11 2 12 1 13
REMARK H PARENT
REMARK Flexibility Score: inf
ROOT
ATOM      1  C   UNL     1       4.961  11.662  33.223  1.00  0.00     0.000 C 
ENDROOT
BRANCH   1   2
ATOM      2  C   UNL     1       5.751  10.543  33.921  1.00  0.00     0.000 C 
BRANCH   2   3
ATOM      3  C   UNL     1       6.591   9.713  32.937  1.00  0.00     0.006 C 
BRANCH   3   4
ATOM      4  C   UNL     1       7.769   9.003  33.617  1.00  0.00     0.053 C 
BRANCH   4   5
ATOM      5  C   UNL     1       7.518   7.530  33.690  1.00  0.00     0.041 C 
ATOM      6  O   UNL     1       8.406   6.758  34.138  1.00  0.00    -0.550 OA
ATOM      7  O   UNL     1       6.323   7.003  33.215  1.00  0.00    -0.550 OA
ENDBRANCH   4   5
ENDBRANCH   3   4
ENDBRANCH   2   3
ENDBRANCH   1   2
BRANCH   1   8
ATOM      8  C   UNL     1       4.927  12.965  34.040  1.00  0.00     0.000 C 
BRANCH   8   9
ATOM      9  C   UNL     1       5.394  12.795  35.502  1.00  0.00    -0.000 C 
BRANCH   9  10
ATOM     10  C   UNL     1       5.694  14.145  36.177  1.00  0.00    -0.000 C 
BRANCH  10  11
ATOM     11  C   UNL     1       6.234  15.191  35.180  1.00  0.00    -0.000 C 
BRANCH  11  12
ATOM     12  C   UNL     1       5.924  16.643  35.581  1.00  0.00    -0.003 C 
ATOM     13  C   UNL     1       6.275  17.652  34.489  1.00  0.00     0.004 C 
ENDBRANCH  11  12
ENDBRANCH  10  11
ENDBRANCH   9  10
ENDBRANCH   8   9
ENDBRANCH   1   8
TORSDOF 9
ENDMDL
MODEL 5
REMARK VINA RESULT:    -3.456      3.812      6.389
REMARK INTER + INTRA:          -5.981
REMARK INTER:                  -5.264
REMARK INTRA:                  -0.717
REMARK UNBOUND:                -0.707
REMARK SMILES CCCCCCCCCCC(=O)[O-]
REMARK SMILES IDX 7 1 8 2 9 3 10 4 11 5 12 6 13 7 6 8 5 9 4 10 3 11 2 12 1 13
REMARK H PARENT
REMARK Flexibility Score: inf
ROOT
ATOM      1  C   UNL     1       5.942   5.783  34.311  1.00  0.00     0.000 C 
ENDROOT
BRANCH   1   2
ATOM      2  C   UNL     1       5.847   6.208  35.785  1.00  0.00     0.000 C 
BRANCH   2   3
ATOM      3  C   UNL     1       6.894   5.510  36.668  1.00  0.00     0.006 C 
BRANCH   3   4
ATOM      4  C   UNL     1       7.517   4.284  35.988  1.00  0.00     0.053 C 
BRANCH   4   5
ATOM      5  C   UNL     1       9.010   4.350  36.061  1.00  0.00     0.041 C 
ATOM      6  O   UNL     1       9.637   5.234  35.422  1.00  0.00    -0.550 OA
ATOM      7  O   UNL     1       9.713   3.402  36.795  1.00  0.00    -0.550 OA
ENDBRANCH   4   5
ENDBRANCH   3   4
ENDBRANCH   2   3
ENDBRANCH   1   2
BRANCH   1   8
ATOM      8  C   UNL     1       6.356   6.938  33.383  1.00  0.00     0.000 C 
BRANCH   8   9
ATOM      9  C   UNL     1       7.722   7.563  33.741  1.00  0.00    -0.000 C 
BRANCH   9  10
ATOM     10  C   UNL     1       7.765   9.073  33.447  1.00  0.00    -0.000 C 
BRANCH  10  11
ATOM     11  C   UNL     1       6.383   9.631  33.049  1.00  0.00    -0.000 C 
BRANCH  11  12
ATOM     12  C   UNL     1       5.690  10.422  34.171  1.00  0.00    -0.003 C 
ATOM     13  C   UNL     1       5.222  11.806  33.726  1.00  0.00     0.004 C 
ENDBRANCH  11  12
ENDBRANCH  10  11
ENDBRANCH   9  10
ENDBRANCH   8   9
ENDBRANCH   1   8
TORSDOF 9
ENDMDL
MODEL 6
REMARK VINA RESULT:    -3.394      1.233      2.113
REMARK INTER + INTRA:          -5.887
REMARK INTER:                  -5.191
REMARK INTRA:                  -0.696
REMARK UNBOUND:                -0.707
REMARK SMILES CCCCCCCCCCC(=O)[O-]
REMARK SMILES IDX 7 1 8 2 9 3 10 4 11 5 12 6 13 7 6 8 5 9 4 10 3 11 2 12 1 13
REMARK H PARENT
REMARK Flexibility Score: inf
ROOT
ATOM      1  C   UNL     1       6.923   9.061  33.712  1.00  0.00     0.000 C 
ENDROOT
BRANCH   1   2
ATOM      2  C   UNL     1       6.328  10.250  32.941  1.00  0.00     0.000 C 
BRANCH   2   3
ATOM      3  C   UNL     1       5.168  10.920  33.695  1.00  0.00     0.006 C 
BRANCH   3   4
ATOM      4  C   UNL     1       5.034  12.413  33.367  1.00  0.00     0.053 C 
BRANCH   4   5
ATOM      5  C   UNL     1       5.368  13.242  34.567  1.00  0.00     0.041 C 
ATOM      6  O   UNL     1       5.313  12.740  35.719  1.00  0.00    -0.550 OA
ATOM      7  O   UNL     1       5.691  14.585  34.415  1.00  0.00    -0.550 OA
ENDBRANCH   4   5
ENDBRANCH   3   4
ENDBRANCH   2   3
ENDBRANCH   1   2
BRANCH   1   8
ATOM      8  C   UNL     1       6.101   8.688  34.958  1.00  0.00     0.000 C 
BRANCH   8   9
ATOM      9  C   UNL     1       5.249   7.412  34.780  1.00  0.00    -0.000 C 
BRANCH   9  10
ATOM     10  C   UNL     1       6.013   6.301  34.038  1.00  0.00    -0.000 C 
BRANCH  10  11
ATOM     11  C   UNL     1       6.212   5.044  34.911  1.00  0.00    -0.000 C 
BRANCH  11  12
ATOM     12  C   UNL     1       7.389   5.158  35.896  1.00  0.00    -0.003 C 
ATOM     13  C   UNL     1       8.600   5.873  35.300  1.00  0.00     0.004 C 
ENDBRANCH  11  12
ENDBRANCH  10  11
ENDBRANCH   9  10
ENDBRANCH   8   9
ENDBRANCH   1   8
TORSDOF 9
ENDMDL
MODEL 7
REMARK VINA RESULT:    -3.372      4.211      7.006
REMARK INTER + INTRA:          -5.853
REMARK INTER:                  -5.559
REMARK INTRA:                  -0.294
REMARK UNBOUND:                -0.707
REMARK SMILES CCCCCCCCCCC(=O)[O-]
REMARK SMILES IDX 7 1 8 2 9 3 10 4 11 5 12 6 13 7 6 8 5 9 4 10 3 11 2 12 1 13
REMARK H PARENT
REMARK Flexibility Score: inf
ROOT
ATOM      1  C   UNL     1       8.024   7.978  33.733  1.00  0.00     0.000 C 
ENDROOT
BRANCH   1   2
ATOM      2  C   UNL     1       7.152   6.761  34.084  1.00  0.00     0.000 C 
BRANCH   2   3
ATOM      3  C   UNL     1       7.495   6.170  35.461  1.00  0.00     0.006 C 
BRANCH   3   4
ATOM      4  C   UNL     1       8.937   5.652  35.540  1.00  0.00     0.053 C 
BRANCH   4   5
ATOM      5  C   UNL     1       8.956   4.234  36.016  1.00  0.00     0.041 C 
ATOM      6  O   UNL     1      10.040   3.596  36.061  1.00  0.00    -0.550 OA
ATOM      7  O   UNL     1       7.769   3.601  36.364  1.00  0.00    -0.550 OA
ENDBRANCH   4   5
ENDBRANCH   3   4
ENDBRANCH   2   3
ENDBRANCH   1   2
BRANCH   1   8
ATOM      8  C   UNL     1       7.228   9.103  33.049  1.00  0.00     0.000 C 
BRANCH   8   9
ATOM      9  C   UNL     1       6.023   9.603  33.876  1.00  0.00    -0.000 C 
BRANCH   9  10
ATOM     10  C   UNL     1       5.504  10.965  33.383  1.00  0.00    -0.000 C 
BRANCH  10  11
ATOM     11  C   UNL     1       5.191  11.928  34.548  1.00  0.00    -0.000 C 
BRANCH  11  12
ATOM     12  C   UNL     1       5.277  13.414  34.160  1.00  0.00    -0.003 C 
ATOM     13  C   UNL     1       5.627  14.320  35.338  1.00  0.00     0.004 C 
ENDBRANCH  11  12
ENDBRANCH  10  11
ENDBRANCH   9  10
ENDBRANCH   8   9
ENDBRANCH   1   8
TORSDOF 9
ENDMDL
MODEL 8
REMARK VINA RESULT:    -3.316      4.840      7.033
REMARK INTER + INTRA:          -5.767
REMARK INTER:                  -4.997
REMARK INTRA:                  -0.770
REMARK UNBOUND:                -0.707
REMARK SMILES CCCCCCCCCCC(=O)[O-]
REMARK SMILES IDX 7 1 8 2 9 3 10 4 11 5 12 6 13 7 6 8 5 9 4 10 3 11 2 12 1 13
REMARK H PARENT
REMARK Flexibility Score: inf
ROOT
ATOM      1  C   UNL     1       7.976   6.715  34.682  1.00  0.00     0.000 C 
ENDROOT
BRANCH   1   2
ATOM      2  C   UNL     1       7.058   6.034  35.711  1.00  0.00     0.000 C 
BRANCH   2   3
ATOM      3  C   UNL     1       7.734   4.840  36.404  1.00  0.00     0.006 C 
BRANCH   3   4
ATOM      4  C   UNL     1       9.187   4.641  35.954  1.00  0.00     0.053 C 
BRANCH   4   5
ATOM      5  C   UNL     1       9.663   3.270  36.318  1.00  0.00     0.041 C 
ATOM      6  O   UNL     1       8.955   2.527  37.048  1.00  0.00    -0.550 OA
ATOM      7  O   UNL     1      10.911   2.831  35.894  1.00  0.00    -0.550 OA
ENDBRANCH   4   5
ENDBRANCH   3   4
ENDBRANCH   2   3
ENDBRANCH   1   2
BRANCH   1   8
ATOM      8  C   UNL     1       7.195   7.363  33.526  1.00  0.00     0.000 C 
BRANCH   8   9
ATOM      9  C   UNL     1       7.604   8.826  33.244  1.00  0.00    -0.000 C 
BRANCH   9  10
ATOM     10  C   UNL     1       6.403   9.786  33.300  1.00  0.00    -0.000 C 
BRANCH  10  11
ATOM     11  C   UNL     1       5.495   9.517  34.518  1.00  0.00    -0.000 C 
BRANCH  11  12
ATOM     12  C   UNL     1       5.784  10.436  35.718  1.00  0.00    -0.003 C 
ATOM     13  C   UNL     1       6.673   9.780  36.772  1.00  0.00     0.004 C 
ENDBRANCH  11  12
ENDBRANCH  10  11
ENDBRANCH   9  10
ENDBRANCH   8   9
ENDBRANCH   1   8
TORSDOF 9
ENDMDL
MODEL 9
REMARK VINA RESULT:    -3.314      2.511      4.432
REMARK INTER + INTRA:          -5.765
REMARK INTER:                  -4.796
REMARK INTRA:                  -0.969
REMARK UNBOUND:                -0.707
REMARK SMILES CCCCCCCCCCC(=O)[O-]
REMARK SMILES IDX 7 1 8 2 9 3 10 4 11 5 12 6 13 7 6 8 5 9 4 10 3 11 2 12 1 13
REMARK H PARENT
REMARK Flexibility Score: inf
ROOT
ATOM      1  C   UNL     1       5.069   4.389  33.734  1.00  0.00     0.000 C 
ENDROOT
BRANCH   1   2
ATOM      2  C   UNL     1       5.230   5.799  33.143  1.00  0.00     0.000 C 
BRANCH   2   3
ATOM      3  C   UNL     1       6.470   6.527  33.685  1.00  0.00     0.006 C 
BRANCH   3   4
ATOM      4  C   UNL     1       6.157   7.948  34.170  1.00  0.00     0.053 C 
BRANCH   4   5
ATOM      5  C   UNL     1       6.984   8.948  33.423  1.00  0.00     0.041 C 
ATOM      6  O   UNL     1       8.226   8.782  33.307  1.00  0.00    -0.550 OA
ATOM      7  O   UNL     1       6.389  10.088  32.897  1.00  0.00    -0.550 OA
ENDBRANCH   4   5
ENDBRANCH   3   4
ENDBRANCH   2   3
ENDBRANCH   1   2
BRANCH   1   8
ATOM      8  C   UNL     1       5.388   4.334  35.238  1.00  0.00     0.000 C 
BRANCH   8   9
ATOM      9  C   UNL     1       6.453   3.278  35.609  1.00  0.00    -0.000 C 
BRANCH   9  10
ATOM     10  C   UNL     1       7.439   3.796  36.671  1.00  0.00    -0.000 C 
BRANCH  10  11
ATOM     11  C   UNL     1       8.864   3.977  36.108  1.00  0.00    -0.000 C 
BRANCH  11  12
ATOM     12  C   UNL     1       9.248   5.445  35.860  1.00  0.00    -0.003 C 
ATOM     13  C   UNL     1       8.519   6.418  36.784  1.00  0.00     0.004 C 
ENDBRANCH  11  12
ENDBRANCH  10  11
ENDBRANCH   9  10
ENDBRANCH   8   9
ENDBRANCH   1   8
TORSDOF 9
ENDMDL
