MODEL 1
REMARK VINA RESULT:    -4.024      0.000      0.000
REMARK INTER + INTRA:          -4.689
REMARK INTER:                  -4.612
REMARK INTRA:                  -0.077
REMARK UNBOUND:                -0.077
REMARK SMILES C=Cc1ccc(O)c(OC)c1
REMARK SMILES IDX 8 1 6 2 5 3 4 4 3 5 11 6 9 7 10 8 7 9 2 11 1 12
REMARK H PARENT 7 10
REMARK Flexibility Score: inf
ROOT
ATOM      1  C   UNL     1      24.537  37.021  20.973  1.00  0.00     0.161 A 
ATOM      2  C   UNL     1      24.090  36.537  19.736  1.00  0.00     0.157 A 
ATOM      3  C   UNL     1      25.010  36.061  18.795  1.00  0.00     0.051 A 
ATOM      4  C   UNL     1      26.376  36.059  19.081  1.00  0.00     0.012 A 
ATOM      5  C   UNL     1      26.845  36.529  20.322  1.00  0.00    -0.022 A 
ATOM      6  C   UNL     1      25.918  37.018  21.257  1.00  0.00     0.058 A 
ENDROOT
BRANCH   1   7
ATOM      7  O   UNL     1      23.585  37.495  21.889  1.00  0.00    -0.493 OA
ATOM      8  C   UNL     1      23.161  38.852  21.982  1.00  0.00     0.278 C 
ENDBRANCH   1   7
BRANCH   2   9
ATOM      9  O   UNL     1      22.726  36.537  19.450  1.00  0.00    -0.504 OA
ATOM     10  H   UNL     1      22.061  36.049  20.039  1.00  0.00     0.293 HD
ENDBRANCH   2   9
BRANCH   5  11
ATOM     11  C   UNL     1      28.288  36.558  20.673  1.00  0.00     0.000 C 
ATOM     12  C   UNL     1      28.935  35.556  21.269  1.00  0.00     0.009 C 
ENDBRANCH   5  11
TORSDOF 3
ENDMDL
MODEL 2
REMARK VINA RESULT:    -4.015      5.728      7.193
REMARK INTER + INTRA:          -4.678
REMARK INTER:                  -4.595
REMARK INTRA:                  -0.083
REMARK UNBOUND:                -0.077
REMARK SMILES C=Cc1ccc(O)c(OC)c1
REMARK SMILES IDX 8 1 6 2 5 3 4 4 3 5 11 6 9 7 10 8 7 9 2 11 1 12
REMARK H PARENT 7 10
REMARK Flexibility Score: inf
ROOT
ATOM      1  C   UNL     1      28.469  32.820  23.333  1.00  0.00     0.161 A 
ATOM      2  C   UNL     1      28.893  32.061  22.233  1.00  0.00     0.157 A 
ATOM      3  C   UNL     1      29.125  30.689  22.375  1.00  0.00     0.051 A 
ATOM      4  C   UNL     1      28.932  30.063  23.608  1.00  0.00     0.012 A 
ATOM      5  C   UNL     1      28.495  30.804  24.722  1.00  0.00    -0.022 A 
ATOM      6  C   UNL     1      28.277  32.184  24.577  1.00  0.00     0.058 A 
ENDROOT
BRANCH   1   7
ATOM      7  O   UNL     1      28.252  34.195  23.153  1.00  0.00    -0.493 OA
ATOM      8  C   UNL     1      27.304  34.964  23.885  1.00  0.00     0.278 C 
ENDBRANCH   1   7
BRANCH   2   9
ATOM      9  O   UNL     1      29.084  32.684  21.001  1.00  0.00    -0.504 OA
ATOM     10  H   UNL     1      29.456  33.625  20.934  1.00  0.00     0.293 HD
ENDBRANCH   2   9
BRANCH   5  11
ATOM     11  C   UNL     1      28.284  30.190  26.057  1.00  0.00     0.000 C 
ATOM     12  C   UNL     1      27.332  29.297  26.330  1.00  0.00     0.009 C 
ENDBRANCH   5  11
TORSDOF 3
ENDMDL
MODEL 3
REMARK VINA RESULT:    -3.973     13.899     15.871
REMARK INTER + INTRA:          -4.630
REMARK INTER:                  -4.546
REMARK INTRA:                  -0.085
REMARK UNBOUND:                -0.077
REMARK SMILES C=Cc1ccc(O)c(OC)c1
REMARK SMILES IDX 8 1 6 2 5 3 4 4 3 5 11 6 9 7 10 8 7 9 2 11 1 12
REMARK H PARENT 7 10
REMARK Flexibility Score: inf
ROOT
ATOM      1  C   UNL     1      13.510  31.548  29.144  1.00  0.00     0.161 A 
ATOM      2  C   UNL     1      12.216  31.343  29.642  1.00  0.00     0.157 A 
ATOM      3  C   UNL     1      11.146  32.097  29.148  1.00  0.00     0.051 A 
ATOM      4  C   UNL     1      11.355  33.054  28.154  1.00  0.00     0.012 A 
ATOM      5  C   UNL     1      12.644  33.267  27.631  1.00  0.00    -0.022 A 
ATOM      6  C   UNL     1      13.717  32.517  28.141  1.00  0.00     0.058 A 
ENDROOT
BRANCH   1   7
ATOM      7  O   UNL     1      14.558  30.776  29.668  1.00  0.00    -0.493 OA
ATOM      8  C   UNL     1      15.742  31.313  30.251  1.00  0.00     0.278 C 
ENDBRANCH   1   7
BRANCH   2   9
ATOM      9  O   UNL     1      12.004  30.386  30.633  1.00  0.00    -0.504 OA
ATOM     10  H   UNL     1      12.061  30.621  31.618  1.00  0.00     0.293 HD
ENDBRANCH   2   9
BRANCH   5  11
ATOM     11  C   UNL     1      12.923  34.279  26.580  1.00  0.00     0.000 C 
ATOM     12  C   UNL     1      13.773  34.096  25.569  1.00  0.00     0.009 C 
ENDBRANCH   5  11
TORSDOF 3
ENDMDL
MODEL 4
REMARK VINA RESULT:    -3.972      9.285     10.206
REMARK INTER + INTRA:          -4.629
REMARK INTER:                  -4.545
REMARK INTRA:                  -0.085
REMARK UNBOUND:                -0.077
REMARK SMILES C=Cc1ccc(O)c(OC)c1
REMARK SMILES IDX 8 1 6 2 5 3 4 4 3 5 11 6 9 7 10 8 7 9 2 11 1 12
REMARK H PARENT 7 10
REMARK Flexibility Score: inf
ROOT
ATOM      1  C   UNL     1      25.669  28.747  26.552  1.00  0.00     0.161 A 
ATOM      2  C   UNL     1      25.533  29.498  25.376  1.00  0.00     0.157 A 
ATOM      3  C   UNL     1      26.554  29.495  24.420  1.00  0.00     0.051 A 
ATOM      4  C   UNL     1      27.711  28.743  24.623  1.00  0.00     0.012 A 
ATOM      5  C   UNL     1      27.863  27.972  25.791  1.00  0.00    -0.022 A 
ATOM      6  C   UNL     1      26.840  27.989  26.754  1.00  0.00     0.058 A 
ENDROOT
BRANCH   1   7
ATOM      7  O   UNL     1      24.626  28.779  27.490  1.00  0.00    -0.493 OA
ATOM      8  C   UNL     1      23.968  27.626  28.005  1.00  0.00     0.278 C 
ENDBRANCH   1   7
BRANCH   2   9
ATOM      9  O   UNL     1      24.376  30.249  25.169  1.00  0.00    -0.504 OA
ATOM     10  H   UNL     1      23.740  30.043  24.407  1.00  0.00     0.293 HD
ENDBRANCH   2   9
BRANCH   5  11
ATOM     11  C   UNL     1      29.078  27.161  26.062  1.00  0.00     0.000 C 
ATOM     12  C   UNL     1      29.113  25.829  26.028  1.00  0.00     0.009 C 
ENDBRANCH   5  11
TORSDOF 3
ENDMDL
MODEL 5
REMARK VINA RESULT:    -3.838     13.739     15.440
REMARK INTER + INTRA:          -4.476
REMARK INTER:                  -4.394
REMARK INTRA:                  -0.082
REMARK UNBOUND:                -0.077
REMARK SMILES C=Cc1ccc(O)c(OC)c1
REMARK SMILES IDX 8 1 6 2 5 3 4 4 3 5 11 6 9 7 10 8 7 9 2 11 1 12
REMARK H PARENT 7 10
REMARK Flexibility Score: inf
ROOT
ATOM      1  C   UNL     1      13.149  33.081  27.936  1.00  0.00     0.161 A 
ATOM      2  C   UNL     1      11.800  32.790  28.180  1.00  0.00     0.157 A 
ATOM      3  C   UNL     1      11.452  31.796  29.101  1.00  0.00     0.051 A 
ATOM      4  C   UNL     1      12.442  31.090  29.787  1.00  0.00     0.012 A 
ATOM      5  C   UNL     1      13.803  31.376  29.566  1.00  0.00    -0.022 A 
ATOM      6  C   UNL     1      14.146  32.366  28.630  1.00  0.00     0.058 A 
ENDROOT
BRANCH   1   7
ATOM      7  O   UNL     1      13.458  34.082  27.001  1.00  0.00    -0.493 OA
ATOM      8  C   UNL     1      13.732  33.841  25.625  1.00  0.00     0.278 C 
ENDBRANCH   1   7
BRANCH   2   9
ATOM      9  O   UNL     1      10.809  33.495  27.498  1.00  0.00    -0.504 OA
ATOM     10  H   UNL     1       9.915  33.702  27.928  1.00  0.00     0.293 HD
ENDBRANCH   2   9
BRANCH   5  11
ATOM     11  C   UNL     1      14.895  30.649  30.261  1.00  0.00     0.000 C 
ATOM     12  C   UNL     1      16.173  31.030  30.255  1.00  0.00     0.009 C 
ENDBRANCH   5  11
TORSDOF 3
ENDMDL
MODEL 6
REMARK VINA RESULT:    -3.809      9.197     10.526
REMARK INTER + INTRA:          -4.442
REMARK INTER:                  -4.334
REMARK INTRA:                  -0.108
REMARK UNBOUND:                -0.077
REMARK SMILES C=Cc1ccc(O)c(OC)c1
REMARK SMILES IDX 8 1 6 2 5 3 4 4 3 5 11 6 9 7 10 8 7 9 2 11 1 12
REMARK H PARENT 7 10
REMARK Flexibility Score: inf
ROOT
ATOM      1  C   UNL     1      27.337  27.402  26.114  1.00  0.00     0.161 A 
ATOM      2  C   UNL     1      26.288  28.274  26.431  1.00  0.00     0.157 A 
ATOM      3  C   UNL     1      26.134  29.472  25.725  1.00  0.00     0.051 A 
ATOM      4  C   UNL     1      27.018  29.807  24.698  1.00  0.00     0.012 A 
ATOM      5  C   UNL     1      28.071  28.938  24.356  1.00  0.00    -0.022 A 
ATOM      6  C   UNL     1      28.229  27.743  25.077  1.00  0.00     0.058 A 
ENDROOT
BRANCH   1   7
ATOM      7  O   UNL     1      27.463  26.212  26.848  1.00  0.00    -0.493 OA
ATOM      8  C   UNL     1      26.964  24.947  26.424  1.00  0.00     0.278 C 
ENDBRANCH   1   7
BRANCH   2   9
ATOM      9  O   UNL     1      25.402  27.941  27.455  1.00  0.00    -0.504 OA
ATOM     10  H   UNL     1      25.469  27.058  27.947  1.00  0.00     0.293 HD
ENDBRANCH   2   9
BRANCH   5  11
ATOM     11  C   UNL     1      29.045  29.250  23.278  1.00  0.00     0.000 C 
ATOM     12  C   UNL     1      29.015  30.358  22.537  1.00  0.00     0.009 C 
ENDBRANCH   5  11
TORSDOF 3
ENDMDL
MODEL 7
REMARK VINA RESULT:    -3.787      6.385      7.990
REMARK INTER + INTRA:          -4.418
REMARK INTER:                  -4.305
REMARK INTRA:                  -0.112
REMARK UNBOUND:                -0.077
REMARK SMILES C=Cc1ccc(O)c(OC)c1
REMARK SMILES IDX 8 1 6 2 5 3 4 4 3 5 11 6 9 7 10 8 7 9 2 11 1 12
REMARK H PARENT 7 10
REMARK Flexibility Score: inf
ROOT
ATOM      1  C   UNL     1      28.334  30.641  24.932  1.00  0.00     0.161 A 
ATOM      2  C   UNL     1      28.782  29.697  23.997  1.00  0.00     0.157 A 
ATOM      3  C   UNL     1      29.124  30.101  22.702  1.00  0.00     0.051 A 
ATOM      4  C   UNL     1      29.028  31.443  22.331  1.00  0.00     0.012 A 
ATOM      5  C   UNL     1      28.592  32.408  23.257  1.00  0.00    -0.022 A 
ATOM      6  C   UNL     1      28.237  31.995  24.552  1.00  0.00     0.058 A 
ENDROOT
BRANCH   1   7
ATOM      7  O   UNL     1      27.995  30.198  26.220  1.00  0.00    -0.493 OA
ATOM      8  C   UNL     1      28.817  30.361  27.371  1.00  0.00     0.278 C 
ENDBRANCH   1   7
BRANCH   2   9
ATOM      9  O   UNL     1      28.881  28.357  24.367  1.00  0.00    -0.504 OA
ATOM     10  H   UNL     1      28.057  27.798  24.558  1.00  0.00     0.293 HD
ENDBRANCH   2   9
BRANCH   5  11
ATOM     11  C   UNL     1      28.463  33.847  22.911  1.00  0.00     0.000 C 
ATOM     12  C   UNL     1      28.627  34.341  21.684  1.00  0.00     0.009 C 
ENDBRANCH   5  11
TORSDOF 3
ENDMDL
MODEL 8
REMARK VINA RESULT:    -3.725      3.671      4.320
REMARK INTER + INTRA:          -4.346
REMARK INTER:                  -4.271
REMARK INTRA:                  -0.075
REMARK UNBOUND:                -0.077
REMARK SMILES C=Cc1ccc(O)c(OC)c1
REMARK SMILES IDX 8 1 6 2 5 3 4 4 3 5 11 6 9 7 10 8 7 9 2 11 1 12
REMARK H PARENT 7 10
REMARK Flexibility Score: inf
ROOT
ATOM      1  C   UNL     1      26.470  40.549  20.140  1.00  0.00     0.161 A 
ATOM      2  C   UNL     1      27.139  40.202  18.958  1.00  0.00     0.157 A 
ATOM      3  C   UNL     1      27.196  38.865  18.550  1.00  0.00     0.051 A 
ATOM      4  C   UNL     1      26.583  37.868  19.311  1.00  0.00     0.012 A 
ATOM      5  C   UNL     1      25.896  38.196  20.494  1.00  0.00    -0.022 A 
ATOM      6  C   UNL     1      25.854  39.538  20.906  1.00  0.00     0.058 A 
ENDROOT
BRANCH   1   7
ATOM      7  O   UNL     1      26.440  41.900  20.520  1.00  0.00    -0.493 OA
ATOM      8  C   UNL     1      26.438  42.359  21.868  1.00  0.00     0.278 C 
ENDBRANCH   1   7
BRANCH   2   9
ATOM      9  O   UNL     1      27.749  41.198  18.196  1.00  0.00    -0.504 OA
ATOM     10  H   UNL     1      27.215  41.786  17.567  1.00  0.00     0.293 HD
ENDBRANCH   2   9
BRANCH   5  11
ATOM     11  C   UNL     1      25.236  37.172  21.345  1.00  0.00     0.000 C 
ATOM     12  C   UNL     1      23.986  37.267  21.798  1.00  0.00     0.009 C 
ENDBRANCH   5  11
TORSDOF 3
ENDMDL
MODEL 9
REMARK VINA RESULT:    -3.722      1.887      2.359
REMARK INTER + INTRA:          -4.343
REMARK INTER:                  -4.253
REMARK INTRA:                  -0.090
REMARK UNBOUND:                -0.077
REMARK SMILES C=Cc1ccc(O)c(OC)c1
REMARK SMILES IDX 8 1 6 2 5 3 4 4 3 5 11 6 9 7 10 8 7 9 2 11 1 12
REMARK H PARENT 7 10
REMARK Flexibility Score: inf
ROOT
ATOM      1  C   UNL     1      25.995  37.611  20.983  1.00  0.00     0.161 A 
ATOM      2  C   UNL     1      26.557  37.660  19.700  1.00  0.00     0.157 A 
ATOM      3  C   UNL     1      27.617  36.812  19.365  1.00  0.00     0.051 A 
ATOM      4  C   UNL     1      28.122  35.908  20.301  1.00  0.00     0.012 A 
ATOM      5  C   UNL     1      27.565  35.834  21.592  1.00  0.00    -0.022 A 
ATOM      6  C   UNL     1      26.509  36.697  21.926  1.00  0.00     0.058 A 
ENDROOT
BRANCH   1   7
ATOM      7  O   UNL     1      24.936  38.481  21.283  1.00  0.00    -0.493 OA
ATOM      8  C   UNL     1      23.611  38.061  21.595  1.00  0.00     0.278 C 
ENDBRANCH   1   7
BRANCH   2   9
ATOM      9  O   UNL     1      26.052  38.560  18.763  1.00  0.00    -0.504 OA
ATOM     10  H   UNL     1      26.280  38.483  17.778  1.00  0.00     0.293 HD
ENDBRANCH   2   9
BRANCH   5  11
ATOM     11  C   UNL     1      28.070  34.897  22.628  1.00  0.00     0.000 C 
ATOM     12  C   UNL     1      27.533  34.759  23.840  1.00  0.00     0.009 C 
ENDBRANCH   5  11
TORSDOF 3
ENDMDL
