MODEL 1
REMARK VINA RESULT:    -4.304      0.000      0.000
REMARK INTER + INTRA:          -4.928
REMARK INTER:                  -4.681
REMARK INTRA:                  -0.247
REMARK UNBOUND:                -0.247
REMARK SMILES O=C([O-])c1ccccc1O
REMARK SMILES IDX 4 1 9 2 5 3 8 4 6 5 7 6 2 7 1 8 3 9 10 10
REMARK H PARENT 10 11
REMARK Flexibility Score: inf
ROOT
ATOM      1  C   UNL     1      68.195  51.393  18.780  1.00  0.00     0.039 A 
ATOM      2  C   UNL     1      69.269  51.206  19.683  1.00  0.00     0.124 A 
ATOM      3  C   UNL     1      68.407  52.169  17.623  1.00  0.00     0.014 A 
ATOM      4  C   UNL     1      70.517  51.791  19.415  1.00  0.00     0.047 A 
ATOM      5  C   UNL     1      69.654  52.744  17.370  1.00  0.00     0.001 A 
ATOM      6  C   UNL     1      70.707  52.556  18.264  1.00  0.00     0.004 A 
ENDROOT
BRANCH   1   7
ATOM      7  C   UNL     1      66.856  50.796  19.017  1.00  0.00     0.075 C 
ATOM      8  O   UNL     1      66.736  49.620  19.450  1.00  0.00    -0.545 OA
ATOM      9  O   UNL     1      65.705  51.534  18.763  1.00  0.00    -0.545 OA
ENDBRANCH   1   7
BRANCH   2  10
ATOM     10  O   UNL     1      69.105  50.446  20.840  1.00  0.00    -0.507 OA
ATOM     11  H   UNL     1      68.210  50.375  21.309  1.00  0.00     0.293 HD
ENDBRANCH   2  10
TORSDOF 2
ENDMDL
MODEL 2
REMARK VINA RESULT:    -4.232      2.324      3.595
REMARK INTER + INTRA:          -4.849
REMARK INTER:                  -4.622
REMARK INTRA:                  -0.228
REMARK UNBOUND:                -0.247
REMARK SMILES O=C([O-])c1ccccc1O
REMARK SMILES IDX 4 1 9 2 5 3 8 4 6 5 7 6 2 7 1 8 3 9 10 10
REMARK H PARENT 10 11
REMARK Flexibility Score: inf
ROOT
ATOM      1  C   UNL     1      69.105  50.951  20.169  1.00  0.00     0.039 A 
ATOM      2  C   UNL     1      69.515  51.752  19.077  1.00  0.00     0.124 A 
ATOM      3  C   UNL     1      67.847  50.318  20.112  1.00  0.00     0.014 A 
ATOM      4  C   UNL     1      68.672  51.903  17.964  1.00  0.00     0.047 A 
ATOM      5  C   UNL     1      67.020  50.476  18.998  1.00  0.00     0.001 A 
ATOM      6  C   UNL     1      67.431  51.266  17.927  1.00  0.00     0.004 A 
ENDROOT
BRANCH   1   7
ATOM      7  C   UNL     1      69.959  50.760  21.368  1.00  0.00     0.075 C 
ATOM      8  O   UNL     1      70.747  51.663  21.755  1.00  0.00    -0.545 OA
ATOM      9  O   UNL     1      69.901  49.571  22.088  1.00  0.00    -0.545 OA
ENDBRANCH   1   7
BRANCH   2  10
ATOM     10  O   UNL     1      70.751  52.397  19.089  1.00  0.00    -0.507 OA
ATOM     11  H   UNL     1      70.903  53.248  19.619  1.00  0.00     0.293 HD
ENDBRANCH   2  10
TORSDOF 2
ENDMDL
MODEL 3
REMARK VINA RESULT:    -4.165      2.135      3.581
REMARK INTER + INTRA:          -4.777
REMARK INTER:                  -4.523
REMARK INTRA:                  -0.254
REMARK UNBOUND:                -0.247
REMARK SMILES O=C([O-])c1ccccc1O
REMARK SMILES IDX 4 1 9 2 5 3 8 4 6 5 7 6 2 7 1 8 3 9 10 10
REMARK H PARENT 10 11
REMARK Flexibility Score: inf
ROOT
ATOM      1  C   UNL     1      69.549  51.910  18.805  1.00  0.00     0.039 A 
ATOM      2  C   UNL     1      69.246  50.911  19.760  1.00  0.00     0.124 A 
ATOM      3  C   UNL     1      68.553  52.295  17.885  1.00  0.00     0.014 A 
ATOM      4  C   UNL     1      67.971  50.324  19.778  1.00  0.00     0.047 A 
ATOM      5  C   UNL     1      67.289  51.703  17.915  1.00  0.00     0.001 A 
ATOM      6  C   UNL     1      66.998  50.720  18.859  1.00  0.00     0.004 A 
ENDROOT
BRANCH   1   7
ATOM      7  C   UNL     1      70.882  52.561  18.744  1.00  0.00     0.075 C 
ATOM      8  O   UNL     1      71.508  52.663  17.656  1.00  0.00    -0.545 OA
ATOM      9  O   UNL     1      71.466  53.072  19.899  1.00  0.00    -0.545 OA
ENDBRANCH   1   7
BRANCH   2  10
ATOM     10  O   UNL     1      70.200  50.499  20.690  1.00  0.00    -0.507 OA
ATOM     11  H   UNL     1      70.365  49.518  20.885  1.00  0.00     0.293 HD
ENDBRANCH   2  10
TORSDOF 2
ENDMDL
MODEL 4
REMARK VINA RESULT:    -4.080      1.393      2.120
REMARK INTER + INTRA:          -4.685
REMARK INTER:                  -4.436
REMARK INTRA:                  -0.249
REMARK UNBOUND:                -0.247
REMARK SMILES O=C([O-])c1ccccc1O
REMARK SMILES IDX 4 1 9 2 5 3 8 4 6 5 7 6 2 7 1 8 3 9 10 10
REMARK H PARENT 10 11
REMARK Flexibility Score: inf
ROOT
ATOM      1  C   UNL     1      68.005  51.839  18.922  1.00  0.00     0.039 A 
ATOM      2  C   UNL     1      68.032  53.180  19.374  1.00  0.00     0.124 A 
ATOM      3  C   UNL     1      69.197  51.257  18.448  1.00  0.00     0.014 A 
ATOM      4  C   UNL     1      69.235  53.903  19.344  1.00  0.00     0.047 A 
ATOM      5  C   UNL     1      70.386  51.989  18.425  1.00  0.00     0.001 A 
ATOM      6  C   UNL     1      70.406  53.309  18.872  1.00  0.00     0.004 A 
ENDROOT
BRANCH   1   7
ATOM      7  C   UNL     1      66.758  51.031  18.932  1.00  0.00     0.075 C 
ATOM      8  O   UNL     1      65.666  51.517  18.537  1.00  0.00    -0.545 OA
ATOM      9  O   UNL     1      66.779  49.716  19.384  1.00  0.00    -0.545 OA
ENDBRANCH   1   7
BRANCH   2  10
ATOM     10  O   UNL     1      66.876  53.796  19.852  1.00  0.00    -0.507 OA
ATOM     11  H   UNL     1      66.500  54.632  19.419  1.00  0.00     0.293 HD
ENDBRANCH   2  10
TORSDOF 2
ENDMDL
MODEL 5
REMARK VINA RESULT:    -4.062     13.014     13.804
REMARK INTER + INTRA:          -4.665
REMARK INTER:                  -4.455
REMARK INTRA:                  -0.210
REMARK UNBOUND:                -0.247
REMARK SMILES O=C([O-])c1ccccc1O
REMARK SMILES IDX 4 1 9 2 5 3 8 4 6 5 7 6 2 7 1 8 3 9 10 10
REMARK H PARENT 10 11
REMARK Flexibility Score: inf
ROOT
ATOM      1  C   UNL     1      66.512  40.521  26.698  1.00  0.00     0.039 A 
ATOM      2  C   UNL     1      67.115  40.940  27.909  1.00  0.00     0.124 A 
ATOM      3  C   UNL     1      67.130  39.501  25.949  1.00  0.00     0.014 A 
ATOM      4  C   UNL     1      68.308  40.338  28.341  1.00  0.00     0.047 A 
ATOM      5  C   UNL     1      68.316  38.910  26.392  1.00  0.00     0.001 A 
ATOM      6  C   UNL     1      68.904  39.328  27.585  1.00  0.00     0.004 A 
ENDROOT
BRANCH   1   7
ATOM      7  C   UNL     1      65.252  41.127  26.198  1.00  0.00     0.075 C 
ATOM      8  O   UNL     1      64.503  40.503  25.400  1.00  0.00    -0.545 OA
ATOM      9  O   UNL     1      64.877  42.402  26.606  1.00  0.00    -0.545 OA
ENDBRANCH   1   7
BRANCH   2  10
ATOM     10  O   UNL     1      66.539  41.947  28.683  1.00  0.00    -0.507 OA
ATOM     11  H   UNL     1      67.023  42.353  29.475  1.00  0.00     0.293 HD
ENDBRANCH   2  10
TORSDOF 2
ENDMDL
MODEL 6
REMARK VINA RESULT:    -4.059      2.305      3.419
REMARK INTER + INTRA:          -4.661
REMARK INTER:                  -4.411
REMARK INTRA:                  -0.250
REMARK UNBOUND:                -0.247
REMARK SMILES O=C([O-])c1ccccc1O
REMARK SMILES IDX 4 1 9 2 5 3 8 4 6 5 7 6 2 7 1 8 3 9 10 10
REMARK H PARENT 10 11
REMARK Flexibility Score: inf
ROOT
ATOM      1  C   UNL     1      67.801  52.900  19.497  1.00  0.00     0.039 A 
ATOM      2  C   UNL     1      66.855  51.941  19.064  1.00  0.00     0.124 A 
ATOM      3  C   UNL     1      69.172  52.581  19.431  1.00  0.00     0.014 A 
ATOM      4  C   UNL     1      67.292  50.697  18.580  1.00  0.00     0.047 A 
ATOM      5  C   UNL     1      69.592  51.341  18.946  1.00  0.00     0.001 A 
ATOM      6  C   UNL     1      68.654  50.400  18.521  1.00  0.00     0.004 A 
ENDROOT
BRANCH   1   7
ATOM      7  C   UNL     1      67.390  54.229  20.018  1.00  0.00     0.075 C 
ATOM      8  O   UNL     1      66.456  54.339  20.855  1.00  0.00    -0.545 OA
ATOM      9  O   UNL     1      68.036  55.382  19.584  1.00  0.00    -0.545 OA
ENDBRANCH   1   7
BRANCH   2  10
ATOM     10  O   UNL     1      65.488  52.213  19.112  1.00  0.00    -0.507 OA
ATOM     11  H   UNL     1      64.845  51.622  19.626  1.00  0.00     0.293 HD
ENDBRANCH   2  10
TORSDOF 2
ENDMDL
MODEL 7
REMARK VINA RESULT:    -3.998      2.591      3.981
REMARK INTER + INTRA:          -4.595
REMARK INTER:                  -4.346
REMARK INTRA:                  -0.249
REMARK UNBOUND:                -0.247
REMARK SMILES O=C([O-])c1ccccc1O
REMARK SMILES IDX 4 1 9 2 5 3 8 4 6 5 7 6 2 7 1 8 3 9 10 10
REMARK H PARENT 10 11
REMARK Flexibility Score: inf
ROOT
ATOM      1  C   UNL     1      68.796  52.571  18.457  1.00  0.00     0.039 A 
ATOM      2  C   UNL     1      67.569  52.989  19.025  1.00  0.00     0.124 A 
ATOM      3  C   UNL     1      68.977  51.207  18.159  1.00  0.00     0.014 A 
ATOM      4  C   UNL     1      66.561  52.046  19.282  1.00  0.00     0.047 A 
ATOM      5  C   UNL     1      67.965  50.280  18.418  1.00  0.00     0.001 A 
ATOM      6  C   UNL     1      66.759  50.698  18.979  1.00  0.00     0.004 A 
ENDROOT
BRANCH   1   7
ATOM      7  C   UNL     1      69.894  53.529  18.167  1.00  0.00     0.075 C 
ATOM      8  O   UNL     1      70.319  54.317  19.052  1.00  0.00    -0.545 OA
ATOM      9  O   UNL     1      70.473  53.570  16.903  1.00  0.00    -0.545 OA
ENDBRANCH   1   7
BRANCH   2  10
ATOM     10  O   UNL     1      67.346  54.329  19.337  1.00  0.00    -0.507 OA
ATOM     11  H   UNL     1      67.024  54.617  20.254  1.00  0.00     0.293 HD
ENDBRANCH   2  10
TORSDOF 2
ENDMDL
MODEL 8
REMARK VINA RESULT:    -3.980      2.005      2.823
REMARK INTER + INTRA:          -4.575
REMARK INTER:                  -4.325
REMARK INTRA:                  -0.250
REMARK UNBOUND:                -0.247
REMARK SMILES O=C([O-])c1ccccc1O
REMARK SMILES IDX 4 1 9 2 5 3 8 4 6 5 7 6 2 7 1 8 3 9 10 10
REMARK H PARENT 10 11
REMARK Flexibility Score: inf
ROOT
ATOM      1  C   UNL     1      68.391  51.454  19.865  1.00  0.00     0.039 A 
ATOM      2  C   UNL     1      68.337  52.862  19.993  1.00  0.00     0.124 A 
ATOM      3  C   UNL     1      69.355  50.741  20.605  1.00  0.00     0.014 A 
ATOM      4  C   UNL     1      69.235  53.522  20.848  1.00  0.00     0.047 A 
ATOM      5  C   UNL     1      70.242  51.410  21.452  1.00  0.00     0.001 A 
ATOM      6  C   UNL     1      70.182  52.797  21.573  1.00  0.00     0.004 A 
ENDROOT
BRANCH   1   7
ATOM      7  C   UNL     1      67.464  50.709  18.975  1.00  0.00     0.075 C 
ATOM      8  O   UNL     1      67.301  51.051  17.774  1.00  0.00    -0.545 OA
ATOM      9  O   UNL     1      66.756  49.614  19.459  1.00  0.00    -0.545 OA
ENDBRANCH   1   7
BRANCH   2  10
ATOM     10  O   UNL     1      67.400  53.608  19.280  1.00  0.00    -0.507 OA
ATOM     11  H   UNL     1      66.403  53.495  19.428  1.00  0.00     0.293 HD
ENDBRANCH   2  10
TORSDOF 2
ENDMDL
MODEL 9
REMARK VINA RESULT:    -3.918      2.389      3.767
REMARK INTER + INTRA:          -4.509
REMARK INTER:                  -4.255
REMARK INTRA:                  -0.254
REMARK UNBOUND:                -0.247
REMARK SMILES O=C([O-])c1ccccc1O
REMARK SMILES IDX 4 1 9 2 5 3 8 4 6 5 7 6 2 7 1 8 3 9 10 10
REMARK H PARENT 10 11
REMARK Flexibility Score: inf
ROOT
ATOM      1  C   UNL     1      68.826  52.370  19.643  1.00  0.00     0.039 A 
ATOM      2  C   UNL     1      68.947  51.100  19.031  1.00  0.00     0.124 A 
ATOM      3  C   UNL     1      67.546  52.945  19.769  1.00  0.00     0.014 A 
ATOM      4  C   UNL     1      67.800  50.437  18.564  1.00  0.00     0.047 A 
ATOM      5  C   UNL     1      66.414  52.273  19.301  1.00  0.00     0.001 A 
ATOM      6  C   UNL     1      66.541  51.022  18.699  1.00  0.00     0.004 A 
ENDROOT
BRANCH   1   7
ATOM      7  C   UNL     1      70.008  53.112  20.152  1.00  0.00     0.075 C 
ATOM      8  O   UNL     1      70.141  54.346  19.941  1.00  0.00    -0.545 OA
ATOM      9  O   UNL     1      70.993  52.448  20.876  1.00  0.00    -0.545 OA
ENDBRANCH   1   7
BRANCH   2  10
ATOM     10  O   UNL     1      70.193  50.493  18.884  1.00  0.00    -0.507 OA
ATOM     11  H   UNL     1      70.726  50.168  19.683  1.00  0.00     0.293 HD
ENDBRANCH   2  10
TORSDOF 2
ENDMDL
