MODEL 1
REMARK VINA RESULT:    -5.527      0.000      0.000
REMARK INTER + INTRA:          -7.200
REMARK INTER:                  -6.820
REMARK INTRA:                  -0.380
REMARK UNBOUND:                -0.380
REMARK SMILES COc1cc(-c2oc3cc(O)cc(O)c3c(=O)c2O)ccc1O
REMARK SMILES IDX 6 1 18 2 16 3 17 4 15 5 13 6 12 7 10 8 9 9 8 10 7 11 5 12
REMARK SMILES IDX 3 13 22 14 4 15 21 16 20 17 2 18 1 19 23 20 19 22 14 24
REMARK SMILES IDX 11 26
REMARK H PARENT 23 21 19 23 14 25 11 27
REMARK Flexibility Score: inf
ROOT
ATOM      1  C   UNL     1      -4.610  88.552  -8.752  1.00  0.00     0.180 A 
ATOM      2  C   UNL     1      -3.521  88.372  -7.882  1.00  0.00     0.208 A 
ATOM      3  C   UNL     1      -2.998  87.081  -7.706  1.00  0.00     0.238 A 
ATOM      4  O   UNL     1      -2.059  86.916  -6.885  1.00  0.00    -0.285 OA
ATOM      5  C   UNL     1      -3.560  85.990  -8.413  1.00  0.00     0.111 A 
ATOM      6  C   UNL     1      -3.085  84.646  -8.341  1.00  0.00     0.134 A 
ATOM      7  C   UNL     1      -3.797  83.625  -8.982  1.00  0.00     0.093 A 
ATOM      8  C   UNL     1      -4.933  83.911  -9.745  1.00  0.00     0.123 A 
ATOM      9  C   UNL     1      -5.371  85.226  -9.870  1.00  0.00     0.094 A 
ATOM     10  C   UNL     1      -4.700  86.261  -9.213  1.00  0.00     0.146 A 
ATOM     11  O   UNL     1      -5.158  87.500  -9.350  1.00  0.00    -0.452 OA
ENDROOT
BRANCH   1  12
ATOM     12  C   UNL     1      -5.201  89.886  -9.008  1.00  0.00     0.025 A 
ATOM     13  C   UNL     1      -5.127  92.023 -10.196  1.00  0.00     0.161 A 
ATOM     14  C   UNL     1      -6.253  92.452  -9.480  1.00  0.00     0.157 A 
ATOM     15  C   UNL     1      -4.600  90.739  -9.949  1.00  0.00     0.062 A 
ATOM     16  C   UNL     1      -6.841  91.613  -8.525  1.00  0.00     0.051 A 
ATOM     17  C   UNL     1      -6.316  90.342  -8.286  1.00  0.00     0.016 A 
BRANCH  13  18
ATOM     18  O   UNL     1      -4.561  92.896 -11.139  1.00  0.00    -0.493 OA
ATOM     19  C   UNL     1      -4.155  92.514 -12.449  1.00  0.00     0.278 C 
ENDBRANCH  13  18
BRANCH  14  20
ATOM     20  O   UNL     1      -6.780  93.720  -9.720  1.00  0.00    -0.504 OA
ATOM     21  H   UNL     1      -7.105  94.311  -8.964  1.00  0.00     0.293 HD
ENDBRANCH  14  20
ENDBRANCH   1  12
BRANCH   2  22
ATOM     22  O   UNL     1      -2.995  89.458  -7.178  1.00  0.00    -0.502 OA
ATOM     23  H   UNL     1      -3.136  90.417  -7.473  1.00  0.00     0.293 HD
ENDBRANCH   2  22
BRANCH   6  24
ATOM     24  O   UNL     1      -1.911  84.268  -7.681  1.00  0.00    -0.507 OA
ATOM     25  H   UNL     1      -1.675  84.525  -6.735  1.00  0.00     0.293 HD
ENDBRANCH   6  24
BRANCH   8  26
ATOM     26  O   UNL     1      -5.628  82.891 -10.393  1.00  0.00    -0.508 OA
ATOM     27  H   UNL     1      -6.004  83.014 -11.325  1.00  0.00     0.293 HD
ENDBRANCH   8  26
TORSDOF 6
ENDMDL
MODEL 2
REMARK VINA RESULT:    -5.275      8.398     12.613
REMARK INTER + INTRA:          -6.889
REMARK INTER:                  -6.632
REMARK INTRA:                  -0.257
REMARK UNBOUND:                -0.380
REMARK SMILES COc1cc(-c2oc3cc(O)cc(O)c3c(=O)c2O)ccc1O
REMARK SMILES IDX 6 1 18 2 16 3 17 4 15 5 13 6 12 7 10 8 9 9 8 10 7 11 5 12
REMARK SMILES IDX 3 13 22 14 4 15 21 16 20 17 2 18 1 19 23 20 19 22 14 24
REMARK SMILES IDX 11 26
REMARK H PARENT 23 21 19 23 14 25 11 27
REMARK Flexibility Score: inf
ROOT
ATOM      1  C   UNL     1      -3.273  91.711 -19.285  1.00  0.00     0.180 A 
ATOM      2  C   UNL     1      -2.536  90.850 -20.116  1.00  0.00     0.208 A 
ATOM      3  C   UNL     1      -2.491  91.110 -21.495  1.00  0.00     0.238 A 
ATOM      4  O   UNL     1      -1.875  90.306 -22.243  1.00  0.00    -0.285 OA
ATOM      5  C   UNL     1      -3.170  92.235 -22.023  1.00  0.00     0.111 A 
ATOM      6  C   UNL     1      -3.159  92.616 -23.398  1.00  0.00     0.134 A 
ATOM      7  C   UNL     1      -3.971  93.673 -23.829  1.00  0.00     0.093 A 
ATOM      8  C   UNL     1      -4.744  94.402 -22.921  1.00  0.00     0.123 A 
ATOM      9  C   UNL     1      -4.716  94.075 -21.569  1.00  0.00     0.094 A 
ATOM     10  C   UNL     1      -3.942  93.004 -21.114  1.00  0.00     0.146 A 
ATOM     11  O   UNL     1      -3.953  92.720 -19.817  1.00  0.00    -0.452 OA
ENDROOT
BRANCH   1  12
ATOM     12  C   UNL     1      -3.347  91.516 -17.818  1.00  0.00     0.025 A 
ATOM     13  C   UNL     1      -4.698  91.133 -15.816  1.00  0.00     0.161 A 
ATOM     14  C   UNL     1      -3.541  91.203 -15.029  1.00  0.00     0.157 A 
ATOM     15  C   UNL     1      -4.596  91.298 -17.212  1.00  0.00     0.062 A 
ATOM     16  C   UNL     1      -2.297  91.442 -15.628  1.00  0.00     0.051 A 
ATOM     17  C   UNL     1      -2.201  91.604 -17.011  1.00  0.00     0.016 A 
BRANCH  13  18
ATOM     18  O   UNL     1      -5.928  90.900 -15.178  1.00  0.00    -0.493 OA
ATOM     19  C   UNL     1      -6.961  91.870 -15.040  1.00  0.00     0.278 C 
ENDBRANCH  13  18
BRANCH  14  20
ATOM     20  O   UNL     1      -3.636  91.039 -13.649  1.00  0.00    -0.504 OA
ATOM     21  H   UNL     1      -3.282  90.209 -13.187  1.00  0.00     0.293 HD
ENDBRANCH  14  20
ENDBRANCH   1  12
BRANCH   2  22
ATOM     22  O   UNL     1      -1.891  89.733 -19.578  1.00  0.00    -0.502 OA
ATOM     23  H   UNL     1      -2.198  89.288 -18.722  1.00  0.00     0.293 HD
ENDBRANCH   2  22
BRANCH   6  24
ATOM     24  O   UNL     1      -2.354  92.013 -24.370  1.00  0.00    -0.507 OA
ATOM     25  H   UNL     1      -2.081  91.042 -24.367  1.00  0.00     0.293 HD
ENDBRANCH   6  24
BRANCH   8  26
ATOM     26  O   UNL     1      -5.538  95.462 -23.356  1.00  0.00    -0.508 OA
ATOM     27  H   UNL     1      -6.540  95.471 -23.204  1.00  0.00     0.293 HD
ENDBRANCH   8  26
TORSDOF 6
ENDMDL
MODEL 3
REMARK VINA RESULT:    -5.248      5.316      9.571
REMARK INTER + INTRA:          -6.856
REMARK INTER:                  -6.495
REMARK INTRA:                  -0.361
REMARK UNBOUND:                -0.380
REMARK SMILES COc1cc(-c2oc3cc(O)cc(O)c3c(=O)c2O)ccc1O
REMARK SMILES IDX 6 1 18 2 16 3 17 4 15 5 13 6 12 7 10 8 9 9 8 10 7 11 5 12
REMARK SMILES IDX 3 13 22 14 4 15 21 16 20 17 2 18 1 19 23 20 19 22 14 24
REMARK SMILES IDX 11 26
REMARK H PARENT 23 21 19 23 14 25 11 27
REMARK Flexibility Score: inf
ROOT
ATOM      1  C   UNL     1      -4.175  92.121 -15.476  1.00  0.00     0.180 A 
ATOM      2  C   UNL     1      -3.048  91.522 -16.063  1.00  0.00     0.208 A 
ATOM      3  C   UNL     1      -2.858  91.641 -17.449  1.00  0.00     0.238 A 
ATOM      4  O   UNL     1      -1.877  91.056 -17.978  1.00  0.00    -0.285 OA
ATOM      5  C   UNL     1      -3.790  92.370 -18.228  1.00  0.00     0.111 A 
ATOM      6  C   UNL     1      -3.676  92.587 -19.634  1.00  0.00     0.134 A 
ATOM      7  C   UNL     1      -4.722  93.212 -20.324  1.00  0.00     0.093 A 
ATOM      8  C   UNL     1      -5.850  93.684 -19.646  1.00  0.00     0.123 A 
ATOM      9  C   UNL     1      -5.943  93.529 -18.266  1.00  0.00     0.094 A 
ATOM     10  C   UNL     1      -4.931  92.878 -17.556  1.00  0.00     0.146 A 
ATOM     11  O   UNL     1      -5.065  92.742 -16.242  1.00  0.00    -0.452 OA
ENDROOT
BRANCH   1  12
ATOM     12  C   UNL     1      -4.430  92.060 -14.018  1.00  0.00     0.025 A 
ATOM     13  C   UNL     1      -4.246  93.093 -11.809  1.00  0.00     0.161 A 
ATOM     14  C   UNL     1      -4.839  91.959 -11.237  1.00  0.00     0.157 A 
ATOM     15  C   UNL     1      -4.037  93.134 -13.202  1.00  0.00     0.062 A 
ATOM     16  C   UNL     1      -5.212  90.877 -12.045  1.00  0.00     0.051 A 
ATOM     17  C   UNL     1      -5.004  90.925 -13.425  1.00  0.00     0.016 A 
BRANCH  13  18
ATOM     18  O   UNL     1      -3.879  94.153 -10.965  1.00  0.00    -0.493 OA
ATOM     19  C   UNL     1      -3.045  95.240 -11.353  1.00  0.00     0.278 C 
ENDBRANCH  13  18
BRANCH  14  20
ATOM     20  O   UNL     1      -5.049  91.912  -9.860  1.00  0.00    -0.504 OA
ATOM     21  H   UNL     1      -5.701  91.256  -9.445  1.00  0.00     0.293 HD
ENDBRANCH  14  20
ENDBRANCH   1  12
BRANCH   2  22
ATOM     22  O   UNL     1      -2.153  90.789 -15.280  1.00  0.00    -0.502 OA
ATOM     23  H   UNL     1      -2.394  89.895 -14.869  1.00  0.00     0.293 HD
ENDBRANCH   2  22
BRANCH   6  24
ATOM     24  O   UNL     1      -2.552  92.237 -20.390  1.00  0.00    -0.507 OA
ATOM     25  H   UNL     1      -2.574  91.975 -21.364  1.00  0.00     0.293 HD
ENDBRANCH   6  24
BRANCH   8  26
ATOM     26  O   UNL     1      -6.880  94.319 -20.338  1.00  0.00    -0.508 OA
ATOM     27  H   UNL     1      -7.287  95.185 -20.005  1.00  0.00     0.293 HD
ENDBRANCH   8  26
TORSDOF 6
ENDMDL
MODEL 4
REMARK VINA RESULT:    -5.229      1.575      2.945
REMARK INTER + INTRA:          -6.832
REMARK INTER:                  -6.625
REMARK INTRA:                  -0.207
REMARK UNBOUND:                -0.380
REMARK SMILES COc1cc(-c2oc3cc(O)cc(O)c3c(=O)c2O)ccc1O
REMARK SMILES IDX 6 1 18 2 16 3 17 4 15 5 13 6 12 7 10 8 9 9 8 10 7 11 5 12
REMARK SMILES IDX 3 13 22 14 4 15 21 16 20 17 2 18 1 19 23 20 19 22 14 24
REMARK SMILES IDX 11 26
REMARK H PARENT 23 21 19 23 14 25 11 27
REMARK Flexibility Score: inf
ROOT
ATOM      1  C   UNL     1      -5.212  88.083  -9.164  1.00  0.00     0.180 A 
ATOM      2  C   UNL     1      -6.431  87.608  -9.677  1.00  0.00     0.208 A 
ATOM      3  C   UNL     1      -6.606  86.225  -9.844  1.00  0.00     0.238 A 
ATOM      4  O   UNL     1      -7.679  85.808 -10.355  1.00  0.00    -0.285 OA
ATOM      5  C   UNL     1      -5.566  85.334  -9.483  1.00  0.00     0.111 A 
ATOM      6  C   UNL     1      -5.649  83.912  -9.574  1.00  0.00     0.134 A 
ATOM      7  C   UNL     1      -4.514  83.135  -9.312  1.00  0.00     0.093 A 
ATOM      8  C   UNL     1      -3.316  83.727  -8.900  1.00  0.00     0.123 A 
ATOM      9  C   UNL     1      -3.242  85.109  -8.752  1.00  0.00     0.094 A 
ATOM     10  C   UNL     1      -4.349  85.913  -9.040  1.00  0.00     0.146 A 
ATOM     11  O   UNL     1      -4.232  87.228  -8.896  1.00  0.00    -0.452 OA
ENDROOT
BRANCH   1  12
ATOM     12  C   UNL     1      -4.962  89.525  -8.936  1.00  0.00     0.025 A 
ATOM     13  C   UNL     1      -4.658  91.774  -9.847  1.00  0.00     0.161 A 
ATOM     14  C   UNL     1      -4.429  92.260  -8.553  1.00  0.00     0.157 A 
ATOM     15  C   UNL     1      -4.916  90.401 -10.034  1.00  0.00     0.062 A 
ATOM     16  C   UNL     1      -4.453  91.386  -7.459  1.00  0.00     0.051 A 
ATOM     17  C   UNL     1      -4.711  90.028  -7.649  1.00  0.00     0.016 A 
BRANCH  13  18
ATOM     18  O   UNL     1      -4.618  92.680 -10.919  1.00  0.00    -0.493 OA
ATOM     19  C   UNL     1      -4.297  92.328 -12.261  1.00  0.00     0.278 C 
ENDBRANCH  13  18
BRANCH  14  20
ATOM     20  O   UNL     1      -4.174  93.617  -8.362  1.00  0.00    -0.504 OA
ATOM     21  H   UNL     1      -4.725  94.331  -8.825  1.00  0.00     0.293 HD
ENDBRANCH  14  20
ENDBRANCH   1  12
BRANCH   2  22
ATOM     22  O   UNL     1      -7.436  88.505 -10.047  1.00  0.00    -0.502 OA
ATOM     23  H   UNL     1      -7.448  88.968 -10.948  1.00  0.00     0.293 HD
ENDBRANCH   2  22
BRANCH   6  24
ATOM     24  O   UNL     1      -6.822  83.217  -9.887  1.00  0.00    -0.507 OA
ATOM     25  H   UNL     1      -7.720  83.647 -10.042  1.00  0.00     0.293 HD
ENDBRANCH   6  24
BRANCH   8  26
ATOM     26  O   UNL     1      -2.195  82.946  -8.627  1.00  0.00    -0.508 OA
ATOM     27  H   UNL     1      -2.165  81.961  -8.864  1.00  0.00     0.293 HD
ENDBRANCH   8  26
TORSDOF 6
ENDMDL
MODEL 5
REMARK VINA RESULT:    -5.176      2.177      2.655
REMARK INTER + INTRA:          -6.767
REMARK INTER:                  -6.392
REMARK INTRA:                  -0.375
REMARK UNBOUND:                -0.380
REMARK SMILES COc1cc(-c2oc3cc(O)cc(O)c3c(=O)c2O)ccc1O
REMARK SMILES IDX 6 1 18 2 16 3 17 4 15 5 13 6 12 7 10 8 9 9 8 10 7 11 5 12
REMARK SMILES IDX 3 13 22 14 4 15 21 16 20 17 2 18 1 19 23 20 19 22 14 24
REMARK SMILES IDX 11 26
REMARK H PARENT 23 21 19 23 14 25 11 27
REMARK Flexibility Score: inf
ROOT
ATOM      1  C   UNL     1      -4.965  90.575  -8.295  1.00  0.00     0.180 A 
ATOM      2  C   UNL     1      -3.882  89.879  -7.731  1.00  0.00     0.208 A 
ATOM      3  C   UNL     1      -3.762  88.501  -7.968  1.00  0.00     0.238 A 
ATOM      4  O   UNL     1      -2.821  87.872  -7.417  1.00  0.00    -0.285 OA
ATOM      5  C   UNL     1      -4.717  87.838  -8.778  1.00  0.00     0.111 A 
ATOM      6  C   UNL     1      -4.671  86.452  -9.116  1.00  0.00     0.134 A 
ATOM      7  C   UNL     1      -5.739  85.876  -9.815  1.00  0.00     0.093 A 
ATOM      8  C   UNL     1      -6.820  86.651 -10.245  1.00  0.00     0.123 A 
ATOM      9  C   UNL     1      -6.845  88.016  -9.970  1.00  0.00     0.094 A 
ATOM     10  C   UNL     1      -5.811  88.612  -9.244  1.00  0.00     0.146 A 
ATOM     11  O   UNL     1      -5.881  89.915  -8.995  1.00  0.00    -0.452 OA
ENDROOT
BRANCH   1  12
ATOM     12  C   UNL     1      -5.146  92.034  -8.111  1.00  0.00     0.025 A 
ATOM     13  C   UNL     1      -4.561  94.320  -8.751  1.00  0.00     0.161 A 
ATOM     14  C   UNL     1      -5.412  94.811  -7.752  1.00  0.00     0.157 A 
ATOM     15  C   UNL     1      -4.425  92.927  -8.921  1.00  0.00     0.062 A 
ATOM     16  C   UNL     1      -6.115  93.922  -6.928  1.00  0.00     0.051 A 
ATOM     17  C   UNL     1      -5.978  92.544  -7.102  1.00  0.00     0.016 A 
BRANCH  13  18
ATOM     18  O   UNL     1      -3.867  95.242  -9.551  1.00  0.00    -0.493 OA
ATOM     19  C   UNL     1      -3.395  94.973 -10.867  1.00  0.00     0.278 C 
ENDBRANCH  13  18
BRANCH  14  20
ATOM     20  O   UNL     1      -5.551  96.187  -7.580  1.00  0.00    -0.504 OA
ATOM     21  H   UNL     1      -6.442  96.651  -7.715  1.00  0.00     0.293 HD
ENDBRANCH  14  20
ENDBRANCH   1  12
BRANCH   2  22
ATOM     22  O   UNL     1      -2.963  90.547  -6.918  1.00  0.00    -0.502 OA
ATOM     23  H   UNL     1      -1.970  90.347  -6.941  1.00  0.00     0.293 HD
ENDBRANCH   2  22
BRANCH   6  24
ATOM     24  O   UNL     1      -3.596  85.611  -8.815  1.00  0.00    -0.507 OA
ATOM     25  H   UNL     1      -3.388  84.749  -9.297  1.00  0.00     0.293 HD
ENDBRANCH   6  24
BRANCH   8  26
ATOM     26  O   UNL     1      -7.871  86.073 -10.954  1.00  0.00    -0.508 OA
ATOM     27  H   UNL     1      -7.957  86.182 -11.957  1.00  0.00     0.293 HD
ENDBRANCH   8  26
TORSDOF 6
ENDMDL
MODEL 6
REMARK VINA RESULT:    -5.133      5.434      9.732
REMARK INTER + INTRA:          -6.713
REMARK INTER:                  -6.319
REMARK INTRA:                  -0.394
REMARK UNBOUND:                -0.380
REMARK SMILES COc1cc(-c2oc3cc(O)cc(O)c3c(=O)c2O)ccc1O
REMARK SMILES IDX 6 1 18 2 16 3 17 4 15 5 13 6 12 7 10 8 9 9 8 10 7 11 5 12
REMARK SMILES IDX 3 13 22 14 4 15 21 16 20 17 2 18 1 19 23 20 19 22 14 24
REMARK SMILES IDX 11 26
REMARK H PARENT 23 21 19 23 14 25 11 27
REMARK Flexibility Score: inf
ROOT
ATOM      1  C   UNL     1      -4.127  92.104 -15.605  1.00  0.00     0.180 A 
ATOM      2  C   UNL     1      -3.010  91.513 -16.219  1.00  0.00     0.208 A 
ATOM      3  C   UNL     1      -2.847  91.644 -17.607  1.00  0.00     0.238 A 
ATOM      4  O   UNL     1      -1.875  91.067 -18.160  1.00  0.00    -0.285 OA
ATOM      5  C   UNL     1      -3.795  92.378 -18.362  1.00  0.00     0.111 A 
ATOM      6  C   UNL     1      -3.709  92.608 -19.767  1.00  0.00     0.134 A 
ATOM      7  C   UNL     1      -4.769  93.237 -20.431  1.00  0.00     0.093 A 
ATOM      8  C   UNL     1      -5.885  93.701 -19.728  1.00  0.00     0.123 A 
ATOM      9  C   UNL     1      -5.952  93.533 -18.348  1.00  0.00     0.094 A 
ATOM     10  C   UNL     1      -4.925  92.878 -17.663  1.00  0.00     0.146 A 
ATOM     11  O   UNL     1      -5.033  92.730 -16.348  1.00  0.00    -0.452 OA
ENDROOT
BRANCH   1  12
ATOM     12  C   UNL     1      -4.354  92.030 -14.143  1.00  0.00     0.025 A 
ATOM     13  C   UNL     1      -5.315  90.858 -12.224  1.00  0.00     0.161 A 
ATOM     14  C   UNL     1      -4.861  91.880 -11.380  1.00  0.00     0.157 A 
ATOM     15  C   UNL     1      -5.065  90.942 -13.608  1.00  0.00     0.062 A 
ATOM     16  C   UNL     1      -4.170  92.977 -11.913  1.00  0.00     0.051 A 
ATOM     17  C   UNL     1      -3.924  93.054 -13.285  1.00  0.00     0.016 A 
BRANCH  13  18
ATOM     18  O   UNL     1      -6.010  89.780 -11.653  1.00  0.00    -0.493 OA
ATOM     19  C   UNL     1      -7.245  89.266 -12.143  1.00  0.00     0.278 C 
ENDBRANCH  13  18
BRANCH  14  20
ATOM     20  O   UNL     1      -5.104  91.802 -10.010  1.00  0.00    -0.504 OA
ATOM     21  H   UNL     1      -4.445  91.361  -9.379  1.00  0.00     0.293 HD
ENDBRANCH  14  20
ENDBRANCH   1  12
BRANCH   2  22
ATOM     22  O   UNL     1      -2.098  90.775 -15.459  1.00  0.00    -0.502 OA
ATOM     23  H   UNL     1      -2.206  90.639 -14.462  1.00  0.00     0.293 HD
ENDBRANCH   2  22
BRANCH   6  24
ATOM     24  O   UNL     1      -2.599  92.268 -20.548  1.00  0.00    -0.507 OA
ATOM     25  H   UNL     1      -1.896  91.595 -20.283  1.00  0.00     0.293 HD
ENDBRANCH   6  24
BRANCH   8  26
ATOM     26  O   UNL     1      -6.929  94.339 -20.394  1.00  0.00    -0.508 OA
ATOM     27  H   UNL     1      -6.791  95.217 -20.879  1.00  0.00     0.293 HD
ENDBRANCH   8  26
TORSDOF 6
ENDMDL
MODEL 7
REMARK VINA RESULT:    -5.090      0.831      2.117
REMARK INTER + INTRA:          -6.660
REMARK INTER:                  -6.262
REMARK INTRA:                  -0.398
REMARK UNBOUND:                -0.380
REMARK SMILES COc1cc(-c2oc3cc(O)cc(O)c3c(=O)c2O)ccc1O
REMARK SMILES IDX 6 1 18 2 16 3 17 4 15 5 13 6 12 7 10 8 9 9 8 10 7 11 5 12
REMARK SMILES IDX 3 13 22 14 4 15 21 16 20 17 2 18 1 19 23 20 19 22 14 24
REMARK SMILES IDX 11 26
REMARK H PARENT 23 21 19 23 14 25 11 27
REMARK Flexibility Score: inf
ROOT
ATOM      1  C   UNL     1      -4.681  88.583  -8.812  1.00  0.00     0.180 A 
ATOM      2  C   UNL     1      -3.585  88.433  -7.945  1.00  0.00     0.208 A 
ATOM      3  C   UNL     1      -3.037  87.155  -7.756  1.00  0.00     0.238 A 
ATOM      4  O   UNL     1      -2.092  87.017  -6.936  1.00  0.00    -0.285 OA
ATOM      5  C   UNL     1      -3.582  86.045  -8.447  1.00  0.00     0.111 A 
ATOM      6  C   UNL     1      -3.081  84.711  -8.361  1.00  0.00     0.134 A 
ATOM      7  C   UNL     1      -3.777  83.670  -8.987  1.00  0.00     0.093 A 
ATOM      8  C   UNL     1      -4.920  83.925  -9.749  1.00  0.00     0.123 A 
ATOM      9  C   UNL     1      -5.383  85.230  -9.887  1.00  0.00     0.094 A 
ATOM     10  C   UNL     1      -4.730  86.285  -9.246  1.00  0.00     0.146 A 
ATOM     11  O   UNL     1      -5.211  87.514  -9.395  1.00  0.00    -0.452 OA
ENDROOT
BRANCH   1  12
ATOM     12  C   UNL     1      -5.297  89.903  -9.082  1.00  0.00     0.025 A 
ATOM     13  C   UNL     1      -7.052  91.538  -8.606  1.00  0.00     0.161 A 
ATOM     14  C   UNL     1      -6.536  92.374  -9.604  1.00  0.00     0.157 A 
ATOM     15  C   UNL     1      -6.432  90.297  -8.354  1.00  0.00     0.062 A 
ATOM     16  C   UNL     1      -5.417  91.974 -10.347  1.00  0.00     0.051 A 
ATOM     17  C   UNL     1      -4.806  90.745 -10.092  1.00  0.00     0.016 A 
BRANCH  13  18
ATOM     18  O   UNL     1      -8.180  91.970  -7.888  1.00  0.00    -0.493 OA
ATOM     19  C   UNL     1      -8.894  91.171  -6.952  1.00  0.00     0.278 C 
ENDBRANCH  13  18
BRANCH  14  20
ATOM     20  O   UNL     1      -7.144  93.602  -9.858  1.00  0.00    -0.504 OA
ATOM     21  H   UNL     1      -7.935  93.924  -9.313  1.00  0.00     0.293 HD
ENDBRANCH  14  20
ENDBRANCH   1  12
BRANCH   2  22
ATOM     22  O   UNL     1      -3.077  89.538  -7.256  1.00  0.00    -0.502 OA
ATOM     23  H   UNL     1      -2.412  90.179  -7.671  1.00  0.00     0.293 HD
ENDBRANCH   2  22
BRANCH   6  24
ATOM     24  O   UNL     1      -1.897  84.363  -7.702  1.00  0.00    -0.507 OA
ATOM     25  H   UNL     1      -1.178  85.015  -7.430  1.00  0.00     0.293 HD
ENDBRANCH   6  24
BRANCH   8  26
ATOM     26  O   UNL     1      -5.599  82.884 -10.381  1.00  0.00    -0.508 OA
ATOM     27  H   UNL     1      -6.261  83.059 -11.127  1.00  0.00     0.293 HD
ENDBRANCH   8  26
TORSDOF 6
ENDMDL
MODEL 8
REMARK VINA RESULT:    -5.037      4.723      7.638
REMARK INTER + INTRA:          -6.595
REMARK INTER:                  -6.230
REMARK INTRA:                  -0.365
REMARK UNBOUND:                -0.380
REMARK SMILES COc1cc(-c2oc3cc(O)cc(O)c3c(=O)c2O)ccc1O
REMARK SMILES IDX 6 1 18 2 16 3 17 4 15 5 13 6 12 7 10 8 9 9 8 10 7 11 5 12
REMARK SMILES IDX 3 13 22 14 4 15 21 16 20 17 2 18 1 19 23 20 19 22 14 24
REMARK SMILES IDX 11 26
REMARK H PARENT 23 21 19 23 14 25 11 27
REMARK Flexibility Score: inf
ROOT
ATOM      1  C   UNL     1      -5.665  91.857 -14.913  1.00  0.00     0.180 A 
ATOM      2  C   UNL     1      -4.866  92.594 -14.023  1.00  0.00     0.208 A 
ATOM      3  C   UNL     1      -4.777  92.178 -12.685  1.00  0.00     0.238 A 
ATOM      4  O   UNL     1      -4.104  92.873 -11.879  1.00  0.00    -0.285 OA
ATOM      5  C   UNL     1      -5.475  91.022 -12.258  1.00  0.00     0.111 A 
ATOM      6  C   UNL     1      -5.424  90.487 -10.936  1.00  0.00     0.134 A 
ATOM      7  C   UNL     1      -6.257  89.415 -10.592  1.00  0.00     0.093 A 
ATOM      8  C   UNL     1      -7.090  88.818 -11.542  1.00  0.00     0.123 A 
ATOM      9  C   UNL     1      -7.103  89.295 -12.849  1.00  0.00     0.094 A 
ATOM     10  C   UNL     1      -6.309  90.386 -13.213  1.00  0.00     0.146 A 
ATOM     11  O   UNL     1      -6.359  90.816 -14.469  1.00  0.00    -0.452 OA
ENDROOT
BRANCH   1  12
ATOM     12  C   UNL     1      -5.789  92.219 -16.344  1.00  0.00     0.025 A 
ATOM     13  C   UNL     1      -4.844  92.224 -18.600  1.00  0.00     0.161 A 
ATOM     14  C   UNL     1      -5.956  92.942 -19.058  1.00  0.00     0.157 A 
ATOM     15  C   UNL     1      -4.762  91.872 -17.237  1.00  0.00     0.062 A 
ATOM     16  C   UNL     1      -6.973  93.309 -18.165  1.00  0.00     0.051 A 
ATOM     17  C   UNL     1      -6.887  92.956 -16.818  1.00  0.00     0.016 A 
BRANCH  13  18
ATOM     18  O   UNL     1      -3.843  91.882 -19.523  1.00  0.00    -0.493 OA
ATOM     19  C   UNL     1      -2.462  92.189 -19.365  1.00  0.00     0.278 C 
ENDBRANCH  13  18
BRANCH  14  20
ATOM     20  O   UNL     1      -6.044  93.293 -20.403  1.00  0.00    -0.504 OA
ATOM     21  H   UNL     1      -6.045  92.592 -21.135  1.00  0.00     0.293 HD
ENDBRANCH  14  20
ENDBRANCH   1  12
BRANCH   2  22
ATOM     22  O   UNL     1      -4.203  93.745 -14.459  1.00  0.00    -0.502 OA
ATOM     23  H   UNL     1      -4.016  94.530 -13.848  1.00  0.00     0.293 HD
ENDBRANCH   2  22
BRANCH   6  24
ATOM     24  O   UNL     1      -4.561  90.951  -9.938  1.00  0.00    -0.507 OA
ATOM     25  H   UNL     1      -4.453  90.528  -9.029  1.00  0.00     0.293 HD
ENDBRANCH   6  24
BRANCH   8  26
ATOM     26  O   UNL     1      -7.904  87.741 -11.195  1.00  0.00    -0.508 OA
ATOM     27  H   UNL     1      -7.580  86.784 -11.274  1.00  0.00     0.293 HD
ENDBRANCH   8  26
TORSDOF 6
ENDMDL
MODEL 9
REMARK VINA RESULT:    -3.609      6.682     11.130
REMARK INTER + INTRA:          -4.833
REMARK INTER:                  -4.444
REMARK INTRA:                  -0.390
REMARK UNBOUND:                -0.380
REMARK SMILES COc1cc(-c2oc3cc(O)cc(O)c3c(=O)c2O)ccc1O
REMARK SMILES IDX 6 1 18 2 16 3 17 4 15 5 13 6 12 7 10 8 9 9 8 10 7 11 5 12
REMARK SMILES IDX 3 13 22 14 4 15 21 16 20 17 2 18 1 19 23 20 19 22 14 24
REMARK SMILES IDX 11 26
REMARK H PARENT 23 21 19 23 14 25 11 27
REMARK Flexibility Score: inf
ROOT
ATOM      1  C   UNL     1      -4.324  92.016 -17.406  1.00  0.00     0.180 A 
ATOM      2  C   UNL     1      -3.146  91.619 -18.062  1.00  0.00     0.208 A 
ATOM      3  C   UNL     1      -2.904  92.083 -19.364  1.00  0.00     0.238 A 
ATOM      4  O   UNL     1      -1.875  91.682 -19.968  1.00  0.00    -0.285 OA
ATOM      5  C   UNL     1      -3.835  92.949 -19.989  1.00  0.00     0.111 A 
ATOM      6  C   UNL     1      -3.672  93.511 -21.291  1.00  0.00     0.134 A 
ATOM      7  C   UNL     1      -4.716  94.250 -21.860  1.00  0.00     0.093 A 
ATOM      8  C   UNL     1      -5.892  94.501 -21.147  1.00  0.00     0.123 A 
ATOM      9  C   UNL     1      -6.037  94.006 -19.854  1.00  0.00     0.094 A 
ATOM     10  C   UNL     1      -5.026  93.236 -19.273  1.00  0.00     0.146 A 
ATOM     11  O   UNL     1      -5.209  92.775 -18.041  1.00  0.00    -0.452 OA
ENDROOT
BRANCH   1  12
ATOM     12  C   UNL     1      -4.637  91.588 -16.023  1.00  0.00     0.025 A 
ATOM     13  C   UNL     1      -4.334  91.881 -13.614  1.00  0.00     0.161 A 
ATOM     14  C   UNL     1      -5.156  90.770 -13.381  1.00  0.00     0.157 A 
ATOM     15  C   UNL     1      -4.071  92.281 -14.940  1.00  0.00     0.062 A 
ATOM     16  C   UNL     1      -5.705  90.064 -14.460  1.00  0.00     0.051 A 
ATOM     17  C   UNL     1      -5.442  90.465 -15.770  1.00  0.00     0.016 A 
BRANCH  13  18
ATOM     18  O   UNL     1      -3.796  92.558 -12.507  1.00  0.00    -0.493 OA
ATOM     19  C   UNL     1      -4.140  93.888 -12.132  1.00  0.00     0.278 C 
ENDBRANCH  13  18
BRANCH  14  20
ATOM     20  O   UNL     1      -5.420  90.370 -12.073  1.00  0.00    -0.504 OA
ATOM     21  H   UNL     1      -6.073  89.622 -11.868  1.00  0.00     0.293 HD
ENDBRANCH  14  20
ENDBRANCH   1  12
BRANCH   2  22
ATOM     22  O   UNL     1      -2.252  90.747 -17.436  1.00  0.00    -0.502 OA
ATOM     23  H   UNL     1      -1.435  90.375 -17.906  1.00  0.00     0.293 HD
ENDBRANCH   2  22
BRANCH   6  24
ATOM     24  O   UNL     1      -2.502  93.397 -22.049  1.00  0.00    -0.507 OA
ATOM     25  H   UNL     1      -2.218  94.046 -22.767  1.00  0.00     0.293 HD
ENDBRANCH   6  24
BRANCH   8  26
ATOM     26  O   UNL     1      -6.920  95.250 -21.716  1.00  0.00    -0.508 OA
ATOM     27  H   UNL     1      -7.562  94.846 -22.388  1.00  0.00     0.293 HD
ENDBRANCH   8  26
TORSDOF 6
ENDMDL
