MODEL 1
REMARK VINA RESULT:    -3.475      0.000      0.000
REMARK INTER + INTRA:          -3.836
REMARK INTER:                  -3.678
REMARK INTRA:                  -0.158
REMARK UNBOUND:                -0.158
REMARK SMILES CC(C)[C@H]1CC[C@@H](C)CC1=O
REMARK SMILES IDX 8 1 7 2 6 3 5 4 4 5 10 6 11 7 9 8 2 9 1 10 3 11
REMARK H PARENT
REMARK Flexibility Score: inf
ROOT
ATOM      1  C   UNL     1     168.738 167.795 170.743  1.00  0.00     0.008 C 
ATOM      2  C   UNL     1     169.852 167.060 169.982  1.00  0.00    -0.007 C 
ATOM      3  C   UNL     1     171.173 167.014 170.784  1.00  0.00     0.004 C 
ATOM      4  C   UNL     1     171.843 168.395 170.891  1.00  0.00     0.012 C 
ATOM      5  C   UNL     1     172.107 169.010 169.498  1.00  0.00     0.058 C 
ATOM      6  C   UNL     1     170.833 168.967 168.670  1.00  0.00     0.136 C 
ATOM      7  O   UNL     1     170.461 169.922 168.007  1.00  0.00    -0.299 OA
ATOM      8  C   UNL     1     170.076 167.669 168.585  1.00  0.00     0.079 C 
ENDROOT
BRANCH   5   9
ATOM      9  C   UNL     1     172.807 170.404 169.608  1.00  0.00    -0.007 C 
ATOM     10  C   UNL     1     173.266 170.705 171.044  1.00  0.00     0.008 C 
ATOM     11  C   UNL     1     173.964 170.614 168.614  1.00  0.00     0.008 C 
ENDBRANCH   5   9
TORSDOF 1
ENDMDL
MODEL 2
REMARK VINA RESULT:    -3.451     10.958     13.804
REMARK INTER + INTRA:          -3.810
REMARK INTER:                  -3.651
REMARK INTRA:                  -0.159
REMARK UNBOUND:                -0.158
REMARK SMILES CC(C)[C@H]1CC[C@@H](C)CC1=O
REMARK SMILES IDX 8 1 7 2 6 3 5 4 4 5 10 6 11 7 9 8 2 9 1 10 3 11
REMARK H PARENT
REMARK Flexibility Score: inf
ROOT
ATOM      1  C   UNL     1     162.564 163.293 170.824  1.00  0.00     0.008 C 
ATOM      2  C   UNL     1     161.478 164.090 170.085  1.00  0.00    -0.007 C 
ATOM      3  C   UNL     1     160.159 164.160 170.888  1.00  0.00     0.004 C 
ATOM      4  C   UNL     1     159.440 162.802 170.954  1.00  0.00     0.012 C 
ATOM      5  C   UNL     1     159.154 162.238 169.544  1.00  0.00     0.058 C 
ATOM      6  C   UNL     1     160.430 162.261 168.717  1.00  0.00     0.136 C 
ATOM      7  O   UNL     1     160.767 161.312 168.025  1.00  0.00    -0.299 OA
ATOM      8  C   UNL     1     161.234 163.531 168.670  1.00  0.00     0.079 C 
ENDROOT
BRANCH   5   9
ATOM      9  C   UNL     1     158.404 160.869 169.611  1.00  0.00    -0.007 C 
ATOM     10  C   UNL     1     157.969 160.522 171.045  1.00  0.00     0.008 C 
ATOM     11  C   UNL     1     157.216 160.745 168.640  1.00  0.00     0.008 C 
ENDBRANCH   5   9
TORSDOF 1
ENDMDL
MODEL 3
REMARK VINA RESULT:    -3.421      2.835      4.730
REMARK INTER + INTRA:          -3.779
REMARK INTER:                  -3.625
REMARK INTRA:                  -0.155
REMARK UNBOUND:                -0.158
REMARK SMILES CC(C)[C@H]1CC[C@@H](C)CC1=O
REMARK SMILES IDX 8 1 7 2 6 3 5 4 4 5 10 6 11 7 9 8 2 9 1 10 3 11
REMARK H PARENT
REMARK Flexibility Score: inf
ROOT
ATOM      1  C   UNL     1     167.014 163.757 171.038  1.00  0.00     0.008 C 
ATOM      2  C   UNL     1     166.522 165.213 171.047  1.00  0.00    -0.007 C 
ATOM      3  C   UNL     1     166.309 165.764 169.619  1.00  0.00     0.004 C 
ATOM      4  C   UNL     1     167.635 165.977 168.869  1.00  0.00     0.012 C 
ATOM      5  C   UNL     1     168.587 166.914 169.647  1.00  0.00     0.058 C 
ATOM      6  C   UNL     1     168.720 166.431 171.082  1.00  0.00     0.136 C 
ATOM      7  O   UNL     1     169.802 166.372 171.645  1.00  0.00    -0.299 OA
ATOM      8  C   UNL     1     167.468 166.122 171.855  1.00  0.00     0.079 C 
ENDROOT
BRANCH   5   9
ATOM      9  C   UNL     1     169.925 167.147 168.874  1.00  0.00    -0.007 C 
ATOM     10  C   UNL     1     169.839 166.664 167.416  1.00  0.00     0.008 C 
ATOM     11  C   UNL     1     170.452 168.593 168.934  1.00  0.00     0.008 C 
ENDBRANCH   5   9
TORSDOF 1
ENDMDL
MODEL 4
REMARK VINA RESULT:    -3.232      9.322     11.184
REMARK INTER + INTRA:          -3.579
REMARK INTER:                  -3.418
REMARK INTRA:                  -0.162
REMARK UNBOUND:                -0.158
REMARK SMILES CC(C)[C@H]1CC[C@@H](C)CC1=O
REMARK SMILES IDX 8 1 7 2 6 3 5 4 4 5 10 6 11 7 9 8 2 9 1 10 3 11
REMARK H PARENT
REMARK Flexibility Score: inf
ROOT
ATOM      1  C   UNL     1     172.836 156.706 167.374  1.00  0.00     0.008 C 
ATOM      2  C   UNL     1     172.600 156.571 168.887  1.00  0.00    -0.007 C 
ATOM      3  C   UNL     1     171.156 156.124 169.212  1.00  0.00     0.004 C 
ATOM      4  C   UNL     1     170.121 157.223 168.918  1.00  0.00     0.012 C 
ATOM      5  C   UNL     1     170.441 158.528 169.681  1.00  0.00     0.058 C 
ATOM      6  C   UNL     1     171.891 158.918 169.443  1.00  0.00     0.136 C 
ATOM      7  O   UNL     1     172.217 160.067 169.192  1.00  0.00    -0.299 OA
ATOM      8  C   UNL     1     172.956 157.872 169.631  1.00  0.00     0.079 C 
ENDROOT
BRANCH   5   9
ATOM      9  C   UNL     1     169.377 159.637 169.398  1.00  0.00    -0.007 C 
ATOM     10  C   UNL     1     168.255 159.135 168.473  1.00  0.00     0.008 C 
ATOM     11  C   UNL     1     168.785 160.290 170.661  1.00  0.00     0.008 C 
ENDBRANCH   5   9
TORSDOF 1
ENDMDL
MODEL 5
REMARK VINA RESULT:    -3.232      9.795     11.587
REMARK INTER + INTRA:          -3.579
REMARK INTER:                  -3.432
REMARK INTRA:                  -0.147
REMARK UNBOUND:                -0.158
REMARK SMILES CC(C)[C@H]1CC[C@@H](C)CC1=O
REMARK SMILES IDX 8 1 7 2 6 3 5 4 4 5 10 6 11 7 9 8 2 9 1 10 3 11
REMARK H PARENT
REMARK Flexibility Score: inf
ROOT
ATOM      1  C   UNL     1     158.503 173.783 171.319  1.00  0.00     0.008 C 
ATOM      2  C   UNL     1     158.354 173.094 169.953  1.00  0.00    -0.007 C 
ATOM      3  C   UNL     1     158.815 171.619 169.992  1.00  0.00     0.004 C 
ATOM      4  C   UNL     1     160.340 171.485 170.150  1.00  0.00     0.012 C 
ATOM      5  C   UNL     1     161.098 172.231 169.029  1.00  0.00     0.058 C 
ATOM      6  C   UNL     1     160.577 173.656 168.922  1.00  0.00     0.136 C 
ATOM      7  O   UNL     1     161.329 174.611 168.806  1.00  0.00    -0.299 OA
ATOM      8  C   UNL     1     159.090 173.873 168.846  1.00  0.00     0.079 C 
ENDROOT
BRANCH   5   9
ATOM      9  C   UNL     1     162.646 172.077 169.179  1.00  0.00    -0.007 C 
ATOM     10  C   UNL     1     163.020 170.928 170.131  1.00  0.00     0.008 C 
ATOM     11  C   UNL     1     163.404 171.942 167.845  1.00  0.00     0.008 C 
ENDBRANCH   5   9
TORSDOF 1
ENDMDL
MODEL 6
REMARK VINA RESULT:    -3.230      9.619     10.939
REMARK INTER + INTRA:          -3.577
REMARK INTER:                  -3.440
REMARK INTRA:                  -0.136
REMARK UNBOUND:                -0.158
REMARK SMILES CC(C)[C@H]1CC[C@@H](C)CC1=O
REMARK SMILES IDX 8 1 7 2 6 3 5 4 4 5 10 6 11 7 9 8 2 9 1 10 3 11
REMARK H PARENT
REMARK Flexibility Score: inf
ROOT
ATOM      1  C   UNL     1     172.696 157.384 171.265  1.00  0.00     0.008 C 
ATOM      2  C   UNL     1     172.844 158.151 169.941  1.00  0.00    -0.007 C 
ATOM      3  C   UNL     1     172.353 159.612 170.056  1.00  0.00     0.004 C 
ATOM      4  C   UNL     1     170.824 159.707 170.204  1.00  0.00     0.012 C 
ATOM      5  C   UNL     1     170.093 159.008 169.036  1.00  0.00     0.058 C 
ATOM      6  C   UNL     1     170.644 157.603 168.855  1.00  0.00     0.136 C 
ATOM      7  O   UNL     1     169.913 156.641 168.679  1.00  0.00    -0.299 OA
ATOM      8  C   UNL     1     172.135 157.420 168.784  1.00  0.00     0.079 C 
ENDROOT
BRANCH   5   9
ATOM      9  C   UNL     1     168.541 159.124 169.176  1.00  0.00    -0.007 C 
ATOM     10  C   UNL     1     168.133 160.252 170.139  1.00  0.00     0.008 C 
ATOM     11  C   UNL     1     167.788 159.256 167.839  1.00  0.00     0.008 C 
ENDBRANCH   5   9
TORSDOF 1
ENDMDL
MODEL 7
REMARK VINA RESULT:    -3.180     10.421     12.279
REMARK INTER + INTRA:          -3.524
REMARK INTER:                  -3.360
REMARK INTRA:                  -0.164
REMARK UNBOUND:                -0.158
REMARK SMILES CC(C)[C@H]1CC[C@@H](C)CC1=O
REMARK SMILES IDX 8 1 7 2 6 3 5 4 4 5 10 6 11 7 9 8 2 9 1 10 3 11
REMARK H PARENT
REMARK Flexibility Score: inf
ROOT
ATOM      1  C   UNL     1     158.567 174.626 167.187  1.00  0.00     0.008 C 
ATOM      2  C   UNL     1     158.735 174.750 168.710  1.00  0.00    -0.007 C 
ATOM      3  C   UNL     1     160.178 175.134 169.108  1.00  0.00     0.004 C 
ATOM      4  C   UNL     1     161.178 173.991 168.862  1.00  0.00     0.012 C 
ATOM      5  C   UNL     1     160.765 172.701 169.606  1.00  0.00     0.058 C 
ATOM      6  C   UNL     1     159.313 172.375 169.295  1.00  0.00     0.136 C 
ATOM      7  O   UNL     1     158.950 171.241 169.026  1.00  0.00    -0.299 OA
ATOM      8  C   UNL     1     158.286 173.466 169.433  1.00  0.00     0.079 C 
ENDROOT
BRANCH   5   9
ATOM      9  C   UNL     1     161.792 171.547 169.373  1.00  0.00    -0.007 C 
ATOM     10  C   UNL     1     162.935 171.975 168.437  1.00  0.00     0.008 C 
ATOM     11  C   UNL     1     162.355 170.925 170.664  1.00  0.00     0.008 C 
ENDBRANCH   5   9
TORSDOF 1
ENDMDL
MODEL 8
REMARK VINA RESULT:    -3.143     10.080     12.029
REMARK INTER + INTRA:          -3.485
REMARK INTER:                  -3.327
REMARK INTRA:                  -0.157
REMARK UNBOUND:                -0.158
REMARK SMILES CC(C)[C@H]1CC[C@@H](C)CC1=O
REMARK SMILES IDX 8 1 7 2 6 3 5 4 4 5 10 6 11 7 9 8 2 9 1 10 3 11
REMARK H PARENT
REMARK Flexibility Score: inf
ROOT
ATOM      1  C   UNL     1     158.021 174.640 169.224  1.00  0.00     0.008 C 
ATOM      2  C   UNL     1     158.711 173.864 168.090  1.00  0.00    -0.007 C 
ATOM      3  C   UNL     1     158.559 172.334 168.255  1.00  0.00     0.004 C 
ATOM      4  C   UNL     1     159.379 171.788 169.436  1.00  0.00     0.012 C 
ATOM      5  C   UNL     1     160.877 172.145 169.305  1.00  0.00     0.058 C 
ATOM      6  C   UNL     1     161.025 173.636 169.043  1.00  0.00     0.136 C 
ATOM      7  O   UNL     1     161.857 174.313 169.625  1.00  0.00    -0.299 OA
ATOM      8  C   UNL     1     160.194 174.260 167.956  1.00  0.00     0.079 C 
ENDROOT
BRANCH   5   9
ATOM      9  C   UNL     1     161.712 171.571 170.494  1.00  0.00    -0.007 C 
ATOM     10  C   UNL     1     160.899 170.580 171.343  1.00  0.00     0.008 C 
ATOM     11  C   UNL     1     163.061 170.952 170.084  1.00  0.00     0.008 C 
ENDBRANCH   5   9
TORSDOF 1
ENDMDL
MODEL 9
REMARK VINA RESULT:    -3.119      9.750     11.808
REMARK INTER + INTRA:          -3.460
REMARK INTER:                  -3.276
REMARK INTRA:                  -0.184
REMARK UNBOUND:                -0.158
REMARK SMILES CC(C)[C@H]1CC[C@@H](C)CC1=O
REMARK SMILES IDX 8 1 7 2 6 3 5 4 4 5 10 6 11 7 9 8 2 9 1 10 3 11
REMARK H PARENT
REMARK Flexibility Score: inf
ROOT
ATOM      1  C   UNL     1     163.384 171.961 167.783  1.00  0.00     0.008 C 
ATOM      2  C   UNL     1     163.221 172.251 169.283  1.00  0.00    -0.007 C 
ATOM      3  C   UNL     1     162.082 171.420 169.917  1.00  0.00     0.004 C 
ATOM      4  C   UNL     1     160.691 171.875 169.444  1.00  0.00     0.012 C 
ATOM      5  C   UNL     1     160.453 173.375 169.729  1.00  0.00     0.058 C 
ATOM      6  C   UNL     1     161.621 174.188 169.194  1.00  0.00     0.136 C 
ATOM      7  O   UNL     1     161.453 175.222 168.568  1.00  0.00    -0.299 OA
ATOM      8  C   UNL     1     163.018 173.756 169.546  1.00  0.00     0.079 C 
ENDROOT
BRANCH   5   9
ATOM      9  C   UNL     1     159.031 173.831 169.268  1.00  0.00    -0.007 C 
ATOM     10  C   UNL     1     158.602 173.141 167.962  1.00  0.00     0.008 C 
ATOM     11  C   UNL     1     157.936 173.685 170.341  1.00  0.00     0.008 C 
ENDBRANCH   5   9
TORSDOF 1
ENDMDL
