MODEL 1
REMARK VINA RESULT:    -3.318      0.000      0.000
REMARK INTER + INTRA:          -4.251
REMARK INTER:                  -4.094
REMARK INTRA:                  -0.157
REMARK UNBOUND:                -0.157
REMARK SMILES C=CCc1ccc(OC)c(OC)c1
REMARK SMILES IDX 7 1 10 2 13 3 4 4 5 5 6 6 8 7 9 8 11 9 12 10 3 11 2 12 1 13
REMARK H PARENT
REMARK Flexibility Score: inf
ROOT
ATOM      1  C   UNL     1      48.255  41.961  45.261  1.00  0.00     0.160 A 
ATOM      2  C   UNL     1      48.971  41.488  44.150  1.00  0.00     0.160 A 
ATOM      3  C   UNL     1      48.519  41.791  42.850  1.00  0.00     0.054 A 
ATOM      4  C   UNL     1      47.366  42.565  42.657  1.00  0.00    -0.040 A 
ATOM      5  C   UNL     1      46.651  43.024  43.772  1.00  0.00     0.008 A 
ATOM      6  C   UNL     1      47.092  42.729  45.063  1.00  0.00     0.051 A 
ENDROOT
BRANCH   1   7
ATOM      7  O   UNL     1      48.730  41.644  46.543  1.00  0.00    -0.493 OA
ATOM      8  C   UNL     1      48.802  42.565  47.627  1.00  0.00     0.278 C 
ENDBRANCH   1   7
BRANCH   2   9
ATOM      9  O   UNL     1      50.124  40.720  44.377  1.00  0.00    -0.493 OA
ATOM     10  C   UNL     1      50.121  39.333  44.698  1.00  0.00     0.278 C 
ENDBRANCH   2   9
BRANCH   4  11
ATOM     11  C   UNL     1      46.874  42.859  41.264  1.00  0.00     0.062 C 
BRANCH  11  12
ATOM     12  C   UNL     1      47.174  41.711  40.340  1.00  0.00    -0.030 C 
ATOM     13  C   UNL     1      47.480  41.907  39.054  1.00  0.00     0.004 C 
ENDBRANCH  11  12
ENDBRANCH   4  11
TORSDOF 4
ENDMDL
MODEL 2
REMARK VINA RESULT:    -3.194      1.281      2.799
REMARK INTER + INTRA:          -4.099
REMARK INTER:                  -3.836
REMARK INTRA:                  -0.263
REMARK UNBOUND:                -0.157
REMARK SMILES C=CCc1ccc(OC)c(OC)c1
REMARK SMILES IDX 7 1 10 2 13 3 4 4 5 5 6 6 8 7 9 8 11 9 12 10 3 11 2 12 1 13
REMARK H PARENT
REMARK Flexibility Score: inf
ROOT
ATOM      1  C   UNL     1      49.066  41.623  43.489  1.00  0.00     0.160 A 
ATOM      2  C   UNL     1      47.727  42.022  43.633  1.00  0.00     0.160 A 
ATOM      3  C   UNL     1      46.992  42.414  42.497  1.00  0.00     0.054 A 
ATOM      4  C   UNL     1      47.583  42.402  41.224  1.00  0.00    -0.040 A 
ATOM      5  C   UNL     1      48.922  42.012  41.092  1.00  0.00     0.008 A 
ATOM      6  C   UNL     1      49.657  41.622  42.213  1.00  0.00     0.051 A 
ENDROOT
BRANCH   1   7
ATOM      7  O   UNL     1      49.772  41.237  44.639  1.00  0.00    -0.493 OA
ATOM      8  C   UNL     1      49.968  39.888  45.051  1.00  0.00     0.278 C 
ENDBRANCH   1   7
BRANCH   2   9
ATOM      9  O   UNL     1      47.164  42.018  44.919  1.00  0.00    -0.493 OA
ATOM     10  C   UNL     1      47.187  43.125  45.814  1.00  0.00     0.278 C 
ENDBRANCH   2   9
BRANCH   4  11
ATOM     11  C   UNL     1      46.798  42.850  40.020  1.00  0.00     0.062 C 
BRANCH  11  12
ATOM     12  C   UNL     1      47.164  42.034  38.811  1.00  0.00    -0.030 C 
ATOM     13  C   UNL     1      47.386  42.601  37.622  1.00  0.00     0.004 C 
ENDBRANCH  11  12
ENDBRANCH   4  11
TORSDOF 4
ENDMDL
MODEL 3
REMARK VINA RESULT:    -2.647      2.725      5.136
REMARK INTER + INTRA:          -3.423
REMARK INTER:                  -3.239
REMARK INTRA:                  -0.184
REMARK UNBOUND:                -0.157
REMARK SMILES C=CCc1ccc(OC)c(OC)c1
REMARK SMILES IDX 7 1 10 2 13 3 4 4 5 5 6 6 8 7 9 8 11 9 12 10 3 11 2 12 1 13
REMARK H PARENT
REMARK Flexibility Score: inf
ROOT
ATOM      1  C   UNL     1      47.712  41.996  40.737  1.00  0.00     0.160 A 
ATOM      2  C   UNL     1      49.111  42.060  40.838  1.00  0.00     0.160 A 
ATOM      3  C   UNL     1      49.716  42.089  42.110  1.00  0.00     0.054 A 
ATOM      4  C   UNL     1      48.935  42.048  43.274  1.00  0.00    -0.040 A 
ATOM      5  C   UNL     1      47.539  41.995  43.164  1.00  0.00     0.008 A 
ATOM      6  C   UNL     1      46.932  41.966  41.908  1.00  0.00     0.051 A 
ENDROOT
BRANCH   1   7
ATOM      7  O   UNL     1      47.137  41.968  39.457  1.00  0.00    -0.493 OA
ATOM      8  C   UNL     1      46.758  43.125  38.718  1.00  0.00     0.278 C 
ENDBRANCH   1   7
BRANCH   2   9
ATOM      9  O   UNL     1      49.864  42.095  39.654  1.00  0.00    -0.493 OA
ATOM     10  C   UNL     1      50.125  40.963  38.830  1.00  0.00     0.278 C 
ENDBRANCH   2   9
BRANCH   4  11
ATOM     11  C   UNL     1      49.590  42.108  44.629  1.00  0.00     0.062 C 
BRANCH  11  12
ATOM     12  C   UNL     1      49.385  40.820  45.377  1.00  0.00    -0.030 C 
ATOM     13  C   UNL     1      49.797  39.649  44.884  1.00  0.00     0.004 C 
ENDBRANCH  11  12
ENDBRANCH   4  11
TORSDOF 4
ENDMDL
MODEL 4
REMARK VINA RESULT:    -2.244      2.195      5.076
REMARK INTER + INTRA:          -2.925
REMARK INTER:                  -2.923
REMARK INTRA:                  -0.002
REMARK UNBOUND:                -0.157
REMARK SMILES C=CCc1ccc(OC)c(OC)c1
REMARK SMILES IDX 7 1 10 2 13 3 4 4 5 5 6 6 8 7 9 8 11 9 12 10 3 11 2 12 1 13
REMARK H PARENT
REMARK Flexibility Score: inf
ROOT
ATOM      1  C   UNL     1      47.469  42.163  42.325  1.00  0.00     0.160 A 
ATOM      2  C   UNL     1      48.868  42.040  42.308  1.00  0.00     0.160 A 
ATOM      3  C   UNL     1      49.582  42.052  43.522  1.00  0.00     0.054 A 
ATOM      4  C   UNL     1      48.909  42.178  44.746  1.00  0.00    -0.040 A 
ATOM      5  C   UNL     1      47.513  42.311  44.753  1.00  0.00     0.008 A 
ATOM      6  C   UNL     1      46.798  42.300  43.554  1.00  0.00     0.051 A 
ENDROOT
BRANCH   1   7
ATOM      7  O   UNL     1      46.784  42.147  41.100  1.00  0.00    -0.493 OA
ATOM      8  C   UNL     1      46.749  41.036  40.209  1.00  0.00     0.278 C 
ENDBRANCH   1   7
BRANCH   2   9
ATOM      9  O   UNL     1      49.510  41.910  41.066  1.00  0.00    -0.493 OA
ATOM     10  C   UNL     1      50.125  42.982  40.359  1.00  0.00     0.278 C 
ENDBRANCH   2   9
BRANCH   4  11
ATOM     11  C   UNL     1      49.683  42.219  46.037  1.00  0.00     0.062 C 
BRANCH  11  12
ATOM     12  C   UNL     1      49.092  41.270  47.043  1.00  0.00    -0.030 C 
ATOM     13  C   UNL     1      49.019  41.580  48.341  1.00  0.00     0.004 C 
ENDBRANCH  11  12
ENDBRANCH   4  11
TORSDOF 4
ENDMDL
MODEL 5
REMARK VINA RESULT:    -1.135      1.998      3.748
REMARK INTER + INTRA:          -1.558
REMARK INTER:                  -1.796
REMARK INTRA:                   0.238
REMARK UNBOUND:                -0.157
REMARK SMILES C=CCc1ccc(OC)c(OC)c1
REMARK SMILES IDX 7 1 10 2 13 3 4 4 5 5 6 6 8 7 9 8 11 9 12 10 3 11 2 12 1 13
REMARK H PARENT
REMARK Flexibility Score: inf
ROOT
ATOM      1  C   UNL     1      49.030  41.657  42.492  1.00  0.00     0.160 A 
ATOM      2  C   UNL     1      47.986  42.363  41.872  1.00  0.00     0.160 A 
ATOM      3  C   UNL     1      48.020  42.573  40.479  1.00  0.00     0.054 A 
ATOM      4  C   UNL     1      49.082  42.079  39.707  1.00  0.00    -0.040 A 
ATOM      5  C   UNL     1      50.125  41.386  40.336  1.00  0.00     0.008 A 
ATOM      6  C   UNL     1      50.099  41.172  41.715  1.00  0.00     0.051 A 
ENDROOT
BRANCH   1   7
ATOM      7  O   UNL     1      48.969  41.461  43.880  1.00  0.00    -0.493 OA
ATOM      8  C   UNL     1      49.634  42.277  44.839  1.00  0.00     0.278 C 
ENDBRANCH   1   7
BRANCH   2   9
ATOM      9  O   UNL     1      46.936  42.839  42.672  1.00  0.00    -0.493 OA
ATOM     10  C   UNL     1      45.608  43.064  42.210  1.00  0.00     0.278 C 
ENDBRANCH   2   9
BRANCH   4  11
ATOM     11  C   UNL     1      49.124  42.335  38.224  1.00  0.00     0.062 C 
BRANCH  11  12
ATOM     12  C   UNL     1      47.870  43.029  37.767  1.00  0.00    -0.030 C 
ATOM     13  C   UNL     1      46.688  42.406  37.755  1.00  0.00     0.004 C 
ENDBRANCH  11  12
ENDBRANCH   4  11
TORSDOF 4
ENDMDL
MODEL 6
REMARK VINA RESULT:    -1.027     13.379     15.266
REMARK INTER + INTRA:          -1.424
REMARK INTER:                  -1.133
REMARK INTRA:                  -0.292
REMARK UNBOUND:                -0.157
REMARK SMILES C=CCc1ccc(OC)c(OC)c1
REMARK SMILES IDX 7 1 10 2 13 3 4 4 5 5 6 6 8 7 9 8 11 9 12 10 3 11 2 12 1 13
REMARK H PARENT
REMARK Flexibility Score: inf
ROOT
ATOM      1  C   UNL     1      40.304  34.076  32.416  1.00  0.00     0.160 A 
ATOM      2  C   UNL     1      40.833  35.038  33.291  1.00  0.00     0.160 A 
ATOM      3  C   UNL     1      40.763  36.403  32.950  1.00  0.00     0.054 A 
ATOM      4  C   UNL     1      40.164  36.809  31.748  1.00  0.00    -0.040 A 
ATOM      5  C   UNL     1      39.649  35.842  30.875  1.00  0.00     0.008 A 
ATOM      6  C   UNL     1      39.714  34.487  31.206  1.00  0.00     0.051 A 
ENDROOT
BRANCH   1   7
ATOM      7  O   UNL     1      40.388  32.724  32.783  1.00  0.00    -0.493 OA
ATOM      8  C   UNL     1      39.269  31.907  33.111  1.00  0.00     0.278 C 
ENDBRANCH   1   7
BRANCH   2   9
ATOM      9  O   UNL     1      41.421  34.599  34.488  1.00  0.00    -0.493 OA
ATOM     10  C   UNL     1      40.735  34.490  35.731  1.00  0.00     0.278 C 
ENDBRANCH   2   9
BRANCH   4  11
ATOM     11  C   UNL     1      40.120  38.268  31.378  1.00  0.00     0.062 C 
BRANCH  11  12
ATOM     12  C   UNL     1      41.471  38.742  30.918  1.00  0.00    -0.030 C 
ATOM     13  C   UNL     1      42.120  39.728  31.545  1.00  0.00     0.004 C 
ENDBRANCH  11  12
ENDBRANCH   4  11
TORSDOF 4
ENDMDL
