MODEL 1
REMARK VINA RESULT:    -4.568      0.000      0.000
REMARK INTER + INTRA:          -6.369
REMARK INTER:                  -5.903
REMARK INTRA:                  -0.466
REMARK UNBOUND:                -0.466
REMARK SMILES CCO[C@H]1O[C@H](CO)[C@H](O)[C@H](O)[C@H]1O
REMARK SMILES IDX 4 1 13 2 11 3 9 4 6 5 5 6 3 7 2 8 1 9 14 10 12 12 7 14 8 15
REMARK SMILES IDX 10 17
REMARK H PARENT 14 11 12 13 8 16 10 18
REMARK Flexibility Score: inf
ROOT
ATOM      1  C   UNL     1       0.727  -3.209   9.387  1.00  0.00     0.281 C 
ATOM      2  C   UNL     1      -0.814  -3.128   9.468  1.00  0.00     0.202 C 
ATOM      3  C   UNL     1      -1.325  -1.787   8.907  1.00  0.00     0.179 C 
ATOM      4  C   UNL     1      -0.564  -0.622   9.564  1.00  0.00     0.177 C 
ATOM      5  C   UNL     1       0.956  -0.870   9.428  1.00  0.00     0.178 C 
ATOM      6  O   UNL     1       1.324  -2.096  10.043  1.00  0.00    -0.341 OA
ENDROOT
BRANCH   1   7
ATOM      7  O   UNL     1       1.150  -3.300   8.034  1.00  0.00    -0.350 OA
BRANCH   7   8
ATOM      8  C   UNL     1       2.283  -4.136   7.931  1.00  0.00     0.160 C 
ATOM      9  C   UNL     1       2.110  -5.325   8.863  1.00  0.00     0.035 C 
ENDBRANCH   7   8
ENDBRANCH   1   7
BRANCH   2  10
ATOM     10  O   UNL     1      -1.415  -4.220   8.817  1.00  0.00    -0.385 OA
ATOM     11  H   UNL     1      -0.909  -5.039   9.059  1.00  0.00     0.211 HD
ENDBRANCH   2  10
BRANCH   3  12
ATOM     12  O   UNL     1      -2.703  -1.672   9.150  1.00  0.00    -0.387 OA
ATOM     13  H   UNL     1      -2.807  -1.473  10.117  1.00  0.00     0.211 HD
ENDBRANCH   3  12
BRANCH   5  14
ATOM     14  C   UNL     1       1.766   0.269  10.064  1.00  0.00     0.191 C 
BRANCH  14  15
ATOM     15  O   UNL     1       1.037   1.465  10.028  1.00  0.00    -0.394 OA
ATOM     16  H   UNL     1       0.166   1.256   9.598  1.00  0.00     0.210 HD
ENDBRANCH  14  15
ENDBRANCH   5  14
BRANCH   4  17
ATOM     17  O   UNL     1      -0.929  -0.529  10.920  1.00  0.00    -0.387 OA
ATOM     18  H   UNL     1      -1.916  -0.425  10.951  1.00  0.00     0.211 HD
ENDBRANCH   4  17
TORSDOF 7
ENDMDL
MODEL 2
REMARK VINA RESULT:    -4.371     13.746     15.463
REMARK INTER + INTRA:          -6.115
REMARK INTER:                  -5.679
REMARK INTRA:                  -0.436
REMARK UNBOUND:                -0.466
REMARK SMILES CCO[C@H]1O[C@H](CO)[C@H](O)[C@H](O)[C@H]1O
REMARK SMILES IDX 4 1 13 2 11 3 9 4 6 5 5 6 3 7 2 8 1 9 14 10 12 12 7 14 8 15
REMARK SMILES IDX 10 17
REMARK H PARENT 14 11 12 13 8 16 10 18
REMARK Flexibility Score: inf
ROOT
ATOM      1  C   UNL     1      -2.479   4.317  21.678  1.00  0.00     0.281 C 
ATOM      2  C   UNL     1      -2.237   2.796  21.791  1.00  0.00     0.202 C 
ATOM      3  C   UNL     1      -2.730   2.260  23.149  1.00  0.00     0.179 C 
ATOM      4  C   UNL     1      -2.146   3.110  24.291  1.00  0.00     0.177 C 
ATOM      5  C   UNL     1      -2.440   4.603  24.011  1.00  0.00     0.178 C 
ATOM      6  O   UNL     1      -1.878   5.004  22.771  1.00  0.00    -0.341 OA
ENDROOT
BRANCH   1   7
ATOM      7  O   UNL     1      -3.868   4.596  21.594  1.00  0.00    -0.350 OA
BRANCH   7   8
ATOM      8  C   UNL     1      -4.108   5.600  20.630  1.00  0.00     0.160 C 
ATOM      9  C   UNL     1      -4.658   6.835  21.326  1.00  0.00     0.035 C 
ENDBRANCH   7   8
ENDBRANCH   1   7
BRANCH   2  10
ATOM     10  O   UNL     1      -2.832   2.105  20.721  1.00  0.00    -0.385 OA
ATOM     11  H   UNL     1      -2.237   2.194  19.930  1.00  0.00     0.211 HD
ENDBRANCH   2  10
BRANCH   3  12
ATOM     12  O   UNL     1      -2.345   0.917  23.292  1.00  0.00    -0.387 OA
ATOM     13  H   UNL     1      -1.358   0.913  23.402  1.00  0.00     0.211 HD
ENDBRANCH   3  12
BRANCH   5  14
ATOM     14  C   UNL     1      -1.882   5.500  25.125  1.00  0.00     0.191 C 
BRANCH  14  15
ATOM     15  O   UNL     1      -0.567   5.884  24.828  1.00  0.00    -0.394 OA
ATOM     16  H   UNL     1      -0.341   6.630  25.444  1.00  0.00     0.210 HD
ENDBRANCH  14  15
ENDBRANCH   5  14
BRANCH   4  17
ATOM     17  O   UNL     1      -0.759   2.890  24.377  1.00  0.00    -0.387 OA
ATOM     18  H   UNL     1      -0.587   2.442  25.246  1.00  0.00     0.211 HD
ENDBRANCH   4  17
TORSDOF 7
ENDMDL
MODEL 3
REMARK VINA RESULT:    -4.366     13.120     14.703
REMARK INTER + INTRA:          -6.108
REMARK INTER:                  -5.817
REMARK INTRA:                  -0.291
REMARK UNBOUND:                -0.466
REMARK SMILES CCO[C@H]1O[C@H](CO)[C@H](O)[C@H](O)[C@H]1O
REMARK SMILES IDX 4 1 13 2 11 3 9 4 6 5 5 6 3 7 2 8 1 9 14 10 12 12 7 14 8 15
REMARK SMILES IDX 10 17
REMARK H PARENT 14 11 12 13 8 16 10 18
REMARK Flexibility Score: inf
ROOT
ATOM      1  C   UNL     1      -2.888   3.296  21.306  1.00  0.00     0.281 C 
ATOM      2  C   UNL     1      -3.986   4.365  21.507  1.00  0.00     0.202 C 
ATOM      3  C   UNL     1      -3.421   5.606  22.223  1.00  0.00     0.179 C 
ATOM      4  C   UNL     1      -2.671   5.179  23.497  1.00  0.00     0.177 C 
ATOM      5  C   UNL     1      -1.639   4.087  23.133  1.00  0.00     0.178 C 
ATOM      6  O   UNL     1      -2.279   2.962  22.548  1.00  0.00    -0.341 OA
ENDROOT
BRANCH   1   7
ATOM      7  O   UNL     1      -1.927   3.743  20.361  1.00  0.00    -0.350 OA
BRANCH   7   8
ATOM      8  C   UNL     1      -1.268   2.639  19.775  1.00  0.00     0.160 C 
ATOM      9  C   UNL     1      -0.299   3.144  18.717  1.00  0.00     0.035 C 
ENDBRANCH   7   8
ENDBRANCH   1   7
BRANCH   2  10
ATOM     10  O   UNL     1      -4.592   4.708  20.285  1.00  0.00    -0.385 OA
ATOM     11  H   UNL     1      -3.882   5.038  19.673  1.00  0.00     0.211 HD
ENDBRANCH   2  10
BRANCH   3  12
ATOM     12  O   UNL     1      -4.471   6.482  22.543  1.00  0.00    -0.387 OA
ATOM     13  H   UNL     1      -5.274   5.920  22.703  1.00  0.00     0.211 HD
ENDBRANCH   3  12
BRANCH   5  14
ATOM     14  C   UNL     1      -0.855   3.625  24.370  1.00  0.00     0.191 C 
BRANCH  14  15
ATOM     15  O   UNL     1      -0.440   4.731  25.125  1.00  0.00    -0.394 OA
ATOM     16  H   UNL     1       0.135   5.282  24.532  1.00  0.00     0.210 HD
ENDBRANCH  14  15
ENDBRANCH   5  14
BRANCH   4  17
ATOM     17  O   UNL     1      -3.592   4.691  24.442  1.00  0.00    -0.387 OA
ATOM     18  H   UNL     1      -3.321   5.050  25.327  1.00  0.00     0.211 HD
ENDBRANCH   4  17
TORSDOF 7
ENDMDL
MODEL 4
REMARK VINA RESULT:    -4.339      1.631      4.277
REMARK INTER + INTRA:          -6.073
REMARK INTER:                  -5.722
REMARK INTRA:                  -0.351
REMARK UNBOUND:                -0.466
REMARK SMILES CCO[C@H]1O[C@H](CO)[C@H](O)[C@H](O)[C@H]1O
REMARK SMILES IDX 4 1 13 2 11 3 9 4 6 5 5 6 3 7 2 8 1 9 14 10 12 12 7 14 8 15
REMARK SMILES IDX 10 17
REMARK H PARENT 14 11 12 13 8 16 10 18
REMARK Flexibility Score: inf
ROOT
ATOM      1  C   UNL     1       1.406  -2.005   8.597  1.00  0.00     0.281 C 
ATOM      2  C   UNL     1      -0.102  -2.293   8.427  1.00  0.00     0.202 C 
ATOM      3  C   UNL     1      -0.502  -3.582   9.171  1.00  0.00     0.179 C 
ATOM      4  C   UNL     1       0.441  -4.730   8.773  1.00  0.00     0.177 C 
ATOM      5  C   UNL     1       1.905  -4.272   8.966  1.00  0.00     0.178 C 
ATOM      6  O   UNL     1       2.183  -3.122   8.179  1.00  0.00    -0.341 OA
ENDROOT
BRANCH   1   7
ATOM      7  O   UNL     1       1.696  -1.647   9.940  1.00  0.00    -0.350 OA
BRANCH   7   8
ATOM      8  C   UNL     1       2.809  -0.777   9.986  1.00  0.00     0.160 C 
ATOM      9  C   UNL     1       2.745   0.044  11.264  1.00  0.00     0.035 C 
ENDBRANCH   7   8
ENDBRANCH   1   7
BRANCH   2  10
ATOM     10  O   UNL     1      -0.879  -1.198   8.843  1.00  0.00    -0.385 OA
ATOM     11  H   UNL     1      -0.559  -0.918   9.741  1.00  0.00     0.211 HD
ENDBRANCH   2  10
BRANCH   3  12
ATOM     12  O   UNL     1      -1.832  -3.910   8.859  1.00  0.00    -0.387 OA
ATOM     13  H   UNL     1      -1.803  -4.752   8.334  1.00  0.00     0.211 HD
ENDBRANCH   3  12
BRANCH   5  14
ATOM     14  C   UNL     1       2.893  -5.384   8.587  1.00  0.00     0.191 C 
BRANCH  14  15
ATOM     15  O   UNL     1       2.405  -6.632   9.000  1.00  0.00    -0.394 OA
ATOM     16  H   UNL     1       1.727  -6.909   8.329  1.00  0.00     0.210 HD
ENDBRANCH  14  15
ENDBRANCH   5  14
BRANCH   4  17
ATOM     17  O   UNL     1       0.210  -5.084   7.430  1.00  0.00    -0.387 OA
ATOM     18  H   UNL     1      -0.350  -4.367   7.031  1.00  0.00     0.211 HD
ENDBRANCH   4  17
TORSDOF 7
ENDMDL
MODEL 5
REMARK VINA RESULT:    -4.202      7.420     10.032
REMARK INTER + INTRA:          -5.896
REMARK INTER:                  -5.460
REMARK INTRA:                  -0.436
REMARK UNBOUND:                -0.466
REMARK SMILES CCO[C@H]1O[C@H](CO)[C@H](O)[C@H](O)[C@H]1O
REMARK SMILES IDX 4 1 13 2 11 3 9 4 6 5 5 6 3 7 2 8 1 9 14 10 12 12 7 14 8 15
REMARK SMILES IDX 10 17
REMARK H PARENT 14 11 12 13 8 16 10 18
REMARK Flexibility Score: inf
ROOT
ATOM      1  C   UNL     1       5.073   3.236  16.224  1.00  0.00     0.281 C 
ATOM      2  C   UNL     1       5.071   2.816  14.737  1.00  0.00     0.202 C 
ATOM      3  C   UNL     1       3.881   1.886  14.430  1.00  0.00     0.179 C 
ATOM      4  C   UNL     1       3.844   0.731  15.445  1.00  0.00     0.177 C 
ATOM      5  C   UNL     1       3.888   1.314  16.877  1.00  0.00     0.178 C 
ATOM      6  O   UNL     1       5.061   2.091  17.070  1.00  0.00    -0.341 OA
ENDROOT
BRANCH   1   7
ATOM      7  O   UNL     1       3.977   4.095  16.500  1.00  0.00    -0.350 OA
BRANCH   7   8
ATOM      8  C   UNL     1       4.373   5.126  17.381  1.00  0.00     0.160 C 
ATOM      9  C   UNL     1       3.763   4.871  18.750  1.00  0.00     0.035 C 
ENDBRANCH   7   8
ENDBRANCH   1   7
BRANCH   2  10
ATOM     10  O   UNL     1       5.076   3.939  13.891  1.00  0.00    -0.385 OA
ATOM     11  H   UNL     1       4.180   4.364  13.939  1.00  0.00     0.211 HD
ENDBRANCH   2  10
BRANCH   3  12
ATOM     12  O   UNL     1       4.001   1.387  13.123  1.00  0.00    -0.387 OA
ATOM     13  H   UNL     1       3.770   2.132  12.510  1.00  0.00     0.211 HD
ENDBRANCH   3  12
BRANCH   5  14
ATOM     14  C   UNL     1       3.849   0.201  17.934  1.00  0.00     0.191 C 
BRANCH  14  15
ATOM     15  O   UNL     1       5.125  -0.352  18.107  1.00  0.00    -0.394 OA
ATOM     16  H   UNL     1       5.135  -1.209  17.605  1.00  0.00     0.210 HD
ENDBRANCH  14  15
ENDBRANCH   5  14
BRANCH   4  17
ATOM     17  O   UNL     1       4.943  -0.120  15.227  1.00  0.00    -0.387 OA
ATOM     18  H   UNL     1       5.312  -0.356  16.118  1.00  0.00     0.211 HD
ENDBRANCH   4  17
TORSDOF 7
ENDMDL
MODEL 6
REMARK VINA RESULT:    -4.118      1.689      3.237
REMARK INTER + INTRA:          -5.788
REMARK INTER:                  -5.357
REMARK INTRA:                  -0.431
REMARK UNBOUND:                -0.466
REMARK SMILES CCO[C@H]1O[C@H](CO)[C@H](O)[C@H](O)[C@H]1O
REMARK SMILES IDX 4 1 13 2 11 3 9 4 6 5 5 6 3 7 2 8 1 9 14 10 12 12 7 14 8 15
REMARK SMILES IDX 10 17
REMARK H PARENT 14 11 12 13 8 16 10 18
REMARK Flexibility Score: inf
ROOT
ATOM      1  C   UNL     1       0.444  -1.938   8.538  1.00  0.00     0.281 C 
ATOM      2  C   UNL     1       1.709  -1.281   9.135  1.00  0.00     0.202 C 
ATOM      3  C   UNL     1       1.368  -0.498  10.417  1.00  0.00     0.179 C 
ATOM      4  C   UNL     1       0.190   0.455  10.151  1.00  0.00     0.177 C 
ATOM      5  C   UNL     1      -0.976  -0.345   9.524  1.00  0.00     0.178 C 
ATOM      6  O   UNL     1      -0.569  -0.964   8.312  1.00  0.00    -0.341 OA
ENDROOT
BRANCH   1   7
ATOM      7  O   UNL     1      -0.020  -2.982   9.380  1.00  0.00    -0.350 OA
BRANCH   7   8
ATOM      8  C   UNL     1      -0.518  -4.052   8.605  1.00  0.00     0.160 C 
ATOM      9  C   UNL     1       0.596  -5.060   8.376  1.00  0.00     0.035 C 
ENDBRANCH   7   8
ENDBRANCH   1   7
BRANCH   2  10
ATOM     10  O   UNL     1       2.715  -2.235   9.368  1.00  0.00    -0.385 OA
ATOM     11  H   UNL     1       3.594  -1.784   9.268  1.00  0.00     0.211 HD
ENDBRANCH   2  10
BRANCH   3  12
ATOM     12  O   UNL     1       2.496   0.224  10.840  1.00  0.00    -0.387 OA
ATOM     13  H   UNL     1       2.464   1.102  10.377  1.00  0.00     0.211 HD
ENDBRANCH   3  12
BRANCH   5  14
ATOM     14  C   UNL     1      -2.184   0.558   9.241  1.00  0.00     0.191 C 
BRANCH  14  15
ATOM     15  O   UNL     1      -2.153   1.014   7.916  1.00  0.00    -0.394 OA
ATOM     16  H   UNL     1      -3.029   0.777   7.512  1.00  0.00     0.210 HD
ENDBRANCH  14  15
ENDBRANCH   5  14
BRANCH   4  17
ATOM     17  O   UNL     1       0.604   1.482   9.283  1.00  0.00    -0.387 OA
ATOM     18  H   UNL     1       1.470   1.200   8.888  1.00  0.00     0.211 HD
ENDBRANCH   4  17
TORSDOF 7
ENDMDL
MODEL 7
REMARK VINA RESULT:    -4.062      7.278      9.229
REMARK INTER + INTRA:          -5.715
REMARK INTER:                  -5.307
REMARK INTRA:                  -0.408
REMARK UNBOUND:                -0.466
REMARK SMILES CCO[C@H]1O[C@H](CO)[C@H](O)[C@H](O)[C@H]1O
REMARK SMILES IDX 4 1 13 2 11 3 9 4 6 5 5 6 3 7 2 8 1 9 14 10 12 12 7 14 8 15
REMARK SMILES IDX 10 17
REMARK H PARENT 14 11 12 13 8 16 10 18
REMARK Flexibility Score: inf
ROOT
ATOM      1  C   UNL     1       4.483   1.701  15.203  1.00  0.00     0.281 C 
ATOM      2  C   UNL     1       4.850   0.536  16.150  1.00  0.00     0.202 C 
ATOM      3  C   UNL     1       3.920   0.513  17.378  1.00  0.00     0.179 C 
ATOM      4  C   UNL     1       3.877   1.907  18.028  1.00  0.00     0.177 C 
ATOM      5  C   UNL     1       3.533   2.958  16.947  1.00  0.00     0.178 C 
ATOM      6  O   UNL     1       4.495   2.941  15.902  1.00  0.00    -0.341 OA
ENDROOT
BRANCH   1   7
ATOM      7  O   UNL     1       3.224   1.466  14.589  1.00  0.00    -0.350 OA
BRANCH   7   8
ATOM      8  C   UNL     1       3.253   1.880  13.239  1.00  0.00     0.160 C 
ATOM      9  C   UNL     1       2.960   0.685  12.346  1.00  0.00     0.035 C 
ENDBRANCH   7   8
ENDBRANCH   1   7
BRANCH   2  10
ATOM     10  O   UNL     1       4.834  -0.695  15.471  1.00  0.00    -0.385 OA
ATOM     11  H   UNL     1       4.557  -1.397  16.116  1.00  0.00     0.211 HD
ENDBRANCH   2  10
BRANCH   3  12
ATOM     12  O   UNL     1       4.382  -0.442  18.298  1.00  0.00    -0.387 OA
ATOM     13  H   UNL     1       4.294  -1.328  17.859  1.00  0.00     0.211 HD
ENDBRANCH   3  12
BRANCH   5  14
ATOM     14  C   UNL     1       3.472   4.372  17.543  1.00  0.00     0.191 C 
BRANCH  14  15
ATOM     15  O   UNL     1       4.763   4.838  17.828  1.00  0.00    -0.394 OA
ATOM     16  H   UNL     1       4.774   5.805  17.603  1.00  0.00     0.210 HD
ENDBRANCH  14  15
ENDBRANCH   5  14
BRANCH   4  17
ATOM     17  O   UNL     1       5.125   2.191  18.612  1.00  0.00    -0.387 OA
ATOM     18  H   UNL     1       5.822   1.822  18.008  1.00  0.00     0.211 HD
ENDBRANCH   4  17
TORSDOF 7
ENDMDL
MODEL 8
REMARK VINA RESULT:    -4.041      8.423     10.080
REMARK INTER + INTRA:          -5.688
REMARK INTER:                  -5.323
REMARK INTRA:                  -0.365
REMARK UNBOUND:                -0.466
REMARK SMILES CCO[C@H]1O[C@H](CO)[C@H](O)[C@H](O)[C@H]1O
REMARK SMILES IDX 4 1 13 2 11 3 9 4 6 5 5 6 3 7 2 8 1 9 14 10 12 12 7 14 8 15
REMARK SMILES IDX 10 17
REMARK H PARENT 14 11 12 13 8 16 10 18
REMARK Flexibility Score: inf
ROOT
ATOM      1  C   UNL     1       3.599   2.296  16.158  1.00  0.00     0.281 C 
ATOM      2  C   UNL     1       3.949   3.190  14.948  1.00  0.00     0.202 C 
ATOM      3  C   UNL     1       4.958   4.285  15.347  1.00  0.00     0.179 C 
ATOM      4  C   UNL     1       4.456   5.028  16.598  1.00  0.00     0.177 C 
ATOM      5  C   UNL     1       4.117   3.995  17.697  1.00  0.00     0.178 C 
ATOM      6  O   UNL     1       3.126   3.083  17.246  1.00  0.00    -0.341 OA
ENDROOT
BRANCH   1   7
ATOM      7  O   UNL     1       4.719   1.510  16.537  1.00  0.00    -0.350 OA
BRANCH   7   8
ATOM      8  C   UNL     1       4.358   0.147  16.613  1.00  0.00     0.160 C 
ATOM      9  C   UNL     1       5.109  -0.503  17.764  1.00  0.00     0.035 C 
ENDBRANCH   7   8
ENDBRANCH   1   7
BRANCH   2  10
ATOM     10  O   UNL     1       4.424   2.424  13.869  1.00  0.00    -0.385 OA
ATOM     11  H   UNL     1       4.908   3.032  13.251  1.00  0.00     0.211 HD
ENDBRANCH   2  10
BRANCH   3  12
ATOM     12  O   UNL     1       5.125   5.181  14.279  1.00  0.00    -0.387 OA
ATOM     13  H   UNL     1       4.834   6.072  14.605  1.00  0.00     0.211 HD
ENDBRANCH   3  12
BRANCH   5  14
ATOM     14  C   UNL     1       3.614   4.684  18.974  1.00  0.00     0.191 C 
BRANCH  14  15
ATOM     15  O   UNL     1       2.346   5.242  18.760  1.00  0.00    -0.394 OA
ATOM     16  H   UNL     1       1.688   4.619  19.166  1.00  0.00     0.210 HD
ENDBRANCH  14  15
ENDBRANCH   5  14
BRANCH   4  17
ATOM     17  O   UNL     1       3.318   5.786  16.267  1.00  0.00    -0.387 OA
ATOM     18  H   UNL     1       3.632   6.580  15.760  1.00  0.00     0.211 HD
ENDBRANCH   4  17
TORSDOF 7
ENDMDL
MODEL 9
REMARK VINA RESULT:    -3.992      7.506      9.814
REMARK INTER + INTRA:          -5.625
REMARK INTER:                  -5.227
REMARK INTRA:                  -0.398
REMARK UNBOUND:                -0.466
REMARK SMILES CCO[C@H]1O[C@H](CO)[C@H](O)[C@H](O)[C@H]1O
REMARK SMILES IDX 4 1 13 2 11 3 9 4 6 5 5 6 3 7 2 8 1 9 14 10 12 12 7 14 8 15
REMARK SMILES IDX 10 17
REMARK H PARENT 14 11 12 13 8 16 10 18
REMARK Flexibility Score: inf
ROOT
ATOM      1  C   UNL     1       2.282   2.044  16.702  1.00  0.00     0.281 C 
ATOM      2  C   UNL     1       2.978   3.366  17.095  1.00  0.00     0.202 C 
ATOM      3  C   UNL     1       4.481   3.318  16.759  1.00  0.00     0.179 C 
ATOM      4  C   UNL     1       5.107   2.040  17.344  1.00  0.00     0.177 C 
ATOM      5  C   UNL     1       4.278   0.817  16.889  1.00  0.00     0.178 C 
ATOM      6  O   UNL     1       2.929   0.934  17.315  1.00  0.00    -0.341 OA
ENDROOT
BRANCH   1   7
ATOM      7  O   UNL     1       2.242   1.904  15.289  1.00  0.00    -0.350 OA
BRANCH   7   8
ATOM      8  C   UNL     1       1.009   1.344  14.888  1.00  0.00     0.160 C 
ATOM      9  C   UNL     1       1.171   0.723  13.510  1.00  0.00     0.035 C 
ENDBRANCH   7   8
ENDBRANCH   1   7
BRANCH   2  10
ATOM     10  O   UNL     1       2.352   4.470  16.490  1.00  0.00    -0.385 OA
ATOM     11  H   UNL     1       1.370   4.335  16.547  1.00  0.00     0.211 HD
ENDBRANCH   2  10
BRANCH   3  12
ATOM     12  O   UNL     1       5.115   4.457  17.280  1.00  0.00    -0.387 OA
ATOM     13  H   UNL     1       5.365   4.242  18.217  1.00  0.00     0.211 HD
ENDBRANCH   3  12
BRANCH   5  14
ATOM     14  C   UNL     1       4.863  -0.491  17.442  1.00  0.00     0.191 C 
BRANCH  14  15
ATOM     15  O   UNL     1       4.369  -0.740  18.730  1.00  0.00    -0.394 OA
ATOM     16  H   UNL     1       4.478   0.102  19.245  1.00  0.00     0.210 HD
ENDBRANCH  14  15
ENDBRANCH   5  14
BRANCH   4  17
ATOM     17  O   UNL     1       5.125   2.127  18.749  1.00  0.00    -0.387 OA
ATOM     18  H   UNL     1       6.075   2.213  19.025  1.00  0.00     0.211 HD
ENDBRANCH   4  17
TORSDOF 7
ENDMDL
