MODEL 1
REMARK VINA RESULT:    -5.312      0.000      0.000
REMARK INTER + INTRA:          -8.398
REMARK INTER:                  -7.641
REMARK INTRA:                  -0.758
REMARK UNBOUND:                -0.758
REMARK SMILES O=C(CO)[C@@H](O)[C@@H](O)[C@@H](O)CO
REMARK SMILES IDX 7 1 9 2 11 3 12 4 10 6 5 8 2 9 1 10 3 11 4 12 6 14 8 16
REMARK H PARENT 12 5 10 7 4 13 6 15 8 17
REMARK Flexibility Score: inf
ROOT
ATOM      1  C   UNL     1       5.135 -14.400  10.486  1.00  0.00     0.181 C 
ENDROOT
BRANCH   1   2
ATOM      2  C   UNL     1       5.014 -14.334  12.034  1.00  0.00     0.171 C 
BRANCH   2   3
ATOM      3  C   UNL     1       3.750 -13.563  12.466  1.00  0.00     0.190 C 
BRANCH   3   4
ATOM      4  O   UNL     1       3.675 -12.332  11.800  1.00  0.00    -0.394 OA
ATOM      5  H   UNL     1       3.194 -11.710  12.406  1.00  0.00     0.210 HD
ENDBRANCH   3   4
ENDBRANCH   2   3
BRANCH   2   6
ATOM      6  O   UNL     1       6.152 -13.750  12.616  1.00  0.00    -0.388 OA
ATOM      7  H   UNL     1       6.920 -14.355  12.440  1.00  0.00     0.211 HD
ENDBRANCH   2   6
ENDBRANCH   1   2
BRANCH   1   8
ATOM      8  C   UNL     1       6.318 -13.579   9.898  1.00  0.00     0.214 C 
BRANCH   8   9
ATOM      9  C   UNL     1       6.809 -14.102   8.558  1.00  0.00     0.189 C 
ATOM     10  O   UNL     1       6.062 -14.036   7.592  1.00  0.00    -0.294 OA
BRANCH   9  11
ATOM     11  C   UNL     1       8.179 -14.710   8.396  1.00  0.00     0.234 C 
BRANCH  11  12
ATOM     12  O   UNL     1       8.200 -15.601   7.314  1.00  0.00    -0.388 OA
ATOM     13  H   UNL     1       9.035 -15.409   6.815  1.00  0.00     0.211 HD
ENDBRANCH  11  12
ENDBRANCH   9  11
ENDBRANCH   8   9
BRANCH   8  14
ATOM     14  O   UNL     1       6.031 -12.201   9.868  1.00  0.00    -0.382 OA
ATOM     15  H   UNL     1       6.607 -11.778   9.182  1.00  0.00     0.211 HD
ENDBRANCH   8  14
ENDBRANCH   1   8
BRANCH   1  16
ATOM     16  O   UNL     1       5.283 -15.744  10.101  1.00  0.00    -0.387 OA
ATOM     17  H   UNL     1       5.112 -15.788   9.124  1.00  0.00     0.211 HD
ENDBRANCH   1  16
TORSDOF 10
ENDMDL
MODEL 2
REMARK VINA RESULT:    -5.236      8.181     10.200
REMARK INTER + INTRA:          -8.289
REMARK INTER:                  -7.558
REMARK INTRA:                  -0.731
REMARK UNBOUND:                -0.758
REMARK SMILES O=C(CO)[C@@H](O)[C@@H](O)[C@@H](O)CO
REMARK SMILES IDX 7 1 9 2 11 3 12 4 10 6 5 8 2 9 1 10 3 11 4 12 6 14 8 16
REMARK H PARENT 12 5 10 7 4 13 6 15 8 17
REMARK Flexibility Score: inf
ROOT
ATOM      1  C   UNL     1       8.543 -10.509  17.210  1.00  0.00     0.181 C 
ENDROOT
BRANCH   1   2
ATOM      2  C   UNL     1       9.452  -9.836  16.144  1.00  0.00     0.171 C 
BRANCH   2   3
ATOM      3  C   UNL     1      10.724 -10.667  15.884  1.00  0.00     0.190 C 
BRANCH   3   4
ATOM      4  O   UNL     1      11.275 -11.112  17.093  1.00  0.00    -0.394 OA
ATOM      5  H   UNL     1      10.617 -11.739  17.492  1.00  0.00     0.210 HD
ENDBRANCH   3   4
ENDBRANCH   2   3
BRANCH   2   6
ATOM      6  O   UNL     1       9.803  -8.528  16.518  1.00  0.00    -0.388 OA
ATOM      7  H   UNL     1      10.348  -8.590  17.346  1.00  0.00     0.211 HD
ENDBRANCH   2   6
ENDBRANCH   1   2
BRANCH   1   8
ATOM      8  C   UNL     1       8.474  -9.753  18.567  1.00  0.00     0.214 C 
BRANCH   8   9
ATOM      9  C   UNL     1       7.413 -10.297  19.508  1.00  0.00     0.189 C 
ATOM     10  O   UNL     1       6.410  -9.628  19.714  1.00  0.00    -0.294 OA
BRANCH   9  11
ATOM     11  C   UNL     1       7.571 -11.627  20.201  1.00  0.00     0.234 C 
BRANCH  11  12
ATOM     12  O   UNL     1       6.339 -12.289  20.286  1.00  0.00    -0.388 OA
ATOM     13  H   UNL     1       6.434 -13.120  19.753  1.00  0.00     0.211 HD
ENDBRANCH  11  12
ENDBRANCH   9  11
ENDBRANCH   8   9
BRANCH   8  14
ATOM     14  O   UNL     1       9.740  -9.658  19.175  1.00  0.00    -0.382 OA
ATOM     15  H   UNL     1      10.393  -9.365  18.491  1.00  0.00     0.211 HD
ENDBRANCH   8  14
ENDBRANCH   1   8
BRANCH   1  16
ATOM     16  O   UNL     1       7.243 -10.623  16.689  1.00  0.00    -0.387 OA
ATOM     17  H   UNL     1       7.309 -11.148  15.850  1.00  0.00     0.211 HD
ENDBRANCH   1  16
TORSDOF 10
ENDMDL
MODEL 3
REMARK VINA RESULT:    -5.230      1.379      2.017
REMARK INTER + INTRA:          -8.281
REMARK INTER:                  -7.695
REMARK INTRA:                  -0.586
REMARK UNBOUND:                -0.758
REMARK SMILES O=C(CO)[C@@H](O)[C@@H](O)[C@@H](O)CO
REMARK SMILES IDX 7 1 9 2 11 3 12 4 10 6 5 8 2 9 1 10 3 11 4 12 6 14 8 16
REMARK H PARENT 12 5 10 7 4 13 6 15 8 17
REMARK Flexibility Score: inf
ROOT
ATOM      1  C   UNL     1       4.105 -14.683  10.642  1.00  0.00     0.181 C 
ENDROOT
BRANCH   1   2
ATOM      2  C   UNL     1       3.834 -13.863  11.934  1.00  0.00     0.171 C 
BRANCH   2   3
ATOM      3  C   UNL     1       2.475 -14.235  12.561  1.00  0.00     0.190 C 
BRANCH   3   4
ATOM      4  O   UNL     1       1.422 -13.743  11.778  1.00  0.00    -0.394 OA
ATOM      5  H   UNL     1       1.412 -12.758  11.903  1.00  0.00     0.210 HD
ENDBRANCH   3   4
ENDBRANCH   2   3
BRANCH   2   6
ATOM      6  O   UNL     1       3.885 -12.481  11.688  1.00  0.00    -0.388 OA
ATOM      7  H   UNL     1       3.430 -12.026  12.445  1.00  0.00     0.211 HD
ENDBRANCH   2   6
ENDBRANCH   1   2
BRANCH   1   8
ATOM      8  C   UNL     1       5.590 -15.096  10.441  1.00  0.00     0.214 C 
BRANCH   8   9
ATOM      9  C   UNL     1       6.360 -14.157   9.527  1.00  0.00     0.189 C 
ATOM     10  O   UNL     1       6.125 -12.958   9.584  1.00  0.00    -0.294 OA
BRANCH   9  11
ATOM     11  C   UNL     1       7.388 -14.666   8.549  1.00  0.00     0.234 C 
BRANCH  11  12
ATOM     12  O   UNL     1       6.919 -15.808   7.887  1.00  0.00    -0.388 OA
ATOM     13  H   UNL     1       6.425 -15.482   7.091  1.00  0.00     0.211 HD
ENDBRANCH  11  12
ENDBRANCH   9  11
ENDBRANCH   8   9
BRANCH   8  14
ATOM     14  O   UNL     1       6.242 -15.309  11.671  1.00  0.00    -0.382 OA
ATOM     15  H   UNL     1       5.700 -15.945  12.204  1.00  0.00     0.211 HD
ENDBRANCH   8  14
ENDBRANCH   1   8
BRANCH   1  16
ATOM     16  O   UNL     1       3.312 -15.844  10.668  1.00  0.00    -0.387 OA
ATOM     17  H   UNL     1       2.396 -15.566  10.928  1.00  0.00     0.211 HD
ENDBRANCH   1  16
TORSDOF 10
ENDMDL
MODEL 4
REMARK VINA RESULT:    -5.207      1.736      3.317
REMARK INTER + INTRA:          -8.247
REMARK INTER:                  -7.330
REMARK INTRA:                  -0.917
REMARK UNBOUND:                -0.758
REMARK SMILES O=C(CO)[C@@H](O)[C@@H](O)[C@@H](O)CO
REMARK SMILES IDX 7 1 9 2 11 3 12 4 10 6 5 8 2 9 1 10 3 11 4 12 6 14 8 16
REMARK H PARENT 12 5 10 7 4 13 6 15 8 17
REMARK Flexibility Score: inf
ROOT
ATOM      1  C   UNL     1       3.995 -13.329  12.709  1.00  0.00     0.181 C 
ENDROOT
BRANCH   1   2
ATOM      2  C   UNL     1       2.562 -13.603  13.245  1.00  0.00     0.171 C 
BRANCH   2   3
ATOM      3  C   UNL     1       1.813 -14.613  12.355  1.00  0.00     0.190 C 
BRANCH   3   4
ATOM      4  O   UNL     1       1.396 -14.003  11.164  1.00  0.00    -0.394 OA
ATOM      5  H   UNL     1       0.940 -13.160  11.421  1.00  0.00     0.210 HD
ENDBRANCH   3   4
ENDBRANCH   2   3
BRANCH   2   6
ATOM      6  O   UNL     1       1.817 -12.416  13.353  1.00  0.00    -0.388 OA
ATOM      7  H   UNL     1       1.234 -12.501  14.153  1.00  0.00     0.211 HD
ENDBRANCH   2   6
ENDBRANCH   1   2
BRANCH   1   8
ATOM      8  C   UNL     1       4.732 -14.589  12.171  1.00  0.00     0.214 C 
BRANCH   8   9
ATOM      9  C   UNL     1       4.960 -14.558  10.669  1.00  0.00     0.189 C 
ATOM     10  O   UNL     1       4.048 -14.901   9.929  1.00  0.00    -0.294 OA
BRANCH   9  11
ATOM     11  C   UNL     1       6.278 -14.133  10.073  1.00  0.00     0.234 C 
BRANCH  11  12
ATOM     12  O   UNL     1       6.184 -12.843   9.535  1.00  0.00    -0.388 OA
ATOM     13  H   UNL     1       6.928 -12.322   9.934  1.00  0.00     0.211 HD
ENDBRANCH  11  12
ENDBRANCH   9  11
ENDBRANCH   8   9
BRANCH   8  14
ATOM     14  O   UNL     1       5.912 -14.849  12.893  1.00  0.00    -0.382 OA
ATOM     15  H   UNL     1       6.684 -14.716  12.286  1.00  0.00     0.211 HD
ENDBRANCH   8  14
ENDBRANCH   1   8
BRANCH   1  16
ATOM     16  O   UNL     1       3.918 -12.376  11.679  1.00  0.00    -0.387 OA
ATOM     17  H   UNL     1       3.311 -12.743  10.986  1.00  0.00     0.211 HD
ENDBRANCH   1  16
TORSDOF 10
ENDMDL
MODEL 5
REMARK VINA RESULT:    -5.120      1.280      4.837
REMARK INTER + INTRA:          -8.123
REMARK INTER:                  -7.361
REMARK INTRA:                  -0.762
REMARK UNBOUND:                -0.758
REMARK SMILES O=C(CO)[C@@H](O)[C@@H](O)[C@@H](O)CO
REMARK SMILES IDX 7 1 9 2 11 3 12 4 10 6 5 8 2 9 1 10 3 11 4 12 6 14 8 16
REMARK H PARENT 12 5 10 7 4 13 6 15 8 17
REMARK Flexibility Score: inf
ROOT
ATOM      1  C   UNL     1       6.563 -14.055   8.915  1.00  0.00     0.181 C 
ENDROOT
BRANCH   1   2
ATOM      2  C   UNL     1       7.358 -15.053   8.029  1.00  0.00     0.171 C 
BRANCH   2   3
ATOM      3  C   UNL     1       8.836 -14.634   7.897  1.00  0.00     0.190 C 
BRANCH   3   4
ATOM      4  O   UNL     1       8.989 -13.696   6.867  1.00  0.00    -0.394 OA
ATOM      5  H   UNL     1       8.839 -14.182   6.014  1.00  0.00     0.210 HD
ENDBRANCH   3   4
ENDBRANCH   2   3
BRANCH   2   6
ATOM      6  O   UNL     1       6.781 -15.182   6.754  1.00  0.00    -0.388 OA
ATOM      7  H   UNL     1       6.974 -16.101   6.430  1.00  0.00     0.211 HD
ENDBRANCH   2   6
ENDBRANCH   1   2
BRANCH   1   8
ATOM      8  C   UNL     1       6.121 -14.627  10.292  1.00  0.00     0.214 C 
BRANCH   8   9
ATOM      9  C   UNL     1       5.553 -13.575  11.229  1.00  0.00     0.189 C 
ATOM     10  O   UNL     1       5.090 -12.549  10.750  1.00  0.00    -0.294 OA
BRANCH   9  11
ATOM     11  C   UNL     1       5.559 -13.756  12.726  1.00  0.00     0.234 C 
BRANCH  11  12
ATOM     12  O   UNL     1       5.893 -15.075  13.062  1.00  0.00    -0.388 OA
ATOM     13  H   UNL     1       6.822 -15.044  13.408  1.00  0.00     0.211 HD
ENDBRANCH  11  12
ENDBRANCH   9  11
ENDBRANCH   8   9
BRANCH   8  14
ATOM     14  O   UNL     1       5.269 -15.738  10.144  1.00  0.00    -0.382 OA
ATOM     15  H   UNL     1       5.629 -16.482  10.690  1.00  0.00     0.211 HD
ENDBRANCH   8  14
ENDBRANCH   1   8
BRANCH   1  16
ATOM     16  O   UNL     1       7.356 -12.914   9.134  1.00  0.00    -0.387 OA
ATOM     17  H   UNL     1       7.916 -12.788   8.324  1.00  0.00     0.211 HD
ENDBRANCH   1  16
TORSDOF 10
ENDMDL
MODEL 6
REMARK VINA RESULT:    -5.105      1.328      4.824
REMARK INTER + INTRA:          -8.101
REMARK INTER:                  -7.390
REMARK INTRA:                  -0.711
REMARK UNBOUND:                -0.758
REMARK SMILES O=C(CO)[C@@H](O)[C@@H](O)[C@@H](O)CO
REMARK SMILES IDX 7 1 9 2 11 3 12 4 10 6 5 8 2 9 1 10 3 11 4 12 6 14 8 16
REMARK H PARENT 12 5 10 7 4 13 6 15 8 17
REMARK Flexibility Score: inf
ROOT
ATOM      1  C   UNL     1       5.758 -14.532  10.971  1.00  0.00     0.181 C 
ENDROOT
BRANCH   1   2
ATOM      2  C   UNL     1       6.030 -14.051   9.519  1.00  0.00     0.171 C 
BRANCH   2   3
ATOM      3  C   UNL     1       7.259 -14.758   8.914  1.00  0.00     0.190 C 
BRANCH   3   4
ATOM      4  O   UNL     1       6.858 -15.797   8.063  1.00  0.00    -0.394 OA
ATOM      5  H   UNL     1       7.686 -16.252   7.759  1.00  0.00     0.210 HD
ENDBRANCH   3   4
ENDBRANCH   2   3
BRANCH   2   6
ATOM      6  O   UNL     1       6.204 -12.657   9.461  1.00  0.00    -0.388 OA
ATOM      7  H   UNL     1       5.596 -12.309   8.757  1.00  0.00     0.211 HD
ENDBRANCH   2   6
ENDBRANCH   1   2
BRANCH   1   8
ATOM      8  C   UNL     1       4.255 -14.555  11.370  1.00  0.00     0.214 C 
BRANCH   8   9
ATOM      9  C   UNL     1       3.776 -13.256  11.995  1.00  0.00     0.189 C 
ATOM     10  O   UNL     1       4.374 -12.221  11.731  1.00  0.00    -0.294 OA
BRANCH   9  11
ATOM     11  C   UNL     1       2.599 -13.212  12.936  1.00  0.00     0.234 C 
BRANCH  11  12
ATOM     12  O   UNL     1       1.423 -13.588  12.273  1.00  0.00    -0.388 OA
ATOM     13  H   UNL     1       1.669 -14.344  11.680  1.00  0.00     0.211 HD
ENDBRANCH  11  12
ENDBRANCH   9  11
ENDBRANCH   8   9
BRANCH   8  14
ATOM     14  O   UNL     1       3.440 -14.976  10.302  1.00  0.00    -0.382 OA
ATOM     15  H   UNL     1       2.493 -14.860  10.569  1.00  0.00     0.211 HD
ENDBRANCH   8  14
ENDBRANCH   1   8
BRANCH   1  16
ATOM     16  O   UNL     1       6.287 -15.825  11.126  1.00  0.00    -0.387 OA
ATOM     17  H   UNL     1       6.926 -15.790  11.884  1.00  0.00     0.211 HD
ENDBRANCH   1  16
TORSDOF 10
ENDMDL
MODEL 7
REMARK VINA RESULT:    -5.094      8.386      9.379
REMARK INTER + INTRA:          -8.085
REMARK INTER:                  -7.305
REMARK INTRA:                  -0.780
REMARK UNBOUND:                -0.758
REMARK SMILES O=C(CO)[C@@H](O)[C@@H](O)[C@@H](O)CO
REMARK SMILES IDX 7 1 9 2 11 3 12 4 10 6 5 8 2 9 1 10 3 11 4 12 6 14 8 16
REMARK H PARENT 12 5 10 7 4 13 6 15 8 17
REMARK Flexibility Score: inf
ROOT
ATOM      1  C   UNL     1       8.062 -10.613  18.287  1.00  0.00     0.181 C 
ENDROOT
BRANCH   1   2
ATOM      2  C   UNL     1       7.551 -10.406  19.739  1.00  0.00     0.171 C 
BRANCH   2   3
ATOM      3  C   UNL     1       7.561 -11.728  20.532  1.00  0.00     0.190 C 
BRANCH   3   4
ATOM      4  O   UNL     1       6.375 -12.442  20.311  1.00  0.00    -0.394 OA
ATOM      5  H   UNL     1       6.316 -12.599  19.333  1.00  0.00     0.210 HD
ENDBRANCH   3   4
ENDBRANCH   2   3
BRANCH   2   6
ATOM      6  O   UNL     1       6.261  -9.847  19.757  1.00  0.00    -0.388 OA
ATOM      7  H   UNL     1       6.128  -9.431  20.649  1.00  0.00     0.211 HD
ENDBRANCH   2   6
ENDBRANCH   1   2
BRANCH   1   8
ATOM      8  C   UNL     1       9.218  -9.660  17.870  1.00  0.00     0.214 C 
BRANCH   8   9
ATOM      9  C   UNL     1       9.972 -10.129  16.636  1.00  0.00     0.189 C 
ATOM     10  O   UNL     1      10.926 -10.881  16.781  1.00  0.00    -0.294 OA
BRANCH   9  11
ATOM     11  C   UNL     1       9.584  -9.683  15.250  1.00  0.00     0.234 C 
BRANCH  11  12
ATOM     12  O   UNL     1       9.719  -8.294  15.122  1.00  0.00    -0.388 OA
ATOM     13  H   UNL     1       9.249  -8.047  14.284  1.00  0.00     0.211 HD
ENDBRANCH  11  12
ENDBRANCH   9  11
ENDBRANCH   8   9
BRANCH   8  14
ATOM     14  O   UNL     1       8.780  -8.326  17.762  1.00  0.00    -0.382 OA
ATOM     15  H   UNL     1       8.061  -8.180  18.427  1.00  0.00     0.211 HD
ENDBRANCH   8  14
ENDBRANCH   1   8
BRANCH   1  16
ATOM     16  O   UNL     1       8.498 -11.942  18.146  1.00  0.00    -0.387 OA
ATOM     17  H   UNL     1       9.447 -11.970  18.436  1.00  0.00     0.211 HD
ENDBRANCH   1  16
TORSDOF 10
ENDMDL
MODEL 8
REMARK VINA RESULT:    -5.040      2.025      3.088
REMARK INTER + INTRA:          -8.007
REMARK INTER:                  -7.452
REMARK INTRA:                  -0.555
REMARK UNBOUND:                -0.758
REMARK SMILES O=C(CO)[C@@H](O)[C@@H](O)[C@@H](O)CO
REMARK SMILES IDX 7 1 9 2 11 3 12 4 10 6 5 8 2 9 1 10 3 11 4 12 6 14 8 16
REMARK H PARENT 12 5 10 7 4 13 6 15 8 17
REMARK Flexibility Score: inf
ROOT
ATOM      1  C   UNL     1       4.213 -15.404  11.243  1.00  0.00     0.181 C 
ENDROOT
BRANCH   1   2
ATOM      2  C   UNL     1       2.768 -15.228  11.788  1.00  0.00     0.171 C 
BRANCH   2   3
ATOM      3  C   UNL     1       1.854 -16.386  11.340  1.00  0.00     0.190 C 
BRANCH   3   4
ATOM      4  O   UNL     1       2.217 -17.576  11.985  1.00  0.00    -0.394 OA
ATOM      5  H   UNL     1       2.645 -17.315  12.842  1.00  0.00     0.210 HD
ENDBRANCH   3   4
ENDBRANCH   2   3
BRANCH   2   6
ATOM      6  O   UNL     1       2.214 -13.999  11.391  1.00  0.00    -0.388 OA
ATOM      7  H   UNL     1       2.554 -13.799  10.479  1.00  0.00     0.211 HD
ENDBRANCH   2   6
ENDBRANCH   1   2
BRANCH   1   8
ATOM      8  C   UNL     1       5.192 -14.261  11.635  1.00  0.00     0.214 C 
BRANCH   8   9
ATOM      9  C   UNL     1       5.771 -13.525  10.438  1.00  0.00     0.189 C 
ATOM     10  O   UNL     1       5.573 -12.323  10.335  1.00  0.00    -0.294 OA
BRANCH   9  11
ATOM     11  C   UNL     1       6.565 -14.239   9.374  1.00  0.00     0.234 C 
BRANCH  11  12
ATOM     12  O   UNL     1       6.077 -13.926   8.099  1.00  0.00    -0.388 OA
ATOM     13  H   UNL     1       5.396 -13.217   8.230  1.00  0.00     0.211 HD
ENDBRANCH  11  12
ENDBRANCH   9  11
ENDBRANCH   8   9
BRANCH   8  14
ATOM     14  O   UNL     1       4.623 -13.390  12.582  1.00  0.00    -0.382 OA
ATOM     15  H   UNL     1       5.073 -12.511  12.507  1.00  0.00     0.211 HD
ENDBRANCH   8  14
ENDBRANCH   1   8
BRANCH   1  16
ATOM     16  O   UNL     1       4.729 -16.623  11.716  1.00  0.00    -0.387 OA
ATOM     17  H   UNL     1       3.977 -17.271  11.735  1.00  0.00     0.211 HD
ENDBRANCH   1  16
TORSDOF 10
ENDMDL
MODEL 9
REMARK VINA RESULT:    -5.023      1.537      4.484
REMARK INTER + INTRA:          -7.984
REMARK INTER:                  -7.091
REMARK INTRA:                  -0.892
REMARK UNBOUND:                -0.758
REMARK SMILES O=C(CO)[C@@H](O)[C@@H](O)[C@@H](O)CO
REMARK SMILES IDX 7 1 9 2 11 3 12 4 10 6 5 8 2 9 1 10 3 11 4 12 6 14 8 16
REMARK H PARENT 12 5 10 7 4 13 6 15 8 17
REMARK Flexibility Score: inf
ROOT
ATOM      1  C   UNL     1       5.481 -14.133  11.779  1.00  0.00     0.181 C 
ENDROOT
BRANCH   1   2
ATOM      2  C   UNL     1       6.207 -14.706  10.530  1.00  0.00     0.171 C 
BRANCH   2   3
ATOM      3  C   UNL     1       6.521 -13.599   9.505  1.00  0.00     0.190 C 
BRANCH   3   4
ATOM      4  O   UNL     1       6.191 -14.022   8.210  1.00  0.00    -0.394 OA
ATOM      5  H   UNL     1       5.663 -13.289   7.798  1.00  0.00     0.210 HD
ENDBRANCH   3   4
ENDBRANCH   2   3
BRANCH   2   6
ATOM      6  O   UNL     1       5.456 -15.725   9.920  1.00  0.00    -0.388 OA
ATOM      7  H   UNL     1       5.282 -15.447   8.983  1.00  0.00     0.211 HD
ENDBRANCH   2   6
ENDBRANCH   1   2
BRANCH   1   8
ATOM      8  C   UNL     1       4.052 -13.588  11.498  1.00  0.00     0.214 C 
BRANCH   8   9
ATOM      9  C   UNL     1       2.956 -14.389  12.181  1.00  0.00     0.189 C 
ATOM     10  O   UNL     1       2.615 -14.074  13.313  1.00  0.00    -0.294 OA
BRANCH   9  11
ATOM     11  C   UNL     1       2.293 -15.564  11.508  1.00  0.00     0.234 C 
BRANCH  11  12
ATOM     12  O   UNL     1       3.131 -16.687  11.536  1.00  0.00    -0.388 OA
ATOM     13  H   UNL     1       2.668 -17.364  12.094  1.00  0.00     0.211 HD
ENDBRANCH  11  12
ENDBRANCH   9  11
ENDBRANCH   8   9
BRANCH   8  14
ATOM     14  O   UNL     1       3.959 -12.209  11.764  1.00  0.00    -0.382 OA
ATOM     15  H   UNL     1       4.867 -11.869  11.966  1.00  0.00     0.211 HD
ENDBRANCH   8  14
ENDBRANCH   1   8
BRANCH   1  16
ATOM     16  O   UNL     1       5.397 -15.140  12.756  1.00  0.00    -0.387 OA
ATOM     17  H   UNL     1       5.073 -14.711  13.590  1.00  0.00     0.211 HD
ENDBRANCH   1  16
TORSDOF 10
ENDMDL
