MODEL 1
REMARK VINA RESULT:    -5.791      0.000      0.000
REMARK INTER + INTRA:          -8.353
REMARK INTER:                  -7.315
REMARK INTRA:                  -1.039
REMARK UNBOUND:                -1.039
REMARK SMILES O=C(C=Cc1ccc(O)cc1)c1ccc(O)cc1O
REMARK SMILES IDX 4 1 3 2 5 3 6 4 7 5 8 6 11 7 10 8 9 9 2 11 1 12 12 13 18 14
REMARK SMILES IDX 13 15 17 16 14 17 15 18 19 19 16 21
REMARK H PARENT 9 10 19 20 16 22
REMARK Flexibility Score: inf
ROOT
ATOM      1  C   UNL     1      -2.412  -8.353 -40.910  1.00  0.00     0.012 C 
ATOM      2  C   UNL     1      -2.477  -9.024 -42.071  1.00  0.00     0.053 C 
ENDROOT
BRANCH   1   3
ATOM      3  C   UNL     1      -1.835  -8.874 -39.653  1.00  0.00    -0.025 A 
ATOM      4  C   UNL     1      -2.297 -10.073 -39.085  1.00  0.00     0.012 A 
ATOM      5  C   UNL     1      -1.770 -10.526 -37.871  1.00  0.00     0.047 A 
ATOM      6  C   UNL     1      -0.794  -9.773 -37.203  1.00  0.00     0.115 A 
ATOM      7  C   UNL     1      -0.881  -8.110 -38.966  1.00  0.00     0.012 A 
ATOM      8  C   UNL     1      -0.355  -8.564 -37.752  1.00  0.00     0.047 A 
BRANCH   6   9
ATOM      9  O   UNL     1      -0.262 -10.215 -35.994  1.00  0.00    -0.508 OA
ATOM     10  H   UNL     1      -0.800 -10.789 -35.356  1.00  0.00     0.293 HD
ENDBRANCH   6   9
ENDBRANCH   1   3
BRANCH   2  11
ATOM     11  C   UNL     1      -1.823 -10.324 -42.350  1.00  0.00     0.189 C 
ATOM     12  O   UNL     1      -2.512 -11.336 -42.652  1.00  0.00    -0.289 OA
BRANCH  11  13
ATOM     13  C   UNL     1      -0.360 -10.472 -42.200  1.00  0.00     0.064 A 
ATOM     14  C   UNL     1       0.206 -11.550 -41.475  1.00  0.00     0.130 A 
ATOM     15  C   UNL     1       0.493  -9.501 -42.755  1.00  0.00     0.020 A 
ATOM     16  C   UNL     1       1.594 -11.620 -41.306  1.00  0.00     0.093 A 
ATOM     17  C   UNL     1       1.876  -9.590 -42.587  1.00  0.00     0.047 A 
ATOM     18  C   UNL     1       2.430 -10.645 -41.861  1.00  0.00     0.119 A 
BRANCH  14  19
ATOM     19  O   UNL     1      -0.574 -12.574 -40.934  1.00  0.00    -0.507 OA
ATOM     20  H   UNL     1      -0.961 -12.541 -40.000  1.00  0.00     0.293 HD
ENDBRANCH  14  19
BRANCH  18  21
ATOM     21  O   UNL     1       3.812 -10.716 -41.697  1.00  0.00    -0.508 OA
ATOM     22  H   UNL     1       4.406 -11.157 -42.391  1.00  0.00     0.293 HD
ENDBRANCH  18  21
ENDBRANCH  11  13
ENDBRANCH   2  11
TORSDOF 6
ENDMDL
MODEL 2
REMARK VINA RESULT:    -5.427      1.320      4.510
REMARK INTER + INTRA:          -7.893
REMARK INTER:                  -7.005
REMARK INTRA:                  -0.888
REMARK UNBOUND:                -1.039
REMARK SMILES O=C(C=Cc1ccc(O)cc1)c1ccc(O)cc1O
REMARK SMILES IDX 4 1 3 2 5 3 6 4 7 5 8 6 11 7 10 8 9 9 2 11 1 12 12 13 18 14
REMARK SMILES IDX 13 15 17 16 14 17 15 18 19 19 16 21
REMARK H PARENT 9 10 19 20 16 22
REMARK Flexibility Score: inf
ROOT
ATOM      1  C   UNL     1      -1.301  -9.081 -42.693  1.00  0.00     0.012 C 
ATOM      2  C   UNL     1      -2.344  -8.813 -41.890  1.00  0.00     0.053 C 
ENDROOT
BRANCH   1   3
ATOM      3  C   UNL     1      -0.150  -9.937 -42.341  1.00  0.00    -0.025 A 
ATOM      4  C   UNL     1      -0.335 -11.255 -41.890  1.00  0.00     0.012 A 
ATOM      5  C   UNL     1       0.765 -12.034 -41.519  1.00  0.00     0.047 A 
ATOM      6  C   UNL     1       2.058 -11.495 -41.571  1.00  0.00     0.115 A 
ATOM      7  C   UNL     1       1.143  -9.394 -42.364  1.00  0.00     0.012 A 
ATOM      8  C   UNL     1       2.243 -10.173 -41.990  1.00  0.00     0.047 A 
BRANCH   6   9
ATOM      9  O   UNL     1       3.162 -12.261 -41.204  1.00  0.00    -0.508 OA
ATOM     10  H   UNL     1       3.558 -12.953 -41.829  1.00  0.00     0.293 HD
ENDBRANCH   6   9
ENDBRANCH   1   3
BRANCH   2  11
ATOM     11  C   UNL     1      -2.616  -9.469 -40.589  1.00  0.00     0.189 C 
ATOM     12  O   UNL     1      -3.548 -10.312 -40.479  1.00  0.00    -0.289 OA
BRANCH  11  13
ATOM     13  C   UNL     1      -1.851  -9.087 -39.384  1.00  0.00     0.064 A 
ATOM     14  C   UNL     1      -1.462 -10.046 -38.417  1.00  0.00     0.130 A 
ATOM     15  C   UNL     1      -1.533  -7.733 -39.169  1.00  0.00     0.020 A 
ATOM     16  C   UNL     1      -0.791  -9.632 -37.259  1.00  0.00     0.093 A 
ATOM     17  C   UNL     1      -0.853  -7.337 -38.015  1.00  0.00     0.047 A 
ATOM     18  C   UNL     1      -0.483  -8.282 -37.057  1.00  0.00     0.119 A 
BRANCH  14  19
ATOM     19  O   UNL     1      -1.705 -11.411 -38.583  1.00  0.00    -0.507 OA
ATOM     20  H   UNL     1      -1.555 -11.898 -39.456  1.00  0.00     0.293 HD
ENDBRANCH  14  19
BRANCH  18  21
ATOM     21  O   UNL     1       0.189  -7.870 -35.909  1.00  0.00    -0.508 OA
ATOM     22  H   UNL     1       1.035  -7.314 -35.960  1.00  0.00     0.293 HD
ENDBRANCH  18  21
ENDBRANCH  11  13
ENDBRANCH   2  11
TORSDOF 6
ENDMDL
MODEL 3
REMARK VINA RESULT:    -5.418      2.012      3.871
REMARK INTER + INTRA:          -7.882
REMARK INTER:                  -6.891
REMARK INTRA:                  -0.991
REMARK UNBOUND:                -1.039
REMARK SMILES O=C(C=Cc1ccc(O)cc1)c1ccc(O)cc1O
REMARK SMILES IDX 4 1 3 2 5 3 6 4 7 5 8 6 11 7 10 8 9 9 2 11 1 12 12 13 18 14
REMARK SMILES IDX 13 15 17 16 14 17 15 18 19 19 16 21
REMARK H PARENT 9 10 19 20 16 22
REMARK Flexibility Score: inf
ROOT
ATOM      1  C   UNL     1      -1.805  -8.404 -40.145  1.00  0.00     0.012 C 
ATOM      2  C   UNL     1      -0.669  -9.044 -39.828  1.00  0.00     0.053 C 
ENDROOT
BRANCH   1   3
ATOM      3  C   UNL     1      -2.782  -8.850 -41.160  1.00  0.00    -0.025 A 
ATOM      4  C   UNL     1      -3.807  -9.754 -40.833  1.00  0.00     0.012 A 
ATOM      5  C   UNL     1      -4.694 -10.200 -41.818  1.00  0.00     0.047 A 
ATOM      6  C   UNL     1      -4.549  -9.766 -43.143  1.00  0.00     0.115 A 
ATOM      7  C   UNL     1      -2.624  -8.443 -42.493  1.00  0.00     0.012 A 
ATOM      8  C   UNL     1      -3.511  -8.891 -43.477  1.00  0.00     0.047 A 
BRANCH   6   9
ATOM      9  O   UNL     1      -5.427 -10.203 -44.133  1.00  0.00    -0.508 OA
ATOM     10  H   UNL     1      -5.469 -11.177 -44.412  1.00  0.00     0.293 HD
ENDBRANCH   6   9
ENDBRANCH   1   3
BRANCH   2  11
ATOM     11  C   UNL     1      -0.283 -10.395 -40.299  1.00  0.00     0.189 C 
ATOM     12  O   UNL     1      -0.644 -11.422 -39.662  1.00  0.00    -0.289 OA
BRANCH  11  13
ATOM     13  C   UNL     1       0.595 -10.554 -41.477  1.00  0.00     0.064 A 
ATOM     14  C   UNL     1       1.316 -11.751 -41.708  1.00  0.00     0.130 A 
ATOM     15  C   UNL     1       0.751  -9.479 -42.372  1.00  0.00     0.020 A 
ATOM     16  C   UNL     1       2.184 -11.838 -42.804  1.00  0.00     0.093 A 
ATOM     17  C   UNL     1       1.612  -9.585 -43.466  1.00  0.00     0.047 A 
ATOM     18  C   UNL     1       2.332 -10.760 -43.684  1.00  0.00     0.119 A 
BRANCH  14  19
ATOM     19  O   UNL     1       1.179 -12.873 -40.888  1.00  0.00    -0.507 OA
ATOM     20  H   UNL     1       0.773 -12.837 -39.962  1.00  0.00     0.293 HD
ENDBRANCH  14  19
BRANCH  18  21
ATOM     21  O   UNL     1       3.191 -10.848 -44.777  1.00  0.00    -0.508 OA
ATOM     22  H   UNL     1       3.439 -10.031 -45.323  1.00  0.00     0.293 HD
ENDBRANCH  18  21
ENDBRANCH  11  13
ENDBRANCH   2  11
TORSDOF 6
ENDMDL
MODEL 4
REMARK VINA RESULT:    -5.345      4.150      6.857
REMARK INTER + INTRA:          -7.790
REMARK INTER:                  -6.745
REMARK INTRA:                  -1.045
REMARK UNBOUND:                -1.039
REMARK SMILES O=C(C=Cc1ccc(O)cc1)c1ccc(O)cc1O
REMARK SMILES IDX 4 1 3 2 5 3 6 4 7 5 8 6 11 7 10 8 9 9 2 11 1 12 12 13 18 14
REMARK SMILES IDX 13 15 17 16 14 17 15 18 19 19 16 21
REMARK H PARENT 9 10 19 20 16 22
REMARK Flexibility Score: inf
ROOT
ATOM      1  C   UNL     1      -3.616  -8.125 -42.309  1.00  0.00     0.012 C 
ATOM      2  C   UNL     1      -4.404  -7.746 -43.327  1.00  0.00     0.053 C 
ENDROOT
BRANCH   1   3
ATOM      3  C   UNL     1      -2.563  -9.159 -42.382  1.00  0.00    -0.025 A 
ATOM      4  C   UNL     1      -2.886 -10.526 -42.377  1.00  0.00     0.012 A 
ATOM      5  C   UNL     1      -1.873 -11.490 -42.401  1.00  0.00     0.047 A 
ATOM      6  C   UNL     1      -0.528 -11.096 -42.406  1.00  0.00     0.115 A 
ATOM      7  C   UNL     1      -1.215  -8.771 -42.358  1.00  0.00     0.012 A 
ATOM      8  C   UNL     1      -0.203  -9.736 -42.381  1.00  0.00     0.047 A 
BRANCH   6   9
ATOM      9  O   UNL     1       0.489 -12.047 -42.431  1.00  0.00    -0.508 OA
ATOM     10  H   UNL     1       1.138 -12.109 -43.207  1.00  0.00     0.293 HD
ENDBRANCH   6   9
ENDBRANCH   1   3
BRANCH   2  11
ATOM     11  C   UNL     1      -4.239  -8.159 -44.742  1.00  0.00     0.189 C 
ATOM     12  O   UNL     1      -3.328  -7.655 -45.454  1.00  0.00    -0.289 OA
BRANCH  11  13
ATOM     13  C   UNL     1      -5.188  -9.109 -45.359  1.00  0.00     0.064 A 
ATOM     14  C   UNL     1      -5.503  -9.051 -46.739  1.00  0.00     0.130 A 
ATOM     15  C   UNL     1      -5.825 -10.071 -44.552  1.00  0.00     0.020 A 
ATOM     16  C   UNL     1      -6.454  -9.931 -47.271  1.00  0.00     0.093 A 
ATOM     17  C   UNL     1      -6.762 -10.949 -45.100  1.00  0.00     0.047 A 
ATOM     18  C   UNL     1      -7.081 -10.881 -46.457  1.00  0.00     0.119 A 
BRANCH  14  19
ATOM     19  O   UNL     1      -4.880  -8.153 -47.608  1.00  0.00    -0.507 OA
ATOM     20  H   UNL     1      -5.150  -7.182 -47.688  1.00  0.00     0.293 HD
ENDBRANCH  14  19
BRANCH  18  21
ATOM     21  O   UNL     1      -8.023 -11.760 -46.987  1.00  0.00    -0.508 OA
ATOM     22  H   UNL     1      -7.893 -12.192 -47.895  1.00  0.00     0.293 HD
ENDBRANCH  18  21
ENDBRANCH  11  13
ENDBRANCH   2  11
TORSDOF 6
ENDMDL
MODEL 5
REMARK VINA RESULT:    -5.209      1.928      5.549
REMARK INTER + INTRA:          -7.617
REMARK INTER:                  -6.670
REMARK INTRA:                  -0.947
REMARK UNBOUND:                -1.039
REMARK SMILES O=C(C=Cc1ccc(O)cc1)c1ccc(O)cc1O
REMARK SMILES IDX 4 1 3 2 5 3 6 4 7 5 8 6 11 7 10 8 9 9 2 11 1 12 12 13 18 14
REMARK SMILES IDX 13 15 17 16 14 17 15 18 19 19 16 21
REMARK H PARENT 9 10 19 20 16 22
REMARK Flexibility Score: inf
ROOT
ATOM      1  C   UNL     1      -1.915 -10.179 -40.947  1.00  0.00     0.012 C 
ATOM      2  C   UNL     1      -2.296  -9.464 -39.875  1.00  0.00     0.053 C 
ENDROOT
BRANCH   1   3
ATOM      3  C   UNL     1      -0.517 -10.433 -41.351  1.00  0.00    -0.025 A 
ATOM      4  C   UNL     1       0.174 -11.570 -40.901  1.00  0.00     0.012 A 
ATOM      5  C   UNL     1       1.512 -11.769 -41.258  1.00  0.00     0.047 A 
ATOM      6  C   UNL     1       2.177 -10.822 -42.048  1.00  0.00     0.115 A 
ATOM      7  C   UNL     1       0.162  -9.474 -42.116  1.00  0.00     0.012 A 
ATOM      8  C   UNL     1       1.500  -9.673 -42.472  1.00  0.00     0.047 A 
BRANCH   6   9
ATOM      9  O   UNL     1       3.509 -11.009 -42.410  1.00  0.00    -0.508 OA
ATOM     10  H   UNL     1       3.773 -11.229 -43.364  1.00  0.00     0.293 HD
ENDBRANCH   6   9
ENDBRANCH   1   3
BRANCH   2  11
ATOM     11  C   UNL     1      -1.392  -8.962 -38.812  1.00  0.00     0.189 C 
ATOM     12  O   UNL     1      -0.722  -7.909 -38.987  1.00  0.00    -0.289 OA
BRANCH  11  13
ATOM     13  C   UNL     1      -1.206  -9.732 -37.565  1.00  0.00     0.064 A 
ATOM     14  C   UNL     1      -0.483  -9.202 -36.468  1.00  0.00     0.130 A 
ATOM     15  C   UNL     1      -1.722 -11.038 -37.476  1.00  0.00     0.020 A 
ATOM     16  C   UNL     1      -0.277  -9.988 -35.327  1.00  0.00     0.093 A 
ATOM     17  C   UNL     1      -1.518 -11.806 -36.327  1.00  0.00     0.047 A 
ATOM     18  C   UNL     1      -0.794 -11.287 -35.253  1.00  0.00     0.119 A 
BRANCH  14  19
ATOM     19  O   UNL     1       0.022  -7.900 -36.468  1.00  0.00    -0.507 OA
ATOM     20  H   UNL     1       0.478  -7.482 -35.668  1.00  0.00     0.293 HD
ENDBRANCH  14  19
BRANCH  18  21
ATOM     21  O   UNL     1      -0.594 -12.067 -34.117  1.00  0.00    -0.508 OA
ATOM     22  H   UNL     1      -0.128 -11.699 -33.295  1.00  0.00     0.293 HD
ENDBRANCH  18  21
ENDBRANCH  11  13
ENDBRANCH   2  11
TORSDOF 6
ENDMDL
MODEL 6
REMARK VINA RESULT:    -5.125      4.526      6.584
REMARK INTER + INTRA:          -7.511
REMARK INTER:                  -6.567
REMARK INTRA:                  -0.945
REMARK UNBOUND:                -1.039
REMARK SMILES O=C(C=Cc1ccc(O)cc1)c1ccc(O)cc1O
REMARK SMILES IDX 4 1 3 2 5 3 6 4 7 5 8 6 11 7 10 8 9 9 2 11 1 12 12 13 18 14
REMARK SMILES IDX 13 15 17 16 14 17 15 18 19 19 16 21
REMARK H PARENT 9 10 19 20 16 22
REMARK Flexibility Score: inf
ROOT
ATOM      1  C   UNL     1      -4.955  -8.518 -42.935  1.00  0.00     0.012 C 
ATOM      2  C   UNL     1      -5.804  -8.534 -43.975  1.00  0.00     0.053 C 
ENDROOT
BRANCH   1   3
ATOM      3  C   UNL     1      -3.768  -9.386 -42.787  1.00  0.00    -0.025 A 
ATOM      4  C   UNL     1      -3.902 -10.769 -42.578  1.00  0.00     0.012 A 
ATOM      5  C   UNL     1      -2.768 -11.566 -42.395  1.00  0.00     0.047 A 
ATOM      6  C   UNL     1      -1.492 -10.986 -42.394  1.00  0.00     0.115 A 
ATOM      7  C   UNL     1      -2.492  -8.806 -42.756  1.00  0.00     0.012 A 
ATOM      8  C   UNL     1      -1.358  -9.605 -42.571  1.00  0.00     0.047 A 
BRANCH   6   9
ATOM      9  O   UNL     1      -0.355 -11.770 -42.213  1.00  0.00    -0.508 OA
ATOM     10  H   UNL     1       0.004 -11.977 -41.289  1.00  0.00     0.293 HD
ENDBRANCH   6   9
ENDBRANCH   1   3
BRANCH   2  11
ATOM     11  C   UNL     1      -5.603  -9.288 -45.236  1.00  0.00     0.189 C 
ATOM     12  O   UNL     1      -5.991 -10.483 -45.336  1.00  0.00    -0.289 OA
BRANCH  11  13
ATOM     13  C   UNL     1      -4.876  -8.673 -46.366  1.00  0.00     0.064 A 
ATOM     14  C   UNL     1      -5.069  -9.115 -47.699  1.00  0.00     0.130 A 
ATOM     15  C   UNL     1      -3.941  -7.653 -46.113  1.00  0.00     0.020 A 
ATOM     16  C   UNL     1      -4.314  -8.547 -48.734  1.00  0.00     0.093 A 
ATOM     17  C   UNL     1      -3.204  -7.089 -47.156  1.00  0.00     0.047 A 
ATOM     18  C   UNL     1      -3.386  -7.535 -48.467  1.00  0.00     0.119 A 
BRANCH  14  19
ATOM     19  O   UNL     1      -6.010 -10.091 -48.031  1.00  0.00    -0.507 OA
ATOM     20  H   UNL     1      -6.411 -10.727 -47.354  1.00  0.00     0.293 HD
ENDBRANCH  14  19
BRANCH  18  21
ATOM     21  O   UNL     1      -2.639  -6.966 -49.496  1.00  0.00    -0.508 OA
ATOM     22  H   UNL     1      -3.000  -6.199 -50.051  1.00  0.00     0.293 HD
ENDBRANCH  18  21
ENDBRANCH  11  13
ENDBRANCH   2  11
TORSDOF 6
ENDMDL
MODEL 7
REMARK VINA RESULT:    -5.111      3.451      6.079
REMARK INTER + INTRA:          -7.494
REMARK INTER:                  -6.468
REMARK INTRA:                  -1.027
REMARK UNBOUND:                -1.039
REMARK SMILES O=C(C=Cc1ccc(O)cc1)c1ccc(O)cc1O
REMARK SMILES IDX 4 1 3 2 5 3 6 4 7 5 8 6 11 7 10 8 9 9 2 11 1 12 12 13 18 14
REMARK SMILES IDX 13 15 17 16 14 17 15 18 19 19 16 21
REMARK H PARENT 9 10 19 20 16 22
REMARK Flexibility Score: inf
ROOT
ATOM      1  C   UNL     1      -0.393 -11.499 -34.332  1.00  0.00     0.012 C 
ATOM      2  C   UNL     1       0.017 -10.430 -35.034  1.00  0.00     0.053 C 
ENDROOT
BRANCH   1   3
ATOM      3  C   UNL     1      -1.801 -11.850 -34.053  1.00  0.00    -0.025 A 
ATOM      4  C   UNL     1      -2.466 -11.340 -32.925  1.00  0.00     0.012 A 
ATOM      5  C   UNL     1      -3.784 -11.720 -32.653  1.00  0.00     0.047 A 
ATOM      6  C   UNL     1      -4.441 -12.631 -33.492  1.00  0.00     0.115 A 
ATOM      7  C   UNL     1      -2.453 -12.783 -34.872  1.00  0.00     0.012 A 
ATOM      8  C   UNL     1      -3.771 -13.163 -34.598  1.00  0.00     0.047 A 
BRANCH   6   9
ATOM      9  O   UNL     1      -5.754 -13.016 -33.232  1.00  0.00    -0.508 OA
ATOM     10  H   UNL     1      -5.981 -13.645 -32.470  1.00  0.00     0.293 HD
ENDBRANCH   6   9
ENDBRANCH   1   3
BRANCH   2  11
ATOM     11  C   UNL     1      -0.864  -9.520 -35.805  1.00  0.00     0.189 C 
ATOM     12  O   UNL     1      -1.576  -8.664 -35.212  1.00  0.00    -0.289 OA
BRANCH  11  13
ATOM     13  C   UNL     1      -0.979  -9.656 -37.272  1.00  0.00     0.064 A 
ATOM     14  C   UNL     1      -0.515  -8.644 -38.148  1.00  0.00     0.130 A 
ATOM     15  C   UNL     1      -1.600 -10.797 -37.813  1.00  0.00     0.020 A 
ATOM     16  C   UNL     1      -0.698  -8.785 -39.530  1.00  0.00     0.093 A 
ATOM     17  C   UNL     1      -1.765 -10.928 -39.193  1.00  0.00     0.047 A 
ATOM     18  C   UNL     1      -1.319  -9.924 -40.054  1.00  0.00     0.119 A 
BRANCH  14  19
ATOM     19  O   UNL     1       0.148  -7.505 -37.686  1.00  0.00    -0.507 OA
ATOM     20  H   UNL     1      -0.279  -6.589 -37.658  1.00  0.00     0.293 HD
ENDBRANCH  14  19
BRANCH  18  21
ATOM     21  O   UNL     1      -1.498 -10.067 -41.428  1.00  0.00    -0.508 OA
ATOM     22  H   UNL     1      -2.391  -9.879 -41.869  1.00  0.00     0.293 HD
ENDBRANCH  18  21
ENDBRANCH  11  13
ENDBRANCH   2  11
TORSDOF 6
ENDMDL
MODEL 8
REMARK VINA RESULT:    -5.073      3.876      6.443
REMARK INTER + INTRA:          -7.446
REMARK INTER:                  -6.415
REMARK INTRA:                  -1.032
REMARK UNBOUND:                -1.039
REMARK SMILES O=C(C=Cc1ccc(O)cc1)c1ccc(O)cc1O
REMARK SMILES IDX 4 1 3 2 5 3 6 4 7 5 8 6 11 7 10 8 9 9 2 11 1 12 12 13 18 14
REMARK SMILES IDX 13 15 17 16 14 17 15 18 19 19 16 21
REMARK H PARENT 9 10 19 20 16 22
REMARK Flexibility Score: inf
ROOT
ATOM      1  C   UNL     1      -6.184  -9.250 -43.111  1.00  0.00     0.012 C 
ATOM      2  C   UNL     1      -5.326  -9.823 -42.252  1.00  0.00     0.053 C 
ENDROOT
BRANCH   1   3
ATOM      3  C   UNL     1      -6.151  -9.402 -44.581  1.00  0.00    -0.025 A 
ATOM      4  C   UNL     1      -6.932 -10.373 -45.229  1.00  0.00     0.012 A 
ATOM      5  C   UNL     1      -6.852 -10.532 -46.616  1.00  0.00     0.047 A 
ATOM      6  C   UNL     1      -5.973  -9.737 -47.365  1.00  0.00     0.115 A 
ATOM      7  C   UNL     1      -5.252  -8.630 -45.331  1.00  0.00     0.012 A 
ATOM      8  C   UNL     1      -5.172  -8.790 -46.718  1.00  0.00     0.047 A 
BRANCH   6   9
ATOM      9  O   UNL     1      -5.885  -9.885 -48.747  1.00  0.00    -0.508 OA
ATOM     10  H   UNL     1      -5.368 -10.649 -49.166  1.00  0.00     0.293 HD
ENDBRANCH   6   9
ENDBRANCH   1   3
BRANCH   2  11
ATOM     11  C   UNL     1      -4.314 -10.847 -42.604  1.00  0.00     0.189 C 
ATOM     12  O   UNL     1      -4.667 -12.020 -42.903  1.00  0.00    -0.289 OA
BRANCH  11  13
ATOM     13  C   UNL     1      -2.872 -10.530 -42.533  1.00  0.00     0.064 A 
ATOM     14  C   UNL     1      -1.906 -11.528 -42.255  1.00  0.00     0.130 A 
ATOM     15  C   UNL     1      -2.449  -9.199 -42.705  1.00  0.00     0.020 A 
ATOM     16  C   UNL     1      -0.556 -11.174 -42.136  1.00  0.00     0.093 A 
ATOM     17  C   UNL     1      -1.099  -8.863 -42.595  1.00  0.00     0.047 A 
ATOM     18  C   UNL     1      -0.150  -9.845 -42.307  1.00  0.00     0.119 A 
BRANCH  14  19
ATOM     19  O   UNL     1      -2.246 -12.875 -42.114  1.00  0.00    -0.507 OA
ATOM     20  H   UNL     1      -3.051 -13.191 -41.590  1.00  0.00     0.293 HD
ENDBRANCH  14  19
BRANCH  18  21
ATOM     21  O   UNL     1       1.193  -9.493 -42.194  1.00  0.00    -0.508 OA
ATOM     22  H   UNL     1       1.839  -9.613 -42.966  1.00  0.00     0.293 HD
ENDBRANCH  18  21
ENDBRANCH  11  13
ENDBRANCH   2  11
TORSDOF 6
ENDMDL
MODEL 9
REMARK VINA RESULT:    -4.999      2.484      5.614
REMARK INTER + INTRA:          -7.353
REMARK INTER:                  -6.248
REMARK INTRA:                  -1.105
REMARK UNBOUND:                -1.039
REMARK SMILES O=C(C=Cc1ccc(O)cc1)c1ccc(O)cc1O
REMARK SMILES IDX 4 1 3 2 5 3 6 4 7 5 8 6 11 7 10 8 9 9 2 11 1 12 12 13 18 14
REMARK SMILES IDX 13 15 17 16 14 17 15 18 19 19 16 21
REMARK H PARENT 9 10 19 20 16 22
REMARK Flexibility Score: inf
ROOT
ATOM      1  C   UNL     1      -0.380 -10.049 -41.796  1.00  0.00     0.012 C 
ATOM      2  C   UNL     1      -0.005  -9.445 -40.656  1.00  0.00     0.053 C 
ENDROOT
BRANCH   1   3
ATOM      3  C   UNL     1      -1.751 -10.496 -42.115  1.00  0.00    -0.025 A 
ATOM      4  C   UNL     1      -2.131 -11.841 -41.963  1.00  0.00     0.012 A 
ATOM      5  C   UNL     1      -3.420 -12.253 -42.313  1.00  0.00     0.047 A 
ATOM      6  C   UNL     1      -4.334 -11.331 -42.842  1.00  0.00     0.115 A 
ATOM      7  C   UNL     1      -2.660  -9.585 -42.672  1.00  0.00     0.012 A 
ATOM      8  C   UNL     1      -3.949  -9.999 -43.024  1.00  0.00     0.047 A 
BRANCH   6   9
ATOM      9  O   UNL     1      -5.621 -11.730 -43.195  1.00  0.00    -0.508 OA
ATOM     10  H   UNL     1      -6.439 -11.349 -42.733  1.00  0.00     0.293 HD
ENDBRANCH   6   9
ENDBRANCH   1   3
BRANCH   2  11
ATOM     11  C   UNL     1      -0.925  -8.957 -39.601  1.00  0.00     0.189 C 
ATOM     12  O   UNL     1      -1.548  -7.870 -39.747  1.00  0.00    -0.289 OA
BRANCH  11  13
ATOM     13  C   UNL     1      -1.064  -9.697 -38.329  1.00  0.00     0.064 A 
ATOM     14  C   UNL     1      -0.568  -9.175 -37.109  1.00  0.00     0.130 A 
ATOM     15  C   UNL     1      -1.667 -10.968 -38.333  1.00  0.00     0.020 A 
ATOM     16  C   UNL     1      -0.667  -9.935 -35.937  1.00  0.00     0.093 A 
ATOM     17  C   UNL     1      -1.768 -11.710 -37.155  1.00  0.00     0.047 A 
ATOM     18  C   UNL     1      -1.266 -11.199 -35.956  1.00  0.00     0.119 A 
BRANCH  14  19
ATOM     19  O   UNL     1       0.003  -7.903 -37.021  1.00  0.00    -0.507 OA
ATOM     20  H   UNL     1      -0.152  -7.177 -37.708  1.00  0.00     0.293 HD
ENDBRANCH  14  19
BRANCH  18  21
ATOM     21  O   UNL     1      -1.369 -11.955 -34.790  1.00  0.00    -0.508 OA
ATOM     22  H   UNL     1      -0.898 -12.847 -34.694  1.00  0.00     0.293 HD
ENDBRANCH  18  21
ENDBRANCH  11  13
ENDBRANCH   2  11
TORSDOF 6
ENDMDL
