MODEL 1
REMARK VINA RESULT:    -3.709      0.000      0.000
REMARK INTER + INTRA:          -8.534
REMARK INTER:                  -6.744
REMARK INTRA:                  -1.789
REMARK UNBOUND:                -1.789
REMARK SMILES CCCCCC=CCC=CCCCCCCCC(=O)[O-]
REMARK SMILES IDX 11 1 12 2 13 3 14 4 15 5 16 6 17 7 18 8 19 9 20 10 10 11
REMARK SMILES IDX 9 12 8 13 7 14 6 15 5 16 4 17 3 18 2 19 1 20
REMARK H PARENT
REMARK Flexibility Score: inf
ROOT
ATOM      1  C   UNL     1     -54.970  23.895 -14.888  1.00  0.00     0.027 C 
ENDROOT
BRANCH   1   2
ATOM      2  C   UNL     1     -53.810  24.553 -14.128  1.00  0.00     0.004 C 
BRANCH   2   3
ATOM      3  C   UNL     1     -52.439  24.139 -14.691  1.00  0.00     0.000 C 
BRANCH   3   4
ATOM      4  C   UNL     1     -51.592  25.340 -15.150  1.00  0.00     0.000 C 
BRANCH   4   5
ATOM      5  C   UNL     1     -50.433  24.993 -16.104  1.00  0.00     0.000 C 
BRANCH   5   6
ATOM      6  C   UNL     1     -49.297  26.029 -16.067  1.00  0.00     0.006 C 
BRANCH   6   7
ATOM      7  C   UNL     1     -49.341  26.894 -14.800  1.00  0.00     0.053 C 
BRANCH   7   8
ATOM      8  C   UNL     1     -48.517  28.136 -14.943  1.00  0.00     0.041 C 
ATOM      9  O   UNL     1     -48.727  29.124 -14.192  1.00  0.00    -0.550 OA
ATOM     10  O   UNL     1     -47.536  28.214 -15.924  1.00  0.00    -0.550 OA
ENDBRANCH   7   8
ENDBRANCH   6   7
ENDBRANCH   5   6
ENDBRANCH   4   5
ENDBRANCH   3   4
ENDBRANCH   2   3
ENDBRANCH   1   2
BRANCH   1  11
ATOM     11  C   UNL     1     -55.916  24.907 -15.478  1.00  0.00    -0.031 C 
ATOM     12  C   UNL     1     -55.580  25.642 -16.550  1.00  0.00    -0.027 C 
BRANCH  12  13
ATOM     13  C   UNL     1     -56.520  26.661 -17.124  1.00  0.00     0.054 C 
BRANCH  13  14
ATOM     14  C   UNL     1     -57.941  26.331 -16.739  1.00  0.00    -0.027 C 
ATOM     15  C   UNL     1     -58.862  27.225 -16.334  1.00  0.00    -0.031 C 
BRANCH  15  16
ATOM     16  C   UNL     1     -58.608  28.699 -16.144  1.00  0.00     0.027 C 
BRANCH  16  17
ATOM     17  C   UNL     1     -58.345  29.028 -14.669  1.00  0.00     0.004 C 
BRANCH  17  18
ATOM     18  C   UNL     1     -56.838  29.030 -14.369  1.00  0.00     0.000 C 
BRANCH  18  19
ATOM     19  C   UNL     1     -56.456  28.038 -13.259  1.00  0.00    -0.003 C 
ATOM     20  C   UNL     1     -54.949  27.974 -13.014  1.00  0.00     0.004 C 
ENDBRANCH  18  19
ENDBRANCH  17  18
ENDBRANCH  16  17
ENDBRANCH  15  16
ENDBRANCH  13  14
ENDBRANCH  12  13
ENDBRANCH   1  11
TORSDOF 14
ENDMDL
MODEL 2
REMARK VINA RESULT:    -3.708      1.856      2.527
REMARK INTER + INTRA:          -8.533
REMARK INTER:                  -6.344
REMARK INTRA:                  -2.189
REMARK UNBOUND:                -1.789
REMARK SMILES CCCCCC=CCC=CCCCCCCCC(=O)[O-]
REMARK SMILES IDX 11 1 12 2 13 3 14 4 15 5 16 6 17 7 18 8 19 9 20 10 10 11
REMARK SMILES IDX 9 12 8 13 7 14 6 15 5 16 4 17 3 18 2 19 1 20
REMARK H PARENT
REMARK Flexibility Score: inf
ROOT
ATOM      1  C   UNL     1     -55.449  25.270 -16.107  1.00  0.00     0.027 C 
ENDROOT
BRANCH   1   2
ATOM      2  C   UNL     1     -55.251  24.401 -14.857  1.00  0.00     0.004 C 
BRANCH   2   3
ATOM      3  C   UNL     1     -53.782  23.987 -14.666  1.00  0.00     0.000 C 
BRANCH   3   4
ATOM      4  C   UNL     1     -52.791  24.968 -15.319  1.00  0.00     0.000 C 
BRANCH   4   5
ATOM      5  C   UNL     1     -51.961  25.811 -14.333  1.00  0.00     0.000 C 
BRANCH   5   6
ATOM      6  C   UNL     1     -50.450  25.549 -14.445  1.00  0.00     0.006 C 
BRANCH   6   7
ATOM      7  C   UNL     1     -49.870  26.061 -15.770  1.00  0.00     0.053 C 
BRANCH   7   8
ATOM      8  C   UNL     1     -49.259  24.957 -16.577  1.00  0.00     0.041 C 
ATOM      9  O   UNL     1     -48.940  23.872 -16.025  1.00  0.00    -0.550 OA
ATOM     10  O   UNL     1     -49.016  25.137 -17.933  1.00  0.00    -0.550 OA
ENDBRANCH   7   8
ENDBRANCH   6   7
ENDBRANCH   5   6
ENDBRANCH   4   5
ENDBRANCH   3   4
ENDBRANCH   2   3
ENDBRANCH   1   2
BRANCH   1  11
ATOM     11  C   UNL     1     -56.851  25.809 -16.213  1.00  0.00    -0.031 C 
ATOM     12  C   UNL     1     -57.121  26.939 -16.885  1.00  0.00    -0.027 C 
BRANCH  12  13
ATOM     13  C   UNL     1     -58.517  27.481 -16.974  1.00  0.00     0.054 C 
BRANCH  13  14
ATOM     14  C   UNL     1     -58.680  28.652 -16.035  1.00  0.00    -0.027 C 
ATOM     15  C   UNL     1     -59.310  28.610 -14.847  1.00  0.00    -0.031 C 
BRANCH  15  16
ATOM     16  C   UNL     1     -60.006  27.399 -14.282  1.00  0.00     0.027 C 
BRANCH  16  17
ATOM     17  C   UNL     1     -59.085  26.629 -13.326  1.00  0.00     0.004 C 
BRANCH  17  18
ATOM     18  C   UNL     1     -58.081  27.575 -12.651  1.00  0.00     0.000 C 
BRANCH  18  19
ATOM     19  C   UNL     1     -56.650  27.015 -12.654  1.00  0.00    -0.003 C 
ATOM     20  C   UNL     1     -55.658  27.927 -13.376  1.00  0.00     0.004 C 
ENDBRANCH  18  19
ENDBRANCH  17  18
ENDBRANCH  16  17
ENDBRANCH  15  16
ENDBRANCH  13  14
ENDBRANCH  12  13
ENDBRANCH   1  11
TORSDOF 14
ENDMDL
MODEL 3
REMARK VINA RESULT:    -3.612      4.338      7.335
REMARK INTER + INTRA:          -8.357
REMARK INTER:                  -5.724
REMARK INTRA:                  -2.633
REMARK UNBOUND:                -1.789
REMARK SMILES CCCCCC=CCC=CCCCCCCCC(=O)[O-]
REMARK SMILES IDX 11 1 12 2 13 3 14 4 15 5 16 6 17 7 18 8 19 9 20 10 10 11
REMARK SMILES IDX 9 12 8 13 7 14 6 15 5 16 4 17 3 18 2 19 1 20
REMARK H PARENT
REMARK Flexibility Score: inf
ROOT
ATOM      1  C   UNL     1     -58.978  27.247 -16.788  1.00  0.00     0.027 C 
ENDROOT
BRANCH   1   2
ATOM      2  C   UNL     1     -58.547  28.516 -16.039  1.00  0.00     0.004 C 
BRANCH   2   3
ATOM      3  C   UNL     1     -59.429  28.790 -14.808  1.00  0.00     0.000 C 
BRANCH   3   4
ATOM      4  C   UNL     1     -60.367  27.619 -14.469  1.00  0.00     0.000 C 
BRANCH   4   5
ATOM      5  C   UNL     1     -60.021  26.859 -13.175  1.00  0.00     0.000 C 
BRANCH   5   6
ATOM      6  C   UNL     1     -58.945  25.780 -13.383  1.00  0.00     0.006 C 
BRANCH   6   7
ATOM      7  C   UNL     1     -57.567  26.231 -12.882  1.00  0.00     0.053 C 
BRANCH   7   8
ATOM      8  C   UNL     1     -57.673  27.131 -11.689  1.00  0.00     0.041 C 
ATOM      9  O   UNL     1     -57.450  28.364 -11.806  1.00  0.00    -0.550 OA
ATOM     10  O   UNL     1     -57.991  26.603 -10.444  1.00  0.00    -0.550 OA
ENDBRANCH   7   8
ENDBRANCH   6   7
ENDBRANCH   5   6
ENDBRANCH   4   5
ENDBRANCH   3   4
ENDBRANCH   2   3
ENDBRANCH   1   2
BRANCH   1  11
ATOM     11  C   UNL     1     -57.885  26.214 -16.840  1.00  0.00    -0.031 C 
ATOM     12  C   UNL     1     -56.599  26.540 -16.641  1.00  0.00    -0.027 C 
BRANCH  12  13
ATOM     13  C   UNL     1     -55.511  25.509 -16.709  1.00  0.00     0.054 C 
BRANCH  13  14
ATOM     14  C   UNL     1     -54.888  25.321 -15.347  1.00  0.00    -0.027 C 
ATOM     15  C   UNL     1     -55.094  24.263 -14.540  1.00  0.00    -0.031 C 
BRANCH  15  16
ATOM     16  C   UNL     1     -56.027  23.118 -14.840  1.00  0.00     0.027 C 
BRANCH  16  17
ATOM     17  C   UNL     1     -56.138  22.167 -13.641  1.00  0.00     0.004 C 
BRANCH  17  18
ATOM     18  C   UNL     1     -57.490  22.337 -12.932  1.00  0.00     0.000 C 
BRANCH  18  19
ATOM     19  C   UNL     1     -57.356  22.346 -11.401  1.00  0.00    -0.003 C 
ATOM     20  C   UNL     1     -56.344  23.377 -10.901  1.00  0.00     0.004 C 
ENDBRANCH  18  19
ENDBRANCH  17  18
ENDBRANCH  16  17
ENDBRANCH  15  16
ENDBRANCH  13  14
ENDBRANCH  12  13
ENDBRANCH   1  11
TORSDOF 14
ENDMDL
MODEL 4
REMARK VINA RESULT:    -3.594      2.969      5.431
REMARK INTER + INTRA:          -8.325
REMARK INTER:                  -5.633
REMARK INTRA:                  -2.692
REMARK UNBOUND:                -1.789
REMARK SMILES CCCCCC=CCC=CCCCCCCCC(=O)[O-]
REMARK SMILES IDX 11 1 12 2 13 3 14 4 15 5 16 6 17 7 18 8 19 9 20 10 10 11
REMARK SMILES IDX 9 12 8 13 7 14 6 15 5 16 4 17 3 18 2 19 1 20
REMARK H PARENT
REMARK Flexibility Score: inf
ROOT
ATOM      1  C   UNL     1     -58.462  28.450 -15.840  1.00  0.00     0.027 C 
ENDROOT
BRANCH   1   2
ATOM      2  C   UNL     1     -58.905  27.297 -16.751  1.00  0.00     0.004 C 
BRANCH   2   3
ATOM      3  C   UNL     1     -57.914  26.120 -16.720  1.00  0.00     0.000 C 
BRANCH   3   4
ATOM      4  C   UNL     1     -56.499  26.537 -16.282  1.00  0.00     0.000 C 
BRANCH   4   5
ATOM      5  C   UNL     1     -55.421  25.449 -16.436  1.00  0.00     0.000 C 
BRANCH   5   6
ATOM      6  C   UNL     1     -55.382  24.472 -15.249  1.00  0.00     0.006 C 
BRANCH   6   7
ATOM      7  C   UNL     1     -53.947  24.143 -14.816  1.00  0.00     0.053 C 
BRANCH   7   8
ATOM      8  C   UNL     1     -53.208  25.363 -14.357  1.00  0.00     0.041 C 
ATOM      9  O   UNL     1     -52.060  25.614 -14.807  1.00  0.00    -0.550 OA
ATOM     10  O   UNL     1     -53.777  26.207 -13.410  1.00  0.00    -0.550 OA
ENDBRANCH   7   8
ENDBRANCH   6   7
ENDBRANCH   5   6
ENDBRANCH   4   5
ENDBRANCH   3   4
ENDBRANCH   2   3
ENDBRANCH   1   2
BRANCH   1  11
ATOM     11  C   UNL     1     -59.465  28.742 -14.757  1.00  0.00    -0.031 C 
ATOM     12  C   UNL     1     -60.535  27.956 -14.559  1.00  0.00    -0.027 C 
BRANCH  12  13
ATOM     13  C   UNL     1     -61.541  28.261 -13.488  1.00  0.00     0.054 C 
BRANCH  13  14
ATOM     14  C   UNL     1     -60.841  28.521 -12.177  1.00  0.00    -0.027 C 
ATOM     15  C   UNL     1     -60.476  27.575 -11.292  1.00  0.00    -0.031 C 
BRANCH  15  16
ATOM     16  C   UNL     1     -60.758  26.102 -11.440  1.00  0.00     0.027 C 
BRANCH  16  17
ATOM     17  C   UNL     1     -59.456  25.290 -11.469  1.00  0.00     0.004 C 
BRANCH  17  18
ATOM     18  C   UNL     1     -58.746  25.442 -12.823  1.00  0.00     0.000 C 
BRANCH  18  19
ATOM     19  C   UNL     1     -57.260  25.804 -12.673  1.00  0.00    -0.003 C 
ATOM     20  C   UNL     1     -57.029  27.305 -12.503  1.00  0.00     0.004 C 
ENDBRANCH  18  19
ENDBRANCH  17  18
ENDBRANCH  16  17
ENDBRANCH  15  16
ENDBRANCH  13  14
ENDBRANCH  12  13
ENDBRANCH   1  11
TORSDOF 14
ENDMDL
MODEL 5
REMARK VINA RESULT:    -3.588      4.264      6.327
REMARK INTER + INTRA:          -8.313
REMARK INTER:                  -5.400
REMARK INTRA:                  -2.913
REMARK UNBOUND:                -1.789
REMARK SMILES CCCCCC=CCC=CCCCCCCCC(=O)[O-]
REMARK SMILES IDX 11 1 12 2 13 3 14 4 15 5 16 6 17 7 18 8 19 9 20 10 10 11
REMARK SMILES IDX 9 12 8 13 7 14 6 15 5 16 4 17 3 18 2 19 1 20
REMARK H PARENT
REMARK Flexibility Score: inf
ROOT
ATOM      1  C   UNL     1     -54.039  26.753 -13.219  1.00  0.00     0.027 C 
ENDROOT
BRANCH   1   2
ATOM      2  C   UNL     1     -53.914  25.425 -13.981  1.00  0.00     0.004 C 
BRANCH   2   3
ATOM      3  C   UNL     1     -55.204  24.590 -13.904  1.00  0.00     0.000 C 
BRANCH   3   4
ATOM      4  C   UNL     1     -55.859  24.369 -15.279  1.00  0.00     0.000 C 
BRANCH   4   5
ATOM      5  C   UNL     1     -55.421  25.356 -16.377  1.00  0.00     0.000 C 
BRANCH   5   6
ATOM      6  C   UNL     1     -56.412  26.517 -16.569  1.00  0.00     0.006 C 
BRANCH   6   7
ATOM      7  C   UNL     1     -57.832  26.147 -16.121  1.00  0.00     0.053 C 
BRANCH   7   8
ATOM      8  C   UNL     1     -58.794  27.278 -16.324  1.00  0.00     0.041 C 
ATOM      9  O   UNL     1     -59.709  27.487 -15.486  1.00  0.00    -0.550 OA
ATOM     10  O   UNL     1     -58.696  28.082 -17.453  1.00  0.00    -0.550 OA
ENDBRANCH   7   8
ENDBRANCH   6   7
ENDBRANCH   5   6
ENDBRANCH   4   5
ENDBRANCH   3   4
ENDBRANCH   2   3
ENDBRANCH   1   2
BRANCH   1  11
ATOM     11  C   UNL     1     -55.469  27.105 -12.913  1.00  0.00    -0.031 C 
ATOM     12  C   UNL     1     -56.025  28.241 -13.361  1.00  0.00    -0.027 C 
BRANCH  12  13
ATOM     13  C   UNL     1     -57.447  28.596 -13.038  1.00  0.00     0.054 C 
BRANCH  13  14
ATOM     14  C   UNL     1     -57.800  28.116 -11.651  1.00  0.00    -0.027 C 
ATOM     15  C   UNL     1     -58.635  27.098 -11.372  1.00  0.00    -0.031 C 
BRANCH  15  16
ATOM     16  C   UNL     1     -59.399  26.304 -12.400  1.00  0.00     0.027 C 
BRANCH  16  17
ATOM     17  C   UNL     1     -58.694  24.977 -12.710  1.00  0.00     0.004 C 
BRANCH  17  18
ATOM     18  C   UNL     1     -57.946  24.453 -11.475  1.00  0.00     0.000 C 
BRANCH  18  19
ATOM     19  C   UNL     1     -58.089  22.933 -11.299  1.00  0.00    -0.003 C 
ATOM     20  C   UNL     1     -57.753  22.155 -12.571  1.00  0.00     0.004 C 
ENDBRANCH  18  19
ENDBRANCH  17  18
ENDBRANCH  16  17
ENDBRANCH  15  16
ENDBRANCH  13  14
ENDBRANCH  12  13
ENDBRANCH   1  11
TORSDOF 14
ENDMDL
MODEL 6
REMARK VINA RESULT:    -3.572      6.248      8.933
REMARK INTER + INTRA:          -8.285
REMARK INTER:                  -7.165
REMARK INTRA:                  -1.121
REMARK UNBOUND:                -1.789
REMARK SMILES CCCCCC=CCC=CCCCCCCCC(=O)[O-]
REMARK SMILES IDX 11 1 12 2 13 3 14 4 15 5 16 6 17 7 18 8 19 9 20 10 10 11
REMARK SMILES IDX 9 12 8 13 7 14 6 15 5 16 4 17 3 18 2 19 1 20
REMARK H PARENT
REMARK Flexibility Score: inf
ROOT
ATOM      1  C   UNL     1     -55.286  21.700 -14.641  1.00  0.00     0.027 C 
ENDROOT
BRANCH   1   2
ATOM      2  C   UNL     1     -56.229  22.522 -13.751  1.00  0.00     0.004 C 
BRANCH   2   3
ATOM      3  C   UNL     1     -56.127  24.031 -14.035  1.00  0.00     0.000 C 
BRANCH   3   4
ATOM      4  C   UNL     1     -55.184  24.359 -15.207  1.00  0.00     0.000 C 
BRANCH   4   5
ATOM      5  C   UNL     1     -55.692  25.450 -16.167  1.00  0.00     0.000 C 
BRANCH   5   6
ATOM      6  C   UNL     1     -57.167  25.818 -15.931  1.00  0.00     0.006 C 
BRANCH   6   7
ATOM      7  C   UNL     1     -57.560  27.121 -16.640  1.00  0.00     0.053 C 
BRANCH   7   8
ATOM      8  C   UNL     1     -57.868  28.216 -15.667  1.00  0.00     0.041 C 
ATOM      9  O   UNL     1     -56.933  28.838 -15.097  1.00  0.00    -0.550 OA
ATOM     10  O   UNL     1     -59.188  28.532 -15.367  1.00  0.00    -0.550 OA
ENDBRANCH   7   8
ENDBRANCH   6   7
ENDBRANCH   5   6
ENDBRANCH   4   5
ENDBRANCH   3   4
ENDBRANCH   2   3
ENDBRANCH   1   2
BRANCH   1  11
ATOM     11  C   UNL     1     -55.995  20.565 -15.329  1.00  0.00    -0.031 C 
ATOM     12  C   UNL     1     -55.329  19.488 -15.776  1.00  0.00    -0.027 C 
BRANCH  12  13
ATOM     13  C   UNL     1     -56.037  18.366 -16.477  1.00  0.00     0.054 C 
BRANCH  13  14
ATOM     14  C   UNL     1     -56.753  18.888 -17.699  1.00  0.00    -0.027 C 
ATOM     15  C   UNL     1     -58.087  19.027 -17.815  1.00  0.00    -0.031 C 
BRANCH  15  16
ATOM     16  C   UNL     1     -59.090  18.633 -16.762  1.00  0.00     0.027 C 
BRANCH  16  17
ATOM     17  C   UNL     1     -60.159  17.696 -17.341  1.00  0.00     0.004 C 
BRANCH  17  18
ATOM     18  C   UNL     1     -59.712  16.230 -17.247  1.00  0.00     0.000 C 
BRANCH  18  19
ATOM     19  C   UNL     1     -60.160  15.398 -18.459  1.00  0.00    -0.003 C 
ATOM     20  C   UNL     1     -61.412  15.959 -19.132  1.00  0.00     0.004 C 
ENDBRANCH  18  19
ENDBRANCH  17  18
ENDBRANCH  16  17
ENDBRANCH  15  16
ENDBRANCH  13  14
ENDBRANCH  12  13
ENDBRANCH   1  11
TORSDOF 14
ENDMDL
MODEL 7
REMARK VINA RESULT:    -3.568      4.050      6.554
REMARK INTER + INTRA:          -8.278
REMARK INTER:                  -5.330
REMARK INTRA:                  -2.948
REMARK UNBOUND:                -1.789
REMARK SMILES CCCCCC=CCC=CCCCCCCCC(=O)[O-]
REMARK SMILES IDX 11 1 12 2 13 3 14 4 15 5 16 6 17 7 18 8 19 9 20 10 10 11
REMARK SMILES IDX 9 12 8 13 7 14 6 15 5 16 4 17 3 18 2 19 1 20
REMARK H PARENT
REMARK Flexibility Score: inf
ROOT
ATOM      1  C   UNL     1     -59.586  27.504 -14.557  1.00  0.00     0.027 C 
ENDROOT
BRANCH   1   2
ATOM      2  C   UNL     1     -58.998  28.240 -15.769  1.00  0.00     0.004 C 
BRANCH   2   3
ATOM      3  C   UNL     1     -58.834  27.315 -16.987  1.00  0.00     0.000 C 
BRANCH   3   4
ATOM      4  C   UNL     1     -57.865  26.147 -16.728  1.00  0.00     0.000 C 
BRANCH   4   5
ATOM      5  C   UNL     1     -56.371  26.506 -16.823  1.00  0.00     0.000 C 
BRANCH   5   6
ATOM      6  C   UNL     1     -55.470  25.538 -16.037  1.00  0.00     0.006 C 
BRANCH   6   7
ATOM      7  C   UNL     1     -56.283  24.553 -15.186  1.00  0.00     0.053 C 
BRANCH   7   8
ATOM      8  C   UNL     1     -55.474  23.354 -14.796  1.00  0.00     0.041 C 
ATOM      9  O   UNL     1     -56.017  22.221 -14.725  1.00  0.00    -0.550 OA
ATOM     10  O   UNL     1     -54.128  23.493 -14.482  1.00  0.00    -0.550 OA
ENDBRANCH   7   8
ENDBRANCH   6   7
ENDBRANCH   5   6
ENDBRANCH   4   5
ENDBRANCH   3   4
ENDBRANCH   2   3
ENDBRANCH   1   2
BRANCH   1  11
ATOM     11  C   UNL     1     -58.692  27.585 -13.349  1.00  0.00    -0.031 C 
ATOM     12  C   UNL     1     -57.373  27.803 -13.464  1.00  0.00    -0.027 C 
BRANCH  12  13
ATOM     13  C   UNL     1     -56.483  27.866 -12.257  1.00  0.00     0.054 C 
BRANCH  13  14
ATOM     14  C   UNL     1     -55.326  26.909 -12.415  1.00  0.00    -0.027 C 
ATOM     15  C   UNL     1     -55.244  25.693 -11.845  1.00  0.00    -0.031 C 
BRANCH  15  16
ATOM     16  C   UNL     1     -56.270  25.108 -10.909  1.00  0.00     0.027 C 
BRANCH  16  17
ATOM     17  C   UNL     1     -56.875  23.822 -11.487  1.00  0.00     0.004 C 
BRANCH  17  18
ATOM     18  C   UNL     1     -58.277  24.085 -12.059  1.00  0.00     0.000 C 
BRANCH  18  19
ATOM     19  C   UNL     1     -59.185  24.835 -11.073  1.00  0.00    -0.003 C 
ATOM     20  C   UNL     1     -59.851  23.907 -10.056  1.00  0.00     0.004 C 
ENDBRANCH  18  19
ENDBRANCH  17  18
ENDBRANCH  16  17
ENDBRANCH  15  16
ENDBRANCH  13  14
ENDBRANCH  12  13
ENDBRANCH   1  11
TORSDOF 14
ENDMDL
MODEL 8
REMARK VINA RESULT:    -3.510      4.542      6.923
REMARK INTER + INTRA:          -8.172
REMARK INTER:                  -5.610
REMARK INTRA:                  -2.562
REMARK UNBOUND:                -1.789
REMARK SMILES CCCCCC=CCC=CCCCCCCCC(=O)[O-]
REMARK SMILES IDX 11 1 12 2 13 3 14 4 15 5 16 6 17 7 18 8 19 9 20 10 10 11
REMARK SMILES IDX 9 12 8 13 7 14 6 15 5 16 4 17 3 18 2 19 1 20
REMARK H PARENT
REMARK Flexibility Score: inf
ROOT
ATOM      1  C   UNL     1     -61.092  28.207 -13.071  1.00  0.00     0.027 C 
ENDROOT
BRANCH   1   2
ATOM      2  C   UNL     1     -61.127  26.923 -12.231  1.00  0.00     0.004 C 
BRANCH   2   3
ATOM      3  C   UNL     1     -59.846  26.088 -12.394  1.00  0.00     0.000 C 
BRANCH   3   4
ATOM      4  C   UNL     1     -59.555  25.190 -11.178  1.00  0.00     0.000 C 
BRANCH   4   5
ATOM      5  C   UNL     1     -58.358  24.236 -11.342  1.00  0.00     0.000 C 
BRANCH   5   6
ATOM      6  C   UNL     1     -58.236  23.666 -12.766  1.00  0.00     0.006 C 
BRANCH   6   7
ATOM      7  C   UNL     1     -57.636  22.253 -12.775  1.00  0.00     0.053 C 
BRANCH   7   8
ATOM      8  C   UNL     1     -56.259  22.235 -13.362  1.00  0.00     0.041 C 
ATOM      9  O   UNL     1     -55.273  22.606 -12.674  1.00  0.00    -0.550 OA
ATOM     10  O   UNL     1     -56.068  21.836 -14.679  1.00  0.00    -0.550 OA
ENDBRANCH   7   8
ENDBRANCH   6   7
ENDBRANCH   5   6
ENDBRANCH   4   5
ENDBRANCH   3   4
ENDBRANCH   2   3
ENDBRANCH   1   2
BRANCH   1  11
ATOM     11  C   UNL     1     -60.297  28.041 -14.338  1.00  0.00    -0.031 C 
ATOM     12  C   UNL     1     -59.396  28.956 -14.728  1.00  0.00    -0.027 C 
BRANCH  12  13
ATOM     13  C   UNL     1     -58.617  28.794 -16.000  1.00  0.00     0.054 C 
BRANCH  13  14
ATOM     14  C   UNL     1     -59.002  27.504 -16.683  1.00  0.00    -0.027 C 
ATOM     15  C   UNL     1     -58.173  26.466 -16.902  1.00  0.00    -0.031 C 
BRANCH  15  16
ATOM     16  C   UNL     1     -56.708  26.444 -16.551  1.00  0.00     0.027 C 
BRANCH  16  17
ATOM     17  C   UNL     1     -56.392  25.306 -15.571  1.00  0.00     0.004 C 
BRANCH  17  18
ATOM     18  C   UNL     1     -55.632  25.835 -14.345  1.00  0.00     0.000 C 
BRANCH  18  19
ATOM     19  C   UNL     1     -56.175  27.186 -13.853  1.00  0.00    -0.003 C 
ATOM     20  C   UNL     1     -56.352  27.237 -12.335  1.00  0.00     0.004 C 
ENDBRANCH  18  19
ENDBRANCH  17  18
ENDBRANCH  16  17
ENDBRANCH  15  16
ENDBRANCH  13  14
ENDBRANCH  12  13
ENDBRANCH   1  11
TORSDOF 14
ENDMDL
MODEL 9
REMARK VINA RESULT:    -3.485      4.899      7.460
REMARK INTER + INTRA:          -8.126
REMARK INTER:                  -5.362
REMARK INTRA:                  -2.765
REMARK UNBOUND:                -1.789
REMARK SMILES CCCCCC=CCC=CCCCCCCCC(=O)[O-]
REMARK SMILES IDX 11 1 12 2 13 3 14 4 15 5 16 6 17 7 18 8 19 9 20 10 10 11
REMARK SMILES IDX 9 12 8 13 7 14 6 15 5 16 4 17 3 18 2 19 1 20
REMARK H PARENT
REMARK Flexibility Score: inf
ROOT
ATOM      1  C   UNL     1     -55.499  25.370 -16.257  1.00  0.00     0.027 C 
ENDROOT
BRANCH   1   2
ATOM      2  C   UNL     1     -56.386  26.496 -16.807  1.00  0.00     0.004 C 
BRANCH   2   3
ATOM      3  C   UNL     1     -57.883  26.153 -16.712  1.00  0.00     0.000 C 
BRANCH   3   4
ATOM      4  C   UNL     1     -58.780  27.400 -16.611  1.00  0.00     0.000 C 
BRANCH   4   5
ATOM      5  C   UNL     1     -58.851  28.041 -15.213  1.00  0.00     0.000 C 
BRANCH   5   6
ATOM      6  C   UNL     1     -60.194  27.792 -14.506  1.00  0.00     0.006 C 
BRANCH   6   7
ATOM      7  C   UNL     1     -60.178  26.508 -13.667  1.00  0.00     0.053 C 
BRANCH   7   8
ATOM      8  C   UNL     1     -60.505  26.774 -12.230  1.00  0.00     0.041 C 
ATOM      9  O   UNL     1     -60.131  27.845 -11.684  1.00  0.00    -0.550 OA
ATOM     10  O   UNL     1     -61.198  25.827 -11.485  1.00  0.00    -0.550 OA
ENDBRANCH   7   8
ENDBRANCH   6   7
ENDBRANCH   5   6
ENDBRANCH   4   5
ENDBRANCH   3   4
ENDBRANCH   2   3
ENDBRANCH   1   2
BRANCH   1  11
ATOM     11  C   UNL     1     -56.157  24.622 -15.129  1.00  0.00    -0.031 C 
ATOM     12  C   UNL     1     -55.599  23.525 -14.593  1.00  0.00    -0.027 C 
BRANCH  12  13
ATOM     13  C   UNL     1     -56.267  22.773 -13.480  1.00  0.00     0.054 C 
BRANCH  13  14
ATOM     14  C   UNL     1     -57.532  23.482 -13.061  1.00  0.00    -0.027 C 
ATOM     15  C   UNL     1     -57.630  24.353 -12.040  1.00  0.00    -0.031 C 
BRANCH  15  16
ATOM     16  C   UNL     1     -56.503  24.722 -11.110  1.00  0.00     0.027 C 
BRANCH  16  17
ATOM     17  C   UNL     1     -56.277  26.240 -11.092  1.00  0.00     0.004 C 
BRANCH  17  18
ATOM     18  C   UNL     1     -56.733  26.878 -12.413  1.00  0.00     0.000 C 
BRANCH  18  19
ATOM     19  C   UNL     1     -55.620  27.691 -13.091  1.00  0.00    -0.003 C 
ATOM     20  C   UNL     1     -54.266  26.981 -13.062  1.00  0.00     0.004 C 
ENDBRANCH  18  19
ENDBRANCH  17  18
ENDBRANCH  16  17
ENDBRANCH  15  16
ENDBRANCH  13  14
ENDBRANCH  12  13
ENDBRANCH   1  11
TORSDOF 14
ENDMDL
