MODEL 1
REMARK VINA RESULT:   124.318      0.000      0.000
REMARK INTER + INTRA:         134.960
REMARK INTER:                 135.219
REMARK INTRA:                  -0.259
REMARK UNBOUND:                -0.259
REMARK SMILES CC1(C)CC[C@]2(C(=O)[O-])CC[C@@]3(C)C(=CC[C@@H]4[C@]5(C)CC[C@H](O)C(C)(C)[C@H]5CC[C@@]43C)[C@@H]2C1
REMARK SMILES IDX 6 1 5 2 10 3 32 4 4 5 11 6 14 7 33 8 2 9 12 10 15 11 1 12
REMARK SMILES IDX 3 13 13 14 30 15 16 16 17 17 29 18 31 19 18 20 28 21 27 22
REMARK SMILES IDX 20 23 19 24 24 25 21 26 22 27 25 28 26 29 7 30 8 31 9 32
REMARK SMILES IDX 23 33
REMARK H PARENT 23 34
REMARK Flexibility Score: inf
ROOT
ATOM      1  C   UNL     1      38.597 -18.774   0.710  1.00  0.00     0.017 C 
ATOM      2  C   UNL     1      38.961 -17.512   1.544  1.00  0.00     0.014 C 
ATOM      3  C   UNL     1      39.153 -20.024   1.467  1.00  0.00     0.014 C 
ATOM      4  C   UNL     1      39.226 -18.697  -0.754  1.00  0.00     0.028 C 
ATOM      5  C   UNL     1      38.612 -16.212   0.801  1.00  0.00     0.007 C 
ATOM      6  C   UNL     1      38.898 -21.350   0.710  1.00  0.00     0.013 C 
ATOM      7  C   UNL     1      39.997 -20.002  -1.082  1.00  0.00    -0.064 C 
ATOM      8  C   UNL     1      40.057 -17.398  -0.979  1.00  0.00     0.015 C 
ATOM      9  C   UNL     1      39.308 -16.090  -0.597  1.00  0.00    -0.035 C 
ATOM     10  C   UNL     1      39.257 -21.317  -0.828  1.00  0.00    -0.006 C 
ATOM     11  C   UNL     1      41.334 -19.998  -1.234  1.00  0.00    -0.027 C 
ATOM     12  C   UNL     1      40.339 -14.939  -0.551  1.00  0.00     0.011 C 
ATOM     13  C   UNL     1      38.268 -15.738  -1.687  1.00  0.00     0.011 C 
ATOM     14  C   UNL     1      37.932 -21.252  -1.666  1.00  0.00     0.017 C 
ATOM     15  C   UNL     1      40.107 -22.611  -1.285  1.00  0.00    -0.020 C 
ATOM     16  C   UNL     1      42.218 -21.134  -0.839  1.00  0.00     0.032 C 
ATOM     17  C   UNL     1      41.584 -22.559  -0.700  1.00  0.00     0.006 C 
ATOM     18  C   UNL     1      40.203 -22.674  -2.850  1.00  0.00     0.008 C 
ATOM     19  C   UNL     1      39.349 -23.889  -0.766  1.00  0.00     0.012 C 
ATOM     20  C   UNL     1      42.586 -23.683  -1.250  1.00  0.00    -0.025 C 
ATOM     21  C   UNL     1      41.154 -23.747  -3.403  1.00  0.00     0.005 C 
ATOM     22  C   UNL     1      42.583 -23.616  -2.828  1.00  0.00     0.003 C 
ATOM     23  C   UNL     1      44.047 -23.461  -0.672  1.00  0.00     0.010 C 
ATOM     24  C   UNL     1      42.165 -25.096  -0.742  1.00  0.00     0.012 C 
ATOM     25  C   UNL     1      43.674 -24.506  -3.568  1.00  0.00    -0.006 C 
ATOM     26  C   UNL     1      45.155 -23.494  -1.734  1.00  0.00     0.033 C 
ATOM     27  C   UNL     1      44.960 -24.681  -2.677  1.00  0.00     0.120 C 
ATOM     28  C   UNL     1      44.062 -23.800  -4.902  1.00  0.00     0.014 C 
ATOM     29  C   UNL     1      43.132 -25.910  -3.941  1.00  0.00     0.014 C 
ENDROOT
BRANCH   1  30
ATOM     30  C   UNL     1      37.067 -18.857   0.683  1.00  0.00     0.048 C 
ATOM     31  O   UNL     1      36.418 -18.985   1.757  1.00  0.00    -0.550 OA
ATOM     32  O   UNL     1      36.359 -18.677  -0.498  1.00  0.00    -0.550 OA
ENDBRANCH   1  30
BRANCH  27  33
ATOM     33  O   UNL     1      46.125 -24.826  -3.454  1.00  0.00    -0.393 OA
ATOM     34  H   UNL     1      46.807 -24.210  -3.077  1.00  0.00     0.210 HD
ENDBRANCH  27  33
TORSDOF 2
ENDMDL
MODEL 2
REMARK VINA RESULT:   126.521      2.095      8.209
REMARK INTER + INTRA:         137.356
REMARK INTER:                 137.056
REMARK INTRA:                   0.300
REMARK UNBOUND:                -0.259
REMARK SMILES CC1(C)CC[C@]2(C(=O)[O-])CC[C@@]3(C)C(=CC[C@@H]4[C@]5(C)CC[C@H](O)C(C)(C)[C@H]5CC[C@@]43C)[C@@H]2C1
REMARK SMILES IDX 6 1 5 2 10 3 32 4 4 5 11 6 14 7 33 8 2 9 12 10 15 11 1 12
REMARK SMILES IDX 3 13 13 14 30 15 16 16 17 17 29 18 31 19 18 20 28 21 27 22
REMARK SMILES IDX 20 23 19 24 24 25 21 26 22 27 25 28 26 29 7 30 8 31 9 32
REMARK SMILES IDX 23 33
REMARK H PARENT 23 34
REMARK Flexibility Score: inf
ROOT
ATOM      1  C   UNL     1      44.127 -23.165   0.486  1.00  0.00     0.017 C 
ATOM      2  C   UNL     1      44.059 -24.682   0.150  1.00  0.00     0.014 C 
ATOM      3  C   UNL     1      43.078 -22.877   1.609  1.00  0.00     0.014 C 
ATOM      4  C   UNL     1      43.807 -22.277  -0.800  1.00  0.00     0.028 C 
ATOM      5  C   UNL     1      44.929 -25.041  -1.066  1.00  0.00     0.007 C 
ATOM      6  C   UNL     1      43.011 -21.381   2.002  1.00  0.00     0.013 C 
ATOM      7  C   UNL     1      42.720 -21.220  -0.474  1.00  0.00    -0.064 C 
ATOM      8  C   UNL     1      43.493 -23.140  -2.059  1.00  0.00     0.015 C 
ATOM      9  C   UNL     1      44.551 -24.239  -2.358  1.00  0.00    -0.035 C 
ATOM     10  C   UNL     1      42.941 -20.376   0.784  1.00  0.00    -0.006 C 
ATOM     11  C   UNL     1      41.502 -21.281  -1.041  1.00  0.00    -0.027 C 
ATOM     12  C   UNL     1      43.956 -25.211  -3.402  1.00  0.00     0.011 C 
ATOM     13  C   UNL     1      45.815 -23.601  -2.983  1.00  0.00     0.011 C 
ATOM     14  C   UNL     1      44.334 -19.676   0.613  1.00  0.00     0.017 C 
ATOM     15  C   UNL     1      41.804 -19.248   0.987  1.00  0.00    -0.020 C 
ATOM     16  C   UNL     1      40.244 -20.862  -0.354  1.00  0.00     0.032 C 
ATOM     17  C   UNL     1      40.350 -19.874   0.856  1.00  0.00     0.006 C 
ATOM     18  C   UNL     1      41.954 -18.125  -0.099  1.00  0.00     0.008 C 
ATOM     19  C   UNL     1      42.011 -18.613   2.412  1.00  0.00     0.012 C 
ATOM     20  C   UNL     1      39.143 -18.819   0.835  1.00  0.00    -0.025 C 
ATOM     21  C   UNL     1      40.811 -17.098  -0.137  1.00  0.00     0.005 C 
ATOM     22  C   UNL     1      39.427 -17.767  -0.308  1.00  0.00     0.003 C 
ATOM     23  C   UNL     1      37.758 -19.558   0.597  1.00  0.00     0.010 C 
ATOM     24  C   UNL     1      38.992 -18.122   2.222  1.00  0.00     0.012 C 
ATOM     25  C   UNL     1      38.245 -16.756  -0.640  1.00  0.00    -0.006 C 
ATOM     26  C   UNL     1      36.891 -18.931  -0.503  1.00  0.00     0.033 C 
ATOM     27  C   UNL     1      36.843 -17.410  -0.348  1.00  0.00     0.120 C 
ATOM     28  C   UNL     1      38.333 -16.374  -2.147  1.00  0.00     0.014 C 
ATOM     29  C   UNL     1      38.356 -15.437   0.169  1.00  0.00     0.014 C 
ENDROOT
BRANCH   1  30
ATOM     30  C   UNL     1      45.529 -22.900   1.044  1.00  0.00     0.048 C 
ATOM     31  O   UNL     1      46.124 -21.820   0.780  1.00  0.00    -0.550 OA
ATOM     32  O   UNL     1      46.125 -23.781   1.938  1.00  0.00    -0.550 OA
ENDBRANCH   1  30
BRANCH  27  33
ATOM     33  O   UNL     1      35.840 -16.909  -1.199  1.00  0.00    -0.393 OA
ATOM     34  H   UNL     1      35.437 -17.688  -1.667  1.00  0.00     0.210 HD
ENDBRANCH  27  33
TORSDOF 2
ENDMDL
MODEL 3
REMARK VINA RESULT:   127.019      2.161      3.987
REMARK INTER + INTRA:         137.898
REMARK INTER:                 137.755
REMARK INTRA:                   0.143
REMARK UNBOUND:                -0.259
REMARK SMILES CC1(C)CC[C@]2(C(=O)[O-])CC[C@@]3(C)C(=CC[C@@H]4[C@]5(C)CC[C@H](O)C(C)(C)[C@H]5CC[C@@]43C)[C@@H]2C1
REMARK SMILES IDX 6 1 5 2 10 3 32 4 4 5 11 6 14 7 33 8 2 9 12 10 15 11 1 12
REMARK SMILES IDX 3 13 13 14 30 15 16 16 17 17 29 18 31 19 18 20 28 21 27 22
REMARK SMILES IDX 20 23 19 24 24 25 21 26 22 27 25 28 26 29 7 30 8 31 9 32
REMARK SMILES IDX 23 33
REMARK H PARENT 23 34
REMARK Flexibility Score: inf
ROOT
ATOM      1  C   UNL     1      39.684 -18.458   0.165  1.00  0.00     0.017 C 
ATOM      2  C   UNL     1      38.880 -17.835  -1.012  1.00  0.00     0.014 C 
ATOM      3  C   UNL     1      41.204 -18.253  -0.134  1.00  0.00     0.014 C 
ATOM      4  C   UNL     1      39.363 -20.012   0.321  1.00  0.00     0.028 C 
ATOM      5  C   UNL     1      37.376 -18.136  -0.904  1.00  0.00     0.007 C 
ATOM      6  C   UNL     1      42.121 -18.876   0.946  1.00  0.00     0.013 C 
ATOM      7  C   UNL     1      40.677 -20.835   0.381  1.00  0.00    -0.064 C 
ATOM      8  C   UNL     1      38.346 -20.522  -0.744  1.00  0.00     0.015 C 
ATOM      9  C   UNL     1      37.052 -19.668  -0.849  1.00  0.00    -0.035 C 
ATOM     10  C   UNL     1      41.742 -20.351   1.369  1.00  0.00    -0.006 C 
ATOM     11  C   UNL     1      41.008 -21.686  -0.606  1.00  0.00    -0.027 C 
ATOM     12  C   UNL     1      36.308 -20.075  -2.141  1.00  0.00     0.011 C 
ATOM     13  C   UNL     1      36.116 -19.977   0.343  1.00  0.00     0.011 C 
ATOM     14  C   UNL     1      41.061 -20.324   2.781  1.00  0.00     0.017 C 
ATOM     15  C   UNL     1      43.031 -21.322   1.422  1.00  0.00    -0.020 C 
ATOM     16  C   UNL     1      42.412 -21.949  -1.040  1.00  0.00     0.032 C 
ATOM     17  C   UNL     1      43.573 -21.630  -0.040  1.00  0.00     0.006 C 
ATOM     18  C   UNL     1      42.657 -22.685   2.103  1.00  0.00     0.008 C 
ATOM     19  C   UNL     1      44.134 -20.604   2.284  1.00  0.00     0.012 C 
ATOM     20  C   UNL     1      44.722 -22.744  -0.130  1.00  0.00    -0.025 C 
ATOM     21  C   UNL     1      43.744 -23.770   2.033  1.00  0.00     0.005 C 
ATOM     22  C   UNL     1      44.198 -24.052   0.583  1.00  0.00     0.003 C 
ATOM     23  C   UNL     1      45.104 -23.034  -1.643  1.00  0.00     0.010 C 
ATOM     24  C   UNL     1      46.043 -22.232   0.524  1.00  0.00     0.012 C 
ATOM     25  C   UNL     1      45.103 -25.350   0.419  1.00  0.00    -0.006 C 
ATOM     26  C   UNL     1      45.137 -24.523  -2.010  1.00  0.00     0.033 C 
ATOM     27  C   UNL     1      45.889 -25.322  -0.945  1.00  0.00     0.120 C 
ATOM     28  C   UNL     1      44.178 -26.602   0.456  1.00  0.00     0.014 C 
ATOM     29  C   UNL     1      46.123 -25.506   1.577  1.00  0.00     0.014 C 
ENDROOT
BRANCH   1  30
ATOM     30  C   UNL     1      39.317 -17.658   1.419  1.00  0.00     0.048 C 
ATOM     31  O   UNL     1      39.188 -16.405   1.360  1.00  0.00    -0.550 OA
ATOM     32  O   UNL     1      39.008 -18.298   2.613  1.00  0.00    -0.550 OA
ENDBRANCH   1  30
BRANCH  27  33
ATOM     33  O   UNL     1      46.125 -26.617  -1.445  1.00  0.00    -0.393 OA
ATOM     34  H   UNL     1      47.095 -26.680  -1.650  1.00  0.00     0.210 HD
ENDBRANCH  27  33
TORSDOF 2
ENDMDL
MODEL 4
REMARK VINA RESULT:   127.035      1.700      8.040
REMARK INTER + INTRA:         137.916
REMARK INTER:                 137.556
REMARK INTRA:                   0.360
REMARK UNBOUND:                -0.259
REMARK SMILES CC1(C)CC[C@]2(C(=O)[O-])CC[C@@]3(C)C(=CC[C@@H]4[C@]5(C)CC[C@H](O)C(C)(C)[C@H]5CC[C@@]43C)[C@@H]2C1
REMARK SMILES IDX 6 1 5 2 10 3 32 4 4 5 11 6 14 7 33 8 2 9 12 10 15 11 1 12
REMARK SMILES IDX 3 13 13 14 30 15 16 16 17 17 29 18 31 19 18 20 28 21 27 22
REMARK SMILES IDX 20 23 19 24 24 25 21 26 22 27 25 28 26 29 7 30 8 31 9 32
REMARK SMILES IDX 23 33
REMARK H PARENT 23 34
REMARK Flexibility Score: inf
ROOT
ATOM      1  C   UNL     1      43.441 -24.143  -2.114  1.00  0.00     0.017 C 
ATOM      2  C   UNL     1      44.991 -24.039  -2.038  1.00  0.00     0.014 C 
ATOM      3  C   UNL     1      42.933 -23.020  -3.076  1.00  0.00     0.014 C 
ATOM      4  C   UNL     1      42.781 -23.966  -0.673  1.00  0.00     0.028 C 
ATOM      5  C   UNL     1      45.579 -24.988  -0.982  1.00  0.00     0.007 C 
ATOM      6  C   UNL     1      41.391 -22.983  -3.200  1.00  0.00     0.013 C 
ATOM      7  C   UNL     1      41.654 -22.902  -0.718  1.00  0.00    -0.064 C 
ATOM      8  C   UNL     1      43.841 -23.719   0.443  1.00  0.00     0.015 C 
ATOM      9  C   UNL     1      45.003 -24.751   0.456  1.00  0.00    -0.035 C 
ATOM     10  C   UNL     1      40.611 -23.055  -1.827  1.00  0.00    -0.006 C 
ATOM     11  C   UNL     1      41.779 -21.732  -0.066  1.00  0.00    -0.027 C 
ATOM     12  C   UNL     1      46.125 -24.203   1.367  1.00  0.00     0.011 C 
ATOM     13  C   UNL     1      44.519 -26.087   1.068  1.00  0.00     0.011 C 
ATOM     14  C   UNL     1      39.990 -24.486  -1.661  1.00  0.00     0.017 C 
ATOM     15  C   UNL     1      39.434 -21.954  -1.735  1.00  0.00    -0.020 C 
ATOM     16  C   UNL     1      41.213 -20.442  -0.558  1.00  0.00     0.032 C 
ATOM     17  C   UNL     1      40.033 -20.490  -1.587  1.00  0.00     0.006 C 
ATOM     18  C   UNL     1      38.521 -22.239  -0.490  1.00  0.00     0.008 C 
ATOM     19  C   UNL     1      38.568 -22.071  -3.043  1.00  0.00     0.012 C 
ATOM     20  C   UNL     1      38.965 -19.334  -1.280  1.00  0.00    -0.025 C 
ATOM     21  C   UNL     1      37.485 -21.147  -0.178  1.00  0.00     0.005 C 
ATOM     22  C   UNL     1      38.136 -19.755  -0.004  1.00  0.00     0.003 C 
ATOM     23  C   UNL     1      39.695 -17.944  -1.052  1.00  0.00     0.010 C 
ATOM     24  C   UNL     1      38.034 -19.100  -2.510  1.00  0.00     0.012 C 
ATOM     25  C   UNL     1      37.165 -18.647   0.597  1.00  0.00    -0.006 C 
ATOM     26  C   UNL     1      39.246 -17.196   0.210  1.00  0.00     0.033 C 
ATOM     27  C   UNL     1      37.721 -17.200   0.322  1.00  0.00     0.120 C 
ATOM     28  C   UNL     1      37.053 -18.873   2.134  1.00  0.00     0.014 C 
ATOM     29  C   UNL     1      35.730 -18.747   0.019  1.00  0.00     0.014 C 
ENDROOT
BRANCH   1  30
ATOM     30  C   UNL     1      43.122 -25.505  -2.739  1.00  0.00     0.048 C 
ATOM     31  O   UNL     1      43.894 -26.006  -3.601  1.00  0.00    -0.550 OA
ATOM     32  O   UNL     1      42.049 -26.266  -2.292  1.00  0.00    -0.550 OA
ENDBRANCH   1  30
BRANCH  27  33
ATOM     33  O   UNL     1      37.347 -16.291   1.330  1.00  0.00    -0.393 OA
ATOM     34  H   UNL     1      38.089 -15.636   1.423  1.00  0.00     0.210 HD
ENDBRANCH  27  33
TORSDOF 2
ENDMDL
