MODEL 1
REMARK VINA RESULT:    -3.566      0.000      0.000
REMARK INTER + INTRA:          -4.748
REMARK INTER:                  -4.400
REMARK INTRA:                  -0.348
REMARK UNBOUND:                -0.348
REMARK SMILES C=CC[C@H](C)C(=O)CC
REMARK SMILES IDX 4 1 5 2 6 3 7 4 8 5 9 6 3 7 2 8 1 9
REMARK H PARENT
REMARK Flexibility Score: inf
ROOT
ATOM      1  C   UNL     1      85.214  31.606  65.556  1.00  0.00     0.057 C 
ATOM      2  C   UNL     1      85.479  32.150  66.964  1.00  0.00     0.016 C 
ENDROOT
BRANCH   1   3
ATOM      3  C   UNL     1      86.085  32.315  64.536  1.00  0.00     0.135 C 
ATOM      4  O   UNL     1      85.577  33.145  63.797  1.00  0.00    -0.299 OA
BRANCH   3   5
ATOM      5  C   UNL     1      87.556  32.011  64.387  1.00  0.00     0.072 C 
ATOM      6  C   UNL     1      87.854  30.561  64.758  1.00  0.00     0.012 C 
ENDBRANCH   3   5
ENDBRANCH   1   3
BRANCH   1   7
ATOM      7  C   UNL     1      83.715  31.700  65.202  1.00  0.00     0.038 C 
BRANCH   7   8
ATOM      8  C   UNL     1      83.163  30.386  64.714  1.00  0.00    -0.034 C 
ATOM      9  C   UNL     1      83.973  29.357  64.453  1.00  0.00     0.004 C 
ENDBRANCH   7   8
ENDBRANCH   1   7
TORSDOF 4
ENDMDL
MODEL 2
REMARK VINA RESULT:    -3.531     15.736     16.527
REMARK INTER + INTRA:          -4.705
REMARK INTER:                  -4.522
REMARK INTRA:                  -0.184
REMARK UNBOUND:                -0.348
REMARK SMILES C=CC[C@H](C)C(=O)CC
REMARK SMILES IDX 4 1 5 2 6 3 7 4 8 5 9 6 3 7 2 8 1 9
REMARK H PARENT
REMARK Flexibility Score: inf
ROOT
ATOM      1  C   UNL     1      74.011  34.632  53.015  1.00  0.00     0.057 C 
ATOM      2  C   UNL     1      73.676  35.910  52.238  1.00  0.00     0.016 C 
ENDROOT
BRANCH   1   3
ATOM      3  C   UNL     1      73.757  34.827  54.498  1.00  0.00     0.135 C 
ATOM      4  O   UNL     1      74.200  35.823  55.050  1.00  0.00    -0.299 OA
BRANCH   3   5
ATOM      5  C   UNL     1      72.997  33.817  55.322  1.00  0.00     0.072 C 
ATOM      6  C   UNL     1      72.152  34.507  56.389  1.00  0.00     0.012 C 
ENDBRANCH   3   5
ENDBRANCH   1   3
BRANCH   1   7
ATOM      7  C   UNL     1      75.457  34.176  52.730  1.00  0.00     0.038 C 
BRANCH   7   8
ATOM      8  C   UNL     1      76.327  35.312  52.258  1.00  0.00    -0.034 C 
ATOM      9  C   UNL     1      77.500  35.076  51.665  1.00  0.00     0.004 C 
ENDBRANCH   7   8
ENDBRANCH   1   7
TORSDOF 4
ENDMDL
MODEL 3
REMARK VINA RESULT:    -3.447      1.474      3.505
REMARK INTER + INTRA:          -4.602
REMARK INTER:                  -4.186
REMARK INTRA:                  -0.416
REMARK UNBOUND:                -0.348
REMARK SMILES C=CC[C@H](C)C(=O)CC
REMARK SMILES IDX 4 1 5 2 6 3 7 4 8 5 9 6 3 7 2 8 1 9
REMARK H PARENT
REMARK Flexibility Score: inf
ROOT
ATOM      1  C   UNL     1      85.486  31.726  64.990  1.00  0.00     0.057 C 
ATOM      2  C   UNL     1      85.558  32.912  64.021  1.00  0.00     0.016 C 
ENDROOT
BRANCH   1   3
ATOM      3  C   UNL     1      84.047  31.445  65.382  1.00  0.00     0.135 C 
ATOM      4  O   UNL     1      83.554  32.066  66.312  1.00  0.00    -0.299 OA
BRANCH   3   5
ATOM      5  C   UNL     1      83.212  30.404  64.679  1.00  0.00     0.072 C 
ATOM      6  C   UNL     1      84.033  29.151  64.387  1.00  0.00     0.012 C 
ENDBRANCH   3   5
ENDBRANCH   1   3
BRANCH   1   7
ATOM      7  C   UNL     1      86.386  31.964  66.220  1.00  0.00     0.038 C 
BRANCH   7   8
ATOM      8  C   UNL     1      87.482  30.935  66.328  1.00  0.00    -0.034 C 
ATOM      9  C   UNL     1      87.756  30.116  65.310  1.00  0.00     0.004 C 
ENDBRANCH   7   8
ENDBRANCH   1   7
TORSDOF 4
ENDMDL
MODEL 4
REMARK VINA RESULT:    -3.431     14.423     15.180
REMARK INTER + INTRA:          -4.582
REMARK INTER:                  -4.127
REMARK INTRA:                  -0.455
REMARK UNBOUND:                -0.348
REMARK SMILES C=CC[C@H](C)C(=O)CC
REMARK SMILES IDX 4 1 5 2 6 3 7 4 8 5 9 6 3 7 2 8 1 9
REMARK H PARENT
REMARK Flexibility Score: inf
ROOT
ATOM      1  C   UNL     1      80.505  35.349  51.021  1.00  0.00     0.057 C 
ATOM      2  C   UNL     1      80.072  35.768  49.612  1.00  0.00     0.016 C 
ENDROOT
BRANCH   1   3
ATOM      3  C   UNL     1      81.068  33.940  51.010  1.00  0.00     0.135 C 
ATOM      4  O   UNL     1      81.398  33.443  49.943  1.00  0.00    -0.299 OA
BRANCH   3   5
ATOM      5  C   UNL     1      81.211  33.122  52.269  1.00  0.00     0.072 C 
ATOM      6  C   UNL     1      80.218  31.964  52.284  1.00  0.00     0.012 C 
ENDBRANCH   3   5
ENDBRANCH   1   3
BRANCH   1   7
ATOM      7  C   UNL     1      79.341  35.499  52.023  1.00  0.00     0.038 C 
BRANCH   7   8
ATOM      8  C   UNL     1      78.013  35.142  51.408  1.00  0.00    -0.034 C 
ATOM      9  C   UNL     1      77.199  34.262  51.996  1.00  0.00     0.004 C 
ENDBRANCH   7   8
ENDBRANCH   1   7
TORSDOF 4
ENDMDL
MODEL 5
REMARK VINA RESULT:    -3.397     14.308     15.165
REMARK INTER + INTRA:          -4.540
REMARK INTER:                  -4.038
REMARK INTRA:                  -0.501
REMARK UNBOUND:                -0.348
REMARK SMILES C=CC[C@H](C)C(=O)CC
REMARK SMILES IDX 4 1 5 2 6 3 7 4 8 5 9 6 3 7 2 8 1 9
REMARK H PARENT
REMARK Flexibility Score: inf
ROOT
ATOM      1  C   UNL     1      80.594  35.396  51.290  1.00  0.00     0.057 C 
ATOM      2  C   UNL     1      80.904  35.689  52.762  1.00  0.00     0.016 C 
ENDROOT
BRANCH   1   3
ATOM      3  C   UNL     1      79.150  35.734  50.971  1.00  0.00     0.135 C 
ATOM      4  O   UNL     1      78.859  36.086  49.838  1.00  0.00    -0.299 OA
BRANCH   3   5
ATOM      5  C   UNL     1      78.062  35.677  52.016  1.00  0.00     0.072 C 
ATOM      6  C   UNL     1      77.273  34.375  51.912  1.00  0.00     0.012 C 
ENDBRANCH   3   5
ENDBRANCH   1   3
BRANCH   1   7
ATOM      7  C   UNL     1      80.937  33.934  50.935  1.00  0.00     0.038 C 
BRANCH   7   8
ATOM      8  C   UNL     1      81.006  33.054  52.156  1.00  0.00    -0.034 C 
ATOM      9  C   UNL     1      80.165  32.028  52.309  1.00  0.00     0.004 C 
ENDBRANCH   7   8
ENDBRANCH   1   7
TORSDOF 4
ENDMDL
MODEL 6
REMARK VINA RESULT:    -3.373      1.786      4.012
REMARK INTER + INTRA:          -4.510
REMARK INTER:                  -4.262
REMARK INTRA:                  -0.248
REMARK UNBOUND:                -0.348
REMARK SMILES C=CC[C@H](C)C(=O)CC
REMARK SMILES IDX 4 1 5 2 6 3 7 4 8 5 9 6 3 7 2 8 1 9
REMARK H PARENT
REMARK Flexibility Score: inf
ROOT
ATOM      1  C   UNL     1      86.143  31.884  65.699  1.00  0.00     0.057 C 
ATOM      2  C   UNL     1      86.594  30.432  65.506  1.00  0.00     0.016 C 
ENDROOT
BRANCH   1   3
ATOM      3  C   UNL     1      84.668  31.942  66.050  1.00  0.00     0.135 C 
ATOM      4  O   UNL     1      84.341  32.025  67.224  1.00  0.00    -0.299 OA
BRANCH   3   5
ATOM      5  C   UNL     1      83.589  31.873  64.998  1.00  0.00     0.072 C 
ATOM      6  C   UNL     1      83.100  30.440  64.810  1.00  0.00     0.012 C 
ENDBRANCH   3   5
ENDBRANCH   1   3
BRANCH   1   7
ATOM      7  C   UNL     1      86.476  32.734  64.455  1.00  0.00     0.038 C 
BRANCH   7   8
ATOM      8  C   UNL     1      87.232  33.988  64.811  1.00  0.00    -0.034 C 
ATOM      9  C   UNL     1      88.300  33.940  65.610  1.00  0.00     0.004 C 
ENDBRANCH   7   8
ENDBRANCH   1   7
TORSDOF 4
ENDMDL
MODEL 7
REMARK VINA RESULT:    -3.368      1.743      2.166
REMARK INTER + INTRA:          -4.504
REMARK INTER:                  -4.187
REMARK INTRA:                  -0.317
REMARK UNBOUND:                -0.348
REMARK SMILES C=CC[C@H](C)C(=O)CC
REMARK SMILES IDX 4 1 5 2 6 3 7 4 8 5 9 6 3 7 2 8 1 9
REMARK H PARENT
REMARK Flexibility Score: inf
ROOT
ATOM      1  C   UNL     1      85.869  32.315  65.829  1.00  0.00     0.057 C 
ATOM      2  C   UNL     1      85.910  32.749  64.359  1.00  0.00     0.016 C 
ENDROOT
BRANCH   1   3
ATOM      3  C   UNL     1      86.862  31.197  66.083  1.00  0.00     0.135 C 
ATOM      4  O   UNL     1      87.550  31.233  67.093  1.00  0.00    -0.299 OA
BRANCH   3   5
ATOM      5  C   UNL     1      87.048  30.053  65.117  1.00  0.00     0.072 C 
ATOM      6  C   UNL     1      88.525  29.698  64.968  1.00  0.00     0.012 C 
ENDBRANCH   3   5
ENDBRANCH   1   3
BRANCH   1   7
ATOM      7  C   UNL     1      84.437  31.924  66.248  1.00  0.00     0.038 C 
BRANCH   7   8
ATOM      8  C   UNL     1      83.557  31.632  65.060  1.00  0.00    -0.034 C 
ATOM      9  C   UNL     1      83.145  30.389  64.801  1.00  0.00     0.004 C 
ENDBRANCH   7   8
ENDBRANCH   1   7
TORSDOF 4
ENDMDL
MODEL 8
REMARK VINA RESULT:    -3.350     15.680     16.387
REMARK INTER + INTRA:          -4.482
REMARK INTER:                  -4.331
REMARK INTRA:                  -0.151
REMARK UNBOUND:                -0.348
REMARK SMILES C=CC[C@H](C)C(=O)CC
REMARK SMILES IDX 4 1 5 2 6 3 7 4 8 5 9 6 3 7 2 8 1 9
REMARK H PARENT
REMARK Flexibility Score: inf
ROOT
ATOM      1  C   UNL     1      74.103  35.087  53.106  1.00  0.00     0.057 C 
ATOM      2  C   UNL     1      73.375  35.876  52.012  1.00  0.00     0.016 C 
ENDROOT
BRANCH   1   3
ATOM      3  C   UNL     1      75.494  34.695  52.645  1.00  0.00     0.135 C 
ATOM      4  O   UNL     1      75.838  33.525  52.726  1.00  0.00    -0.299 OA
BRANCH   3   5
ATOM      5  C   UNL     1      76.478  35.707  52.112  1.00  0.00     0.072 C 
ATOM      6  C   UNL     1      77.743  35.023  51.600  1.00  0.00     0.012 C 
ENDBRANCH   3   5
ENDBRANCH   1   3
BRANCH   1   7
ATOM      7  C   UNL     1      73.273  33.864  53.548  1.00  0.00     0.038 C 
BRANCH   7   8
ATOM      8  C   UNL     1      73.308  33.663  55.041  1.00  0.00    -0.034 C 
ATOM      9  C   UNL     1      72.386  34.221  55.829  1.00  0.00     0.004 C 
ENDBRANCH   7   8
ENDBRANCH   1   7
TORSDOF 4
ENDMDL
MODEL 9
REMARK VINA RESULT:    -3.345      0.833      3.362
REMARK INTER + INTRA:          -4.476
REMARK INTER:                  -4.179
REMARK INTRA:                  -0.297
REMARK UNBOUND:                -0.348
REMARK SMILES C=CC[C@H](C)C(=O)CC
REMARK SMILES IDX 4 1 5 2 6 3 7 4 8 5 9 6 3 7 2 8 1 9
REMARK H PARENT
REMARK Flexibility Score: inf
ROOT
ATOM      1  C   UNL     1      86.206  31.825  65.877  1.00  0.00     0.057 C 
ATOM      2  C   UNL     1      85.938  32.007  67.375  1.00  0.00     0.016 C 
ENDROOT
BRANCH   1   3
ATOM      3  C   UNL     1      84.953  32.113  65.071  1.00  0.00     0.135 C 
ATOM      4  O   UNL     1      85.047  32.763  64.041  1.00  0.00    -0.299 OA
BRANCH   3   5
ATOM      5  C   UNL     1      83.589  31.645  65.514  1.00  0.00     0.072 C 
ATOM      6  C   UNL     1      83.171  30.387  64.759  1.00  0.00     0.012 C 
ENDBRANCH   3   5
ENDBRANCH   1   3
BRANCH   1   7
ATOM      7  C   UNL     1      86.772  30.420  65.585  1.00  0.00     0.038 C 
BRANCH   7   8
ATOM      8  C   UNL     1      88.100  30.478  64.876  1.00  0.00    -0.034 C 
ATOM      9  C   UNL     1      88.336  31.397  63.936  1.00  0.00     0.004 C 
ENDBRANCH   7   8
ENDBRANCH   1   7
TORSDOF 4
ENDMDL
