MODEL 1
REMARK VINA RESULT:    -4.165      0.000      0.000
REMARK INTER + INTRA:          -7.835
REMARK INTER:                  -6.722
REMARK INTRA:                  -1.113
REMARK UNBOUND:                -1.113
REMARK SMILES CCCCCCCCCCCCO
REMARK SMILES IDX 7 1 6 2 5 3 4 4 3 5 2 6 1 7 8 8 9 9 10 10 11 11 12 12 13 13
REMARK H PARENT 13 14
REMARK Flexibility Score: inf
ROOT
ATOM      1  C   UNL     1      -6.226   9.195  18.233  1.00  0.00     0.000 C 
ENDROOT
BRANCH   1   2
ATOM      2  C   UNL     1      -6.834   9.289  16.824  1.00  0.00    -0.000 C 
BRANCH   2   3
ATOM      3  C   UNL     1      -7.059  10.742  16.370  1.00  0.00    -0.000 C 
BRANCH   3   4
ATOM      4  C   UNL     1      -6.820  11.760  17.498  1.00  0.00    -0.000 C 
BRANCH   4   5
ATOM      5  C   UNL     1      -6.322  13.117  16.971  1.00  0.00    -0.000 C 
BRANCH   5   6
ATOM      6  C   UNL     1      -5.816  13.034  15.522  1.00  0.00    -0.003 C 
ATOM      7  C   UNL     1      -6.040  14.328  14.741  1.00  0.00     0.004 C 
ENDBRANCH   5   6
ENDBRANCH   4   5
ENDBRANCH   3   4
ENDBRANCH   2   3
ENDBRANCH   1   2
BRANCH   1   8
ATOM      8  C   UNL     1      -4.797   8.625  18.221  1.00  0.00     0.000 C 
BRANCH   8   9
ATOM      9  C   UNL     1      -3.764   9.595  18.819  1.00  0.00     0.000 C 
BRANCH   9  10
ATOM     10  C   UNL     1      -3.080  10.529  17.801  1.00  0.00     0.002 C 
BRANCH  10  11
ATOM     11  C   UNL     1      -3.092  12.016  18.212  1.00  0.00     0.028 C 
BRANCH  11  12
ATOM     12  C   UNL     1      -1.972  12.357  19.203  1.00  0.00     0.156 C 
BRANCH  12  13
ATOM     13  O   UNL     1      -1.417  13.607  18.895  1.00  0.00    -0.396 OA
ATOM     14  H   UNL     1      -0.873  13.482  18.073  1.00  0.00     0.210 HD
ENDBRANCH  12  13
ENDBRANCH  11  12
ENDBRANCH  10  11
ENDBRANCH   9  10
ENDBRANCH   8   9
ENDBRANCH   1   8
TORSDOF 11
ENDMDL
MODEL 2
REMARK VINA RESULT:    -3.907      2.053      2.381
REMARK INTER + INTRA:          -7.418
REMARK INTER:                  -6.415
REMARK INTRA:                  -1.003
REMARK UNBOUND:                -1.113
REMARK SMILES CCCCCCCCCCCCO
REMARK SMILES IDX 7 1 6 2 5 3 4 4 3 5 2 6 1 7 8 8 9 9 10 10 11 11 12 12 13 13
REMARK H PARENT 13 14
REMARK Flexibility Score: inf
ROOT
ATOM      1  C   UNL     1      -7.242   9.024  18.740  1.00  0.00     0.000 C 
ENDROOT
BRANCH   1   2
ATOM      2  C   UNL     1      -7.870  10.427  18.763  1.00  0.00    -0.000 C 
BRANCH   2   3
ATOM      3  C   UNL     1      -7.618  11.212  17.464  1.00  0.00    -0.000 C 
BRANCH   3   4
ATOM      4  C   UNL     1      -7.009  12.601  17.719  1.00  0.00    -0.000 C 
BRANCH   4   5
ATOM      5  C   UNL     1      -5.690  12.815  16.957  1.00  0.00    -0.000 C 
BRANCH   5   6
ATOM      6  C   UNL     1      -5.874  12.753  15.433  1.00  0.00    -0.003 C 
ATOM      7  C   UNL     1      -6.087  14.130  14.805  1.00  0.00     0.004 C 
ENDBRANCH   5   6
ENDBRANCH   4   5
ENDBRANCH   3   4
ENDBRANCH   2   3
ENDBRANCH   1   2
BRANCH   1   8
ATOM      8  C   UNL     1      -6.221   8.854  17.602  1.00  0.00     0.000 C 
BRANCH   8   9
ATOM      9  C   UNL     1      -4.801   8.561  18.115  1.00  0.00     0.000 C 
BRANCH   9  10
ATOM     10  C   UNL     1      -3.939   9.807  18.399  1.00  0.00     0.002 C 
BRANCH  10  11
ATOM     11  C   UNL     1      -2.781  10.005  17.399  1.00  0.00     0.028 C 
BRANCH  11  12
ATOM     12  C   UNL     1      -1.894   8.759  17.277  1.00  0.00     0.156 C 
BRANCH  12  13
ATOM     13  O   UNL     1      -1.605   8.501  15.930  1.00  0.00    -0.396 OA
ATOM     14  H   UNL     1      -1.356   9.371  15.521  1.00  0.00     0.210 HD
ENDBRANCH  12  13
ENDBRANCH  11  12
ENDBRANCH  10  11
ENDBRANCH   9  10
ENDBRANCH   8   9
ENDBRANCH   1   8
TORSDOF 11
ENDMDL
MODEL 3
REMARK VINA RESULT:    -3.764      3.879      6.489
REMARK INTER + INTRA:          -7.187
REMARK INTER:                  -6.310
REMARK INTRA:                  -0.878
REMARK UNBOUND:                -1.113
REMARK SMILES CCCCCCCCCCCCO
REMARK SMILES IDX 7 1 6 2 5 3 4 4 3 5 2 6 1 7 8 8 9 9 10 10 11 11 12 12 13 13
REMARK H PARENT 13 14
REMARK Flexibility Score: inf
ROOT
ATOM      1  C   UNL     1       1.540  10.142  21.319  1.00  0.00     0.000 C 
ENDROOT
BRANCH   1   2
ATOM      2  C   UNL     1       0.959   8.797  20.853  1.00  0.00    -0.000 C 
BRANCH   2   3
ATOM      3  C   UNL     1      -0.565   8.847  20.648  1.00  0.00    -0.000 C 
BRANCH   3   4
ATOM      4  C   UNL     1      -1.088  10.277  20.435  1.00  0.00    -0.000 C 
BRANCH   4   5
ATOM      5  C   UNL     1      -2.413  10.309  19.655  1.00  0.00    -0.000 C 
BRANCH   5   6
ATOM      6  C   UNL     1      -2.393  11.327  18.504  1.00  0.00    -0.003 C 
ATOM      7  C   UNL     1      -2.022  12.736  18.964  1.00  0.00     0.004 C 
ENDBRANCH   5   6
ENDBRANCH   4   5
ENDBRANCH   3   4
ENDBRANCH   2   3
ENDBRANCH   1   2
BRANCH   1   8
ATOM      8  C   UNL     1       2.884  10.468  20.645  1.00  0.00     0.000 C 
BRANCH   8   9
ATOM      9  C   UNL     1       2.876  11.829  19.928  1.00  0.00     0.000 C 
BRANCH   9  10
ATOM     10  C   UNL     1       1.669  12.731  20.254  1.00  0.00     0.002 C 
BRANCH  10  11
ATOM     11  C   UNL     1       1.465  13.886  19.252  1.00  0.00     0.028 C 
BRANCH  11  12
ATOM     12  C   UNL     1       1.040  15.189  19.940  1.00  0.00     0.156 C 
BRANCH  12  13
ATOM     13  O   UNL     1      -0.124  15.694  19.343  1.00  0.00    -0.396 OA
ATOM     14  H   UNL     1      -0.772  14.942  19.304  1.00  0.00     0.210 HD
ENDBRANCH  12  13
ENDBRANCH  11  12
ENDBRANCH  10  11
ENDBRANCH   9  10
ENDBRANCH   8   9
ENDBRANCH   1   8
TORSDOF 11
ENDMDL
MODEL 4
REMARK VINA RESULT:    -3.750      1.545      4.222
REMARK INTER + INTRA:          -7.165
REMARK INTER:                  -5.964
REMARK INTRA:                  -1.202
REMARK UNBOUND:                -1.113
REMARK SMILES CCCCCCCCCCCCO
REMARK SMILES IDX 7 1 6 2 5 3 4 4 3 5 2 6 1 7 8 8 9 9 10 10 11 11 12 12 13 13
REMARK H PARENT 13 14
REMARK Flexibility Score: inf
ROOT
ATOM      1  C   UNL     1      -6.660   9.175  18.331  1.00  0.00     0.000 C 
ENDROOT
BRANCH   1   2
ATOM      2  C   UNL     1      -5.643   8.057  18.613  1.00  0.00    -0.000 C 
BRANCH   2   3
ATOM      3  C   UNL     1      -4.272   8.598  19.056  1.00  0.00    -0.000 C 
BRANCH   3   4
ATOM      4  C   UNL     1      -3.164   8.319  18.027  1.00  0.00    -0.000 C 
BRANCH   4   5
ATOM      5  C   UNL     1      -2.364   9.582  17.666  1.00  0.00    -0.000 C 
BRANCH   5   6
ATOM      6  C   UNL     1      -3.253  10.832  17.564  1.00  0.00    -0.003 C 
ATOM      7  C   UNL     1      -2.700  12.018  18.352  1.00  0.00     0.004 C 
ENDBRANCH   5   6
ENDBRANCH   4   5
ENDBRANCH   3   4
ENDBRANCH   2   3
ENDBRANCH   1   2
BRANCH   1   8
ATOM      8  C   UNL     1      -6.989   9.307  16.835  1.00  0.00     0.000 C 
BRANCH   8   9
ATOM      9  C   UNL     1      -6.919  10.761  16.336  1.00  0.00     0.000 C 
BRANCH   9  10
ATOM     10  C   UNL     1      -6.862  11.829  17.446  1.00  0.00     0.002 C 
BRANCH  10  11
ATOM     11  C   UNL     1      -6.118  13.117  17.034  1.00  0.00     0.028 C 
BRANCH  11  12
ATOM     12  C   UNL     1      -5.923  13.219  15.517  1.00  0.00     0.156 C 
BRANCH  12  13
ATOM     13  O   UNL     1      -4.578  13.003  15.186  1.00  0.00    -0.396 OA
ATOM     14  H   UNL     1      -4.531  12.109  14.756  1.00  0.00     0.210 HD
ENDBRANCH  12  13
ENDBRANCH  11  12
ENDBRANCH  10  11
ENDBRANCH   9  10
ENDBRANCH   8   9
ENDBRANCH   1   8
TORSDOF 11
ENDMDL
MODEL 5
REMARK VINA RESULT:    -3.707      3.683      7.054
REMARK INTER + INTRA:          -7.095
REMARK INTER:                  -6.174
REMARK INTRA:                  -0.922
REMARK UNBOUND:                -1.113
REMARK SMILES CCCCCCCCCCCCO
REMARK SMILES IDX 7 1 6 2 5 3 4 4 3 5 2 6 1 7 8 8 9 9 10 10 11 11 12 12 13 13
REMARK H PARENT 13 14
REMARK Flexibility Score: inf
ROOT
ATOM      1  C   UNL     1       0.628   9.327  20.760  1.00  0.00     0.000 C 
ENDROOT
BRANCH   1   2
ATOM      2  C   UNL     1       1.703  10.240  21.371  1.00  0.00    -0.000 C 
BRANCH   2   3
ATOM      3  C   UNL     1       2.872  10.508  20.408  1.00  0.00    -0.000 C 
BRANCH   3   4
ATOM      4  C   UNL     1       2.893  11.955  19.889  1.00  0.00    -0.000 C 
BRANCH   4   5
ATOM      5  C   UNL     1       1.732  12.797  20.444  1.00  0.00    -0.000 C 
BRANCH   5   6
ATOM      6  C   UNL     1       1.195  13.807  19.417  1.00  0.00    -0.003 C 
ATOM      7  C   UNL     1       1.302  15.254  19.897  1.00  0.00     0.004 C 
ENDBRANCH   5   6
ENDBRANCH   4   5
ENDBRANCH   3   4
ENDBRANCH   2   3
ENDBRANCH   1   2
BRANCH   1   8
ATOM      8  C   UNL     1      -0.798   9.763  21.138  1.00  0.00     0.000 C 
BRANCH   8   9
ATOM      9  C   UNL     1      -1.629  10.200  19.919  1.00  0.00     0.000 C 
BRANCH   9  10
ATOM     10  C   UNL     1      -1.911  11.714  19.832  1.00  0.00     0.002 C 
BRANCH  10  11
ATOM     11  C   UNL     1      -2.272  12.199  18.412  1.00  0.00     0.028 C 
BRANCH  11  12
ATOM     12  C   UNL     1      -3.568  11.568  17.890  1.00  0.00     0.156 C 
BRANCH  12  13
ATOM     13  O   UNL     1      -3.291  10.707  16.820  1.00  0.00    -0.396 OA
ATOM     14  H   UNL     1      -4.130  10.629  16.293  1.00  0.00     0.210 HD
ENDBRANCH  12  13
ENDBRANCH  11  12
ENDBRANCH  10  11
ENDBRANCH   9  10
ENDBRANCH   8   9
ENDBRANCH   1   8
TORSDOF 11
ENDMDL
MODEL 6
REMARK VINA RESULT:    -3.604      3.676      7.074
REMARK INTER + INTRA:          -6.929
REMARK INTER:                  -6.477
REMARK INTRA:                  -0.452
REMARK UNBOUND:                -1.113
REMARK SMILES CCCCCCCCCCCCO
REMARK SMILES IDX 7 1 6 2 5 3 4 4 3 5 2 6 1 7 8 8 9 9 10 10 11 11 12 12 13 13
REMARK H PARENT 13 14
REMARK Flexibility Score: inf
ROOT
ATOM      1  C   UNL     1      -2.275   9.928  19.486  1.00  0.00     0.000 C 
ENDROOT
BRANCH   1   2
ATOM      2  C   UNL     1      -0.981   9.239  19.950  1.00  0.00    -0.000 C 
BRANCH   2   3
ATOM      3  C   UNL     1      -0.089  10.160  20.800  1.00  0.00    -0.000 C 
BRANCH   3   4
ATOM      4  C   UNL     1       1.375   9.692  20.843  1.00  0.00    -0.000 C 
BRANCH   4   5
ATOM      5  C   UNL     1       2.351  10.838  21.163  1.00  0.00    -0.000 C 
BRANCH   5   6
ATOM      6  C   UNL     1       3.336  11.108  20.014  1.00  0.00    -0.003 C 
ATOM      7  C   UNL     1       4.433  10.050  19.913  1.00  0.00     0.004 C 
ENDBRANCH   5   6
ENDBRANCH   4   5
ENDBRANCH   3   4
ENDBRANCH   2   3
ENDBRANCH   1   2
BRANCH   1   8
ATOM      8  C   UNL     1      -2.189  11.461  19.574  1.00  0.00     0.000 C 
BRANCH   8   9
ATOM      9  C   UNL     1      -2.530  12.154  18.243  1.00  0.00     0.000 C 
BRANCH   9  10
ATOM     10  C   UNL     1      -3.629  11.463  17.411  1.00  0.00     0.002 C 
BRANCH  10  11
ATOM     11  C   UNL     1      -4.971  12.225  17.397  1.00  0.00     0.028 C 
BRANCH  11  12
ATOM     12  C   UNL     1      -5.497  12.455  15.975  1.00  0.00     0.156 C 
BRANCH  12  13
ATOM     13  O   UNL     1      -4.491  13.005  15.169  1.00  0.00    -0.396 OA
ATOM     14  H   UNL     1      -4.944  13.408  14.383  1.00  0.00     0.210 HD
ENDBRANCH  12  13
ENDBRANCH  11  12
ENDBRANCH  10  11
ENDBRANCH   9  10
ENDBRANCH   8   9
ENDBRANCH   1   8
TORSDOF 11
ENDMDL
MODEL 7
REMARK VINA RESULT:    -3.520      2.398      5.690
REMARK INTER + INTRA:          -6.794
REMARK INTER:                  -5.716
REMARK INTRA:                  -1.077
REMARK UNBOUND:                -1.113
REMARK SMILES CCCCCCCCCCCCO
REMARK SMILES IDX 7 1 6 2 5 3 4 4 3 5 2 6 1 7 8 8 9 9 10 10 11 11 12 12 13 13
REMARK H PARENT 13 14
REMARK Flexibility Score: inf
ROOT
ATOM      1  C   UNL     1      -1.864  12.020  19.396  1.00  0.00     0.000 C 
ENDROOT
BRANCH   1   2
ATOM      2  C   UNL     1      -2.079  10.777  20.275  1.00  0.00    -0.000 C 
BRANCH   2   3
ATOM      3  C   UNL     1      -0.820   9.899  20.381  1.00  0.00    -0.000 C 
BRANCH   3   4
ATOM      4  C   UNL     1      -0.929   8.604  19.559  1.00  0.00    -0.000 C 
BRANCH   4   5
ATOM      5  C   UNL     1      -2.386   8.153  19.360  1.00  0.00    -0.000 C 
BRANCH   5   6
ATOM      6  C   UNL     1      -2.720   7.880  17.885  1.00  0.00    -0.003 C 
ATOM      7  C   UNL     1      -1.519   8.069  16.960  1.00  0.00     0.004 C 
ENDBRANCH   5   6
ENDBRANCH   4   5
ENDBRANCH   3   4
ENDBRANCH   2   3
ENDBRANCH   1   2
BRANCH   1   8
ATOM      8  C   UNL     1      -2.409  11.834  17.970  1.00  0.00     0.000 C 
BRANCH   8   9
ATOM      9  C   UNL     1      -3.881  11.388  17.949  1.00  0.00     0.000 C 
BRANCH   9  10
ATOM     10  C   UNL     1      -4.872  12.436  17.404  1.00  0.00     0.002 C 
BRANCH  10  11
ATOM     11  C   UNL     1      -5.783  11.905  16.277  1.00  0.00     0.028 C 
BRANCH  11  12
ATOM     12  C   UNL     1      -6.071  12.968  15.210  1.00  0.00     0.156 C 
BRANCH  12  13
ATOM     13  O   UNL     1      -4.919  13.725  14.957  1.00  0.00    -0.396 OA
ATOM     14  H   UNL     1      -4.144  13.119  15.096  1.00  0.00     0.210 HD
ENDBRANCH  12  13
ENDBRANCH  11  12
ENDBRANCH  10  11
ENDBRANCH   9  10
ENDBRANCH   8   9
ENDBRANCH   1   8
TORSDOF 11
ENDMDL
MODEL 8
REMARK VINA RESULT:    -3.489      5.555      8.066
REMARK INTER + INTRA:          -6.743
REMARK INTER:                  -5.756
REMARK INTRA:                  -0.987
REMARK UNBOUND:                -1.113
REMARK SMILES CCCCCCCCCCCCO
REMARK SMILES IDX 7 1 6 2 5 3 4 4 3 5 2 6 1 7 8 8 9 9 10 10 11 11 12 12 13 13
REMARK H PARENT 13 14
REMARK Flexibility Score: inf
ROOT
ATOM      1  C   UNL     1       4.003   9.948  21.081  1.00  0.00     0.000 C 
ENDROOT
BRANCH   1   2
ATOM      2  C   UNL     1       3.227   8.649  21.353  1.00  0.00    -0.000 C 
BRANCH   2   3
ATOM      3  C   UNL     1       2.036   8.856  22.305  1.00  0.00    -0.000 C 
BRANCH   3   4
ATOM      4  C   UNL     1       0.680   8.657  21.610  1.00  0.00    -0.000 C 
BRANCH   4   5
ATOM      5  C   UNL     1      -0.321   9.778  21.938  1.00  0.00    -0.000 C 
BRANCH   5   6
ATOM      6  C   UNL     1      -1.298  10.051  20.784  1.00  0.00    -0.003 C 
ATOM      7  C   UNL     1      -1.103   9.099  19.605  1.00  0.00     0.004 C 
ENDBRANCH   5   6
ENDBRANCH   4   5
ENDBRANCH   3   4
ENDBRANCH   2   3
ENDBRANCH   1   2
BRANCH   1   8
ATOM      8  C   UNL     1       3.302  10.847  20.047  1.00  0.00     0.000 C 
BRANCH   8   9
ATOM      9  C   UNL     1       2.695  12.112  20.675  1.00  0.00     0.000 C 
BRANCH   9  10
ATOM     10  C   UNL     1       1.348  12.558  20.070  1.00  0.00     0.002 C 
BRANCH  10  11
ATOM     11  C   UNL     1       1.452  13.806  19.168  1.00  0.00     0.028 C 
BRANCH  11  12
ATOM     12  C   UNL     1       1.028  15.089  19.893  1.00  0.00     0.156 C 
BRANCH  12  13
ATOM     13  O   UNL     1      -0.136  15.611  19.313  1.00  0.00    -0.396 OA
ATOM     14  H   UNL     1       0.044  15.693  18.339  1.00  0.00     0.210 HD
ENDBRANCH  12  13
ENDBRANCH  11  12
ENDBRANCH  10  11
ENDBRANCH   9  10
ENDBRANCH   8   9
ENDBRANCH   1   8
TORSDOF 11
ENDMDL
MODEL 9
REMARK VINA RESULT:    -3.478      2.954      6.472
REMARK INTER + INTRA:          -6.726
REMARK INTER:                  -6.099
REMARK INTRA:                  -0.628
REMARK UNBOUND:                -1.113
REMARK SMILES CCCCCCCCCCCCO
REMARK SMILES IDX 7 1 6 2 5 3 4 4 3 5 2 6 1 7 8 8 9 9 10 10 11 11 12 12 13 13
REMARK H PARENT 13 14
REMARK Flexibility Score: inf
ROOT
ATOM      1  C   UNL     1      -2.342  12.064  18.610  1.00  0.00     0.000 C 
ENDROOT
BRANCH   1   2
ATOM      2  C   UNL     1      -1.381  11.751  19.768  1.00  0.00    -0.000 C 
BRANCH   2   3
ATOM      3  C   UNL     1      -1.934  10.682  20.727  1.00  0.00    -0.000 C 
BRANCH   3   4
ATOM      4  C   UNL     1      -0.825   9.865  21.409  1.00  0.00    -0.000 C 
BRANCH   4   5
ATOM      5  C   UNL     1       0.400   9.662  20.501  1.00  0.00    -0.000 C 
BRANCH   5   6
ATOM      6  C   UNL     1       1.717  10.035  21.199  1.00  0.00    -0.003 C 
ATOM      7  C   UNL     1       2.621  10.909  20.331  1.00  0.00     0.004 C 
ENDBRANCH   5   6
ENDBRANCH   4   5
ENDBRANCH   3   4
ENDBRANCH   2   3
ENDBRANCH   1   2
BRANCH   1   8
ATOM      8  C   UNL     1      -2.874  10.793  17.926  1.00  0.00     0.000 C 
BRANCH   8   9
ATOM      9  C   UNL     1      -4.336  10.930  17.470  1.00  0.00     0.000 C 
BRANCH   9  10
ATOM     10  C   UNL     1      -4.879  12.373  17.441  1.00  0.00     0.002 C 
BRANCH  10  11
ATOM     11  C   UNL     1      -6.217  12.521  16.687  1.00  0.00     0.028 C 
BRANCH  11  12
ATOM     12  C   UNL     1      -6.017  12.761  15.185  1.00  0.00     0.156 C 
BRANCH  12  13
ATOM     13  O   UNL     1      -4.744  13.295  14.945  1.00  0.00    -0.396 OA
ATOM     14  H   UNL     1      -4.858  14.003  14.257  1.00  0.00     0.210 HD
ENDBRANCH  12  13
ENDBRANCH  11  12
ENDBRANCH  10  11
ENDBRANCH   9  10
ENDBRANCH   8   9
ENDBRANCH   1   8
TORSDOF 11
ENDMDL
