MODEL 1
REMARK VINA RESULT:    -5.166      0.000      0.000
REMARK INTER + INTRA:          -7.014
REMARK INTER:                  -7.280
REMARK INTRA:                   0.266
REMARK UNBOUND:                 0.266
REMARK SMILES CC1=CCC(=C(C)C)C(=O)CC(C)=CCC1
REMARK SMILES IDX 12 1 14 2 13 3 15 4 16 5 2 6 1 7 3 8 11 10 9 11 10 12 5 13
REMARK SMILES IDX 6 14 7 15 8 16 4 17
REMARK H PARENT
REMARK Flexibility Score: 60.00
ROOT
ATOM      1  C   UNL     1      28.313 -11.014  27.855  1.00  0.00    -0.070 C 
ATOM      2  C   UNL     1      29.208 -10.339  28.611  1.00  0.00    -0.027 C 
ATOM      3  C   UNL     1      28.624 -11.221  26.393  1.00  0.00     0.039 C 
ENDROOT
BRANCH   2   4
ATOM      4  C   UNL     1      29.011  -9.931  30.051  1.00  0.00     0.032 C 
BRANCH   4   5
ATOM      5  C   UNL     1      30.081 -10.439  31.029  1.00  0.00     0.034 C 
BRANCH   5   6
ATOM      6  C   UNL     1      30.379 -11.921  30.901  1.00  0.00    -0.077 C 
ATOM      7  C   UNL     1      31.788 -12.326  30.546  1.00  0.00     0.039 C 
ATOM      8  C   UNL     1      29.488 -12.913  31.154  1.00  0.00    -0.023 CG0
ATOM      9  G   UNL     1      27.994 -12.802  31.391  1.00  0.00     0.000 G0
ENDBRANCH   5   6
ENDBRANCH   4   5
ENDBRANCH   2   4
BRANCH   1  10
ATOM     10  C   UNL     1      27.058 -11.647  28.416  1.00  0.00     0.111 C 
BRANCH  10  11
ATOM     11  C   UNL     1      27.333 -13.037  28.931  1.00  0.00     0.163 C 
ATOM     12  O   UNL     1      27.797 -13.900  28.139  1.00  0.00    -0.294 OA
BRANCH  11  13
ATOM     13  C   UNL     1      27.085 -13.421  30.346  1.00  0.00    -0.002 C 
ATOM     14  C   UNL     1      26.180 -14.393  30.646  1.00  0.00    -0.069 C 
ATOM     15  C   UNL     1      26.000 -14.896  32.058  1.00  0.00     0.039 C 
ATOM     16  C   UNL     1      25.301 -14.985  29.569  1.00  0.00     0.039 C 
BRANCH  13  17
ATOM     17  C   UNL     1      28.000 -12.814  31.393  1.00  0.00     0.066 CG0
ATOM     18  G   UNL     1      29.494 -12.916  31.150  1.00  0.00     0.000 G0
ENDBRANCH  13  17
ENDBRANCH  11  13
ENDBRANCH  10  11
ENDBRANCH   1  10
TORSDOF 0
ENDMDL
MODEL 2
REMARK VINA RESULT:    -4.958      2.108      3.516
REMARK INTER + INTRA:          -6.720
REMARK INTER:                  -7.281
REMARK INTRA:                   0.560
REMARK UNBOUND:                 0.266
REMARK SMILES CC1=CCC(=C(C)C)C(=O)CC(C)=CCC1
REMARK SMILES IDX 12 1 14 2 13 3 15 4 16 5 2 6 1 7 3 8 11 10 9 11 10 12 5 13
REMARK SMILES IDX 6 14 7 15 8 16 4 17
REMARK H PARENT
REMARK Flexibility Score: 60.00
ROOT
ATOM      1  C   UNL     1      28.200 -12.968  30.979  1.00  0.00    -0.070 C 
ATOM      2  C   UNL     1      29.424 -13.388  31.376  1.00  0.00    -0.027 C 
ATOM      3  C   UNL     1      27.053 -13.946  31.047  1.00  0.00     0.039 C 
ENDROOT
BRANCH   2   4
ATOM      4  C   UNL     1      30.704 -12.596  31.262  1.00  0.00     0.032 C 
BRANCH   4   5
ATOM      5  C   UNL     1      30.956 -11.951  29.891  1.00  0.00     0.034 C 
BRANCH   5   6
ATOM      6  C   UNL     1      31.053 -12.946  28.750  1.00  0.00    -0.077 C 
ATOM      7  C   UNL     1      32.197 -13.929  28.771  1.00  0.00     0.039 C 
ATOM      8  C   UNL     1      30.144 -13.065  27.749  1.00  0.00    -0.023 CG0
ATOM      9  G   UNL     1      28.992 -12.141  27.405  1.00  0.00     0.000 G0
ENDBRANCH   5   6
ENDBRANCH   4   5
ENDBRANCH   2   4
BRANCH   1  10
ATOM     10  C   UNL     1      27.905 -11.546  30.554  1.00  0.00     0.111 C 
BRANCH  10  11
ATOM     11  C   UNL     1      27.266 -11.509  29.190  1.00  0.00     0.163 C 
ATOM     12  O   UNL     1      26.368 -10.655  28.960  1.00  0.00    -0.294 OA
BRANCH  11  13
ATOM     13  C   UNL     1      27.666 -12.439  28.101  1.00  0.00    -0.002 C 
ATOM     14  C   UNL     1      26.801 -13.393  27.659  1.00  0.00    -0.069 C 
ATOM     15  C   UNL     1      27.127 -14.266  26.470  1.00  0.00     0.039 C 
ATOM     16  C   UNL     1      25.487 -13.627  28.367  1.00  0.00     0.039 C 
BRANCH  13  17
ATOM     17  C   UNL     1      28.986 -12.158  27.407  1.00  0.00     0.066 CG0
ATOM     18  G   UNL     1      30.153 -13.067  27.743  1.00  0.00     0.000 G0
ENDBRANCH  13  17
ENDBRANCH  11  13
ENDBRANCH  10  11
ENDBRANCH   1  10
TORSDOF 0
ENDMDL
MODEL 3
REMARK VINA RESULT:    -4.926      2.268      4.797
REMARK INTER + INTRA:          -6.676
REMARK INTER:                  -7.553
REMARK INTRA:                   0.876
REMARK UNBOUND:                 0.266
REMARK SMILES CC1=CCC(=C(C)C)C(=O)CC(C)=CCC1
REMARK SMILES IDX 12 1 14 2 13 3 15 4 16 5 2 6 1 7 3 8 11 10 9 11 10 12 5 13
REMARK SMILES IDX 6 14 7 15 8 16 4 17
REMARK H PARENT
REMARK Flexibility Score: 60.00
ROOT
ATOM      1  C   UNL     1      27.307 -13.041  30.963  1.00  0.00    -0.070 C 
ATOM      2  C   UNL     1      26.798 -13.996  30.152  1.00  0.00    -0.027 C 
ATOM      3  C   UNL     1      27.866 -13.462  32.300  1.00  0.00     0.039 C 
ENDROOT
BRANCH   2   4
ATOM      4  C   UNL     1      26.088 -13.751  28.843  1.00  0.00     0.032 C 
BRANCH   4   5
ATOM      5  C   UNL     1      26.618 -12.565  28.022  1.00  0.00     0.034 C 
BRANCH   5   6
ATOM      6  C   UNL     1      27.747 -12.926  27.075  1.00  0.00    -0.077 C 
ATOM      7  C   UNL     1      27.501 -14.031  26.078  1.00  0.00     0.039 C 
ATOM      8  C   UNL     1      28.938 -12.280  27.011  1.00  0.00    -0.023 CG0
ATOM      9  G   UNL     1      29.503 -11.243  27.963  1.00  0.00     0.000 G0
ENDBRANCH   5   6
ENDBRANCH   4   5
ENDBRANCH   2   4
BRANCH   1  10
ATOM     10  C   UNL     1      27.424 -11.586  30.565  1.00  0.00     0.111 C 
BRANCH  10  11
ATOM     11  C   UNL     1      28.867 -11.168  30.449  1.00  0.00     0.163 C 
ATOM     12  O   UNL     1      29.333 -10.345  31.283  1.00  0.00    -0.294 OA
BRANCH  11  13
ATOM     13  C   UNL     1      29.765 -11.702  29.391  1.00  0.00    -0.002 C 
ATOM     14  C   UNL     1      30.671 -12.675  29.685  1.00  0.00    -0.069 C 
ATOM     15  C   UNL     1      31.505 -13.330  28.609  1.00  0.00     0.039 C 
ATOM     16  C   UNL     1      30.891 -13.116  31.113  1.00  0.00     0.039 C 
BRANCH  13  17
ATOM     17  C   UNL     1      29.499 -11.245  27.969  1.00  0.00     0.066 CG0
ATOM     18  G   UNL     1      28.918 -12.267  27.010  1.00  0.00     0.000 G0
ENDBRANCH  13  17
ENDBRANCH  11  13
ENDBRANCH  10  11
ENDBRANCH   1  10
TORSDOF 0
ENDMDL
MODEL 4
REMARK VINA RESULT:    -4.903      1.252      1.728
REMARK INTER + INTRA:          -6.643
REMARK INTER:                  -6.978
REMARK INTRA:                   0.335
REMARK UNBOUND:                 0.266
REMARK SMILES CC1=CCC(=C(C)C)C(=O)CC(C)=CCC1
REMARK SMILES IDX 12 1 14 2 13 3 15 4 16 5 2 6 1 7 3 8 11 10 9 11 10 12 5 13
REMARK SMILES IDX 6 14 7 15 8 16 4 17
REMARK H PARENT
REMARK Flexibility Score: 60.00
ROOT
ATOM      1  C   UNL     1      29.104 -12.424  27.411  1.00  0.00    -0.070 C 
ATOM      2  C   UNL     1      30.322 -12.472  27.999  1.00  0.00    -0.027 C 
ATOM      3  C   UNL     1      28.897 -11.454  26.274  1.00  0.00     0.039 C 
ENDROOT
BRANCH   2   4
ATOM      4  C   UNL     1      30.676 -13.284  29.221  1.00  0.00     0.032 C 
BRANCH   4   5
ATOM      5  C   UNL     1      30.977 -12.466  30.487  1.00  0.00     0.034 C 
BRANCH   5   6
ATOM      6  C   UNL     1      29.972 -11.363  30.761  1.00  0.00    -0.077 C 
ATOM      7  C   UNL     1      30.456  -9.936  30.681  1.00  0.00     0.039 C 
ATOM      8  C   UNL     1      28.652 -11.563  31.001  1.00  0.00    -0.023 CG0
ATOM      9  G   UNL     1      27.928 -12.868  31.270  1.00  0.00     0.000 G0
ENDBRANCH   5   6
ENDBRANCH   4   5
ENDBRANCH   2   4
BRANCH   1  10
ATOM     10  C   UNL     1      27.966 -13.352  27.777  1.00  0.00     0.111 C 
BRANCH  10  11
ATOM     11  C   UNL     1      27.086 -12.741  28.837  1.00  0.00     0.163 C 
ATOM     12  O   UNL     1      26.436 -11.696  28.563  1.00  0.00    -0.294 OA
BRANCH  11  13
ATOM     13  C   UNL     1      26.949 -13.335  30.193  1.00  0.00    -0.002 C 
ATOM     14  C   UNL     1      26.082 -14.362  30.409  1.00  0.00    -0.069 C 
ATOM     15  C   UNL     1      26.014 -15.073  31.740  1.00  0.00     0.039 C 
ATOM     16  C   UNL     1      25.133 -14.810  29.321  1.00  0.00     0.039 C 
BRANCH  13  17
ATOM     17  C   UNL     1      27.933 -12.869  31.250  1.00  0.00     0.066 CG0
ATOM     18  G   UNL     1      28.650 -11.557  30.998  1.00  0.00     0.000 G0
ENDBRANCH  13  17
ENDBRANCH  11  13
ENDBRANCH  10  11
ENDBRANCH   1  10
TORSDOF 0
ENDMDL
MODEL 5
REMARK VINA RESULT:    -4.873      1.861      3.787
REMARK INTER + INTRA:          -6.601
REMARK INTER:                  -6.918
REMARK INTRA:                   0.317
REMARK UNBOUND:                 0.266
REMARK SMILES CC1=CCC(=C(C)C)C(=O)CC(C)=CCC1
REMARK SMILES IDX 12 1 14 2 13 3 15 4 16 5 2 6 1 7 3 8 11 10 9 11 10 12 5 13
REMARK SMILES IDX 6 14 7 15 8 16 4 17
REMARK H PARENT
REMARK Flexibility Score: 60.00
ROOT
ATOM      1  C   UNL     1      27.057 -13.236  28.006  1.00  0.00    -0.070 C 
ATOM      2  C   UNL     1      26.639 -13.882  29.119  1.00  0.00    -0.027 C 
ATOM      3  C   UNL     1      27.087 -14.000  26.705  1.00  0.00     0.039 C 
ENDROOT
BRANCH   2   4
ATOM      4  C   UNL     1      26.660 -13.321  30.521  1.00  0.00     0.032 C 
BRANCH   4   5
ATOM      5  C   UNL     1      28.035 -12.849  31.017  1.00  0.00     0.034 C 
BRANCH   5   6
ATOM      6  C   UNL     1      28.065 -11.398  31.461  1.00  0.00    -0.077 C 
ATOM      7  C   UNL     1      27.067 -10.963  32.505  1.00  0.00     0.039 C 
ATOM      8  C   UNL     1      28.972 -10.480  31.041  1.00  0.00    -0.023 CG0
ATOM      9  G   UNL     1      29.984 -10.598  29.918  1.00  0.00     0.000 G0
ENDBRANCH   5   6
ENDBRANCH   4   5
ENDBRANCH   2   4
BRANCH   1  10
ATOM     10  C   UNL     1      27.414 -11.765  27.981  1.00  0.00     0.111 C 
BRANCH  10  11
ATOM     11  C   UNL     1      28.899 -11.569  27.817  1.00  0.00     0.163 C 
ATOM     12  O   UNL     1      29.349 -11.237  26.688  1.00  0.00    -0.294 OA
BRANCH  11  13
ATOM     13  C   UNL     1      29.851 -11.744  28.946  1.00  0.00    -0.002 C 
ATOM     14  C   UNL     1      30.661 -12.837  28.999  1.00  0.00    -0.069 C 
ATOM     15  C   UNL     1      31.728 -12.979  30.059  1.00  0.00     0.039 C 
ATOM     16  C   UNL     1      30.499 -13.964  28.005  1.00  0.00     0.039 C 
BRANCH  13  17
ATOM     17  C   UNL     1      29.993 -10.581  29.911  1.00  0.00     0.066 CG0
ATOM     18  G   UNL     1      28.983 -10.489  31.039  1.00  0.00     0.000 G0
ENDBRANCH  13  17
ENDBRANCH  11  13
ENDBRANCH  10  11
ENDBRANCH   1  10
TORSDOF 0
ENDMDL
MODEL 6
REMARK VINA RESULT:    -4.499      1.845      3.231
REMARK INTER + INTRA:          -6.074
REMARK INTER:                  -6.435
REMARK INTRA:                   0.360
REMARK UNBOUND:                 0.266
REMARK SMILES CC1=CCC(=C(C)C)C(=O)CC(C)=CCC1
REMARK SMILES IDX 12 1 14 2 13 3 15 4 16 5 2 6 1 7 3 8 11 10 9 11 10 12 5 13
REMARK SMILES IDX 6 14 7 15 8 16 4 17
REMARK H PARENT
REMARK Flexibility Score: 60.00
ROOT
ATOM      1  C   UNL     1      30.618 -13.039  28.916  1.00  0.00    -0.070 C 
ATOM      2  C   UNL     1      30.757 -13.462  30.194  1.00  0.00    -0.027 C 
ATOM      3  C   UNL     1      30.851 -14.033  27.805  1.00  0.00     0.039 C 
ENDROOT
BRANCH   2   4
ATOM      4  C   UNL     1      30.687 -12.586  31.422  1.00  0.00     0.032 C 
BRANCH   4   5
ATOM      5  C   UNL     1      29.303 -11.994  31.726  1.00  0.00     0.034 C 
BRANCH   5   6
ATOM      6  C   UNL     1      28.158 -12.970  31.530  1.00  0.00    -0.077 C 
ATOM      7  C   UNL     1      28.058 -14.136  32.483  1.00  0.00     0.039 C 
ATOM      8  C   UNL     1      27.174 -12.831  30.606  1.00  0.00    -0.023 CG0
ATOM      9  G   UNL     1      27.095 -11.852  29.451  1.00  0.00     0.000 G0
ENDBRANCH   5   6
ENDBRANCH   4   5
ENDBRANCH   2   4
BRANCH   1  10
ATOM     10  C   UNL     1      30.158 -11.646  28.546  1.00  0.00     0.111 C 
BRANCH  10  11
ATOM     11  C   UNL     1      28.935 -11.693  27.667  1.00  0.00     0.163 C 
ATOM     12  O   UNL     1      28.994 -11.195  26.510  1.00  0.00    -0.294 OA
BRANCH  11  13
ATOM     13  C   UNL     1      27.662 -12.319  28.113  1.00  0.00    -0.002 C 
ATOM     14  C   UNL     1      27.133 -13.368  27.426  1.00  0.00    -0.069 C 
ATOM     15  C   UNL     1      25.915 -14.108  27.926  1.00  0.00     0.039 C 
ATOM     16  C   UNL     1      27.740 -13.813  26.115  1.00  0.00     0.039 C 
BRANCH  13  17
ATOM     17  C   UNL     1      27.096 -11.853  29.442  1.00  0.00     0.066 CG0
ATOM     18  G   UNL     1      27.171 -12.823  30.605  1.00  0.00     0.000 G0
ENDBRANCH  13  17
ENDBRANCH  11  13
ENDBRANCH  10  11
ENDBRANCH   1  10
TORSDOF 0
ENDMDL
MODEL 7
REMARK VINA RESULT:    -4.458      2.164      3.921
REMARK INTER + INTRA:          -6.016
REMARK INTER:                  -6.844
REMARK INTRA:                   0.828
REMARK UNBOUND:                 0.266
REMARK SMILES CC1=CCC(=C(C)C)C(=O)CC(C)=CCC1
REMARK SMILES IDX 12 1 14 2 13 3 15 4 16 5 2 6 1 7 3 8 11 10 9 11 10 12 5 13
REMARK SMILES IDX 6 14 7 15 8 16 4 17
REMARK H PARENT
REMARK Flexibility Score: 60.00
ROOT
ATOM      1  C   UNL     1      30.857 -12.488  30.181  1.00  0.00    -0.070 C 
ATOM      2  C   UNL     1      31.062 -13.504  29.312  1.00  0.00    -0.027 C 
ATOM      3  C   UNL     1      31.665 -12.462  31.455  1.00  0.00     0.039 C 
ENDROOT
BRANCH   2   4
ATOM      4  C   UNL     1      30.264 -13.761  28.057  1.00  0.00     0.032 C 
BRANCH   4   5
ATOM      5  C   UNL     1      29.451 -12.564  27.539  1.00  0.00     0.034 C 
BRANCH   5   6
ATOM      6  C   UNL     1      28.063 -12.928  27.047  1.00  0.00    -0.077 C 
ATOM      7  C   UNL     1      27.949 -13.607  25.704  1.00  0.00     0.039 C 
ATOM      8  C   UNL     1      26.921 -12.755  27.759  1.00  0.00    -0.023 CG0
ATOM      9  G   UNL     1      26.722 -11.990  29.054  1.00  0.00     0.000 G0
ENDBRANCH   5   6
ENDBRANCH   4   5
ENDBRANCH   2   4
BRANCH   1  10
ATOM     10  C   UNL     1      29.922 -11.330  29.903  1.00  0.00     0.111 C 
BRANCH  10  11
ATOM     11  C   UNL     1      28.633 -11.478  30.670  1.00  0.00     0.163 C 
ATOM     12  O   UNL     1      28.453 -10.776  31.702  1.00  0.00    -0.294 OA
BRANCH  11  13
ATOM     13  C   UNL     1      27.560 -12.415  30.244  1.00  0.00    -0.002 C 
ATOM     14  C   UNL     1      27.263 -13.509  30.999  1.00  0.00    -0.069 C 
ATOM     15  C   UNL     1      26.096 -14.407  30.664  1.00  0.00     0.039 C 
ATOM     16  C   UNL     1      28.116 -13.875  32.191  1.00  0.00     0.039 C 
BRANCH  13  17
ATOM     17  C   UNL     1      26.718 -12.000  29.052  1.00  0.00     0.066 CG0
ATOM     18  G   UNL     1      26.918 -12.770  27.760  1.00  0.00     0.000 G0
ENDBRANCH  13  17
ENDBRANCH  11  13
ENDBRANCH  10  11
ENDBRANCH   1  10
TORSDOF 0
ENDMDL
MODEL 8
REMARK VINA RESULT:    -4.266      1.967      4.410
REMARK INTER + INTRA:          -5.746
REMARK INTER:                  -6.227
REMARK INTRA:                   0.481
REMARK UNBOUND:                 0.266
REMARK SMILES CC1=CCC(=C(C)C)C(=O)CC(C)=CCC1
REMARK SMILES IDX 12 1 14 2 13 3 15 4 16 5 2 6 1 7 3 8 11 10 9 11 10 12 5 13
REMARK SMILES IDX 6 14 7 15 8 16 4 17
REMARK H PARENT
REMARK Flexibility Score: 60.00
ROOT
ATOM      1  C   UNL     1      25.799 -14.230  28.324  1.00  0.00    -0.070 C 
ATOM      2  C   UNL     1      26.291 -14.745  27.174  1.00  0.00    -0.027 C 
ATOM      3  C   UNL     1      24.926 -15.110  29.185  1.00  0.00     0.039 C 
ENDROOT
BRANCH   2   4
ATOM      4  C   UNL     1      27.072 -13.980  26.133  1.00  0.00     0.032 C 
BRANCH   4   5
ATOM      5  C   UNL     1      28.506 -13.601  26.535  1.00  0.00     0.034 C 
BRANCH   5   6
ATOM      6  C   UNL     1      28.773 -12.108  26.529  1.00  0.00    -0.077 C 
ATOM      7  C   UNL     1      28.624 -11.373  25.219  1.00  0.00     0.039 C 
ATOM      8  C   UNL     1      29.066 -11.371  27.629  1.00  0.00    -0.023 CG0
ATOM      9  G   UNL     1      29.408 -11.854  29.026  1.00  0.00     0.000 G0
ENDBRANCH   5   6
ENDBRANCH   4   5
ENDBRANCH   2   4
BRANCH   1  10
ATOM     10  C   UNL     1      26.146 -12.848  28.834  1.00  0.00     0.111 C 
BRANCH  10  11
ATOM     11  C   UNL     1      27.220 -12.912  29.890  1.00  0.00     0.163 C 
ATOM     12  O   UNL     1      27.245 -13.897  30.676  1.00  0.00    -0.294 OA
BRANCH  11  13
ATOM     13  C   UNL     1      28.258 -11.856  30.029  1.00  0.00    -0.002 C 
ATOM     14  C   UNL     1      28.260 -11.033  31.113  1.00  0.00    -0.069 C 
ATOM     15  C   UNL     1      29.373 -10.040  31.349  1.00  0.00     0.039 C 
ATOM     16  C   UNL     1      27.125 -11.070  32.110  1.00  0.00     0.039 C 
BRANCH  13  17
ATOM     17  C   UNL     1      29.388 -11.865  29.015  1.00  0.00     0.066 CG0
ATOM     18  G   UNL     1      29.072 -11.357  27.622  1.00  0.00     0.000 G0
ENDBRANCH  13  17
ENDBRANCH  11  13
ENDBRANCH  10  11
ENDBRANCH   1  10
TORSDOF 0
ENDMDL
MODEL 9
REMARK VINA RESULT:    -4.060      1.781      4.031
REMARK INTER + INTRA:          -5.455
REMARK INTER:                  -5.955
REMARK INTRA:                   0.500
REMARK UNBOUND:                 0.266
REMARK SMILES CC1=CCC(=C(C)C)C(=O)CC(C)=CCC1
REMARK SMILES IDX 12 1 14 2 13 3 15 4 16 5 2 6 1 7 3 8 11 10 9 11 10 12 5 13
REMARK SMILES IDX 6 14 7 15 8 16 4 17
REMARK H PARENT
REMARK Flexibility Score: 60.00
ROOT
ATOM      1  C   UNL     1      26.379 -13.630  28.404  1.00  0.00    -0.070 C 
ATOM      2  C   UNL     1      25.951 -14.618  29.223  1.00  0.00    -0.027 C 
ATOM      3  C   UNL     1      26.841 -14.003  27.016  1.00  0.00     0.039 C 
ENDROOT
BRANCH   2   4
ATOM      4  C   UNL     1      25.573 -14.453  30.675  1.00  0.00     0.032 C 
BRANCH   4   5
ATOM      5  C   UNL     1      26.703 -14.721  31.681  1.00  0.00     0.034 C 
BRANCH   5   6
ATOM      6  C   UNL     1      27.376 -13.464  32.201  1.00  0.00    -0.077 C 
ATOM      7  C   UNL     1      26.780 -12.801  33.418  1.00  0.00     0.039 C 
ATOM      8  C   UNL     1      28.517 -12.933  31.695  1.00  0.00    -0.023 CG0
ATOM      9  G   UNL     1      29.245 -13.301  30.417  1.00  0.00     0.000 G0
ENDBRANCH   5   6
ENDBRANCH   4   5
ENDBRANCH   2   4
BRANCH   1  10
ATOM     10  C   UNL     1      26.340 -12.164  28.776  1.00  0.00     0.111 C 
BRANCH  10  11
ATOM     11  C   UNL     1      27.699 -11.676  29.207  1.00  0.00     0.163 C 
ATOM     12  O   UNL     1      27.816 -10.495  29.634  1.00  0.00    -0.294 OA
BRANCH  11  13
ATOM     13  C   UNL     1      28.905 -12.543  29.156  1.00  0.00    -0.002 C 
ATOM     14  C   UNL     1      29.728 -12.514  28.072  1.00  0.00    -0.069 C 
ATOM     15  C   UNL     1      31.028 -13.282  28.045  1.00  0.00     0.039 C 
ATOM     16  C   UNL     1      29.350 -11.723  26.841  1.00  0.00     0.039 C 
BRANCH  13  17
ATOM     17  C   UNL     1      29.256 -13.307  30.420  1.00  0.00     0.066 CG0
ATOM     18  G   UNL     1      28.525 -12.918  31.690  1.00  0.00     0.000 G0
ENDBRANCH  13  17
ENDBRANCH  11  13
ENDBRANCH  10  11
ENDBRANCH   1  10
TORSDOF 0
ENDMDL
