MODEL 1
REMARK VINA RESULT:    -4.167      0.000      0.000
REMARK INTER + INTRA:          -4.545
REMARK INTER:                  -4.533
REMARK INTRA:                  -0.013
REMARK UNBOUND:                -0.013
REMARK SMILES OCc1ccco1
REMARK SMILES IDX 2 1 3 2 5 3 6 4 4 5 7 6 1 7
REMARK H PARENT 1 8
REMARK Flexibility Score: inf
ROOT
ATOM      1  C   UNL     1     111.741 104.787 231.531  1.00  0.00     0.231 C 
ENDROOT
BRANCH   1   2
ATOM      2  C   UNL     1     111.156 104.047 230.370  1.00  0.00     0.129 A 
ATOM      3  C   UNL     1     110.907 103.019 228.446  1.00  0.00     0.042 A 
ATOM      4  C   UNL     1     109.744 102.975 229.188  1.00  0.00     0.195 A 
ATOM      5  C   UNL     1     111.823 103.710 229.210  1.00  0.00     0.048 A 
ATOM      6  O   UNL     1     109.925 103.594 230.332  1.00  0.00    -0.467 OA
ENDBRANCH   1   2
BRANCH   1   7
ATOM      7  O   UNL     1     112.146 106.066 231.131  1.00  0.00    -0.388 OA
ATOM      8  H   UNL     1     112.664 105.950 230.292  1.00  0.00     0.211 HD
ENDBRANCH   1   7
TORSDOF 2
ENDMDL
MODEL 2
REMARK VINA RESULT:    -3.817      1.278      3.075
REMARK INTER + INTRA:          -4.165
REMARK INTER:                  -4.152
REMARK INTRA:                  -0.013
REMARK UNBOUND:                -0.013
REMARK SMILES OCc1ccco1
REMARK SMILES IDX 2 1 3 2 5 3 6 4 4 5 7 6 1 7
REMARK H PARENT 1 8
REMARK Flexibility Score: inf
ROOT
ATOM      1  C   UNL     1     109.158 102.404 229.650  1.00  0.00     0.231 C 
ENDROOT
BRANCH   1   2
ATOM      2  C   UNL     1     110.355 103.285 229.824  1.00  0.00     0.129 A 
ATOM      3  C   UNL     1     112.287 104.284 229.524  1.00  0.00     0.042 A 
ATOM      4  C   UNL     1     111.632 104.788 230.630  1.00  0.00     0.195 A 
ATOM      5  C   UNL     1     111.461 103.314 228.999  1.00  0.00     0.048 A 
ATOM      6  O   UNL     1     110.481 104.173 230.781  1.00  0.00    -0.467 OA
ENDBRANCH   1   2
BRANCH   1   7
ATOM      7  O   UNL     1     109.547 101.059 229.655  1.00  0.00    -0.388 OA
ATOM      8  H   UNL     1     108.940 100.590 230.285  1.00  0.00     0.211 HD
ENDBRANCH   1   7
TORSDOF 2
ENDMDL
MODEL 3
REMARK VINA RESULT:    -3.735     17.072     17.773
REMARK INTER + INTRA:          -4.075
REMARK INTER:                  -4.061
REMARK INTRA:                  -0.014
REMARK UNBOUND:                -0.013
REMARK SMILES OCc1ccco1
REMARK SMILES IDX 2 1 3 2 5 3 6 4 4 5 7 6 1 7
REMARK H PARENT 1 8
REMARK Flexibility Score: inf
ROOT
ATOM      1  C   UNL     1      97.877 114.120 220.635  1.00  0.00     0.231 C 
ENDROOT
BRANCH   1   2
ATOM      2  C   UNL     1      99.161 114.144 221.402  1.00  0.00     0.129 A 
ATOM      3  C   UNL     1     100.633 114.144 223.031  1.00  0.00     0.042 A 
ATOM      4  C   UNL     1     101.254 114.133 221.798  1.00  0.00     0.195 A 
ATOM      5  C   UNL     1      99.279 114.148 222.777  1.00  0.00     0.048 A 
ATOM      6  O   UNL     1     100.349 114.131 220.846  1.00  0.00    -0.467 OA
ENDBRANCH   1   2
BRANCH   1   7
ATOM      7  O   UNL     1      97.120 113.000 221.000  1.00  0.00    -0.388 OA
ATOM      8  H   UNL     1      97.469 112.236 220.470  1.00  0.00     0.211 HD
ENDBRANCH   1   7
TORSDOF 2
ENDMDL
MODEL 4
REMARK VINA RESULT:    -3.693     10.553     11.685
REMARK INTER + INTRA:          -4.029
REMARK INTER:                  -4.015
REMARK INTRA:                  -0.014
REMARK UNBOUND:                -0.013
REMARK SMILES OCc1ccco1
REMARK SMILES IDX 2 1 3 2 5 3 6 4 4 5 7 6 1 7
REMARK H PARENT 1 8
REMARK Flexibility Score: inf
ROOT
ATOM      1  C   UNL     1      99.202 105.532 231.293  1.00  0.00     0.231 C 
ENDROOT
BRANCH   1   2
ATOM      2  C   UNL     1     100.225 105.908 232.318  1.00  0.00     0.129 A 
ATOM      3  C   UNL     1     101.217 106.784 234.070  1.00  0.00     0.042 A 
ATOM      4  C   UNL     1     102.074 105.954 233.376  1.00  0.00     0.195 A 
ATOM      5  C   UNL     1     100.019 106.754 233.389  1.00  0.00     0.048 A 
ATOM      6  O   UNL     1     101.452 105.444 232.337  1.00  0.00    -0.467 OA
ENDBRANCH   1   2
BRANCH   1   7
ATOM      7  O   UNL     1      98.025 105.107 231.923  1.00  0.00    -0.388 OA
ATOM      8  H   UNL     1      97.473 104.667 231.226  1.00  0.00     0.211 HD
ENDBRANCH   1   7
TORSDOF 2
ENDMDL
MODEL 5
REMARK VINA RESULT:    -3.683      6.285      7.083
REMARK INTER + INTRA:          -4.019
REMARK INTER:                  -3.998
REMARK INTRA:                  -0.020
REMARK UNBOUND:                -0.013
REMARK SMILES OCc1ccco1
REMARK SMILES IDX 2 1 3 2 5 3 6 4 4 5 7 6 1 7
REMARK H PARENT 1 8
REMARK Flexibility Score: inf
ROOT
ATOM      1  C   UNL     1     106.082  99.761 231.025  1.00  0.00     0.231 C 
ENDROOT
BRANCH   1   2
ATOM      2  C   UNL     1     105.514 101.144 231.073  1.00  0.00     0.129 A 
ATOM      3  C   UNL     1     105.277 103.308 231.364  1.00  0.00     0.042 A 
ATOM      4  C   UNL     1     104.142 102.753 230.807  1.00  0.00     0.195 A 
ATOM      5  C   UNL     1     106.167 102.269 231.534  1.00  0.00     0.048 A 
ATOM      6  O   UNL     1     104.315 101.461 230.644  1.00  0.00    -0.467 OA
ENDBRANCH   1   2
BRANCH   1   7
ATOM      7  O   UNL     1     105.049  98.816 231.028  1.00  0.00    -0.388 OA
ATOM      8  H   UNL     1     105.372  98.039 230.503  1.00  0.00     0.211 HD
ENDBRANCH   1   7
TORSDOF 2
ENDMDL
MODEL 6
REMARK VINA RESULT:    -3.676      5.758      7.140
REMARK INTER + INTRA:          -4.012
REMARK INTER:                  -3.996
REMARK INTRA:                  -0.016
REMARK UNBOUND:                -0.013
REMARK SMILES OCc1ccco1
REMARK SMILES IDX 2 1 3 2 5 3 6 4 4 5 7 6 1 7
REMARK H PARENT 1 8
REMARK Flexibility Score: inf
ROOT
ATOM      1  C   UNL     1     106.462 103.918 227.050  1.00  0.00     0.231 C 
ENDROOT
BRANCH   1   2
ATOM      2  C   UNL     1     105.346 104.725 227.633  1.00  0.00     0.129 A 
ATOM      3  C   UNL     1     103.440 105.781 227.908  1.00  0.00     0.042 A 
ATOM      4  C   UNL     1     104.204 105.824 229.058  1.00  0.00     0.195 A 
ATOM      5  C   UNL     1     104.176 105.069 226.986  1.00  0.00     0.048 A 
ATOM      6  O   UNL     1     105.334 105.182 228.863  1.00  0.00    -0.467 OA
ENDBRANCH   1   2
BRANCH   1   7
ATOM      7  O   UNL     1     105.970 103.070 226.049  1.00  0.00    -0.388 OA
ATOM      8  H   UNL     1     105.520 103.650 225.381  1.00  0.00     0.211 HD
ENDBRANCH   1   7
TORSDOF 2
ENDMDL
MODEL 7
REMARK VINA RESULT:    -3.645      9.810     10.314
REMARK INTER + INTRA:          -3.978
REMARK INTER:                  -3.964
REMARK INTRA:                  -0.014
REMARK UNBOUND:                -0.013
REMARK SMILES OCc1ccco1
REMARK SMILES IDX 2 1 3 2 5 3 6 4 4 5 7 6 1 7
REMARK H PARENT 1 8
REMARK Flexibility Score: inf
ROOT
ATOM      1  C   UNL     1     101.352 106.411 234.096  1.00  0.00     0.231 C 
ENDROOT
BRANCH   1   2
ATOM      2  C   UNL     1     101.235 106.315 232.608  1.00  0.00     0.129 A 
ATOM      3  C   UNL     1     101.621 106.511 230.455  1.00  0.00     0.042 A 
ATOM      4  C   UNL     1     100.499 105.742 230.692  1.00  0.00     0.195 A 
ATOM      5  C   UNL     1     102.101 106.880 231.693  1.00  0.00     0.048 A 
ATOM      6  O   UNL     1     100.297 105.641 231.986  1.00  0.00    -0.467 OA
ENDBRANCH   1   2
BRANCH   1   7
ATOM      7  O   UNL     1     102.221 105.423 234.574  1.00  0.00    -0.388 OA
ATOM      8  H   UNL     1     101.720 104.913 235.263  1.00  0.00     0.211 HD
ENDBRANCH   1   7
TORSDOF 2
ENDMDL
MODEL 8
REMARK VINA RESULT:    -3.617      6.006      7.608
REMARK INTER + INTRA:          -3.947
REMARK INTER:                  -3.935
REMARK INTRA:                  -0.013
REMARK UNBOUND:                -0.013
REMARK SMILES OCc1ccco1
REMARK SMILES IDX 2 1 3 2 5 3 6 4 4 5 7 6 1 7
REMARK H PARENT 1 8
REMARK Flexibility Score: inf
ROOT
ATOM      1  C   UNL     1     102.691 102.117 230.668  1.00  0.00     0.231 C 
ENDROOT
BRANCH   1   2
ATOM      2  C   UNL     1     104.148 102.117 231.007  1.00  0.00     0.129 A 
ATOM      3  C   UNL     1     106.251 101.524 231.232  1.00  0.00     0.042 A 
ATOM      4  C   UNL     1     106.049 102.819 231.667  1.00  0.00     0.195 A 
ATOM      5  C   UNL     1     105.023 101.069 230.802  1.00  0.00     0.048 A 
ATOM      6  O   UNL     1     104.785 103.144 231.517  1.00  0.00    -0.467 OA
ENDBRANCH   1   2
BRANCH   1   7
ATOM      7  O   UNL     1     102.028 101.124 231.401  1.00  0.00    -0.388 OA
ATOM      8  H   UNL     1     102.553 100.985 232.231  1.00  0.00     0.211 HD
ENDBRANCH   1   7
TORSDOF 2
ENDMDL
MODEL 9
REMARK VINA RESULT:    -3.596      6.766      7.349
REMARK INTER + INTRA:          -3.924
REMARK INTER:                  -3.908
REMARK INTRA:                  -0.015
REMARK UNBOUND:                -0.013
REMARK SMILES OCc1ccco1
REMARK SMILES IDX 2 1 3 2 5 3 6 4 4 5 7 6 1 7
REMARK H PARENT 1 8
REMARK Flexibility Score: inf
ROOT
ATOM      1  C   UNL     1     104.980 108.391 228.852  1.00  0.00     0.231 C 
ENDROOT
BRANCH   1   2
ATOM      2  C   UNL     1     105.023 107.549 230.087  1.00  0.00     0.129 A 
ATOM      3  C   UNL     1     105.008 106.894 232.184  1.00  0.00     0.042 A 
ATOM      4  C   UNL     1     105.085 105.815 231.326  1.00  0.00     0.195 A 
ATOM      5  C   UNL     1     104.965 108.016 231.385  1.00  0.00     0.048 A 
ATOM      6  O   UNL     1     105.089 106.238 230.082  1.00  0.00    -0.467 OA
ENDBRANCH   1   2
BRANCH   1   7
ATOM      7  O   UNL     1     105.351 109.707 229.155  1.00  0.00    -0.388 OA
ATOM      8  H   UNL     1     104.790 110.298 228.589  1.00  0.00     0.211 HD
ENDBRANCH   1   7
TORSDOF 2
ENDMDL
