MODEL 1
REMARK VINA RESULT:    -3.643      0.000      0.000
REMARK INTER + INTRA:          -8.609
REMARK INTER:                  -6.731
REMARK INTRA:                  -1.879
REMARK UNBOUND:                -1.879
REMARK SMILES CCCCCCCCCCCCCCCCO
REMARK SMILES IDX 9 1 8 2 7 3 6 4 5 5 4 6 3 7 2 8 1 9 10 10 11 11 12 12 13 13
REMARK SMILES IDX 14 14 15 15 16 16 17 17
REMARK H PARENT 17 18
REMARK Flexibility Score: inf
ROOT
ATOM      1  C   UNL     1     155.231 152.489 157.795  1.00  0.00     0.000 C 
ENDROOT
BRANCH   1   2
ATOM      2  C   UNL     1     154.649 151.067 157.727  1.00  0.00    -0.000 C 
BRANCH   2   3
ATOM      3  C   UNL     1     153.208 150.986 158.251  1.00  0.00    -0.000 C 
BRANCH   3   4
ATOM      4  C   UNL     1     153.113 151.533 159.680  1.00  0.00    -0.000 C 
BRANCH   4   5
ATOM      5  C   UNL     1     152.201 152.769 159.736  1.00  0.00    -0.000 C 
BRANCH   5   6
ATOM      6  C   UNL     1     151.267 152.879 158.518  1.00  0.00    -0.000 C 
BRANCH   6   7
ATOM      7  C   UNL     1     151.176 154.283 157.887  1.00  0.00    -0.000 C 
BRANCH   7   8
ATOM      8  C   UNL     1     151.537 155.443 158.832  1.00  0.00    -0.003 C 
ATOM      9  C   UNL     1     150.312 156.197 159.346  1.00  0.00     0.004 C 
ENDBRANCH   7   8
ENDBRANCH   6   7
ENDBRANCH   5   6
ENDBRANCH   4   5
ENDBRANCH   3   4
ENDBRANCH   2   3
ENDBRANCH   1   2
BRANCH   1  10
ATOM     10  C   UNL     1     154.611 153.462 156.770  1.00  0.00     0.000 C 
BRANCH  10  11
ATOM     11  C   UNL     1     154.865 154.932 157.138  1.00  0.00     0.000 C 
BRANCH  11  12
ATOM     12  C   UNL     1     155.189 155.078 158.630  1.00  0.00     0.000 C 
BRANCH  12  13
ATOM     13  C   UNL     1     155.541 156.532 158.977  1.00  0.00     0.000 C 
BRANCH  13  14
ATOM     14  C   UNL     1     157.057 156.796 158.992  1.00  0.00     0.002 C 
BRANCH  14  15
ATOM     15  C   UNL     1     157.503 157.970 159.884  1.00  0.00     0.028 C 
BRANCH  15  16
ATOM     16  C   UNL     1     158.392 157.530 161.053  1.00  0.00     0.156 C 
BRANCH  16  17
ATOM     17  O   UNL     1     158.671 156.159 160.959  1.00  0.00    -0.396 OA
ATOM     18  H   UNL     1     158.476 155.894 160.022  1.00  0.00     0.210 HD
ENDBRANCH  16  17
ENDBRANCH  15  16
ENDBRANCH  14  15
ENDBRANCH  13  14
ENDBRANCH  12  13
ENDBRANCH  11  12
ENDBRANCH  10  11
ENDBRANCH   1  10
TORSDOF 15
ENDMDL
MODEL 2
REMARK VINA RESULT:    -3.610      3.258      6.499
REMARK INTER + INTRA:          -8.548
REMARK INTER:                  -6.907
REMARK INTRA:                  -1.641
REMARK UNBOUND:                -1.879
REMARK SMILES CCCCCCCCCCCCCCCCO
REMARK SMILES IDX 9 1 8 2 7 3 6 4 5 5 4 6 3 7 2 8 1 9 10 10 11 11 12 12 13 13
REMARK SMILES IDX 14 14 15 15 16 16 17 17
REMARK H PARENT 17 18
REMARK Flexibility Score: inf
ROOT
ATOM      1  C   UNL     1     153.164 151.027 159.478  1.00  0.00     0.000 C 
ENDROOT
BRANCH   1   2
ATOM      2  C   UNL     1     153.248 151.194 157.951  1.00  0.00    -0.000 C 
BRANCH   2   3
ATOM      3  C   UNL     1     154.626 151.676 157.478  1.00  0.00    -0.000 C 
BRANCH   3   4
ATOM      4  C   UNL     1     154.602 153.173 157.149  1.00  0.00    -0.000 C 
BRANCH   4   5
ATOM      5  C   UNL     1     155.354 153.982 158.217  1.00  0.00    -0.000 C 
BRANCH   5   6
ATOM      6  C   UNL     1     154.836 155.426 158.349  1.00  0.00    -0.000 C 
BRANCH   6   7
ATOM      7  C   UNL     1     155.874 156.450 158.852  1.00  0.00    -0.000 C 
BRANCH   7   8
ATOM      8  C   UNL     1     157.317 155.922 158.939  1.00  0.00    -0.003 C 
ATOM      9  C   UNL     1     158.352 156.933 158.448  1.00  0.00     0.004 C 
ENDBRANCH   7   8
ENDBRANCH   6   7
ENDBRANCH   5   6
ENDBRANCH   4   5
ENDBRANCH   3   4
ENDBRANCH   2   3
ENDBRANCH   1   2
BRANCH   1  10
ATOM     10  C   UNL     1     152.633 152.277 160.210  1.00  0.00     0.000 C 
BRANCH  10  11
ATOM     11  C   UNL     1     151.418 152.893 159.500  1.00  0.00     0.000 C 
BRANCH  11  12
ATOM     12  C   UNL     1     151.654 154.377 159.191  1.00  0.00     0.000 C 
BRANCH  12  13
ATOM     13  C   UNL     1     150.790 154.837 158.008  1.00  0.00     0.000 C 
BRANCH  13  14
ATOM     14  C   UNL     1     150.330 153.673 157.112  1.00  0.00     0.002 C 
BRANCH  14  15
ATOM     15  C   UNL     1     148.805 153.553 156.936  1.00  0.00     0.028 C 
BRANCH  15  16
ATOM     16  C   UNL     1     148.288 154.270 155.683  1.00  0.00     0.156 C 
BRANCH  16  17
ATOM     17  O   UNL     1     148.598 153.523 154.537  1.00  0.00    -0.396 OA
ATOM     18  H   UNL     1     149.585 153.549 154.440  1.00  0.00     0.210 HD
ENDBRANCH  16  17
ENDBRANCH  15  16
ENDBRANCH  14  15
ENDBRANCH  13  14
ENDBRANCH  12  13
ENDBRANCH  11  12
ENDBRANCH  10  11
ENDBRANCH   1  10
TORSDOF 15
ENDMDL
MODEL 3
REMARK VINA RESULT:    -3.603      3.193      4.301
REMARK INTER + INTRA:          -8.536
REMARK INTER:                  -6.710
REMARK INTRA:                  -1.826
REMARK UNBOUND:                -1.879
REMARK SMILES CCCCCCCCCCCCCCCCO
REMARK SMILES IDX 9 1 8 2 7 3 6 4 5 5 4 6 3 7 2 8 1 9 10 10 11 11 12 12 13 13
REMARK SMILES IDX 14 14 15 15 16 16 17 17
REMARK H PARENT 17 18
REMARK Flexibility Score: inf
ROOT
ATOM      1  C   UNL     1     155.090 151.890 157.832  1.00  0.00     0.000 C 
ENDROOT
BRANCH   1   2
ATOM      2  C   UNL     1     153.821 151.021 157.861  1.00  0.00    -0.000 C 
BRANCH   2   3
ATOM      3  C   UNL     1     153.230 150.875 159.270  1.00  0.00    -0.000 C 
BRANCH   3   4
ATOM      4  C   UNL     1     152.766 152.232 159.814  1.00  0.00    -0.000 C 
BRANCH   4   5
ATOM      5  C   UNL     1     151.620 152.802 158.965  1.00  0.00    -0.000 C 
BRANCH   5   6
ATOM      6  C   UNL     1     151.595 154.341 158.948  1.00  0.00    -0.000 C 
BRANCH   6   7
ATOM      7  C   UNL     1     150.955 154.971 157.695  1.00  0.00    -0.000 C 
BRANCH   7   8
ATOM      8  C   UNL     1     150.156 153.995 156.813  1.00  0.00    -0.003 C 
ATOM      9  C   UNL     1     149.721 154.612 155.484  1.00  0.00     0.004 C 
ENDBRANCH   7   8
ENDBRANCH   6   7
ENDBRANCH   5   6
ENDBRANCH   4   5
ENDBRANCH   3   4
ENDBRANCH   2   3
ENDBRANCH   1   2
BRANCH   1  10
ATOM     10  C   UNL     1     154.930 153.194 157.023  1.00  0.00     0.000 C 
BRANCH  10  11
ATOM     11  C   UNL     1     155.057 154.445 157.907  1.00  0.00     0.000 C 
BRANCH  11  12
ATOM     12  C   UNL     1     154.634 155.705 157.141  1.00  0.00     0.000 C 
BRANCH  12  13
ATOM     13  C   UNL     1     154.733 155.487 155.624  1.00  0.00     0.000 C 
BRANCH  13  14
ATOM     14  C   UNL     1     153.394 155.708 154.897  1.00  0.00     0.002 C 
BRANCH  14  15
ATOM     15  C   UNL     1     153.519 156.168 153.433  1.00  0.00     0.028 C 
BRANCH  15  16
ATOM     16  C   UNL     1     154.970 156.424 153.007  1.00  0.00     0.156 C 
BRANCH  16  17
ATOM     17  O   UNL     1     155.260 155.715 151.832  1.00  0.00    -0.396 OA
ATOM     18  H   UNL     1     155.001 156.302 151.075  1.00  0.00     0.210 HD
ENDBRANCH  16  17
ENDBRANCH  15  16
ENDBRANCH  14  15
ENDBRANCH  13  14
ENDBRANCH  12  13
ENDBRANCH  11  12
ENDBRANCH  10  11
ENDBRANCH   1  10
TORSDOF 15
ENDMDL
MODEL 4
REMARK VINA RESULT:    -3.419      1.160      2.145
REMARK INTER + INTRA:          -8.197
REMARK INTER:                  -6.403
REMARK INTRA:                  -1.794
REMARK UNBOUND:                -1.879
REMARK SMILES CCCCCCCCCCCCCCCCO
REMARK SMILES IDX 9 1 8 2 7 3 6 4 5 5 4 6 3 7 2 8 1 9 10 10 11 11 12 12 13 13
REMARK SMILES IDX 14 14 15 15 16 16 17 17
REMARK H PARENT 17 18
REMARK Flexibility Score: inf
ROOT
ATOM      1  C   UNL     1     154.203 155.249 157.147  1.00  0.00     0.000 C 
ENDROOT
BRANCH   1   2
ATOM      2  C   UNL     1     154.644 153.789 156.940  1.00  0.00    -0.000 C 
BRANCH   2   3
ATOM      3  C   UNL     1     154.888 153.048 158.262  1.00  0.00    -0.000 C 
BRANCH   3   4
ATOM      4  C   UNL     1     153.759 152.050 158.549  1.00  0.00    -0.000 C 
BRANCH   4   5
ATOM      5  C   UNL     1     153.085 152.356 159.895  1.00  0.00    -0.000 C 
BRANCH   5   6
ATOM      6  C   UNL     1     151.684 152.975 159.736  1.00  0.00    -0.000 C 
BRANCH   6   7
ATOM      7  C   UNL     1     151.022 152.749 158.363  1.00  0.00    -0.000 C 
BRANCH   7   8
ATOM      8  C   UNL     1     150.828 154.021 157.517  1.00  0.00    -0.003 C 
ATOM      9  C   UNL     1     150.510 155.254 158.361  1.00  0.00     0.004 C 
ENDBRANCH   7   8
ENDBRANCH   6   7
ENDBRANCH   5   6
ENDBRANCH   4   5
ENDBRANCH   3   4
ENDBRANCH   2   3
ENDBRANCH   1   2
BRANCH   1  10
ATOM     10  C   UNL     1     154.241 155.705 158.621  1.00  0.00     0.000 C 
BRANCH  10  11
ATOM     11  C   UNL     1     155.237 156.852 158.848  1.00  0.00     0.000 C 
BRANCH  11  12
ATOM     12  C   UNL     1     156.148 157.040 157.628  1.00  0.00     0.000 C 
BRANCH  12  13
ATOM     13  C   UNL     1     157.310 157.990 157.951  1.00  0.00     0.000 C 
BRANCH  13  14
ATOM     14  C   UNL     1     158.687 157.308 157.858  1.00  0.00     0.002 C 
BRANCH  14  15
ATOM     15  C   UNL     1     158.907 156.154 158.853  1.00  0.00     0.028 C 
BRANCH  15  16
ATOM     16  C   UNL     1     158.673 156.566 160.312  1.00  0.00     0.156 C 
BRANCH  16  17
ATOM     17  O   UNL     1     159.717 156.095 161.120  1.00  0.00    -0.396 OA
ATOM     18  H   UNL     1     159.307 155.489 161.790  1.00  0.00     0.210 HD
ENDBRANCH  16  17
ENDBRANCH  15  16
ENDBRANCH  14  15
ENDBRANCH  13  14
ENDBRANCH  12  13
ENDBRANCH  11  12
ENDBRANCH  10  11
ENDBRANCH   1  10
TORSDOF 15
ENDMDL
MODEL 5
REMARK VINA RESULT:    -3.400      9.042     10.920
REMARK INTER + INTRA:          -8.161
REMARK INTER:                  -6.775
REMARK INTRA:                  -1.386
REMARK UNBOUND:                -1.879
REMARK SMILES CCCCCCCCCCCCCCCCO
REMARK SMILES IDX 9 1 8 2 7 3 6 4 5 5 4 6 3 7 2 8 1 9 10 10 11 11 12 12 13 13
REMARK SMILES IDX 14 14 15 15 16 16 17 17
REMARK H PARENT 17 18
REMARK Flexibility Score: inf
ROOT
ATOM      1  C   UNL     1     151.687 156.629 148.774  1.00  0.00     0.000 C 
ENDROOT
BRANCH   1   2
ATOM      2  C   UNL     1     151.237 155.291 148.163  1.00  0.00    -0.000 C 
BRANCH   2   3
ATOM      3  C   UNL     1     151.079 155.355 146.637  1.00  0.00    -0.000 C 
BRANCH   3   4
ATOM      4  C   UNL     1     149.677 154.905 146.210  1.00  0.00    -0.000 C 
BRANCH   4   5
ATOM      5  C   UNL     1     148.718 154.882 147.410  1.00  0.00    -0.000 C 
BRANCH   5   6
ATOM      6  C   UNL     1     148.100 153.494 147.656  1.00  0.00    -0.000 C 
BRANCH   6   7
ATOM      7  C   UNL     1     148.481 152.415 146.622  1.00  0.00    -0.000 C 
BRANCH   7   8
ATOM      8  C   UNL     1     149.304 151.241 147.181  1.00  0.00    -0.003 C 
ATOM      9  C   UNL     1     150.749 151.624 147.497  1.00  0.00     0.004 C 
ENDBRANCH   7   8
ENDBRANCH   6   7
ENDBRANCH   5   6
ENDBRANCH   4   5
ENDBRANCH   3   4
ENDBRANCH   2   3
ENDBRANCH   1   2
BRANCH   1  10
ATOM     10  C   UNL     1     150.685 157.215 149.790  1.00  0.00     0.000 C 
BRANCH  10  11
ATOM     11  C   UNL     1     149.893 156.121 150.521  1.00  0.00     0.000 C 
BRANCH  11  12
ATOM     12  C   UNL     1     149.673 156.490 151.994  1.00  0.00     0.000 C 
BRANCH  12  13
ATOM     13  C   UNL     1     151.008 156.553 152.750  1.00  0.00     0.000 C 
BRANCH  13  14
ATOM     14  C   UNL     1     151.020 155.686 154.022  1.00  0.00     0.002 C 
BRANCH  14  15
ATOM     15  C   UNL     1     149.651 155.104 154.423  1.00  0.00     0.028 C 
BRANCH  15  16
ATOM     16  C   UNL     1     149.656 154.468 155.819  1.00  0.00     0.156 C 
BRANCH  16  17
ATOM     17  O   UNL     1     149.655 153.070 155.712  1.00  0.00    -0.396 OA
ATOM     18  H   UNL     1     149.334 152.720 156.583  1.00  0.00     0.210 HD
ENDBRANCH  16  17
ENDBRANCH  15  16
ENDBRANCH  14  15
ENDBRANCH  13  14
ENDBRANCH  12  13
ENDBRANCH  11  12
ENDBRANCH  10  11
ENDBRANCH   1  10
TORSDOF 15
ENDMDL
MODEL 6
REMARK VINA RESULT:    -3.392      2.832      4.733
REMARK INTER + INTRA:          -8.146
REMARK INTER:                  -5.992
REMARK INTRA:                  -2.154
REMARK UNBOUND:                -1.879
REMARK SMILES CCCCCCCCCCCCCCCCO
REMARK SMILES IDX 9 1 8 2 7 3 6 4 5 5 4 6 3 7 2 8 1 9 10 10 11 11 12 12 13 13
REMARK SMILES IDX 14 14 15 15 16 16 17 17
REMARK H PARENT 17 18
REMARK Flexibility Score: inf
ROOT
ATOM      1  C   UNL     1     152.236 152.358 158.870  1.00  0.00     0.000 C 
ENDROOT
BRANCH   1   2
ATOM      2  C   UNL     1     150.946 152.914 158.244  1.00  0.00    -0.000 C 
BRANCH   2   3
ATOM      3  C   UNL     1     151.115 154.338 157.694  1.00  0.00    -0.000 C 
BRANCH   3   4
ATOM      4  C   UNL     1     151.799 155.246 158.723  1.00  0.00    -0.000 C 
BRANCH   4   5
ATOM      5  C   UNL     1     151.316 156.698 158.581  1.00  0.00    -0.000 C 
BRANCH   5   6
ATOM      6  C   UNL     1     152.470 157.695 158.373  1.00  0.00    -0.000 C 
BRANCH   6   7
ATOM      7  C   UNL     1     153.748 157.393 159.181  1.00  0.00    -0.000 C 
BRANCH   7   8
ATOM      8  C   UNL     1     154.232 158.542 160.084  1.00  0.00    -0.003 C 
ATOM      9  C   UNL     1     153.158 159.028 161.057  1.00  0.00     0.004 C 
ENDBRANCH   7   8
ENDBRANCH   6   7
ENDBRANCH   5   6
ENDBRANCH   4   5
ENDBRANCH   3   4
ENDBRANCH   2   3
ENDBRANCH   1   2
BRANCH   1  10
ATOM     10  C   UNL     1     153.017 151.408 157.938  1.00  0.00     0.000 C 
BRANCH  10  11
ATOM     11  C   UNL     1     154.378 151.990 157.525  1.00  0.00     0.000 C 
BRANCH  11  12
ATOM     12  C   UNL     1     154.836 153.073 158.510  1.00  0.00     0.000 C 
BRANCH  12  13
ATOM     13  C   UNL     1     155.225 154.361 157.770  1.00  0.00     0.000 C 
BRANCH  13  14
ATOM     14  C   UNL     1     154.598 154.460 156.368  1.00  0.00     0.002 C 
BRANCH  14  15
ATOM     15  C   UNL     1     154.436 155.894 155.830  1.00  0.00     0.028 C 
BRANCH  15  16
ATOM     16  C   UNL     1     153.215 156.056 154.916  1.00  0.00     0.156 C 
BRANCH  16  17
ATOM     17  O   UNL     1     153.253 155.106 153.886  1.00  0.00    -0.396 OA
ATOM     18  H   UNL     1     152.438 155.248 153.338  1.00  0.00     0.210 HD
ENDBRANCH  16  17
ENDBRANCH  15  16
ENDBRANCH  14  15
ENDBRANCH  13  14
ENDBRANCH  12  13
ENDBRANCH  11  12
ENDBRANCH  10  11
ENDBRANCH   1  10
TORSDOF 15
ENDMDL
MODEL 7
REMARK VINA RESULT:    -3.383      2.828      5.490
REMARK INTER + INTRA:          -8.130
REMARK INTER:                  -6.202
REMARK INTRA:                  -1.929
REMARK UNBOUND:                -1.879
REMARK SMILES CCCCCCCCCCCCCCCCO
REMARK SMILES IDX 9 1 8 2 7 3 6 4 5 5 4 6 3 7 2 8 1 9 10 10 11 11 12 12 13 13
REMARK SMILES IDX 14 14 15 15 16 16 17 17
REMARK H PARENT 17 18
REMARK Flexibility Score: inf
ROOT
ATOM      1  C   UNL     1     151.703 152.908 159.516  1.00  0.00     0.000 C 
ENDROOT
BRANCH   1   2
ATOM      2  C   UNL     1     153.102 152.270 159.452  1.00  0.00    -0.000 C 
BRANCH   2   3
ATOM      3  C   UNL     1     153.462 151.764 158.049  1.00  0.00    -0.000 C 
BRANCH   3   4
ATOM      4  C   UNL     1     154.485 152.688 157.377  1.00  0.00    -0.000 C 
BRANCH   4   5
ATOM      5  C   UNL     1     155.136 153.626 158.405  1.00  0.00    -0.000 C 
BRANCH   5   6
ATOM      6  C   UNL     1     155.364 155.047 157.859  1.00  0.00    -0.000 C 
BRANCH   6   7
ATOM      7  C   UNL     1     155.143 156.183 158.878  1.00  0.00    -0.000 C 
BRANCH   7   8
ATOM      8  C   UNL     1     156.405 156.988 159.237  1.00  0.00    -0.003 C 
ATOM      9  C   UNL     1     157.696 156.198 159.027  1.00  0.00     0.004 C 
ENDBRANCH   7   8
ENDBRANCH   6   7
ENDBRANCH   5   6
ENDBRANCH   4   5
ENDBRANCH   3   4
ENDBRANCH   2   3
ENDBRANCH   1   2
BRANCH   1  10
ATOM     10  C   UNL     1     150.897 152.766 158.209  1.00  0.00     0.000 C 
BRANCH  10  11
ATOM     11  C   UNL     1     150.531 154.128 157.601  1.00  0.00     0.000 C 
BRANCH  11  12
ATOM     12  C   UNL     1     151.147 155.276 158.411  1.00  0.00     0.000 C 
BRANCH  12  13
ATOM     13  C   UNL     1     151.780 156.325 157.485  1.00  0.00     0.000 C 
BRANCH  13  14
ATOM     14  C   UNL     1     152.149 155.760 156.101  1.00  0.00     0.002 C 
BRANCH  14  15
ATOM     15  C   UNL     1     151.554 156.529 154.907  1.00  0.00     0.028 C 
BRANCH  15  16
ATOM     16  C   UNL     1     152.090 156.043 153.554  1.00  0.00     0.156 C 
BRANCH  16  17
ATOM     17  O   UNL     1     153.132 155.126 153.750  1.00  0.00    -0.396 OA
ATOM     18  H   UNL     1     152.766 154.230 153.531  1.00  0.00     0.210 HD
ENDBRANCH  16  17
ENDBRANCH  15  16
ENDBRANCH  14  15
ENDBRANCH  13  14
ENDBRANCH  12  13
ENDBRANCH  11  12
ENDBRANCH  10  11
ENDBRANCH   1  10
TORSDOF 15
ENDMDL
MODEL 8
REMARK VINA RESULT:    -3.377      9.050     10.673
REMARK INTER + INTRA:          -8.118
REMARK INTER:                  -6.726
REMARK INTRA:                  -1.392
REMARK UNBOUND:                -1.879
REMARK SMILES CCCCCCCCCCCCCCCCO
REMARK SMILES IDX 9 1 8 2 7 3 6 4 5 5 4 6 3 7 2 8 1 9 10 10 11 11 12 12 13 13
REMARK SMILES IDX 14 14 15 15 16 16 17 17
REMARK H PARENT 17 18
REMARK Flexibility Score: inf
ROOT
ATOM      1  C   UNL     1     151.680 156.554 148.703  1.00  0.00     0.000 C 
ENDROOT
BRANCH   1   2
ATOM      2  C   UNL     1     151.175 155.212 148.147  1.00  0.00    -0.000 C 
BRANCH   2   3
ATOM      3  C   UNL     1     150.945 155.244 146.630  1.00  0.00    -0.000 C 
BRANCH   3   4
ATOM      4  C   UNL     1     149.488 154.909 146.288  1.00  0.00    -0.000 C 
BRANCH   4   5
ATOM      5  C   UNL     1     148.674 154.636 147.562  1.00  0.00    -0.000 C 
BRANCH   5   6
ATOM      6  C   UNL     1     148.301 153.151 147.728  1.00  0.00    -0.000 C 
BRANCH   6   7
ATOM      7  C   UNL     1     148.544 152.273 146.484  1.00  0.00    -0.000 C 
BRANCH   7   8
ATOM      8  C   UNL     1     149.626 151.192 146.654  1.00  0.00    -0.003 C 
ATOM      9  C   UNL     1     150.747 151.614 147.603  1.00  0.00     0.004 C 
ENDBRANCH   7   8
ENDBRANCH   6   7
ENDBRANCH   5   6
ENDBRANCH   4   5
ENDBRANCH   3   4
ENDBRANCH   2   3
ENDBRANCH   1   2
BRANCH   1  10
ATOM     10  C   UNL     1     150.755 157.170 149.773  1.00  0.00     0.000 C 
BRANCH  10  11
ATOM     11  C   UNL     1     150.068 156.098 150.633  1.00  0.00     0.000 C 
BRANCH  11  12
ATOM     12  C   UNL     1     149.708 156.650 152.018  1.00  0.00     0.000 C 
BRANCH  12  13
ATOM     13  C   UNL     1     150.666 156.112 153.091  1.00  0.00     0.000 C 
BRANCH  13  14
ATOM     14  C   UNL     1     152.046 156.793 153.060  1.00  0.00     0.002 C 
BRANCH  14  15
ATOM     15  C   UNL     1     153.245 155.835 153.184  1.00  0.00     0.028 C 
BRANCH  15  16
ATOM     16  C   UNL     1     154.590 156.520 152.909  1.00  0.00     0.156 C 
BRANCH  16  17
ATOM     17  O   UNL     1     155.292 155.823 151.916  1.00  0.00    -0.396 OA
ATOM     18  H   UNL     1     156.053 155.374 152.368  1.00  0.00     0.210 HD
ENDBRANCH  16  17
ENDBRANCH  15  16
ENDBRANCH  14  15
ENDBRANCH  13  14
ENDBRANCH  12  13
ENDBRANCH  11  12
ENDBRANCH  10  11
ENDBRANCH   1  10
TORSDOF 15
ENDMDL
MODEL 9
REMARK VINA RESULT:    -3.360      3.702      5.894
REMARK INTER + INTRA:          -8.087
REMARK INTER:                  -6.278
REMARK INTRA:                  -1.808
REMARK UNBOUND:                -1.879
REMARK SMILES CCCCCCCCCCCCCCCCO
REMARK SMILES IDX 9 1 8 2 7 3 6 4 5 5 4 6 3 7 2 8 1 9 10 10 11 11 12 12 13 13
REMARK SMILES IDX 14 14 15 15 16 16 17 17
REMARK H PARENT 17 18
REMARK Flexibility Score: inf
ROOT
ATOM      1  C   UNL     1     151.027 155.259 158.093  1.00  0.00     0.000 C 
ENDROOT
BRANCH   1   2
ATOM      2  C   UNL     1     151.378 154.132 159.079  1.00  0.00    -0.000 C 
BRANCH   2   3
ATOM      3  C   UNL     1     151.535 152.768 158.394  1.00  0.00    -0.000 C 
BRANCH   3   4
ATOM      4  C   UNL     1     152.814 152.063 158.860  1.00  0.00    -0.000 C 
BRANCH   4   5
ATOM      5  C   UNL     1     153.768 153.053 159.545  1.00  0.00    -0.000 C 
BRANCH   5   6
ATOM      6  C   UNL     1     154.916 153.511 158.627  1.00  0.00    -0.000 C 
BRANCH   6   7
ATOM      7  C   UNL     1     155.107 155.038 158.532  1.00  0.00    -0.000 C 
BRANCH   7   8
ATOM      8  C   UNL     1     154.624 155.673 157.215  1.00  0.00    -0.003 C 
ATOM      9  C   UNL     1     154.435 154.651 156.095  1.00  0.00     0.004 C 
ENDBRANCH   7   8
ENDBRANCH   6   7
ENDBRANCH   5   6
ENDBRANCH   4   5
ENDBRANCH   3   4
ENDBRANCH   2   3
ENDBRANCH   1   2
BRANCH   1  10
ATOM     10  C   UNL     1     150.797 154.769 156.648  1.00  0.00     0.000 C 
BRANCH  10  11
ATOM     11  C   UNL     1     150.480 155.924 155.686  1.00  0.00     0.000 C 
BRANCH  11  12
ATOM     12  C   UNL     1     150.032 155.395 154.318  1.00  0.00     0.000 C 
BRANCH  12  13
ATOM     13  C   UNL     1     150.782 156.104 153.181  1.00  0.00     0.000 C 
BRANCH  13  14
ATOM     14  C   UNL     1     152.300 155.850 153.214  1.00  0.00     0.002 C 
BRANCH  14  15
ATOM     15  C   UNL     1     153.097 156.536 152.089  1.00  0.00     0.028 C 
BRANCH  15  16
ATOM     16  C   UNL     1     154.558 156.806 152.469  1.00  0.00     0.156 C 
BRANCH  16  17
ATOM     17  O   UNL     1     155.392 155.832 151.903  1.00  0.00    -0.396 OA
ATOM     18  H   UNL     1     156.218 155.811 152.452  1.00  0.00     0.210 HD
ENDBRANCH  16  17
ENDBRANCH  15  16
ENDBRANCH  14  15
ENDBRANCH  13  14
ENDBRANCH  12  13
ENDBRANCH  11  12
ENDBRANCH  10  11
ENDBRANCH   1  10
TORSDOF 15
ENDMDL
