MODEL 1
REMARK VINA RESULT:    -3.244      0.000      0.000
REMARK INTER + INTRA:          -3.631
REMARK INTER:                  -3.623
REMARK INTRA:                  -0.009
REMARK UNBOUND:                -0.009
REMARK SMILES CCCC(=O)[O-]
REMARK SMILES IDX 3 1 4 2 5 3 6 4 2 5 1 6
REMARK H PARENT
REMARK Flexibility Score: inf
ROOT
ATOM      1  C   UNL     1       8.749  11.402   7.060  1.00  0.00     0.052 C 
ENDROOT
BRANCH   1   2
ATOM      2  C   UNL     1       7.311  11.677   7.380  1.00  0.00     0.041 C 
ATOM      3  O   UNL     1       6.573  12.250   6.537  1.00  0.00    -0.550 OA
ATOM      4  O   UNL     1       6.780  11.270   8.596  1.00  0.00    -0.550 OA
ENDBRANCH   1   2
BRANCH   1   5
ATOM      5  C   UNL     1       8.932  10.961   5.602  1.00  0.00     0.003 C 
ATOM      6  C   UNL     1      10.005   9.884   5.452  1.00  0.00     0.004 C 
ENDBRANCH   1   5
TORSDOF 2
ENDMDL
MODEL 2
REMARK VINA RESULT:    -3.238      8.038      8.789
REMARK INTER + INTRA:          -3.625
REMARK INTER:                  -3.590
REMARK INTRA:                  -0.036
REMARK UNBOUND:                -0.009
REMARK SMILES CCCC(=O)[O-]
REMARK SMILES IDX 3 1 4 2 5 3 6 4 2 5 1 6
REMARK H PARENT
REMARK Flexibility Score: inf
ROOT
ATOM      1  C   UNL     1      15.176  13.930   4.168  1.00  0.00     0.052 C 
ENDROOT
BRANCH   1   2
ATOM      2  C   UNL     1      16.277  13.375   3.318  1.00  0.00     0.041 C 
ATOM      3  O   UNL     1      16.009  12.766   2.249  1.00  0.00    -0.550 OA
ATOM      4  O   UNL     1      17.603  13.558   3.690  1.00  0.00    -0.550 OA
ENDBRANCH   1   2
BRANCH   1   5
ATOM      5  C   UNL     1      14.608  12.873   5.123  1.00  0.00     0.003 C 
ATOM      6  C   UNL     1      13.381  12.168   4.547  1.00  0.00     0.004 C 
ENDBRANCH   1   5
TORSDOF 2
ENDMDL
MODEL 3
REMARK VINA RESULT:    -3.186      8.374      9.175
REMARK INTER + INTRA:          -3.567
REMARK INTER:                  -3.559
REMARK INTRA:                  -0.008
REMARK UNBOUND:                -0.009
REMARK SMILES CCCC(=O)[O-]
REMARK SMILES IDX 3 1 4 2 5 3 6 4 2 5 1 6
REMARK H PARENT
REMARK Flexibility Score: inf
ROOT
ATOM      1  C   UNL     1      15.654  13.095   2.274  1.00  0.00     0.052 C 
ENDROOT
BRANCH   1   2
ATOM      2  C   UNL     1      16.329  13.437   3.567  1.00  0.00     0.041 C 
ATOM      3  O   UNL     1      15.701  13.348   4.653  1.00  0.00    -0.550 OA
ATOM      4  O   UNL     1      17.663  13.824   3.572  1.00  0.00    -0.550 OA
ENDBRANCH   1   2
BRANCH   1   5
ATOM      5  C   UNL     1      14.172  13.493   2.285  1.00  0.00     0.003 C 
ATOM      6  C   UNL     1      13.644  13.806   0.885  1.00  0.00     0.004 C 
ENDBRANCH   1   5
TORSDOF 2
ENDMDL
MODEL 4
REMARK VINA RESULT:    -3.123     13.801     14.208
REMARK INTER + INTRA:          -3.497
REMARK INTER:                  -3.476
REMARK INTRA:                  -0.021
REMARK UNBOUND:                -0.009
REMARK SMILES CCCC(=O)[O-]
REMARK SMILES IDX 3 1 4 2 5 3 6 4 2 5 1 6
REMARK H PARENT
REMARK Flexibility Score: inf
ROOT
ATOM      1  C   UNL     1       9.050  24.604   6.962  1.00  0.00     0.052 C 
ENDROOT
BRANCH   1   2
ATOM      2  C   UNL     1      10.445  25.119   6.777  1.00  0.00     0.041 C 
ATOM      3  O   UNL     1      10.734  25.822   5.774  1.00  0.00    -0.550 OA
ATOM      4  O   UNL     1      11.417  24.847   7.731  1.00  0.00    -0.550 OA
ENDBRANCH   1   2
BRANCH   1   5
ATOM      5  C   UNL     1       8.027  25.449   6.191  1.00  0.00     0.003 C 
ATOM      6  C   UNL     1       6.911  24.599   5.585  1.00  0.00     0.004 C 
ENDBRANCH   1   5
TORSDOF 2
ENDMDL
MODEL 5
REMARK VINA RESULT:    -3.103      1.270      1.628
REMARK INTER + INTRA:          -3.474
REMARK INTER:                  -3.469
REMARK INTRA:                  -0.005
REMARK UNBOUND:                -0.009
REMARK SMILES CCCC(=O)[O-]
REMARK SMILES IDX 3 1 4 2 5 3 6 4 2 5 1 6
REMARK H PARENT
REMARK Flexibility Score: inf
ROOT
ATOM      1  C   UNL     1       8.379  11.500   5.144  1.00  0.00     0.052 C 
ENDROOT
BRANCH   1   2
ATOM      2  C   UNL     1       7.568  12.505   5.903  1.00  0.00     0.041 C 
ATOM      3  O   UNL     1       7.819  13.734   5.797  1.00  0.00    -0.550 OA
ATOM      4  O   UNL     1       6.513  12.085   6.702  1.00  0.00    -0.550 OA
ENDBRANCH   1   2
BRANCH   1   5
ATOM      5  C   UNL     1       9.426  10.824   6.038  1.00  0.00     0.003 C 
ATOM      6  C   UNL     1      10.099   9.637   5.349  1.00  0.00     0.004 C 
ENDBRANCH   1   5
TORSDOF 2
ENDMDL
MODEL 6
REMARK VINA RESULT:    -3.049     16.446     16.832
REMARK INTER + INTRA:          -3.414
REMARK INTER:                  -3.379
REMARK INTRA:                  -0.035
REMARK UNBOUND:                -0.009
REMARK SMILES CCCC(=O)[O-]
REMARK SMILES IDX 3 1 4 2 5 3 6 4 2 5 1 6
REMARK H PARENT
REMARK Flexibility Score: inf
ROOT
ATOM      1  C   UNL     1      23.761  16.462  11.558  1.00  0.00     0.052 C 
ENDROOT
BRANCH   1   2
ATOM      2  C   UNL     1      23.009  15.692  12.599  1.00  0.00     0.041 C 
ATOM      3  O   UNL     1      21.993  16.192  13.147  1.00  0.00    -0.550 OA
ATOM      4  O   UNL     1      23.413  14.407  12.941  1.00  0.00    -0.550 OA
ENDBRANCH   1   2
BRANCH   1   5
ATOM      5  C   UNL     1      23.691  15.779  10.186  1.00  0.00     0.003 C 
ATOM      6  C   UNL     1      25.065  15.332   9.689  1.00  0.00     0.004 C 
ENDBRANCH   1   5
TORSDOF 2
ENDMDL
MODEL 7
REMARK VINA RESULT:    -3.034     12.978     13.464
REMARK INTER + INTRA:          -3.397
REMARK INTER:                  -3.350
REMARK INTRA:                  -0.048
REMARK UNBOUND:                -0.009
REMARK SMILES CCCC(=O)[O-]
REMARK SMILES IDX 3 1 4 2 5 3 6 4 2 5 1 6
REMARK H PARENT
REMARK Flexibility Score: inf
ROOT
ATOM      1  C   UNL     1      10.152  24.146   7.410  1.00  0.00     0.052 C 
ENDROOT
BRANCH   1   2
ATOM      2  C   UNL     1      10.328  25.304   6.476  1.00  0.00     0.041 C 
ATOM      3  O   UNL     1      11.448  25.869   6.371  1.00  0.00    -0.550 OA
ATOM      4  O   UNL     1       9.263  25.737   5.697  1.00  0.00    -0.550 OA
ENDBRANCH   1   2
BRANCH   1   5
ATOM      5  C   UNL     1       9.794  22.859   6.657  1.00  0.00     0.003 C 
ATOM      6  C   UNL     1      11.032  22.107   6.170  1.00  0.00     0.004 C 
ENDBRANCH   1   5
TORSDOF 2
ENDMDL
MODEL 8
REMARK VINA RESULT:    -2.983     16.986     17.453
REMARK INTER + INTRA:          -3.340
REMARK INTER:                  -3.303
REMARK INTRA:                  -0.038
REMARK UNBOUND:                -0.009
REMARK SMILES CCCC(=O)[O-]
REMARK SMILES IDX 3 1 4 2 5 3 6 4 2 5 1 6
REMARK H PARENT
REMARK Flexibility Score: inf
ROOT
ATOM      1  C   UNL     1      22.406  16.513  13.400  1.00  0.00     0.052 C 
ENDROOT
BRANCH   1   2
ATOM      2  C   UNL     1      23.276  15.568  12.629  1.00  0.00     0.041 C 
ATOM      3  O   UNL     1      23.394  14.370  12.998  1.00  0.00    -0.550 OA
ATOM      4  O   UNL     1      23.930  16.003  11.484  1.00  0.00    -0.550 OA
ENDBRANCH   1   2
BRANCH   1   5
ATOM      5  C   UNL     1      22.620  17.967  12.961  1.00  0.00     0.003 C 
ATOM      6  C   UNL     1      23.493  18.748  13.942  1.00  0.00     0.004 C 
ENDBRANCH   1   5
TORSDOF 2
ENDMDL
MODEL 9
REMARK VINA RESULT:    -2.785      3.032      3.674
REMARK INTER + INTRA:          -3.119
REMARK INTER:                  -3.113
REMARK INTRA:                  -0.006
REMARK UNBOUND:                -0.009
REMARK SMILES CCCC(=O)[O-]
REMARK SMILES IDX 3 1 4 2 5 3 6 4 2 5 1 6
REMARK H PARENT
REMARK Flexibility Score: inf
ROOT
ATOM      1  C   UNL     1      10.223  11.185   4.092  1.00  0.00     0.052 C 
ENDROOT
BRANCH   1   2
ATOM      2  C   UNL     1       9.649  10.447   5.263  1.00  0.00     0.041 C 
ATOM      3  O   UNL     1      10.113   9.326   5.595  1.00  0.00    -0.550 OA
ATOM      4  O   UNL     1       8.623  11.016   6.007  1.00  0.00    -0.550 OA
ENDBRANCH   1   2
BRANCH   1   5
ATOM      5  C   UNL     1      11.742  11.353   4.217  1.00  0.00     0.003 C 
ATOM      6  C   UNL     1      12.310  12.304   3.164  1.00  0.00     0.004 C 
ENDBRANCH   1   5
TORSDOF 2
ENDMDL
