MODEL 1
REMARK VINA RESULT:    -4.984      0.000      0.000
REMARK INTER + INTRA:         -17.963
REMARK INTER:                 -13.142
REMARK INTRA:                  -4.821
REMARK UNBOUND:                -4.821
REMARK SMILES CCCCCCCCCCCCCCCCCCCCCCCCCCCCCC(=O)[O-]
REMARK SMILES IDX 16 1 17 2 18 3 19 4 20 5 21 6 22 7 23 8 24 9 25 10 26 11
REMARK SMILES IDX 27 12 28 13 29 14 30 15 31 16 32 17 15 18 14 19 13 20 12 21
REMARK SMILES IDX 11 22 10 23 9 24 8 25 7 26 6 27 5 28 4 29 3 30 2 31 1 32
REMARK H PARENT
REMARK Flexibility Score: inf
ROOT
ATOM      1  C   UNL     1      15.995  16.158  46.865  1.00  0.00     0.000 C 
ENDROOT
BRANCH   1   2
ATOM      2  C   UNL     1      17.399  16.702  47.190  1.00  0.00     0.000 C 
BRANCH   2   3
ATOM      3  C   UNL     1      18.503  16.329  46.183  1.00  0.00     0.000 C 
BRANCH   3   4
ATOM      4  C   UNL     1      19.891  16.053  46.793  1.00  0.00     0.000 C 
BRANCH   4   5
ATOM      5  C   UNL     1      20.254  16.975  47.975  1.00  0.00     0.000 C 
BRANCH   5   6
ATOM      6  C   UNL     1      21.409  17.942  47.653  1.00  0.00     0.000 C 
BRANCH   6   7
ATOM      7  C   UNL     1      20.949  19.155  46.831  1.00  0.00     0.000 C 
BRANCH   7   8
ATOM      8  C   UNL     1      20.478  20.324  47.714  1.00  0.00     0.000 C 
BRANCH   8   9
ATOM      9  C   UNL     1      18.967  20.278  48.007  1.00  0.00     0.000 C 
BRANCH   9  10
ATOM     10  C   UNL     1      18.060  20.245  46.759  1.00  0.00     0.000 C 
BRANCH  10  11
ATOM     11  C   UNL     1      18.251  21.412  45.773  1.00  0.00     0.000 C 
BRANCH  11  12
ATOM     12  C   UNL     1      18.675  20.947  44.370  1.00  0.00     0.000 C 
BRANCH  12  13
ATOM     13  C   UNL     1      18.626  19.415  44.212  1.00  0.00     0.006 C 
BRANCH  13  14
ATOM     14  C   UNL     1      17.597  18.911  43.186  1.00  0.00     0.053 C 
BRANCH  14  15
ATOM     15  C   UNL     1      16.231  19.470  43.440  1.00  0.00     0.041 C 
ATOM     16  O   UNL     1      15.583  19.118  44.461  1.00  0.00    -0.550 OA
ATOM     17  O   UNL     1      15.655  20.346  42.528  1.00  0.00    -0.550 OA
ENDBRANCH  14  15
ENDBRANCH  13  14
ENDBRANCH  12  13
ENDBRANCH  11  12
ENDBRANCH  10  11
ENDBRANCH   9  10
ENDBRANCH   8   9
ENDBRANCH   7   8
ENDBRANCH   6   7
ENDBRANCH   5   6
ENDBRANCH   4   5
ENDBRANCH   3   4
ENDBRANCH   2   3
ENDBRANCH   1   2
BRANCH   1  18
ATOM     18  C   UNL     1      15.825  15.775  45.385  1.00  0.00     0.000 C 
BRANCH  18  19
ATOM     19  C   UNL     1      15.481  14.288  45.192  1.00  0.00     0.000 C 
BRANCH  19  20
ATOM     20  C   UNL     1      15.221  13.500  46.492  1.00  0.00     0.000 C 
BRANCH  20  21
ATOM     21  C   UNL     1      16.178  12.322  46.749  1.00  0.00     0.000 C 
BRANCH  21  22
ATOM     22  C   UNL     1      17.377  12.309  45.786  1.00  0.00     0.000 C 
BRANCH  22  23
ATOM     23  C   UNL     1      18.727  12.506  46.502  1.00  0.00     0.000 C 
BRANCH  23  24
ATOM     24  C   UNL     1      19.971  12.069  45.701  1.00  0.00    -0.000 C 
BRANCH  24  25
ATOM     25  C   UNL     1      21.225  11.780  46.546  1.00  0.00    -0.000 C 
BRANCH  25  26
ATOM     26  C   UNL     1      21.101  12.291  47.992  1.00  0.00    -0.000 C 
BRANCH  26  27
ATOM     27  C   UNL     1      21.859  13.609  48.220  1.00  0.00    -0.000 C 
BRANCH  27  28
ATOM     28  C   UNL     1      23.338  13.515  47.802  1.00  0.00    -0.000 C 
BRANCH  28  29
ATOM     29  C   UNL     1      24.273  14.247  48.778  1.00  0.00    -0.000 C 
BRANCH  29  30
ATOM     30  C   UNL     1      23.626  15.502  49.391  1.00  0.00    -0.000 C 
BRANCH  30  31
ATOM     31  C   UNL     1      23.471  15.394  50.916  1.00  0.00    -0.003 C 
ATOM     32  C   UNL     1      22.077  15.795  51.397  1.00  0.00     0.004 C 
ENDBRANCH  30  31
ENDBRANCH  29  30
ENDBRANCH  28  29
ENDBRANCH  27  28
ENDBRANCH  26  27
ENDBRANCH  25  26
ENDBRANCH  24  25
ENDBRANCH  23  24
ENDBRANCH  22  23
ENDBRANCH  21  22
ENDBRANCH  20  21
ENDBRANCH  19  20
ENDBRANCH  18  19
ENDBRANCH   1  18
TORSDOF 28
ENDMDL
MODEL 2
REMARK VINA RESULT:    -4.891      2.873      7.704
REMARK INTER + INTRA:         -17.719
REMARK INTER:                 -12.550
REMARK INTRA:                  -5.169
REMARK UNBOUND:                -4.821
REMARK SMILES CCCCCCCCCCCCCCCCCCCCCCCCCCCCCC(=O)[O-]
REMARK SMILES IDX 16 1 17 2 18 3 19 4 20 5 21 6 22 7 23 8 24 9 25 10 26 11
REMARK SMILES IDX 27 12 28 13 29 14 30 15 31 16 32 17 15 18 14 19 13 20 12 21
REMARK SMILES IDX 11 22 10 23 9 24 8 25 7 26 6 27 5 28 4 29 3 30 2 31 1 32
REMARK H PARENT
REMARK Flexibility Score: inf
ROOT
ATOM      1  C   UNL     1      17.811  19.676  44.550  1.00  0.00     0.000 C 
ENDROOT
BRANCH   1   2
ATOM      2  C   UNL     1      19.203  20.289  44.797  1.00  0.00     0.000 C 
BRANCH   2   3
ATOM      3  C   UNL     1      19.371  21.031  46.136  1.00  0.00     0.000 C 
BRANCH   3   4
ATOM      4  C   UNL     1      20.168  20.275  47.218  1.00  0.00     0.000 C 
BRANCH   4   5
ATOM      5  C   UNL     1      21.029  19.117  46.672  1.00  0.00     0.000 C 
BRANCH   5   6
ATOM      6  C   UNL     1      21.429  18.100  47.757  1.00  0.00     0.000 C 
BRANCH   6   7
ATOM      7  C   UNL     1      20.695  18.338  49.086  1.00  0.00     0.000 C 
BRANCH   7   8
ATOM      8  C   UNL     1      20.786  17.131  50.036  1.00  0.00     0.000 C 
BRANCH   8   9
ATOM      9  C   UNL     1      21.406  17.492  51.399  1.00  0.00     0.000 C 
BRANCH   9  10
ATOM     10  C   UNL     1      22.503  16.526  51.894  1.00  0.00     0.000 C 
BRANCH  10  11
ATOM     11  C   UNL     1      22.749  15.293  51.005  1.00  0.00     0.000 C 
BRANCH  11  12
ATOM     12  C   UNL     1      24.057  15.384  50.203  1.00  0.00     0.000 C 
BRANCH  12  13
ATOM     13  C   UNL     1      23.818  15.471  48.684  1.00  0.00     0.006 C 
BRANCH  13  14
ATOM     14  C   UNL     1      23.999  14.141  47.931  1.00  0.00     0.053 C 
BRANCH  14  15
ATOM     15  C   UNL     1      22.708  13.398  47.788  1.00  0.00     0.041 C 
ATOM     16  O   UNL     1      21.623  14.028  47.672  1.00  0.00    -0.550 OA
ATOM     17  O   UNL     1      22.695  12.009  47.825  1.00  0.00    -0.550 OA
ENDBRANCH  14  15
ENDBRANCH  13  14
ENDBRANCH  12  13
ENDBRANCH  11  12
ENDBRANCH  10  11
ENDBRANCH   9  10
ENDBRANCH   8   9
ENDBRANCH   7   8
ENDBRANCH   6   7
ENDBRANCH   5   6
ENDBRANCH   4   5
ENDBRANCH   3   4
ENDBRANCH   2   3
ENDBRANCH   1   2
BRANCH   1  18
ATOM     18  C   UNL     1      17.714  18.206  44.992  1.00  0.00     0.000 C 
BRANCH  18  19
ATOM     19  C   UNL     1      17.250  18.054  46.451  1.00  0.00     0.000 C 
BRANCH  19  20
ATOM     20  C   UNL     1      17.785  16.808  47.184  1.00  0.00     0.000 C 
BRANCH  20  21
ATOM     21  C   UNL     1      18.844  15.997  46.414  1.00  0.00     0.000 C 
BRANCH  21  22
ATOM     22  C   UNL     1      18.385  14.561  46.107  1.00  0.00     0.000 C 
BRANCH  22  23
ATOM     23  C   UNL     1      16.886  14.466  45.769  1.00  0.00     0.000 C 
BRANCH  23  24
ATOM     24  C   UNL     1      16.520  14.757  44.298  1.00  0.00    -0.000 C 
BRANCH  24  25
ATOM     25  C   UNL     1      15.050  15.145  44.054  1.00  0.00    -0.000 C 
BRANCH  25  26
ATOM     26  C   UNL     1      14.524  16.165  45.080  1.00  0.00    -0.000 C 
BRANCH  26  27
ATOM     27  C   UNL     1      13.135  16.711  44.710  1.00  0.00    -0.000 C 
BRANCH  27  28
ATOM     28  C   UNL     1      13.017  18.227  44.954  1.00  0.00    -0.000 C 
BRANCH  28  29
ATOM     29  C   UNL     1      14.149  19.021  44.284  1.00  0.00    -0.000 C 
BRANCH  29  30
ATOM     30  C   UNL     1      13.940  19.190  42.769  1.00  0.00    -0.000 C 
BRANCH  30  31
ATOM     31  C   UNL     1      15.265  19.188  41.991  1.00  0.00    -0.003 C 
ATOM     32  C   UNL     1      15.757  17.777  41.668  1.00  0.00     0.004 C 
ENDBRANCH  30  31
ENDBRANCH  29  30
ENDBRANCH  28  29
ENDBRANCH  27  28
ENDBRANCH  26  27
ENDBRANCH  25  26
ENDBRANCH  24  25
ENDBRANCH  23  24
ENDBRANCH  22  23
ENDBRANCH  21  22
ENDBRANCH  20  21
ENDBRANCH  19  20
ENDBRANCH  18  19
ENDBRANCH   1  18
TORSDOF 28
ENDMDL
MODEL 3
REMARK VINA RESULT:    -4.891      2.849      8.193
REMARK INTER + INTRA:         -17.718
REMARK INTER:                 -13.266
REMARK INTRA:                  -4.452
REMARK UNBOUND:                -4.821
REMARK SMILES CCCCCCCCCCCCCCCCCCCCCCCCCCCCCC(=O)[O-]
REMARK SMILES IDX 16 1 17 2 18 3 19 4 20 5 21 6 22 7 23 8 24 9 25 10 26 11
REMARK SMILES IDX 27 12 28 13 29 14 30 15 31 16 32 17 15 18 14 19 13 20 12 21
REMARK SMILES IDX 11 22 10 23 9 24 8 25 7 26 6 27 5 28 4 29 3 30 2 31 1 32
REMARK H PARENT
REMARK Flexibility Score: inf
ROOT
ATOM      1  C   UNL     1      17.799  14.666  45.777  1.00  0.00     0.000 C 
ENDROOT
BRANCH   1   2
ATOM      2  C   UNL     1      16.878  13.821  44.877  1.00  0.00     0.000 C 
BRANCH   2   3
ATOM      3  C   UNL     1      16.899  12.304  45.146  1.00  0.00     0.000 C 
BRANCH   3   4
ATOM      4  C   UNL     1      16.412  11.872  46.543  1.00  0.00     0.000 C 
BRANCH   4   5
ATOM      5  C   UNL     1      17.406  10.971  47.306  1.00  0.00     0.000 C 
BRANCH   5   6
ATOM      6  C   UNL     1      18.822  10.989  46.700  1.00  0.00     0.000 C 
BRANCH   6   7
ATOM      7  C   UNL     1      19.856  11.629  47.638  1.00  0.00     0.000 C 
BRANCH   7   8
ATOM      8  C   UNL     1      20.675  12.734  46.949  1.00  0.00     0.000 C 
BRANCH   8   9
ATOM      9  C   UNL     1      21.617  13.471  47.920  1.00  0.00     0.000 C 
BRANCH   9  10
ATOM     10  C   UNL     1      23.075  12.967  47.926  1.00  0.00     0.000 C 
BRANCH  10  11
ATOM     11  C   UNL     1      24.152  14.061  47.803  1.00  0.00     0.000 C 
BRANCH  11  12
ATOM     12  C   UNL     1      23.740  15.385  48.467  1.00  0.00     0.000 C 
BRANCH  12  13
ATOM     13  C   UNL     1      24.510  15.660  49.772  1.00  0.00     0.006 C 
BRANCH  13  14
ATOM     14  C   UNL     1      23.911  14.991  51.021  1.00  0.00     0.053 C 
BRANCH  14  15
ATOM     15  C   UNL     1      22.615  15.620  51.428  1.00  0.00     0.041 C 
ATOM     16  O   UNL     1      21.522  15.064  51.138  1.00  0.00    -0.550 OA
ATOM     17  O   UNL     1      22.610  16.843  52.090  1.00  0.00    -0.550 OA
ENDBRANCH  14  15
ENDBRANCH  13  14
ENDBRANCH  12  13
ENDBRANCH  11  12
ENDBRANCH  10  11
ENDBRANCH   9  10
ENDBRANCH   8   9
ENDBRANCH   7   8
ENDBRANCH   6   7
ENDBRANCH   5   6
ENDBRANCH   4   5
ENDBRANCH   3   4
ENDBRANCH   2   3
ENDBRANCH   1   2
BRANCH   1  18
ATOM     18  C   UNL     1      17.042  15.747  46.567  1.00  0.00     0.000 C 
BRANCH  18  19
ATOM     19  C   UNL     1      17.966  16.866  47.076  1.00  0.00     0.000 C 
BRANCH  19  20
ATOM     20  C   UNL     1      19.446  16.735  46.664  1.00  0.00     0.000 C 
BRANCH  20  21
ATOM     21  C   UNL     1      20.465  16.927  47.802  1.00  0.00     0.000 C 
BRANCH  21  22
ATOM     22  C   UNL     1      21.441  18.086  47.537  1.00  0.00     0.000 C 
BRANCH  22  23
ATOM     23  C   UNL     1      20.780  19.278  46.819  1.00  0.00     0.000 C 
BRANCH  23  24
ATOM     24  C   UNL     1      20.330  20.435  47.735  1.00  0.00    -0.000 C 
BRANCH  24  25
ATOM     25  C   UNL     1      18.807  20.647  47.820  1.00  0.00    -0.000 C 
BRANCH  25  26
ATOM     26  C   UNL     1      18.089  20.363  46.489  1.00  0.00    -0.000 C 
BRANCH  26  27
ATOM     27  C   UNL     1      18.306  21.478  45.452  1.00  0.00    -0.000 C 
BRANCH  27  28
ATOM     28  C   UNL     1      18.422  20.931  44.018  1.00  0.00    -0.000 C 
BRANCH  28  29
ATOM     29  C   UNL     1      18.436  19.395  43.974  1.00  0.00    -0.000 C 
BRANCH  29  30
ATOM     30  C   UNL     1      17.184  18.809  43.297  1.00  0.00    -0.000 C 
BRANCH  30  31
ATOM     31  C   UNL     1      17.201  17.273  43.266  1.00  0.00    -0.003 C 
ATOM     32  C   UNL     1      16.243  16.694  42.225  1.00  0.00     0.004 C 
ENDBRANCH  30  31
ENDBRANCH  29  30
ENDBRANCH  28  29
ENDBRANCH  27  28
ENDBRANCH  26  27
ENDBRANCH  25  26
ENDBRANCH  24  25
ENDBRANCH  23  24
ENDBRANCH  22  23
ENDBRANCH  21  22
ENDBRANCH  20  21
ENDBRANCH  19  20
ENDBRANCH  18  19
ENDBRANCH   1  18
TORSDOF 28
ENDMDL
MODEL 4
REMARK VINA RESULT:    -4.855      1.616      3.564
REMARK INTER + INTRA:         -17.623
REMARK INTER:                 -13.026
REMARK INTRA:                  -4.597
REMARK UNBOUND:                -4.821
REMARK SMILES CCCCCCCCCCCCCCCCCCCCCCCCCCCCCC(=O)[O-]
REMARK SMILES IDX 16 1 17 2 18 3 19 4 20 5 21 6 22 7 23 8 24 9 25 10 26 11
REMARK SMILES IDX 27 12 28 13 29 14 30 15 31 16 32 17 15 18 14 19 13 20 12 21
REMARK SMILES IDX 11 22 10 23 9 24 8 25 7 26 6 27 5 28 4 29 3 30 2 31 1 32
REMARK H PARENT
REMARK Flexibility Score: inf
ROOT
ATOM      1  C   UNL     1      20.829  17.919  47.366  1.00  0.00     0.000 C 
ENDROOT
BRANCH   1   2
ATOM      2  C   UNL     1      20.734  18.234  48.870  1.00  0.00     0.000 C 
BRANCH   2   3
ATOM      3  C   UNL     1      20.314  19.674  49.221  1.00  0.00     0.000 C 
BRANCH   3   4
ATOM      4  C   UNL     1      20.026  20.592  48.017  1.00  0.00     0.000 C 
BRANCH   4   5
ATOM      5  C   UNL     1      18.527  20.880  47.789  1.00  0.00     0.000 C 
BRANCH   5   6
ATOM      6  C   UNL     1      18.040  20.464  46.389  1.00  0.00     0.000 C 
BRANCH   6   7
ATOM      7  C   UNL     1      18.840  21.136  45.263  1.00  0.00     0.000 C 
BRANCH   7   8
ATOM      8  C   UNL     1      19.120  20.184  44.087  1.00  0.00     0.000 C 
BRANCH   8   9
ATOM      9  C   UNL     1      18.346  18.857  44.198  1.00  0.00     0.000 C 
BRANCH   9  10
ATOM     10  C   UNL     1      17.150  18.714  43.234  1.00  0.00     0.000 C 
BRANCH  10  11
ATOM     11  C   UNL     1      15.818  19.295  43.744  1.00  0.00     0.000 C 
BRANCH  11  12
ATOM     12  C   UNL     1      14.980  19.939  42.629  1.00  0.00     0.000 C 
BRANCH  12  13
ATOM     13  C   UNL     1      15.810  20.868  41.723  1.00  0.00     0.006 C 
BRANCH  13  14
ATOM     14  C   UNL     1      16.038  22.279  42.291  1.00  0.00     0.053 C 
BRANCH  14  15
ATOM     15  C   UNL     1      17.232  22.944  41.682  1.00  0.00     0.041 C 
ATOM     16  O   UNL     1      18.326  22.978  42.306  1.00  0.00    -0.550 OA
ATOM     17  O   UNL     1      17.129  23.565  40.443  1.00  0.00    -0.550 OA
ENDBRANCH  14  15
ENDBRANCH  13  14
ENDBRANCH  12  13
ENDBRANCH  11  12
ENDBRANCH  10  11
ENDBRANCH   9  10
ENDBRANCH   8   9
ENDBRANCH   7   8
ENDBRANCH   6   7
ENDBRANCH   5   6
ENDBRANCH   4   5
ENDBRANCH   3   4
ENDBRANCH   2   3
ENDBRANCH   1   2
BRANCH   1  18
ATOM     18  C   UNL     1      19.848  16.823  46.918  1.00  0.00     0.000 C 
BRANCH  18  19
ATOM     19  C   UNL     1      18.441  17.006  47.512  1.00  0.00     0.000 C 
BRANCH  19  20
ATOM     20  C   UNL     1      17.277  16.793  46.522  1.00  0.00     0.000 C 
BRANCH  20  21
ATOM     21  C   UNL     1      16.133  15.900  47.035  1.00  0.00     0.000 C 
BRANCH  21  22
ATOM     22  C   UNL     1      16.071  14.542  46.317  1.00  0.00     0.000 C 
BRANCH  22  23
ATOM     23  C   UNL     1      17.381  14.183  45.592  1.00  0.00     0.000 C 
BRANCH  23  24
ATOM     24  C   UNL     1      18.155  12.983  46.179  1.00  0.00    -0.000 C 
BRANCH  24  25
ATOM     25  C   UNL     1      19.667  13.207  46.364  1.00  0.00    -0.000 C 
BRANCH  25  26
ATOM     26  C   UNL     1      20.312  12.172  47.303  1.00  0.00    -0.000 C 
BRANCH  26  27
ATOM     27  C   UNL     1      21.716  12.593  47.768  1.00  0.00    -0.000 C 
BRANCH  27  28
ATOM     28  C   UNL     1      21.744  14.025  48.330  1.00  0.00    -0.000 C 
BRANCH  28  29
ATOM     29  C   UNL     1      23.072  14.744  48.043  1.00  0.00    -0.000 C 
BRANCH  29  30
ATOM     30  C   UNL     1      23.434  15.776  49.126  1.00  0.00    -0.000 C 
BRANCH  30  31
ATOM     31  C   UNL     1      23.372  15.186  50.543  1.00  0.00    -0.003 C 
ATOM     32  C   UNL     1      22.361  15.904  51.437  1.00  0.00     0.004 C 
ENDBRANCH  30  31
ENDBRANCH  29  30
ENDBRANCH  28  29
ENDBRANCH  27  28
ENDBRANCH  26  27
ENDBRANCH  25  26
ENDBRANCH  24  25
ENDBRANCH  23  24
ENDBRANCH  22  23
ENDBRANCH  21  22
ENDBRANCH  20  21
ENDBRANCH  19  20
ENDBRANCH  18  19
ENDBRANCH   1  18
TORSDOF 28
ENDMDL
MODEL 5
REMARK VINA RESULT:    -4.807      1.458      2.104
REMARK INTER + INTRA:         -17.496
REMARK INTER:                 -12.267
REMARK INTRA:                  -5.229
REMARK UNBOUND:                -4.821
REMARK SMILES CCCCCCCCCCCCCCCCCCCCCCCCCCCCCC(=O)[O-]
REMARK SMILES IDX 16 1 17 2 18 3 19 4 20 5 21 6 22 7 23 8 24 9 25 10 26 11
REMARK SMILES IDX 27 12 28 13 29 14 30 15 31 16 32 17 15 18 14 19 13 20 12 21
REMARK SMILES IDX 11 22 10 23 9 24 8 25 7 26 6 27 5 28 4 29 3 30 2 31 1 32
REMARK H PARENT
REMARK Flexibility Score: inf
ROOT
ATOM      1  C   UNL     1      17.287  16.504  46.938  1.00  0.00     0.000 C 
ENDROOT
BRANCH   1   2
ATOM      2  C   UNL     1      18.497  15.866  46.232  1.00  0.00     0.000 C 
BRANCH   2   3
ATOM      3  C   UNL     1      19.877  16.364  46.703  1.00  0.00     0.000 C 
BRANCH   3   4
ATOM      4  C   UNL     1      19.994  16.667  48.209  1.00  0.00     0.000 C 
BRANCH   4   5
ATOM      5  C   UNL     1      20.571  18.062  48.528  1.00  0.00     0.000 C 
BRANCH   5   6
ATOM      6  C   UNL     1      21.289  18.705  47.327  1.00  0.00     0.000 C 
BRANCH   6   7
ATOM      7  C   UNL     1      20.592  19.984  46.839  1.00  0.00     0.000 C 
BRANCH   7   8
ATOM      8  C   UNL     1      19.132  20.080  47.316  1.00  0.00     0.000 C 
BRANCH   8   9
ATOM      9  C   UNL     1      18.121  19.995  46.158  1.00  0.00     0.000 C 
BRANCH   9  10
ATOM     10  C   UNL     1      18.657  19.342  44.867  1.00  0.00     0.000 C 
BRANCH  10  11
ATOM     11  C   UNL     1      17.582  18.813  43.900  1.00  0.00     0.000 C 
BRANCH  11  12
ATOM     12  C   UNL     1      16.172  19.328  44.230  1.00  0.00     0.000 C 
BRANCH  12  13
ATOM     13  C   UNL     1      15.067  18.546  43.496  1.00  0.00     0.006 C 
BRANCH  13  14
ATOM     14  C   UNL     1      15.521  17.201  42.904  1.00  0.00     0.053 C 
BRANCH  14  15
ATOM     15  C   UNL     1      14.490  16.131  43.087  1.00  0.00     0.041 C 
ATOM     16  O   UNL     1      14.606  15.030  42.485  1.00  0.00    -0.550 OA
ATOM     17  O   UNL     1      13.377  16.363  43.886  1.00  0.00    -0.550 OA
ENDBRANCH  14  15
ENDBRANCH  13  14
ENDBRANCH  12  13
ENDBRANCH  11  12
ENDBRANCH  10  11
ENDBRANCH   9  10
ENDBRANCH   8   9
ENDBRANCH   7   8
ENDBRANCH   6   7
ENDBRANCH   5   6
ENDBRANCH   4   5
ENDBRANCH   3   4
ENDBRANCH   2   3
ENDBRANCH   1   2
BRANCH   1  18
ATOM     18  C   UNL     1      15.958  15.804  46.606  1.00  0.00     0.000 C 
BRANCH  18  19
ATOM     19  C   UNL     1      16.153  14.527  45.769  1.00  0.00     0.000 C 
BRANCH  19  20
ATOM     20  C   UNL     1      15.901  13.204  46.521  1.00  0.00     0.000 C 
BRANCH  20  21
ATOM     21  C   UNL     1      16.786  12.023  46.087  1.00  0.00     0.000 C 
BRANCH  21  22
ATOM     22  C   UNL     1      17.372  11.248  47.280  1.00  0.00     0.000 C 
BRANCH  22  23
ATOM     23  C   UNL     1      18.903  11.379  47.391  1.00  0.00     0.000 C 
BRANCH  23  24
ATOM     24  C   UNL     1      19.543  12.445  46.478  1.00  0.00    -0.000 C 
BRANCH  24  25
ATOM     25  C   UNL     1      21.070  12.588  46.610  1.00  0.00    -0.000 C 
BRANCH  25  26
ATOM     26  C   UNL     1      21.498  13.220  47.946  1.00  0.00    -0.000 C 
BRANCH  26  27
ATOM     27  C   UNL     1      23.019  13.171  48.163  1.00  0.00    -0.000 C 
BRANCH  27  28
ATOM     28  C   UNL     1      23.705  14.506  47.819  1.00  0.00    -0.000 C 
BRANCH  28  29
ATOM     29  C   UNL     1      23.380  15.612  48.835  1.00  0.00    -0.000 C 
BRANCH  29  30
ATOM     30  C   UNL     1      24.109  15.418  50.177  1.00  0.00    -0.000 C 
BRANCH  30  31
ATOM     31  C   UNL     1      23.231  15.797  51.379  1.00  0.00    -0.003 C 
ATOM     32  C   UNL     1      21.766  15.404  51.188  1.00  0.00     0.004 C 
ENDBRANCH  30  31
ENDBRANCH  29  30
ENDBRANCH  28  29
ENDBRANCH  27  28
ENDBRANCH  26  27
ENDBRANCH  25  26
ENDBRANCH  24  25
ENDBRANCH  23  24
ENDBRANCH  22  23
ENDBRANCH  21  22
ENDBRANCH  20  21
ENDBRANCH  19  20
ENDBRANCH  18  19
ENDBRANCH   1  18
TORSDOF 28
ENDMDL
MODEL 6
REMARK VINA RESULT:    -4.806      2.435      7.101
REMARK INTER + INTRA:         -17.493
REMARK INTER:                 -13.206
REMARK INTRA:                  -4.287
REMARK UNBOUND:                -4.821
REMARK SMILES CCCCCCCCCCCCCCCCCCCCCCCCCCCCCC(=O)[O-]
REMARK SMILES IDX 16 1 17 2 18 3 19 4 20 5 21 6 22 7 23 8 24 9 25 10 26 11
REMARK SMILES IDX 27 12 28 13 29 14 30 15 31 16 32 17 15 18 14 19 13 20 12 21
REMARK SMILES IDX 11 22 10 23 9 24 8 25 7 26 6 27 5 28 4 29 3 30 2 31 1 32
REMARK H PARENT
REMARK Flexibility Score: inf
ROOT
ATOM      1  C   UNL     1      21.557  17.066  48.296  1.00  0.00     0.000 C 
ENDROOT
BRANCH   1   2
ATOM      2  C   UNL     1      21.305  17.127  49.814  1.00  0.00     0.000 C 
BRANCH   2   3
ATOM      3  C   UNL     1      21.736  15.879  50.607  1.00  0.00     0.000 C 
BRANCH   3   4
ATOM      4  C   UNL     1      22.861  16.104  51.637  1.00  0.00     0.000 C 
BRANCH   4   5
ATOM      5  C   UNL     1      24.153  15.316  51.341  1.00  0.00     0.000 C 
BRANCH   5   6
ATOM      6  C   UNL     1      24.559  15.361  49.856  1.00  0.00     0.000 C 
BRANCH   6   7
ATOM      7  C   UNL     1      24.618  13.964  49.219  1.00  0.00     0.000 C 
BRANCH   7   8
ATOM      8  C   UNL     1      24.320  13.989  47.710  1.00  0.00     0.000 C 
BRANCH   8   9
ATOM      9  C   UNL     1      23.691  12.677  47.204  1.00  0.00     0.000 C 
BRANCH   9  10
ATOM     10  C   UNL     1      22.315  12.335  47.812  1.00  0.00     0.000 C 
BRANCH  10  11
ATOM     11  C   UNL     1      21.189  12.079  46.794  1.00  0.00     0.000 C 
BRANCH  11  12
ATOM     12  C   UNL     1      19.894  11.570  47.448  1.00  0.00     0.000 C 
BRANCH  12  13
ATOM     13  C   UNL     1      18.627  12.085  46.738  1.00  0.00     0.006 C 
BRANCH  13  14
ATOM     14  C   UNL     1      18.876  12.686  45.344  1.00  0.00     0.053 C 
BRANCH  14  15
ATOM     15  C   UNL     1      18.462  11.752  44.249  1.00  0.00     0.041 C 
ATOM     16  O   UNL     1      19.332  11.124  43.590  1.00  0.00    -0.550 OA
ATOM     17  O   UNL     1      17.118  11.608  43.926  1.00  0.00    -0.550 OA
ENDBRANCH  14  15
ENDBRANCH  13  14
ENDBRANCH  12  13
ENDBRANCH  11  12
ENDBRANCH  10  11
ENDBRANCH   9  10
ENDBRANCH   8   9
ENDBRANCH   7   8
ENDBRANCH   6   7
ENDBRANCH   5   6
ENDBRANCH   4   5
ENDBRANCH   3   4
ENDBRANCH   2   3
ENDBRANCH   1   2
BRANCH   1  18
ATOM     18  C   UNL     1      21.184  15.709  47.677  1.00  0.00     0.000 C 
BRANCH  18  19
ATOM     19  C   UNL     1      19.887  15.770  46.852  1.00  0.00     0.000 C 
BRANCH  19  20
ATOM     20  C   UNL     1      19.087  17.082  46.981  1.00  0.00     0.000 C 
BRANCH  20  21
ATOM     21  C   UNL     1      17.566  16.911  47.152  1.00  0.00     0.000 C 
BRANCH  21  22
ATOM     22  C   UNL     1      17.024  15.663  46.434  1.00  0.00     0.000 C 
BRANCH  22  23
ATOM     23  C   UNL     1      16.559  15.951  44.994  1.00  0.00     0.000 C 
BRANCH  23  24
ATOM     24  C   UNL     1      17.215  17.174  44.319  1.00  0.00    -0.000 C 
BRANCH  24  25
ATOM     25  C   UNL     1      16.373  18.463  44.341  1.00  0.00    -0.000 C 
BRANCH  25  26
ATOM     26  C   UNL     1      17.179  19.695  44.789  1.00  0.00    -0.000 C 
BRANCH  26  27
ATOM     27  C   UNL     1      18.506  19.841  44.027  1.00  0.00    -0.000 C 
BRANCH  27  28
ATOM     28  C   UNL     1      19.706  20.040  44.971  1.00  0.00    -0.000 C 
BRANCH  28  29
ATOM     29  C   UNL     1      19.329  20.808  46.247  1.00  0.00    -0.000 C 
BRANCH  29  30
ATOM     30  C   UNL     1      20.220  20.441  47.447  1.00  0.00    -0.000 C 
BRANCH  30  31
ATOM     31  C   UNL     1      19.408  20.212  48.731  1.00  0.00    -0.003 C 
ATOM     32  C   UNL     1      19.778  21.191  49.846  1.00  0.00     0.004 C 
ENDBRANCH  30  31
ENDBRANCH  29  30
ENDBRANCH  28  29
ENDBRANCH  27  28
ENDBRANCH  26  27
ENDBRANCH  25  26
ENDBRANCH  24  25
ENDBRANCH  23  24
ENDBRANCH  22  23
ENDBRANCH  21  22
ENDBRANCH  20  21
ENDBRANCH  19  20
ENDBRANCH  18  19
ENDBRANCH   1  18
TORSDOF 28
ENDMDL
MODEL 7
REMARK VINA RESULT:    -4.788      2.481      7.585
REMARK INTER + INTRA:         -17.447
REMARK INTER:                 -12.178
REMARK INTRA:                  -5.269
REMARK UNBOUND:                -4.821
REMARK SMILES CCCCCCCCCCCCCCCCCCCCCCCCCCCCCC(=O)[O-]
REMARK SMILES IDX 16 1 17 2 18 3 19 4 20 5 21 6 22 7 23 8 24 9 25 10 26 11
REMARK SMILES IDX 27 12 28 13 29 14 30 15 31 16 32 17 15 18 14 19 13 20 12 21
REMARK SMILES IDX 11 22 10 23 9 24 8 25 7 26 6 27 5 28 4 29 3 30 2 31 1 32
REMARK H PARENT
REMARK Flexibility Score: inf
ROOT
ATOM      1  C   UNL     1      17.766  17.102  47.402  1.00  0.00     0.000 C 
ENDROOT
BRANCH   1   2
ATOM      2  C   UNL     1      16.448  16.512  46.867  1.00  0.00     0.000 C 
BRANCH   2   3
ATOM      3  C   UNL     1      16.567  15.141  46.175  1.00  0.00     0.000 C 
BRANCH   3   4
ATOM      4  C   UNL     1      15.235  14.413  45.911  1.00  0.00     0.000 C 
BRANCH   4   5
ATOM      5  C   UNL     1      14.804  14.405  44.430  1.00  0.00     0.000 C 
BRANCH   5   6
ATOM      6  C   UNL     1      13.303  14.689  44.237  1.00  0.00     0.000 C 
BRANCH   6   7
ATOM      7  C   UNL     1      13.024  15.583  43.019  1.00  0.00     0.000 C 
BRANCH   7   8
ATOM      8  C   UNL     1      12.441  14.798  41.831  1.00  0.00     0.000 C 
BRANCH   8   9
ATOM      9  C   UNL     1      13.024  15.246  40.478  1.00  0.00     0.000 C 
BRANCH   9  10
ATOM     10  C   UNL     1      14.401  15.938  40.555  1.00  0.00     0.000 C 
BRANCH  10  11
ATOM     11  C   UNL     1      14.656  17.022  39.492  1.00  0.00     0.000 C 
BRANCH  11  12
ATOM     12  C   UNL     1      14.015  18.373  39.848  1.00  0.00     0.000 C 
BRANCH  12  13
ATOM     13  C   UNL     1      15.041  19.402  40.357  1.00  0.00     0.006 C 
BRANCH  13  14
ATOM     14  C   UNL     1      14.433  20.575  41.145  1.00  0.00     0.053 C 
BRANCH  14  15
ATOM     15  C   UNL     1      15.465  21.589  41.528  1.00  0.00     0.041 C 
ATOM     16  O   UNL     1      16.497  21.742  40.821  1.00  0.00    -0.550 OA
ATOM     17  O   UNL     1      15.311  22.338  42.688  1.00  0.00    -0.550 OA
ENDBRANCH  14  15
ENDBRANCH  13  14
ENDBRANCH  12  13
ENDBRANCH  11  12
ENDBRANCH  10  11
ENDBRANCH   9  10
ENDBRANCH   8   9
ENDBRANCH   7   8
ENDBRANCH   6   7
ENDBRANCH   5   6
ENDBRANCH   4   5
ENDBRANCH   3   4
ENDBRANCH   2   3
ENDBRANCH   1   2
BRANCH   1  18
ATOM     18  C   UNL     1      18.942  16.929  46.425  1.00  0.00     0.000 C 
BRANCH  18  19
ATOM     19  C   UNL     1      19.987  15.917  46.927  1.00  0.00     0.000 C 
BRANCH  19  20
ATOM     20  C   UNL     1      21.217  16.533  47.623  1.00  0.00     0.000 C 
BRANCH  20  21
ATOM     21  C   UNL     1      21.205  18.068  47.742  1.00  0.00     0.000 C 
BRANCH  21  22
ATOM     22  C   UNL     1      20.869  18.552  49.162  1.00  0.00     0.000 C 
BRANCH  22  23
ATOM     23  C   UNL     1      20.121  19.898  49.178  1.00  0.00     0.000 C 
BRANCH  23  24
ATOM     24  C   UNL     1      19.863  20.529  47.794  1.00  0.00    -0.000 C 
BRANCH  24  25
ATOM     25  C   UNL     1      18.380  20.731  47.433  1.00  0.00    -0.000 C 
BRANCH  25  26
ATOM     26  C   UNL     1      18.102  20.559  45.929  1.00  0.00    -0.000 C 
BRANCH  26  27
ATOM     27  C   UNL     1      19.392  20.440  45.101  1.00  0.00    -0.000 C 
BRANCH  27  28
ATOM     28  C   UNL     1      19.146  19.813  43.717  1.00  0.00    -0.000 C 
BRANCH  28  29
ATOM     29  C   UNL     1      17.661  19.502  43.468  1.00  0.00    -0.000 C 
BRANCH  29  30
ATOM     30  C   UNL     1      17.397  18.002  43.246  1.00  0.00    -0.000 C 
BRANCH  30  31
ATOM     31  C   UNL     1      15.914  17.638  43.414  1.00  0.00    -0.003 C 
ATOM     32  C   UNL     1      15.138  18.680  44.220  1.00  0.00     0.004 C 
ENDBRANCH  30  31
ENDBRANCH  29  30
ENDBRANCH  28  29
ENDBRANCH  27  28
ENDBRANCH  26  27
ENDBRANCH  25  26
ENDBRANCH  24  25
ENDBRANCH  23  24
ENDBRANCH  22  23
ENDBRANCH  21  22
ENDBRANCH  20  21
ENDBRANCH  19  20
ENDBRANCH  18  19
ENDBRANCH   1  18
TORSDOF 28
ENDMDL
MODEL 8
REMARK VINA RESULT:    -4.773      1.676      3.430
REMARK INTER + INTRA:         -17.408
REMARK INTER:                 -12.515
REMARK INTRA:                  -4.893
REMARK UNBOUND:                -4.821
REMARK SMILES CCCCCCCCCCCCCCCCCCCCCCCCCCCCCC(=O)[O-]
REMARK SMILES IDX 16 1 17 2 18 3 19 4 20 5 21 6 22 7 23 8 24 9 25 10 26 11
REMARK SMILES IDX 27 12 28 13 29 14 30 15 31 16 32 17 15 18 14 19 13 20 12 21
REMARK SMILES IDX 11 22 10 23 9 24 8 25 7 26 6 27 5 28 4 29 3 30 2 31 1 32
REMARK H PARENT
REMARK Flexibility Score: inf
ROOT
ATOM      1  C   UNL     1      19.934  16.472  46.879  1.00  0.00     0.000 C 
ENDROOT
BRANCH   1   2
ATOM      2  C   UNL     1      20.015  17.196  48.236  1.00  0.00     0.000 C 
BRANCH   2   3
ATOM      3  C   UNL     1      21.023  18.358  48.308  1.00  0.00     0.000 C 
BRANCH   3   4
ATOM      4  C   UNL     1      20.704  19.569  47.409  1.00  0.00     0.000 C 
BRANCH   4   5
ATOM      5  C   UNL     1      19.263  20.098  47.553  1.00  0.00     0.000 C 
BRANCH   5   6
ATOM      6  C   UNL     1      18.671  20.604  46.223  1.00  0.00     0.000 C 
BRANCH   6   7
ATOM      7  C   UNL     1      19.469  20.121  45.002  1.00  0.00     0.000 C 
BRANCH   7   8
ATOM      8  C   UNL     1      18.571  19.507  43.914  1.00  0.00     0.000 C 
BRANCH   8   9
ATOM      9  C   UNL     1      17.071  19.642  44.234  1.00  0.00     0.000 C 
BRANCH   9  10
ATOM     10  C   UNL     1      16.219  18.396  43.912  1.00  0.00     0.000 C 
BRANCH  10  11
ATOM     11  C   UNL     1      16.864  17.387  42.946  1.00  0.00     0.000 C 
BRANCH  11  12
ATOM     12  C   UNL     1      15.849  16.738  41.991  1.00  0.00     0.000 C 
BRANCH  12  13
ATOM     13  C   UNL     1      14.844  15.827  42.722  1.00  0.00     0.006 C 
BRANCH  13  14
ATOM     14  C   UNL     1      13.455  16.452  42.938  1.00  0.00     0.053 C 
BRANCH  14  15
ATOM     15  C   UNL     1      13.006  16.342  44.362  1.00  0.00     0.041 C 
ATOM     16  O   UNL     1      12.848  17.379  45.059  1.00  0.00    -0.550 OA
ATOM     17  O   UNL     1      12.804  15.092  44.935  1.00  0.00    -0.550 OA
ENDBRANCH  14  15
ENDBRANCH  13  14
ENDBRANCH  12  13
ENDBRANCH  11  12
ENDBRANCH  10  11
ENDBRANCH   9  10
ENDBRANCH   8   9
ENDBRANCH   7   8
ENDBRANCH   6   7
ENDBRANCH   5   6
ENDBRANCH   4   5
ENDBRANCH   3   4
ENDBRANCH   2   3
ENDBRANCH   1   2
BRANCH   1  18
ATOM     18  C   UNL     1      18.567  16.631  46.192  1.00  0.00     0.000 C 
BRANCH  18  19
ATOM     19  C   UNL     1      17.427  16.894  47.192  1.00  0.00     0.000 C 
BRANCH  19  20
ATOM     20  C   UNL     1      16.118  16.131  46.911  1.00  0.00     0.000 C 
BRANCH  20  21
ATOM     21  C   UNL     1      16.204  15.062  45.807  1.00  0.00     0.000 C 
BRANCH  21  22
ATOM     22  C   UNL     1      16.463  13.651  46.363  1.00  0.00     0.000 C 
BRANCH  22  23
ATOM     23  C   UNL     1      17.708  12.982  45.752  1.00  0.00     0.000 C 
BRANCH  23  24
ATOM     24  C   UNL     1      18.611  12.227  46.751  1.00  0.00    -0.000 C 
BRANCH  24  25
ATOM     25  C   UNL     1      20.116  12.263  46.428  1.00  0.00    -0.000 C 
BRANCH  25  26
ATOM     26  C   UNL     1      20.993  12.392  47.686  1.00  0.00    -0.000 C 
BRANCH  26  27
ATOM     27  C   UNL     1      21.900  13.633  47.648  1.00  0.00    -0.000 C 
BRANCH  27  28
ATOM     28  C   UNL     1      23.388  13.279  47.821  1.00  0.00    -0.000 C 
BRANCH  28  29
ATOM     29  C   UNL     1      24.133  14.288  48.708  1.00  0.00    -0.000 C 
BRANCH  29  30
ATOM     30  C   UNL     1      23.322  15.572  48.959  1.00  0.00    -0.000 C 
BRANCH  30  31
ATOM     31  C   UNL     1      22.971  15.762  50.442  1.00  0.00    -0.003 C 
ATOM     32  C   UNL     1      24.153  15.477  51.369  1.00  0.00     0.004 C 
ENDBRANCH  30  31
ENDBRANCH  29  30
ENDBRANCH  28  29
ENDBRANCH  27  28
ENDBRANCH  26  27
ENDBRANCH  25  26
ENDBRANCH  24  25
ENDBRANCH  23  24
ENDBRANCH  22  23
ENDBRANCH  21  22
ENDBRANCH  20  21
ENDBRANCH  19  20
ENDBRANCH  18  19
ENDBRANCH   1  18
TORSDOF 28
ENDMDL
MODEL 9
REMARK VINA RESULT:    -4.695      2.851      7.742
REMARK INTER + INTRA:         -17.201
REMARK INTER:                 -11.842
REMARK INTRA:                  -5.359
REMARK UNBOUND:                -4.821
REMARK SMILES CCCCCCCCCCCCCCCCCCCCCCCCCCCCCC(=O)[O-]
REMARK SMILES IDX 16 1 17 2 18 3 19 4 20 5 21 6 22 7 23 8 24 9 25 10 26 11
REMARK SMILES IDX 27 12 28 13 29 14 30 15 31 16 32 17 15 18 14 19 13 20 12 21
REMARK SMILES IDX 11 22 10 23 9 24 8 25 7 26 6 27 5 28 4 29 3 30 2 31 1 32
REMARK H PARENT
REMARK Flexibility Score: inf
ROOT
ATOM      1  C   UNL     1      17.978  20.322  45.808  1.00  0.00     0.000 C 
ENDROOT
BRANCH   1   2
ATOM      2  C   UNL     1      18.388  20.961  47.149  1.00  0.00     0.000 C 
BRANCH   2   3
ATOM      3  C   UNL     1      19.799  20.601  47.650  1.00  0.00     0.000 C 
BRANCH   3   4
ATOM      4  C   UNL     1      19.884  20.148  49.121  1.00  0.00     0.000 C 
BRANCH   4   5
ATOM      5  C   UNL     1      20.691  18.851  49.334  1.00  0.00     0.000 C 
BRANCH   5   6
ATOM      6  C   UNL     1      21.334  18.322  48.038  1.00  0.00     0.000 C 
BRANCH   6   7
ATOM      7  C   UNL     1      21.609  16.811  48.091  1.00  0.00     0.000 C 
BRANCH   7   8
ATOM      8  C   UNL     1      20.630  16.002  47.223  1.00  0.00     0.000 C 
BRANCH   8   9
ATOM      9  C   UNL     1      19.544  16.879  46.574  1.00  0.00     0.000 C 
BRANCH   9  10
ATOM     10  C   UNL     1      18.238  16.142  46.210  1.00  0.00     0.000 C 
BRANCH  10  11
ATOM     11  C   UNL     1      16.943  16.805  46.713  1.00  0.00     0.000 C 
BRANCH  11  12
ATOM     12  C   UNL     1      15.769  15.820  46.823  1.00  0.00     0.000 C 
BRANCH  12  13
ATOM     13  C   UNL     1      16.157  14.385  46.419  1.00  0.00     0.006 C 
BRANCH  13  14
ATOM     14  C   UNL     1      15.388  13.832  45.207  1.00  0.00     0.053 C 
BRANCH  14  15
ATOM     15  C   UNL     1      16.056  12.628  44.620  1.00  0.00     0.041 C 
ATOM     16  O   UNL     1      16.361  11.651  45.355  1.00  0.00    -0.550 OA
ATOM     17  O   UNL     1      16.382  12.599  43.269  1.00  0.00    -0.550 OA
ENDBRANCH  14  15
ENDBRANCH  13  14
ENDBRANCH  12  13
ENDBRANCH  11  12
ENDBRANCH  10  11
ENDBRANCH   9  10
ENDBRANCH   8   9
ENDBRANCH   7   8
ENDBRANCH   6   7
ENDBRANCH   5   6
ENDBRANCH   4   5
ENDBRANCH   3   4
ENDBRANCH   2   3
ENDBRANCH   1   2
BRANCH   1  18
ATOM     18  C   UNL     1      19.153  20.176  44.827  1.00  0.00     0.000 C 
BRANCH  18  19
ATOM     19  C   UNL     1      18.747  19.485  43.514  1.00  0.00     0.000 C 
BRANCH  19  20
ATOM     20  C   UNL     1      17.491  18.596  43.600  1.00  0.00     0.000 C 
BRANCH  20  21
ATOM     21  C   UNL     1      17.274  17.646  42.408  1.00  0.00     0.000 C 
BRANCH  21  22
ATOM     22  C   UNL     1      16.699  16.283  42.830  1.00  0.00     0.000 C 
BRANCH  22  23
ATOM     23  C   UNL     1      15.344  15.971  42.167  1.00  0.00     0.000 C 
BRANCH  23  24
ATOM     24  C   UNL     1      14.198  16.944  42.513  1.00  0.00    -0.000 C 
BRANCH  24  25
ATOM     25  C   UNL     1      13.935  17.138  44.017  1.00  0.00    -0.000 C 
BRANCH  25  26
ATOM     26  C   UNL     1      13.910  18.619  44.433  1.00  0.00    -0.000 C 
BRANCH  26  27
ATOM     27  C   UNL     1      13.984  19.572  43.228  1.00  0.00    -0.000 C 
BRANCH  27  28
ATOM     28  C   UNL     1      14.722  20.882  43.559  1.00  0.00    -0.000 C 
BRANCH  28  29
ATOM     29  C   UNL     1      15.027  21.718  42.307  1.00  0.00    -0.000 C 
BRANCH  29  30
ATOM     30  C   UNL     1      16.532  21.787  41.991  1.00  0.00    -0.000 C 
BRANCH  30  31
ATOM     31  C   UNL     1      17.072  23.225  42.029  1.00  0.00    -0.003 C 
ATOM     32  C   UNL     1      15.996  24.268  41.728  1.00  0.00     0.004 C 
ENDBRANCH  30  31
ENDBRANCH  29  30
ENDBRANCH  28  29
ENDBRANCH  27  28
ENDBRANCH  26  27
ENDBRANCH  25  26
ENDBRANCH  24  25
ENDBRANCH  23  24
ENDBRANCH  22  23
ENDBRANCH  21  22
ENDBRANCH  20  21
ENDBRANCH  19  20
ENDBRANCH  18  19
ENDBRANCH   1  18
TORSDOF 28
ENDMDL
