MODEL 1
REMARK VINA RESULT:    -3.183      0.000      0.000
REMARK INTER + INTRA:          -5.204
REMARK INTER:                  -4.857
REMARK INTRA:                  -0.347
REMARK UNBOUND:                -0.347
REMARK SMILES CC1=CCC[C@H](C)C(=O)C[C@@H](C(C)C)C(=O)C1
REMARK SMILES IDX 8 1 9 2 6 3 7 4 5 5 4 6 3 7 2 8 1 9 10 11 11 12 15 13 16 14
REMARK SMILES IDX 17 15 12 17 13 18 14 19
REMARK H PARENT
REMARK Flexibility Score: 70.00
ROOT
ATOM      1  C   UNL     1     -19.348  -1.023  29.237  1.00  0.00     0.136 C 
ATOM      2  O   UNL     1     -19.338  -2.198  28.894  1.00  0.00    -0.299 OA
ENDROOT
BRANCH   1   3
ATOM      3  C   UNL     1     -20.417  -0.585  30.222  1.00  0.00     0.053 C 
ATOM      4  C   UNL     1     -21.837  -0.549  29.632  1.00  0.00     0.016 C 
BRANCH   3   5
ATOM      5  C   UNL     1     -20.238  -1.340  31.576  1.00  0.00     0.015 C 
BRANCH   5   6
ATOM      6  C   UNL     1     -18.955  -1.123  32.403  1.00  0.00     0.028 C 
BRANCH   6   7
ATOM      7  C   UNL     1     -18.757   0.227  33.054  1.00  0.00    -0.028 C 
ATOM      8  C   UNL     1     -17.824   1.154  32.737  1.00  0.00    -0.070 CG0
ATOM      9  C   UNL     1     -17.960   2.525  33.350  1.00  0.00     0.039 C 
ATOM     10  G   UNL     1     -16.636   0.875  31.837  1.00  0.00     0.000 G0
ENDBRANCH   6   7
ENDBRANCH   5   6
ENDBRANCH   3   5
ENDBRANCH   1   3
BRANCH   1  11
ATOM     11  C   UNL     1     -18.314  -0.101  28.627  1.00  0.00     0.087 C 
BRANCH  11  12
ATOM     12  C   UNL     1     -16.931  -0.072  29.346  1.00  0.00     0.066 C 
BRANCH  12  13
ATOM     13  C   UNL     1     -16.835   1.077  30.352  1.00  0.00     0.140 C 
ATOM     14  O   UNL     1     -16.893   2.224  29.932  1.00  0.00    -0.299 OA
BRANCH  13  15
ATOM     15  C   UNL     1     -16.606   0.882  31.844  1.00  0.00     0.106 CG0
ATOM     16  G   UNL     1     -17.820   1.167  32.705  1.00  0.00     0.000 G0
ENDBRANCH  13  15
ENDBRANCH  12  13
BRANCH  12  17
ATOM     17  C   UNL     1     -15.765   0.009  28.308  1.00  0.00    -0.006 C 
ATOM     18  C   UNL     1     -15.967  -0.967  27.134  1.00  0.00     0.008 C 
ATOM     19  C   UNL     1     -14.397  -0.275  28.953  1.00  0.00     0.008 C 
ENDBRANCH  12  17
ENDBRANCH  11  12
ENDBRANCH   1  11
TORSDOF 1
ENDMDL
MODEL 2
REMARK VINA RESULT:    -3.174      5.974      8.400
REMARK INTER + INTRA:          -5.190
REMARK INTER:                  -4.755
REMARK INTRA:                  -0.436
REMARK UNBOUND:                -0.347
REMARK SMILES CC1=CCC[C@H](C)C(=O)C[C@@H](C(C)C)C(=O)C1
REMARK SMILES IDX 8 1 9 2 6 3 7 4 5 5 4 6 3 7 2 8 1 9 10 11 11 12 15 13 16 14
REMARK SMILES IDX 17 15 12 17 13 18 14 19
REMARK H PARENT
REMARK Flexibility Score: 70.00
ROOT
ATOM      1  C   UNL     1     -14.987   7.606  26.657  1.00  0.00     0.136 C 
ATOM      2  O   UNL     1     -14.514   8.725  26.802  1.00  0.00    -0.299 OA
ENDROOT
BRANCH   1   3
ATOM      3  C   UNL     1     -14.042   6.486  26.260  1.00  0.00     0.053 C 
ATOM      4  C   UNL     1     -13.140   6.823  25.060  1.00  0.00     0.016 C 
BRANCH   3   5
ATOM      5  C   UNL     1     -13.338   5.907  27.526  1.00  0.00     0.015 C 
BRANCH   5   6
ATOM      6  C   UNL     1     -13.805   4.555  28.103  1.00  0.00     0.028 C 
BRANCH   6   7
ATOM      7  C   UNL     1     -14.610   3.646  27.204  1.00  0.00    -0.028 C 
ATOM      8  C   UNL     1     -15.956   3.515  27.175  1.00  0.00    -0.070 CG0
ATOM      9  C   UNL     1     -16.562   2.733  26.037  1.00  0.00     0.039 C 
ATOM     10  G   UNL     1     -16.877   4.077  28.241  1.00  0.00     0.000 G0
ENDBRANCH   6   7
ENDBRANCH   5   6
ENDBRANCH   3   5
ENDBRANCH   1   3
BRANCH   1  11
ATOM     11  C   UNL     1     -16.478   7.438  26.858  1.00  0.00     0.087 C 
BRANCH  11  12
ATOM     12  C   UNL     1     -16.904   6.745  28.187  1.00  0.00     0.066 C 
BRANCH  12  13
ATOM     13  C   UNL     1     -17.551   5.380  27.938  1.00  0.00     0.140 C 
ATOM     14  O   UNL     1     -18.691   5.349  27.498  1.00  0.00    -0.299 OA
BRANCH  13  15
ATOM     15  C   UNL     1     -16.883   4.053  28.265  1.00  0.00     0.106 CG0
ATOM     16  G   UNL     1     -15.967   3.530  27.176  1.00  0.00     0.000 G0
ENDBRANCH  13  15
ENDBRANCH  12  13
BRANCH  12  17
ATOM     17  C   UNL     1     -17.864   7.664  29.012  1.00  0.00    -0.006 C 
ATOM     18  C   UNL     1     -17.505   9.154  28.865  1.00  0.00     0.008 C 
ATOM     19  C   UNL     1     -17.864   7.304  30.508  1.00  0.00     0.008 C 
ENDBRANCH  12  17
ENDBRANCH  11  12
ENDBRANCH   1  11
TORSDOF 1
ENDMDL
MODEL 3
REMARK VINA RESULT:    -3.110      2.024      4.290
REMARK INTER + INTRA:          -5.093
REMARK INTER:                  -4.868
REMARK INTRA:                  -0.225
REMARK UNBOUND:                -0.347
REMARK SMILES CC1=CCC[C@H](C)C(=O)C[C@@H](C(C)C)C(=O)C1
REMARK SMILES IDX 8 1 9 2 6 3 7 4 5 5 4 6 3 7 2 8 1 9 10 11 11 12 15 13 16 14
REMARK SMILES IDX 17 15 12 17 13 18 14 19
REMARK H PARENT
REMARK Flexibility Score: 70.00
ROOT
ATOM      1  C   UNL     1     -19.200  -1.415  30.439  1.00  0.00     0.136 C 
ATOM      2  O   UNL     1     -20.209  -1.726  31.057  1.00  0.00    -0.299 OA
ENDROOT
BRANCH   1   3
ATOM      3  C   UNL     1     -19.349  -1.088  28.964  1.00  0.00     0.053 C 
ATOM      4  C   UNL     1     -20.413  -1.930  28.239  1.00  0.00     0.016 C 
BRANCH   3   5
ATOM      5  C   UNL     1     -19.419   0.458  28.764  1.00  0.00     0.015 C 
BRANCH   5   6
ATOM      6  C   UNL     1     -18.482   1.136  27.744  1.00  0.00     0.028 C 
BRANCH   6   7
ATOM      7  C   UNL     1     -17.399   0.291  27.114  1.00  0.00    -0.028 C 
ATOM      8  C   UNL     1     -16.212  -0.053  27.665  1.00  0.00    -0.070 CG0
ATOM      9  C   UNL     1     -15.387  -1.099  26.959  1.00  0.00     0.039 C 
ATOM     10  G   UNL     1     -15.656   0.582  28.924  1.00  0.00     0.000 G0
ENDBRANCH   6   7
ENDBRANCH   5   6
ENDBRANCH   3   5
ENDBRANCH   1   3
BRANCH   1  11
ATOM     11  C   UNL     1     -17.886  -1.410  31.191  1.00  0.00     0.087 C 
BRANCH  11  12
ATOM     12  C   UNL     1     -17.067  -0.087  31.106  1.00  0.00     0.066 C 
BRANCH  12  13
ATOM     13  C   UNL     1     -15.846  -0.228  30.195  1.00  0.00     0.140 C 
ATOM     14  O   UNL     1     -14.954  -0.993  30.533  1.00  0.00    -0.299 OA
BRANCH  13  15
ATOM     15  C   UNL     1     -15.642   0.575  28.918  1.00  0.00     0.106 CG0
ATOM     16  G   UNL     1     -16.215  -0.073  27.674  1.00  0.00     0.000 G0
ENDBRANCH  13  15
ENDBRANCH  12  13
BRANCH  12  17
ATOM     17  C   UNL     1     -16.635   0.393  32.530  1.00  0.00    -0.006 C 
ATOM     18  C   UNL     1     -16.980  -0.641  33.618  1.00  0.00     0.008 C 
ATOM     19  C   UNL     1     -17.284   1.736  32.908  1.00  0.00     0.008 C 
ENDBRANCH  12  17
ENDBRANCH  11  12
ENDBRANCH   1  11
TORSDOF 1
ENDMDL
MODEL 4
REMARK VINA RESULT:    -3.079      7.345      9.537
REMARK INTER + INTRA:          -5.046
REMARK INTER:                  -5.341
REMARK INTRA:                   0.295
REMARK UNBOUND:                -0.347
REMARK SMILES CC1=CCC[C@H](C)C(=O)C[C@@H](C(C)C)C(=O)C1
REMARK SMILES IDX 8 1 9 2 6 3 7 4 5 5 4 6 3 7 2 8 1 9 10 11 11 12 15 13 16 14
REMARK SMILES IDX 17 15 12 17 13 18 14 19
REMARK H PARENT
REMARK Flexibility Score: 70.00
ROOT
ATOM      1  C   UNL     1     -19.497  -3.611  23.032  1.00  0.00     0.136 C 
ATOM      2  O   UNL     1     -20.180  -3.724  24.041  1.00  0.00    -0.299 OA
ENDROOT
BRANCH   1   3
ATOM      3  C   UNL     1     -19.724  -4.609  21.911  1.00  0.00     0.053 C 
ATOM      4  C   UNL     1     -20.043  -6.034  22.396  1.00  0.00     0.016 C 
BRANCH   3   5
ATOM      5  C   UNL     1     -20.680  -4.001  20.838  1.00  0.00     0.015 C 
BRANCH   5   6
ATOM      6  C   UNL     1     -20.222  -2.778  20.019  1.00  0.00     0.028 C 
BRANCH   6   7
ATOM      7  C   UNL     1     -21.126  -1.566  19.998  1.00  0.00    -0.028 C 
ATOM      8  C   UNL     1     -20.848  -0.336  20.488  1.00  0.00    -0.070 CG0
ATOM      9  C   UNL     1     -21.795   0.786  20.145  1.00  0.00     0.039 C 
ATOM     10  G   UNL     1     -19.665  -0.039  21.387  1.00  0.00     0.000 G0
ENDBRANCH   6   7
ENDBRANCH   5   6
ENDBRANCH   3   5
ENDBRANCH   1   3
BRANCH   1  11
ATOM     11  C   UNL     1     -18.466  -2.502  22.998  1.00  0.00     0.087 C 
BRANCH  11  12
ATOM     12  C   UNL     1     -18.887  -1.171  23.690  1.00  0.00     0.066 C 
BRANCH  12  13
ATOM     13  C   UNL     1     -19.893  -0.382  22.848  1.00  0.00     0.140 C 
ATOM     14  O   UNL     1     -20.950  -0.052  23.364  1.00  0.00    -0.299 OA
BRANCH  13  15
ATOM     15  C   UNL     1     -19.684  -0.038  21.380  1.00  0.00     0.106 CG0
ATOM     16  G   UNL     1     -20.869  -0.358  20.490  1.00  0.00     0.000 G0
ENDBRANCH  13  15
ENDBRANCH  12  13
BRANCH  12  17
ATOM     17  C   UNL     1     -17.635  -0.291  24.013  1.00  0.00    -0.006 C 
ATOM     18  C   UNL     1     -16.953  -0.717  25.327  1.00  0.00     0.008 C 
ATOM     19  C   UNL     1     -17.988   1.203  24.105  1.00  0.00     0.008 C 
ENDBRANCH  12  17
ENDBRANCH  11  12
ENDBRANCH   1  11
TORSDOF 1
ENDMDL
MODEL 5
REMARK VINA RESULT:    -3.073      5.286      6.585
REMARK INTER + INTRA:          -5.037
REMARK INTER:                  -5.190
REMARK INTRA:                   0.154
REMARK UNBOUND:                -0.347
REMARK SMILES CC1=CCC[C@H](C)C(=O)C[C@@H](C(C)C)C(=O)C1
REMARK SMILES IDX 8 1 9 2 6 3 7 4 5 5 4 6 3 7 2 8 1 9 10 11 11 12 15 13 16 14
REMARK SMILES IDX 17 15 12 17 13 18 14 19
REMARK H PARENT
REMARK Flexibility Score: 70.00
ROOT
ATOM      1  C   UNL     1     -14.346   3.010  27.502  1.00  0.00     0.136 C 
ATOM      2  O   UNL     1     -13.200   2.590  27.586  1.00  0.00    -0.299 OA
ENDROOT
BRANCH   1   3
ATOM      3  C   UNL     1     -15.438   2.233  28.217  1.00  0.00     0.053 C 
ATOM      4  C   UNL     1     -15.099   0.751  28.454  1.00  0.00     0.016 C 
BRANCH   3   5
ATOM      5  C   UNL     1     -15.951   3.043  29.447  1.00  0.00     0.015 C 
BRANCH   5   6
ATOM      6  C   UNL     1     -17.424   3.496  29.498  1.00  0.00     0.028 C 
BRANCH   6   7
ATOM      7  C   UNL     1     -17.702   4.952  29.798  1.00  0.00    -0.028 C 
ATOM      8  C   UNL     1     -17.627   5.989  28.933  1.00  0.00    -0.070 CG0
ATOM      9  C   UNL     1     -18.181   7.318  29.382  1.00  0.00     0.039 C 
ATOM     10  G   UNL     1     -16.986   5.895  27.563  1.00  0.00     0.000 G0
ENDBRANCH   6   7
ENDBRANCH   5   6
ENDBRANCH   3   5
ENDBRANCH   1   3
BRANCH   1  11
ATOM     11  C   UNL     1     -14.583   4.253  26.670  1.00  0.00     0.087 C 
BRANCH  11  12
ATOM     12  C   UNL     1     -14.319   5.608  27.393  1.00  0.00     0.066 C 
BRANCH  12  13
ATOM     13  C   UNL     1     -15.583   6.468  27.473  1.00  0.00     0.140 C 
ATOM     14  O   UNL     1     -15.456   7.683  27.522  1.00  0.00    -0.299 OA
BRANCH  13  15
ATOM     15  C   UNL     1     -16.992   5.900  27.559  1.00  0.00     0.106 CG0
ATOM     16  G   UNL     1     -17.614   5.983  28.939  1.00  0.00     0.000 G0
ENDBRANCH  13  15
ENDBRANCH  12  13
BRANCH  12  17
ATOM     17  C   UNL     1     -13.163   6.396  26.696  1.00  0.00    -0.006 C 
ATOM     18  C   UNL     1     -13.532   6.814  25.261  1.00  0.00     0.008 C 
ATOM     19  C   UNL     1     -11.857   5.584  26.649  1.00  0.00     0.008 C 
ENDBRANCH  12  17
ENDBRANCH  11  12
ENDBRANCH   1  11
TORSDOF 1
ENDMDL
MODEL 6
REMARK VINA RESULT:    -3.009      2.260      5.407
REMARK INTER + INTRA:          -4.939
REMARK INTER:                  -4.651
REMARK INTRA:                  -0.288
REMARK UNBOUND:                -0.347
REMARK SMILES CC1=CCC[C@H](C)C(=O)C[C@@H](C(C)C)C(=O)C1
REMARK SMILES IDX 8 1 9 2 6 3 7 4 5 5 4 6 3 7 2 8 1 9 10 11 11 12 15 13 16 14
REMARK SMILES IDX 17 15 12 17 13 18 14 19
REMARK H PARENT
REMARK Flexibility Score: 70.00
ROOT
ATOM      1  C   UNL     1     -15.240   0.028  29.737  1.00  0.00     0.136 C 
ATOM      2  O   UNL     1     -14.976  -0.953  30.420  1.00  0.00    -0.299 OA
ENDROOT
BRANCH   1   3
ATOM      3  C   UNL     1     -14.343   0.322  28.547  1.00  0.00     0.053 C 
ATOM      4  C   UNL     1     -12.851   0.443  28.902  1.00  0.00     0.016 C 
BRANCH   3   5
ATOM      5  C   UNL     1     -14.708  -0.619  27.358  1.00  0.00     0.015 C 
BRANCH   5   6
ATOM      6  C   UNL     1     -16.162  -1.105  27.192  1.00  0.00     0.028 C 
BRANCH   6   7
ATOM      7  C   UNL     1     -17.173  -0.128  26.637  1.00  0.00    -0.028 C 
ATOM      8  C   UNL     1     -18.346   0.237  27.203  1.00  0.00    -0.070 CG0
ATOM      9  C   UNL     1     -19.084   1.405  26.596  1.00  0.00     0.039 C 
ATOM     10  G   UNL     1     -18.971  -0.484  28.380  1.00  0.00     0.000 G0
ENDBRANCH   6   7
ENDBRANCH   5   6
ENDBRANCH   3   5
ENDBRANCH   1   3
BRANCH   1  11
ATOM     11  C   UNL     1     -16.421   0.880  30.152  1.00  0.00     0.087 C 
BRANCH  11  12
ATOM     12  C   UNL     1     -17.666   0.098  30.667  1.00  0.00     0.066 C 
BRANCH  12  13
ATOM     13  C   UNL     1     -18.863   0.243  29.724  1.00  0.00     0.140 C 
ATOM     14  O   UNL     1     -19.802   0.940  30.079  1.00  0.00    -0.299 OA
BRANCH  13  15
ATOM     15  C   UNL     1     -18.984  -0.481  28.391  1.00  0.00     0.106 CG0
ATOM     16  G   UNL     1     -18.343   0.245  27.225  1.00  0.00     0.000 G0
ENDBRANCH  13  15
ENDBRANCH  12  13
BRANCH  12  17
ATOM     17  C   UNL     1     -18.051   0.553  32.113  1.00  0.00    -0.006 C 
ATOM     18  C   UNL     1     -17.050   1.576  32.682  1.00  0.00     0.008 C 
ATOM     19  C   UNL     1     -18.146  -0.634  33.086  1.00  0.00     0.008 C 
ENDBRANCH  12  17
ENDBRANCH  11  12
ENDBRANCH   1  11
TORSDOF 1
ENDMDL
MODEL 7
REMARK VINA RESULT:    -2.939      1.633      4.073
REMARK INTER + INTRA:          -4.831
REMARK INTER:                  -4.489
REMARK INTRA:                  -0.343
REMARK UNBOUND:                -0.347
REMARK SMILES CC1=CCC[C@H](C)C(=O)C[C@@H](C(C)C)C(=O)C1
REMARK SMILES IDX 8 1 9 2 6 3 7 4 5 5 4 6 3 7 2 8 1 9 10 11 11 12 15 13 16 14
REMARK SMILES IDX 17 15 12 17 13 18 14 19
REMARK H PARENT
REMARK Flexibility Score: 70.00
ROOT
ATOM      1  C   UNL     1     -17.186   2.048  31.915  1.00  0.00     0.136 C 
ATOM      2  O   UNL     1     -16.931   3.006  31.199  1.00  0.00    -0.299 OA
ENDROOT
BRANCH   1   3
ATOM      3  C   UNL     1     -17.569   2.326  33.358  1.00  0.00     0.053 C 
ATOM      4  C   UNL     1     -16.753   3.451  34.017  1.00  0.00     0.016 C 
BRANCH   3   5
ATOM      5  C   UNL     1     -19.121   2.413  33.492  1.00  0.00     0.015 C 
BRANCH   5   6
ATOM      6  C   UNL     1     -19.963   1.124  33.416  1.00  0.00     0.028 C 
BRANCH   6   7
ATOM      7  C   UNL     1     -20.891   0.958  32.234  1.00  0.00    -0.028 C 
ATOM      8  C   UNL     1     -20.844  -0.014  31.294  1.00  0.00    -0.070 CG0
ATOM      9  C   UNL     1     -22.010  -0.129  30.343  1.00  0.00     0.039 C 
ATOM     10  G   UNL     1     -19.672  -0.961  31.123  1.00  0.00     0.000 G0
ENDBRANCH   6   7
ENDBRANCH   5   6
ENDBRANCH   3   5
ENDBRANCH   1   3
BRANCH   1  11
ATOM     11  C   UNL     1     -17.071   0.664  31.310  1.00  0.00     0.087 C 
BRANCH  11  12
ATOM     12  C   UNL     1     -17.747   0.480  29.918  1.00  0.00     0.066 C 
BRANCH  12  13
ATOM     13  C   UNL     1     -18.773  -0.656  29.928  1.00  0.00     0.140 C 
ATOM     14  O   UNL     1     -18.921  -1.314  28.909  1.00  0.00    -0.299 OA
BRANCH  13  15
ATOM     15  C   UNL     1     -19.671  -0.978  31.114  1.00  0.00     0.106 CG0
ATOM     16  G   UNL     1     -20.838  -0.027  31.290  1.00  0.00     0.000 G0
ENDBRANCH  13  15
ENDBRANCH  12  13
BRANCH  12  17
ATOM     17  C   UNL     1     -16.675   0.240  28.806  1.00  0.00    -0.006 C 
ATOM     18  C   UNL     1     -15.258   0.094  29.390  1.00  0.00     0.008 C 
ATOM     19  C   UNL     1     -16.661   1.373  27.764  1.00  0.00     0.008 C 
ENDBRANCH  12  17
ENDBRANCH  11  12
ENDBRANCH   1  11
TORSDOF 1
ENDMDL
MODEL 8
REMARK VINA RESULT:    -2.866      2.722      4.270
REMARK INTER + INTRA:          -4.720
REMARK INTER:                  -4.500
REMARK INTRA:                  -0.219
REMARK UNBOUND:                -0.347
REMARK SMILES CC1=CCC[C@H](C)C(=O)C[C@@H](C(C)C)C(=O)C1
REMARK SMILES IDX 8 1 9 2 6 3 7 4 5 5 4 6 3 7 2 8 1 9 10 11 11 12 15 13 16 14
REMARK SMILES IDX 17 15 12 17 13 18 14 19
REMARK H PARENT
REMARK Flexibility Score: 70.00
ROOT
ATOM      1  C   UNL     1     -16.331  -0.023  31.384  1.00  0.00     0.136 C 
ATOM      2  O   UNL     1     -16.005  -0.270  32.536  1.00  0.00    -0.299 OA
ENDROOT
BRANCH   1   3
ATOM      3  C   UNL     1     -17.467   0.962  31.167  1.00  0.00     0.053 C 
ATOM      4  C   UNL     1     -18.793   0.544  31.826  1.00  0.00     0.016 C 
BRANCH   3   5
ATOM      5  C   UNL     1     -16.973   2.416  31.443  1.00  0.00     0.015 C 
BRANCH   5   6
ATOM      6  C   UNL     1     -16.949   3.442  30.292  1.00  0.00     0.028 C 
BRANCH   6   7
ATOM      7  C   UNL     1     -17.697   3.095  29.025  1.00  0.00    -0.028 C 
ATOM      8  C   UNL     1     -17.227   2.388  27.972  1.00  0.00    -0.070 CG0
ATOM      9  C   UNL     1     -18.217   1.953  26.920  1.00  0.00     0.039 C 
ATOM     10  G   UNL     1     -15.764   2.045  27.776  1.00  0.00     0.000 G0
ENDBRANCH   6   7
ENDBRANCH   5   6
ENDBRANCH   3   5
ENDBRANCH   1   3
BRANCH   1  11
ATOM     11  C   UNL     1     -15.595  -0.740  30.272  1.00  0.00     0.087 C 
BRANCH  11  12
ATOM     12  C   UNL     1     -14.686   0.158  29.379  1.00  0.00     0.066 C 
BRANCH  12  13
ATOM     13  C   UNL     1     -15.401   0.601  28.100  1.00  0.00     0.140 C 
ATOM     14  O   UNL     1     -15.656  -0.244  27.255  1.00  0.00    -0.299 OA
BRANCH  13  15
ATOM     15  C   UNL     1     -15.759   2.046  27.786  1.00  0.00     0.106 CG0
ATOM     16  G   UNL     1     -17.221   2.386  27.994  1.00  0.00     0.000 G0
ENDBRANCH  13  15
ENDBRANCH  12  13
BRANCH  12  17
ATOM     17  C   UNL     1     -13.348  -0.574  29.033  1.00  0.00    -0.006 C 
ATOM     18  C   UNL     1     -12.837  -1.430  30.206  1.00  0.00     0.008 C 
ATOM     19  C   UNL     1     -12.239   0.411  28.625  1.00  0.00     0.008 C 
ENDBRANCH  12  17
ENDBRANCH  11  12
ENDBRANCH   1  11
TORSDOF 1
ENDMDL
MODEL 9
REMARK VINA RESULT:    -2.828      8.925     10.969
REMARK INTER + INTRA:          -4.663
REMARK INTER:                  -4.281
REMARK INTRA:                  -0.382
REMARK UNBOUND:                -0.347
REMARK SMILES CC1=CCC[C@H](C)C(=O)C[C@@H](C(C)C)C(=O)C1
REMARK SMILES IDX 8 1 9 2 6 3 7 4 5 5 4 6 3 7 2 8 1 9 10 11 11 12 15 13 16 14
REMARK SMILES IDX 17 15 12 17 13 18 14 19
REMARK H PARENT
REMARK Flexibility Score: 70.00
ROOT
ATOM      1  C   UNL     1     -20.099  -3.849  22.461  1.00  0.00     0.136 C 
ATOM      2  O   UNL     1     -19.833  -3.820  23.655  1.00  0.00    -0.299 OA
ENDROOT
BRANCH   1   3
ATOM      3  C   UNL     1     -20.802  -5.084  21.924  1.00  0.00     0.053 C 
ATOM      4  C   UNL     1     -19.955  -6.367  21.994  1.00  0.00     0.016 C 
BRANCH   3   5
ATOM      5  C   UNL     1     -22.250  -5.166  22.497  1.00  0.00     0.015 C 
BRANCH   5   6
ATOM      6  C   UNL     1     -23.277  -4.078  22.124  1.00  0.00     0.028 C 
BRANCH   6   7
ATOM      7  C   UNL     1     -23.582  -3.869  20.658  1.00  0.00    -0.028 C 
ATOM      8  C   UNL     1     -23.338  -2.757  19.927  1.00  0.00    -0.070 CG0
ATOM      9  C   UNL     1     -23.499  -2.852  18.430  1.00  0.00     0.039 C 
ATOM     10  G   UNL     1     -22.953  -1.422  20.533  1.00  0.00     0.000 G0
ENDBRANCH   6   7
ENDBRANCH   5   6
ENDBRANCH   3   5
ENDBRANCH   1   3
BRANCH   1  11
ATOM     11  C   UNL     1     -19.681  -2.665  21.616  1.00  0.00     0.087 C 
BRANCH  11  12
ATOM     12  C   UNL     1     -20.556  -1.385  21.771  1.00  0.00     0.066 C 
BRANCH  12  13
ATOM     13  C   UNL     1     -21.445  -1.150  20.547  1.00  0.00     0.140 C 
ATOM     14  O   UNL     1     -20.938  -0.668  19.545  1.00  0.00    -0.299 OA
BRANCH  13  15
ATOM     15  C   UNL     1     -22.942  -1.420  20.521  1.00  0.00     0.106 CG0
ATOM     16  G   UNL     1     -23.324  -2.765  19.934  1.00  0.00     0.000 G0
ENDBRANCH  13  15
ENDBRANCH  12  13
BRANCH  12  17
ATOM     17  C   UNL     1     -19.665  -0.131  22.050  1.00  0.00    -0.006 C 
ATOM     18  C   UNL     1     -18.466  -0.464  22.957  1.00  0.00     0.008 C 
ATOM     19  C   UNL     1     -20.465   1.014  22.694  1.00  0.00     0.008 C 
ENDBRANCH  12  17
ENDBRANCH  11  12
ENDBRANCH   1  11
TORSDOF 1
ENDMDL
