MODEL 1
REMARK VINA RESULT:    -4.224      0.000      0.000
REMARK INTER + INTRA:          -5.249
REMARK INTER:                  -5.089
REMARK INTRA:                  -0.160
REMARK UNBOUND:                -0.160
REMARK SMILES O=c1c(O)c(-c2ccc(O)c(O)c2)oc2cc(O)cc(O)c12
REMARK SMILES IDX 5 1 3 2 2 3 1 4 22 5 20 6 19 7 17 8 16 9 15 10 14 11 6 12
REMARK SMILES IDX 7 13 8 14 9 15 13 16 11 17 10 18 12 20 4 22 21 24 18 26
REMARK H PARENT 10 19 12 21 4 23 21 25 18 27
REMARK Flexibility Score: inf
ROOT
ATOM      1  C   UNL     1      50.266  12.661   2.255  1.00  0.00     0.180 A 
ATOM      2  C   UNL     1      50.959  12.114   1.161  1.00  0.00     0.208 A 
ATOM      3  C   UNL     1      51.825  11.030   1.376  1.00  0.00     0.238 A 
ATOM      4  O   UNL     1      52.401  10.511   0.385  1.00  0.00    -0.285 OA
ATOM      5  C   UNL     1      52.001  10.517   2.684  1.00  0.00     0.111 A 
ATOM      6  C   UNL     1      52.885   9.448   3.023  1.00  0.00     0.134 A 
ATOM      7  C   UNL     1      52.881   8.937   4.327  1.00  0.00     0.093 A 
ATOM      8  C   UNL     1      52.073   9.499   5.319  1.00  0.00     0.123 A 
ATOM      9  C   UNL     1      51.251  10.581   5.011  1.00  0.00     0.094 A 
ATOM     10  C   UNL     1      51.207  11.090   3.712  1.00  0.00     0.146 A 
ATOM     11  O   UNL     1      50.402  12.115   3.459  1.00  0.00    -0.452 OA
ENDROOT
BRANCH   1  12
ATOM     12  C   UNL     1      49.355  13.819   2.113  1.00  0.00     0.025 A 
ATOM     13  C   UNL     1      49.624  15.044   2.747  1.00  0.00     0.016 A 
ATOM     14  C   UNL     1      48.737  16.117   2.617  1.00  0.00     0.051 A 
ATOM     15  C   UNL     1      47.564  15.978   1.865  1.00  0.00     0.157 A 
ATOM     16  C   UNL     1      48.167  13.677   1.377  1.00  0.00     0.062 A 
ATOM     17  C   UNL     1      47.277  14.749   1.245  1.00  0.00     0.158 A 
BRANCH  15  18
ATOM     18  O   UNL     1      46.682  17.050   1.736  1.00  0.00    -0.504 OA
ATOM     19  H   UNL     1      46.959  17.910   1.278  1.00  0.00     0.293 HD
ENDBRANCH  15  18
BRANCH  17  20
ATOM     20  O   UNL     1      46.113  14.576   0.495  1.00  0.00    -0.504 OA
ATOM     21  H   UNL     1      46.073  13.946  -0.298  1.00  0.00     0.293 HD
ENDBRANCH  17  20
ENDBRANCH   1  12
BRANCH   2  22
ATOM     22  O   UNL     1      50.754  12.622  -0.125  1.00  0.00    -0.502 OA
ATOM     23  H   UNL     1      50.253  12.107  -0.839  1.00  0.00     0.293 HD
ENDBRANCH   2  22
BRANCH   6  24
ATOM     24  O   UNL     1      53.797   8.878   2.132  1.00  0.00    -0.507 OA
ATOM     25  H   UNL     1      54.455   9.398   1.571  1.00  0.00     0.293 HD
ENDBRANCH   6  24
BRANCH   8  26
ATOM     26  O   UNL     1      52.086   8.994   6.617  1.00  0.00    -0.508 OA
ATOM     27  H   UNL     1      52.426   9.544   7.397  1.00  0.00     0.293 HD
ENDBRANCH   8  26
TORSDOF 6
ENDMDL
MODEL 2
REMARK VINA RESULT:    -4.196      4.994      9.523
REMARK INTER + INTRA:          -5.215
REMARK INTER:                  -5.628
REMARK INTRA:                   0.413
REMARK UNBOUND:                -0.160
REMARK SMILES O=c1c(O)c(-c2ccc(O)c(O)c2)oc2cc(O)cc(O)c12
REMARK SMILES IDX 5 1 3 2 2 3 1 4 22 5 20 6 19 7 17 8 16 9 15 10 14 11 6 12
REMARK SMILES IDX 7 13 8 14 9 15 13 16 11 17 10 18 12 20 4 22 21 24 18 26
REMARK H PARENT 10 19 12 21 4 23 21 25 18 27
REMARK Flexibility Score: inf
ROOT
ATOM      1  C   UNL     1      56.378   9.179   4.896  1.00  0.00     0.180 A 
ATOM      2  C   UNL     1      55.535   9.086   6.017  1.00  0.00     0.208 A 
ATOM      3  C   UNL     1      54.146   9.022   5.821  1.00  0.00     0.238 A 
ATOM      4  O   UNL     1      53.399   8.884   6.824  1.00  0.00    -0.285 OA
ATOM      5  C   UNL     1      53.616   9.070   4.508  1.00  0.00     0.111 A 
ATOM      6  C   UNL     1      52.224   9.054   4.194  1.00  0.00     0.134 A 
ATOM      7  C   UNL     1      51.819   8.973   2.856  1.00  0.00     0.093 A 
ATOM      8  C   UNL     1      52.755   8.975   1.819  1.00  0.00     0.123 A 
ATOM      9  C   UNL     1      54.114   9.050   2.113  1.00  0.00     0.094 A 
ATOM     10  C   UNL     1      54.550   9.095   3.438  1.00  0.00     0.146 A 
ATOM     11  O   UNL     1      55.855   9.156   3.675  1.00  0.00    -0.452 OA
ENDROOT
BRANCH   1  12
ATOM     12  C   UNL     1      57.850   9.275   5.023  1.00  0.00     0.025 A 
ATOM     13  C   UNL     1      58.702   8.877   3.978  1.00  0.00     0.016 A 
ATOM     14  C   UNL     1      60.089   8.955   4.130  1.00  0.00     0.051 A 
ATOM     15  C   UNL     1      60.646   9.417   5.329  1.00  0.00     0.157 A 
ATOM     16  C   UNL     1      58.412   9.718   6.232  1.00  0.00     0.062 A 
ATOM     17  C   UNL     1      59.801   9.797   6.387  1.00  0.00     0.158 A 
BRANCH  15  18
ATOM     18  O   UNL     1      62.030   9.495   5.477  1.00  0.00    -0.504 OA
ATOM     19  H   UNL     1      62.456   9.700   6.373  1.00  0.00     0.293 HD
ENDBRANCH  15  18
BRANCH  17  20
ATOM     20  O   UNL     1      60.323  10.254   7.597  1.00  0.00    -0.504 OA
ATOM     21  H   UNL     1      61.315  10.222   7.802  1.00  0.00     0.293 HD
ENDBRANCH  17  20
ENDBRANCH   1  12
BRANCH   2  22
ATOM     22  O   UNL     1      56.079   9.018   7.302  1.00  0.00    -0.502 OA
ATOM     23  H   UNL     1      56.396   9.839   7.803  1.00  0.00     0.293 HD
ENDBRANCH   2  22
BRANCH   6  24
ATOM     24  O   UNL     1      51.208   9.142   5.150  1.00  0.00    -0.507 OA
ATOM     25  H   UNL     1      51.348   9.064   6.146  1.00  0.00     0.293 HD
ENDBRANCH   6  24
BRANCH   8  26
ATOM     26  O   UNL     1      52.342   8.910   0.489  1.00  0.00    -0.508 OA
ATOM     27  H   UNL     1      51.504   9.382   0.171  1.00  0.00     0.293 HD
ENDBRANCH   8  26
TORSDOF 6
ENDMDL
MODEL 3
REMARK VINA RESULT:    -3.442      2.001      6.998
REMARK INTER + INTRA:          -4.306
REMARK INTER:                  -4.082
REMARK INTRA:                  -0.224
REMARK UNBOUND:                -0.160
REMARK SMILES O=c1c(O)c(-c2ccc(O)c(O)c2)oc2cc(O)cc(O)c12
REMARK SMILES IDX 5 1 3 2 2 3 1 4 22 5 20 6 19 7 17 8 16 9 15 10 14 11 6 12
REMARK SMILES IDX 7 13 8 14 9 15 13 16 11 17 10 18 12 20 4 22 21 24 18 26
REMARK H PARENT 10 19 12 21 4 23 21 25 18 27
REMARK Flexibility Score: inf
ROOT
ATOM      1  C   UNL     1      52.108  10.888   3.019  1.00  0.00     0.180 A 
ATOM      2  C   UNL     1      51.547  10.147   1.965  1.00  0.00     0.208 A 
ATOM      3  C   UNL     1      50.516  10.720   1.202  1.00  0.00     0.238 A 
ATOM      4  O   UNL     1      50.056  10.074   0.225  1.00  0.00    -0.285 OA
ATOM      5  C   UNL     1      50.047  12.019   1.514  1.00  0.00     0.111 A 
ATOM      6  C   UNL     1      48.981  12.681   0.834  1.00  0.00     0.134 A 
ATOM      7  C   UNL     1      48.689  14.016   1.142  1.00  0.00     0.093 A 
ATOM      8  C   UNL     1      49.381  14.690   2.151  1.00  0.00     0.123 A 
ATOM      9  C   UNL     1      50.384  14.034   2.860  1.00  0.00     0.094 A 
ATOM     10  C   UNL     1      50.722  12.715   2.552  1.00  0.00     0.146 A 
ATOM     11  O   UNL     1      51.692  12.130   3.246  1.00  0.00    -0.452 OA
ENDROOT
BRANCH   1  12
ATOM     12  C   UNL     1      53.180  10.343   3.883  1.00  0.00     0.025 A 
ATOM     13  C   UNL     1      52.939  10.015   5.229  1.00  0.00     0.016 A 
ATOM     14  C   UNL     1      53.972   9.525   6.032  1.00  0.00     0.051 A 
ATOM     15  C   UNL     1      55.262   9.367   5.508  1.00  0.00     0.157 A 
ATOM     16  C   UNL     1      54.479  10.203   3.368  1.00  0.00     0.062 A 
ATOM     17  C   UNL     1      55.515   9.712   4.169  1.00  0.00     0.158 A 
BRANCH  15  18
ATOM     18  O   UNL     1      56.290   8.875   6.310  1.00  0.00    -0.504 OA
ATOM     19  H   UNL     1      56.958   8.198   5.959  1.00  0.00     0.293 HD
ENDBRANCH  15  18
BRANCH  17  20
ATOM     20  O   UNL     1      56.790   9.574   3.619  1.00  0.00    -0.504 OA
ATOM     21  H   UNL     1      56.933   9.302   2.653  1.00  0.00     0.293 HD
ENDBRANCH  17  20
ENDBRANCH   1  12
BRANCH   2  22
ATOM     22  O   UNL     1      52.040   8.875   1.660  1.00  0.00    -0.502 OA
ATOM     23  H   UNL     1      52.308   8.607   0.721  1.00  0.00     0.293 HD
ENDBRANCH   2  22
BRANCH   6  24
ATOM     24  O   UNL     1      48.168  12.069  -0.123  1.00  0.00    -0.507 OA
ATOM     25  H   UNL     1      47.659  12.560  -0.843  1.00  0.00     0.293 HD
ENDBRANCH   6  24
BRANCH   8  26
ATOM     26  O   UNL     1      49.074  16.014   2.461  1.00  0.00    -0.508 OA
ATOM     27  H   UNL     1      49.798  16.711   2.589  1.00  0.00     0.293 HD
ENDBRANCH   8  26
TORSDOF 6
ENDMDL
MODEL 4
REMARK VINA RESULT:    -2.386      1.493      2.215
REMARK INTER + INTRA:          -3.034
REMARK INTER:                  -2.977
REMARK INTRA:                  -0.057
REMARK UNBOUND:                -0.160
REMARK SMILES O=c1c(O)c(-c2ccc(O)c(O)c2)oc2cc(O)cc(O)c12
REMARK SMILES IDX 5 1 3 2 2 3 1 4 22 5 20 6 19 7 17 8 16 9 15 10 14 11 6 12
REMARK SMILES IDX 7 13 8 14 9 15 13 16 11 17 10 18 12 20 4 22 21 24 18 26
REMARK H PARENT 10 19 12 21 4 23 21 25 18 27
REMARK Flexibility Score: inf
ROOT
ATOM      1  C   UNL     1      51.149  12.093   2.875  1.00  0.00     0.180 A 
ATOM      2  C   UNL     1      52.353  11.628   2.316  1.00  0.00     0.208 A 
ATOM      3  C   UNL     1      53.121  10.697   3.033  1.00  0.00     0.238 A 
ATOM      4  O   UNL     1      54.169  10.243   2.503  1.00  0.00    -0.285 OA
ATOM      5  C   UNL     1      52.686  10.254   4.305  1.00  0.00     0.111 A 
ATOM      6  C   UNL     1      53.406   9.344   5.137  1.00  0.00     0.134 A 
ATOM      7  C   UNL     1      52.817   8.875   6.318  1.00  0.00     0.093 A 
ATOM      8  C   UNL     1      51.564   9.335   6.730  1.00  0.00     0.123 A 
ATOM      9  C   UNL     1      50.881  10.269   5.955  1.00  0.00     0.094 A 
ATOM     10  C   UNL     1      51.425  10.727   4.755  1.00  0.00     0.146 A 
ATOM     11  O   UNL     1      50.735  11.610   4.041  1.00  0.00    -0.452 OA
ENDROOT
BRANCH   1  12
ATOM     12  C   UNL     1      50.298  13.093   2.192  1.00  0.00     0.025 A 
ATOM     13  C   UNL     1      49.818  12.877   0.888  1.00  0.00     0.016 A 
ATOM     14  C   UNL     1      49.035  13.846   0.254  1.00  0.00     0.051 A 
ATOM     15  C   UNL     1      48.732  15.048   0.906  1.00  0.00     0.157 A 
ATOM     16  C   UNL     1      50.009  14.309   2.833  1.00  0.00     0.062 A 
ATOM     17  C   UNL     1      49.225  15.281   2.201  1.00  0.00     0.158 A 
BRANCH  15  18
ATOM     18  O   UNL     1      47.949  16.012   0.272  1.00  0.00    -0.504 OA
ATOM     19  H   UNL     1      47.984  16.146  -0.732  1.00  0.00     0.293 HD
ENDBRANCH  15  18
BRANCH  17  20
ATOM     20  O   UNL     1      48.948  16.470   2.875  1.00  0.00    -0.504 OA
ATOM     21  H   UNL     1      48.801  16.500   3.877  1.00  0.00     0.293 HD
ENDBRANCH  17  20
ENDBRANCH   1  12
BRANCH   2  22
ATOM     22  O   UNL     1      52.753  12.061   1.049  1.00  0.00    -0.502 OA
ATOM     23  H   UNL     1      52.429  11.620   0.196  1.00  0.00     0.293 HD
ENDBRANCH   2  22
BRANCH   6  24
ATOM     24  O   UNL     1      54.700   8.894   4.863  1.00  0.00    -0.507 OA
ATOM     25  H   UNL     1      55.032   7.957   5.037  1.00  0.00     0.293 HD
ENDBRANCH   6  24
BRANCH   8  26
ATOM     26  O   UNL     1      50.993   8.875   7.915  1.00  0.00    -0.508 OA
ATOM     27  H   UNL     1      50.992   7.891   8.156  1.00  0.00     0.293 HD
ENDBRANCH   8  26
TORSDOF 6
ENDMDL
MODEL 5
REMARK VINA RESULT:    -1.334      6.805     10.064
REMARK INTER + INTRA:          -1.767
REMARK INTER:                  -2.180
REMARK INTRA:                   0.413
REMARK UNBOUND:                -0.160
REMARK SMILES O=c1c(O)c(-c2ccc(O)c(O)c2)oc2cc(O)cc(O)c12
REMARK SMILES IDX 5 1 3 2 2 3 1 4 22 5 20 6 19 7 17 8 16 9 15 10 14 11 6 12
REMARK SMILES IDX 7 13 8 14 9 15 13 16 11 17 10 18 12 20 4 22 21 24 18 26
REMARK H PARENT 10 19 12 21 4 23 21 25 18 27
REMARK Flexibility Score: inf
ROOT
ATOM      1  C   UNL     1      58.155   9.519   5.417  1.00  0.00     0.180 A 
ATOM      2  C   UNL     1      58.492  10.006   6.692  1.00  0.00     0.208 A 
ATOM      3  C   UNL     1      59.847  10.135   7.036  1.00  0.00     0.238 A 
ATOM      4  O   UNL     1      60.142  10.623   8.158  1.00  0.00    -0.285 OA
ATOM      5  C   UNL     1      60.849   9.761   6.108  1.00  0.00     0.111 A 
ATOM      6  C   UNL     1      62.252   9.812   6.365  1.00  0.00     0.134 A 
ATOM      7  C   UNL     1      63.154   9.541   5.328  1.00  0.00     0.093 A 
ATOM      8  C   UNL     1      62.703   9.158   4.063  1.00  0.00     0.123 A 
ATOM      9  C   UNL     1      61.336   9.048   3.819  1.00  0.00     0.094 A 
ATOM     10  C   UNL     1      60.412   9.346   4.822  1.00  0.00     0.146 A 
ATOM     11  O   UNL     1      59.117   9.238   4.545  1.00  0.00    -0.452 OA
ENDROOT
BRANCH   1  12
ATOM     12  C   UNL     1      56.750   9.331   4.990  1.00  0.00     0.025 A 
ATOM     13  C   UNL     1      56.392   9.334   3.631  1.00  0.00     0.016 A 
ATOM     14  C   UNL     1      55.055   9.178   3.252  1.00  0.00     0.051 A 
ATOM     15  C   UNL     1      54.057   9.032   4.224  1.00  0.00     0.157 A 
ATOM     16  C   UNL     1      55.743   9.205   5.961  1.00  0.00     0.062 A 
ATOM     17  C   UNL     1      54.405   9.049   5.586  1.00  0.00     0.158 A 
BRANCH  15  18
ATOM     18  O   UNL     1      52.725   8.875   3.844  1.00  0.00    -0.504 OA
ATOM     19  H   UNL     1      51.995   9.470   4.217  1.00  0.00     0.293 HD
ENDBRANCH  15  18
BRANCH  17  20
ATOM     20  O   UNL     1      53.434   8.913   6.578  1.00  0.00    -0.504 OA
ATOM     21  H   UNL     1      52.723   8.192   6.541  1.00  0.00     0.293 HD
ENDBRANCH  17  20
ENDBRANCH   1  12
BRANCH   2  22
ATOM     22  O   UNL     1      57.488  10.390   7.585  1.00  0.00    -0.502 OA
ATOM     23  H   UNL     1      57.687  10.695   8.530  1.00  0.00     0.293 HD
ENDBRANCH   2  22
BRANCH   6  24
ATOM     24  O   UNL     1      62.806  10.093   7.616  1.00  0.00    -0.507 OA
ATOM     25  H   UNL     1      63.708   9.770   7.931  1.00  0.00     0.293 HD
ENDBRANCH   6  24
BRANCH   8  26
ATOM     26  O   UNL     1      63.608   8.876   3.041  1.00  0.00    -0.508 OA
ATOM     27  H   UNL     1      63.336   8.912   2.066  1.00  0.00     0.293 HD
ENDBRANCH   8  26
TORSDOF 6
ENDMDL
