MODEL 1
REMARK VINA RESULT:    -4.496      0.000      0.000
REMARK INTER + INTRA:          -6.602
REMARK INTER:                  -6.336
REMARK INTRA:                  -0.267
REMARK UNBOUND:                -0.267
REMARK SMILES C=CCCCCCCC(=O)[O-]
REMARK SMILES IDX 6 1 7 2 8 3 9 4 10 5 11 6 5 7 4 8 3 9 2 10 1 11
REMARK H PARENT
REMARK Flexibility Score: inf
ROOT
ATOM      1  C   UNL     1       4.387  42.462  14.455  1.00  0.00     0.000 C 
ENDROOT
BRANCH   1   2
ATOM      2  C   UNL     1       5.199  43.760  14.572  1.00  0.00     0.006 C 
BRANCH   2   3
ATOM      3  C   UNL     1       5.565  44.088  16.025  1.00  0.00     0.053 C 
BRANCH   3   4
ATOM      4  C   UNL     1       6.928  43.577  16.383  1.00  0.00     0.041 C 
ATOM      5  O   UNL     1       7.116  42.990  17.480  1.00  0.00    -0.550 OA
ATOM      6  O   UNL     1       7.996  43.780  15.518  1.00  0.00    -0.550 OA
ENDBRANCH   3   4
ENDBRANCH   2   3
ENDBRANCH   1   2
BRANCH   1   7
ATOM      7  C   UNL     1       5.192  41.373  13.732  1.00  0.00     0.000 C 
BRANCH   7   8
ATOM      8  C   UNL     1       4.426  40.042  13.616  1.00  0.00     0.004 C 
BRANCH   8   9
ATOM      9  C   UNL     1       3.367  40.017  12.500  1.00  0.00     0.027 C 
BRANCH   9  10
ATOM     10  C   UNL     1       3.943  39.643  11.161  1.00  0.00    -0.035 C 
ATOM     11  C   UNL     1       3.167  39.274  10.138  1.00  0.00     0.004 C 
ENDBRANCH   9  10
ENDBRANCH   8   9
ENDBRANCH   7   8
ENDBRANCH   1   7
TORSDOF 7
ENDMDL
MODEL 2
REMARK VINA RESULT:    -4.484      1.595      2.050
REMARK INTER + INTRA:          -6.586
REMARK INTER:                  -6.246
REMARK INTRA:                  -0.340
REMARK UNBOUND:                -0.267
REMARK SMILES C=CCCCCCCC(=O)[O-]
REMARK SMILES IDX 6 1 7 2 8 3 9 4 10 5 11 6 5 7 4 8 3 9 2 10 1 11
REMARK H PARENT
REMARK Flexibility Score: inf
ROOT
ATOM      1  C   UNL     1       5.737  41.201  15.268  1.00  0.00     0.000 C 
ENDROOT
BRANCH   1   2
ATOM      2  C   UNL     1       5.922  42.632  14.741  1.00  0.00     0.006 C 
BRANCH   2   3
ATOM      3  C   UNL     1       4.697  43.515  15.011  1.00  0.00     0.053 C 
BRANCH   3   4
ATOM      4  C   UNL     1       4.488  43.739  16.477  1.00  0.00     0.041 C 
ATOM      5  O   UNL     1       5.337  44.383  17.147  1.00  0.00    -0.550 OA
ATOM      6  O   UNL     1       3.370  43.209  17.109  1.00  0.00    -0.550 OA
ENDBRANCH   3   4
ENDBRANCH   2   3
ENDBRANCH   1   2
BRANCH   1   7
ATOM      7  C   UNL     1       4.537  40.519  14.595  1.00  0.00     0.000 C 
BRANCH   7   8
ATOM      8  C   UNL     1       4.715  40.362  13.074  1.00  0.00     0.004 C 
BRANCH   8   9
ATOM      9  C   UNL     1       3.452  39.885  12.336  1.00  0.00     0.027 C 
BRANCH   9  10
ATOM     10  C   UNL     1       3.744  39.387  10.946  1.00  0.00    -0.035 C 
ATOM     11  C   UNL     1       2.849  39.487   9.959  1.00  0.00     0.004 C 
ENDBRANCH   9  10
ENDBRANCH   8   9
ENDBRANCH   7   8
ENDBRANCH   1   7
TORSDOF 7
ENDMDL
MODEL 3
REMARK VINA RESULT:    -4.394     13.448     15.229
REMARK INTER + INTRA:          -6.459
REMARK INTER:                  -5.620
REMARK INTRA:                  -0.839
REMARK UNBOUND:                -0.267
REMARK SMILES C=CCCCCCCC(=O)[O-]
REMARK SMILES IDX 6 1 7 2 8 3 9 4 10 5 11 6 5 7 4 8 3 9 2 10 1 11
REMARK H PARENT
REMARK Flexibility Score: inf
ROOT
ATOM      1  C   UNL     1      -8.593  33.857  16.022  1.00  0.00     0.000 C 
ENDROOT
BRANCH   1   2
ATOM      2  C   UNL     1      -7.342  33.778  15.135  1.00  0.00     0.006 C 
BRANCH   2   3
ATOM      3  C   UNL     1      -7.599  34.311  13.720  1.00  0.00     0.053 C 
BRANCH   3   4
ATOM      4  C   UNL     1      -6.426  35.085  13.197  1.00  0.00     0.041 C 
ATOM      5  O   UNL     1      -5.507  34.495  12.571  1.00  0.00    -0.550 OA
ATOM      6  O   UNL     1      -6.335  36.451  13.430  1.00  0.00    -0.550 OA
ENDBRANCH   3   4
ENDBRANCH   2   3
ENDBRANCH   1   2
BRANCH   1   7
ATOM      7  C   UNL     1      -9.675  34.728  15.371  1.00  0.00     0.000 C 
BRANCH   7   8
ATOM      8  C   UNL     1      -9.924  36.042  16.134  1.00  0.00     0.004 C 
BRANCH   8   9
ATOM      9  C   UNL     1      -8.965  37.185  15.755  1.00  0.00     0.027 C 
BRANCH   9  10
ATOM     10  C   UNL     1      -7.997  37.520  16.857  1.00  0.00    -0.035 C 
ATOM     11  C   UNL     1      -6.752  37.035  16.873  1.00  0.00     0.004 C 
ENDBRANCH   9  10
ENDBRANCH   8   9
ENDBRANCH   7   8
ENDBRANCH   1   7
TORSDOF 7
ENDMDL
MODEL 4
REMARK VINA RESULT:    -4.392      1.078      2.061
REMARK INTER + INTRA:          -6.456
REMARK INTER:                  -6.012
REMARK INTRA:                  -0.444
REMARK UNBOUND:                -0.267
REMARK SMILES C=CCCCCCCC(=O)[O-]
REMARK SMILES IDX 6 1 7 2 8 3 9 4 10 5 11 6 5 7 4 8 3 9 2 10 1 11
REMARK H PARENT
REMARK Flexibility Score: inf
ROOT
ATOM      1  C   UNL     1       5.199  43.984  14.606  1.00  0.00     0.000 C 
ENDROOT
BRANCH   1   2
ATOM      2  C   UNL     1       5.243  44.590  16.017  1.00  0.00     0.006 C 
BRANCH   2   3
ATOM      3  C   UNL     1       6.664  44.994  16.432  1.00  0.00     0.053 C 
BRANCH   3   4
ATOM      4  C   UNL     1       7.621  43.846  16.327  1.00  0.00     0.041 C 
ATOM      5  O   UNL     1       8.598  43.905  15.537  1.00  0.00    -0.550 OA
ATOM      6  O   UNL     1       7.412  42.696  17.080  1.00  0.00    -0.550 OA
ENDBRANCH   3   4
ENDBRANCH   2   3
ENDBRANCH   1   2
BRANCH   1   7
ATOM      7  C   UNL     1       4.159  42.858  14.523  1.00  0.00     0.000 C 
BRANCH   7   8
ATOM      8  C   UNL     1       4.562  41.612  15.334  1.00  0.00     0.004 C 
BRANCH   8   9
ATOM      9  C   UNL     1       5.025  40.422  14.475  1.00  0.00     0.027 C 
BRANCH   9  10
ATOM     10  C   UNL     1       4.612  40.553  13.033  1.00  0.00    -0.035 C 
ATOM     11  C   UNL     1       3.503  39.976  12.562  1.00  0.00     0.004 C 
ENDBRANCH   9  10
ENDBRANCH   8   9
ENDBRANCH   7   8
ENDBRANCH   1   7
TORSDOF 7
ENDMDL
MODEL 5
REMARK VINA RESULT:    -4.371      2.994      5.711
REMARK INTER + INTRA:          -6.426
REMARK INTER:                  -5.734
REMARK INTRA:                  -0.692
REMARK UNBOUND:                -0.267
REMARK SMILES C=CCCCCCCC(=O)[O-]
REMARK SMILES IDX 6 1 7 2 8 3 9 4 10 5 11 6 5 7 4 8 3 9 2 10 1 11
REMARK H PARENT
REMARK Flexibility Score: inf
ROOT
ATOM      1  C   UNL     1       4.530  42.472  15.848  1.00  0.00     0.000 C 
ENDROOT
BRANCH   1   2
ATOM      2  C   UNL     1       5.379  41.313  15.304  1.00  0.00     0.006 C 
BRANCH   2   3
ATOM      3  C   UNL     1       5.402  41.280  13.771  1.00  0.00     0.053 C 
BRANCH   3   4
ATOM      4  C   UNL     1       4.464  40.247  13.224  1.00  0.00     0.041 C 
ATOM      5  O   UNL     1       4.417  40.027  11.985  1.00  0.00    -0.550 OA
ATOM      6  O   UNL     1       3.620  39.552  14.080  1.00  0.00    -0.550 OA
ENDBRANCH   3   4
ENDBRANCH   2   3
ENDBRANCH   1   2
BRANCH   1   7
ATOM      7  C   UNL     1       4.512  43.649  14.863  1.00  0.00     0.000 C 
BRANCH   7   8
ATOM      8  C   UNL     1       5.283  44.876  15.384  1.00  0.00     0.004 C 
BRANCH   8   9
ATOM      9  C   UNL     1       6.092  44.616  16.667  1.00  0.00     0.027 C 
BRANCH   9  10
ATOM     10  C   UNL     1       7.578  44.694  16.443  1.00  0.00    -0.035 C 
ATOM     11  C   UNL     1       8.252  43.712  15.837  1.00  0.00     0.004 C 
ENDBRANCH   9  10
ENDBRANCH   8   9
ENDBRANCH   7   8
ENDBRANCH   1   7
TORSDOF 7
ENDMDL
MODEL 6
REMARK VINA RESULT:    -4.340      2.841      5.488
REMARK INTER + INTRA:          -6.382
REMARK INTER:                  -5.740
REMARK INTRA:                  -0.642
REMARK UNBOUND:                -0.267
REMARK SMILES C=CCCCCCCC(=O)[O-]
REMARK SMILES IDX 6 1 7 2 8 3 9 4 10 5 11 6 5 7 4 8 3 9 2 10 1 11
REMARK H PARENT
REMARK Flexibility Score: inf
ROOT
ATOM      1  C   UNL     1       4.909  44.128  14.496  1.00  0.00     0.000 C 
ENDROOT
BRANCH   1   2
ATOM      2  C   UNL     1       4.284  42.725  14.498  1.00  0.00     0.006 C 
BRANCH   2   3
ATOM      3  C   UNL     1       5.218  41.672  13.888  1.00  0.00     0.053 C 
BRANCH   3   4
ATOM      4  C   UNL     1       4.481  40.418  13.527  1.00  0.00     0.041 C 
ATOM      5  O   UNL     1       4.016  39.675  14.430  1.00  0.00    -0.550 OA
ATOM      6  O   UNL     1       4.338  40.056  12.193  1.00  0.00    -0.550 OA
ENDBRANCH   3   4
ENDBRANCH   2   3
ENDBRANCH   1   2
BRANCH   1   7
ATOM      7  C   UNL     1       4.991  44.694  15.921  1.00  0.00     0.000 C 
BRANCH   7   8
ATOM      8  C   UNL     1       6.441  44.906  16.396  1.00  0.00     0.004 C 
BRANCH   8   9
ATOM      9  C   UNL     1       7.368  43.702  16.153  1.00  0.00     0.027 C 
BRANCH   9  10
ATOM     10  C   UNL     1       7.378  42.735  17.306  1.00  0.00    -0.035 C 
ATOM     11  C   UNL     1       6.473  41.757  17.414  1.00  0.00     0.004 C 
ENDBRANCH   9  10
ENDBRANCH   8   9
ENDBRANCH   7   8
ENDBRANCH   1   7
TORSDOF 7
ENDMDL
MODEL 7
REMARK VINA RESULT:    -4.273     12.992     14.800
REMARK INTER + INTRA:          -6.288
REMARK INTER:                  -5.893
REMARK INTRA:                  -0.395
REMARK UNBOUND:                -0.267
REMARK SMILES C=CCCCCCCC(=O)[O-]
REMARK SMILES IDX 6 1 7 2 8 3 9 4 10 5 11 6 5 7 4 8 3 9 2 10 1 11
REMARK H PARENT
REMARK Flexibility Score: inf
ROOT
ATOM      1  C   UNL     1      -8.951  34.307  15.943  1.00  0.00     0.000 C 
ENDROOT
BRANCH   1   2
ATOM      2  C   UNL     1      -7.600  33.982  15.288  1.00  0.00     0.006 C 
BRANCH   2   3
ATOM      3  C   UNL     1      -7.645  34.126  13.761  1.00  0.00     0.053 C 
BRANCH   3   4
ATOM      4  C   UNL     1      -6.577  35.050  13.260  1.00  0.00     0.041 C 
ATOM      5  O   UNL     1      -6.670  36.290  13.454  1.00  0.00    -0.550 OA
ATOM      6  O   UNL     1      -5.496  34.542  12.549  1.00  0.00    -0.550 OA
ENDBRANCH   3   4
ENDBRANCH   2   3
ENDBRANCH   1   2
BRANCH   1   7
ATOM      7  C   UNL     1      -8.979  35.754  16.454  1.00  0.00     0.000 C 
BRANCH   7   8
ATOM      8  C   UNL     1      -7.817  36.072  17.413  1.00  0.00     0.004 C 
BRANCH   8   9
ATOM      9  C   UNL     1      -7.020  37.336  17.044  1.00  0.00     0.027 C 
BRANCH   9  10
ATOM     10  C   UNL     1      -6.049  37.745  18.119  1.00  0.00    -0.035 C 
ATOM     11  C   UNL     1      -4.839  38.231  17.827  1.00  0.00     0.004 C 
ENDBRANCH   9  10
ENDBRANCH   8   9
ENDBRANCH   7   8
ENDBRANCH   1   7
TORSDOF 7
ENDMDL
MODEL 8
REMARK VINA RESULT:    -4.240     12.680     14.038
REMARK INTER + INTRA:          -6.242
REMARK INTER:                  -5.561
REMARK INTRA:                  -0.681
REMARK UNBOUND:                -0.267
REMARK SMILES C=CCCCCCCC(=O)[O-]
REMARK SMILES IDX 6 1 7 2 8 3 9 4 10 5 11 6 5 7 4 8 3 9 2 10 1 11
REMARK H PARENT
REMARK Flexibility Score: inf
ROOT
ATOM      1  C   UNL     1      -8.925  35.508  16.293  1.00  0.00     0.000 C 
ENDROOT
BRANCH   1   2
ATOM      2  C   UNL     1      -7.698  35.855  17.150  1.00  0.00     0.006 C 
BRANCH   2   3
ATOM      3  C   UNL     1      -7.241  37.306  16.950  1.00  0.00     0.053 C 
BRANCH   3   4
ATOM      4  C   UNL     1      -6.271  37.733  18.009  1.00  0.00     0.041 C 
ATOM      5  O   UNL     1      -5.065  37.942  17.717  1.00  0.00    -0.550 OA
ATOM      6  O   UNL     1      -6.695  37.868  19.326  1.00  0.00    -0.550 OA
ENDBRANCH   3   4
ENDBRANCH   2   3
ENDBRANCH   1   2
BRANCH   1   7
ATOM      7  C   UNL     1      -8.858  34.056  15.800  1.00  0.00     0.000 C 
BRANCH   7   8
ATOM      8  C   UNL     1      -7.540  33.733  15.071  1.00  0.00     0.004 C 
BRANCH   8   9
ATOM      9  C   UNL     1      -7.502  34.191  13.602  1.00  0.00     0.027 C 
BRANCH   9  10
ATOM     10  C   UNL     1      -6.460  35.248  13.350  1.00  0.00    -0.035 C 
ATOM     11  C   UNL     1      -6.772  36.546  13.294  1.00  0.00     0.004 C 
ENDBRANCH   9  10
ENDBRANCH   8   9
ENDBRANCH   7   8
ENDBRANCH   1   7
TORSDOF 7
ENDMDL
MODEL 9
REMARK VINA RESULT:    -4.235      3.196      5.557
REMARK INTER + INTRA:          -6.234
REMARK INTER:                  -5.777
REMARK INTRA:                  -0.458
REMARK UNBOUND:                -0.267
REMARK SMILES C=CCCCCCCC(=O)[O-]
REMARK SMILES IDX 6 1 7 2 8 3 9 4 10 5 11 6 5 7 4 8 3 9 2 10 1 11
REMARK H PARENT
REMARK Flexibility Score: inf
ROOT
ATOM      1  C   UNL     1       5.134  44.050  14.817  1.00  0.00     0.000 C 
ENDROOT
BRANCH   1   2
ATOM      2  C   UNL     1       4.397  42.743  14.487  1.00  0.00     0.006 C 
BRANCH   2   3
ATOM      3  C   UNL     1       5.314  41.712  13.817  1.00  0.00     0.053 C 
BRANCH   3   4
ATOM      4  C   UNL     1       4.587  40.438  13.512  1.00  0.00     0.041 C 
ATOM      5  O   UNL     1       4.183  39.700  14.448  1.00  0.00    -0.550 OA
ATOM      6  O   UNL     1       4.386  40.050  12.193  1.00  0.00    -0.550 OA
ENDBRANCH   3   4
ENDBRANCH   2   3
ENDBRANCH   1   2
BRANCH   1   7
ATOM      7  C   UNL     1       4.921  44.445  16.285  1.00  0.00     0.000 C 
BRANCH   7   8
ATOM      8  C   UNL     1       5.244  43.301  17.264  1.00  0.00     0.004 C 
BRANCH   8   9
ATOM      9  C   UNL     1       4.170  43.070  18.342  1.00  0.00     0.027 C 
BRANCH   9  10
ATOM     10  C   UNL     1       2.790  43.452  17.878  1.00  0.00    -0.035 C 
ATOM     11  C   UNL     1       1.698  43.136  18.580  1.00  0.00     0.004 C 
ENDBRANCH   9  10
ENDBRANCH   8   9
ENDBRANCH   7   8
ENDBRANCH   1   7
TORSDOF 7
ENDMDL
