MODEL 1
REMARK VINA RESULT:    -4.122      0.000      0.000
REMARK INTER + INTRA:         -13.812
REMARK INTER:                 -10.387
REMARK INTRA:                  -3.424
REMARK UNBOUND:                -3.424
REMARK SMILES CCCCCCCCCCCCCCCCCCCCCCCCCCCC(=O)[O-]
REMARK SMILES IDX 15 1 16 2 17 3 18 4 19 5 20 6 21 7 22 8 23 9 24 10 25 11
REMARK SMILES IDX 26 12 27 13 28 14 29 15 30 16 14 17 13 18 12 19 11 20 10 21
REMARK SMILES IDX 9 22 8 23 7 24 6 25 5 26 4 27 3 28 2 29 1 30
REMARK H PARENT
REMARK Flexibility Score: inf
ROOT
ATOM      1  C   UNL     1     -12.534 -70.622   6.287  1.00  0.00     0.000 C 
ENDROOT
BRANCH   1   2
ATOM      2  C   UNL     1     -11.273 -69.904   6.806  1.00  0.00     0.000 C 
BRANCH   2   3
ATOM      3  C   UNL     1     -11.389 -68.372   6.744  1.00  0.00     0.000 C 
BRANCH   3   4
ATOM      4  C   UNL     1     -10.030 -67.671   6.566  1.00  0.00     0.000 C 
BRANCH   4   5
ATOM      5  C   UNL     1      -8.815 -68.610   6.451  1.00  0.00     0.000 C 
BRANCH   5   6
ATOM      6  C   UNL     1      -7.691 -68.040   5.571  1.00  0.00     0.000 C 
BRANCH   6   7
ATOM      7  C   UNL     1      -8.078 -68.090   4.086  1.00  0.00     0.000 C 
BRANCH   7   8
ATOM      8  C   UNL     1      -7.880 -66.745   3.370  1.00  0.00     0.000 C 
BRANCH   8   9
ATOM      9  C   UNL     1      -8.434 -66.745   1.937  1.00  0.00     0.000 C 
BRANCH   9  10
ATOM     10  C   UNL     1      -7.642 -65.776   1.045  1.00  0.00     0.000 C 
BRANCH  10  11
ATOM     11  C   UNL     1      -7.188 -66.423  -0.282  1.00  0.00     0.000 C 
BRANCH  11  12
ATOM     12  C   UNL     1      -6.059 -65.655  -0.999  1.00  0.00     0.006 C 
BRANCH  12  13
ATOM     13  C   UNL     1      -4.994 -66.550  -1.649  1.00  0.00     0.053 C 
BRANCH  13  14
ATOM     14  C   UNL     1      -4.532 -66.017  -2.972  1.00  0.00     0.041 C 
ATOM     15  O   UNL     1      -4.392 -64.776  -3.143  1.00  0.00    -0.550 OA
ATOM     16  O   UNL     1      -4.273 -66.887  -4.022  1.00  0.00    -0.550 OA
ENDBRANCH  13  14
ENDBRANCH  12  13
ENDBRANCH  11  12
ENDBRANCH  10  11
ENDBRANCH   9  10
ENDBRANCH   8   9
ENDBRANCH   7   8
ENDBRANCH   6   7
ENDBRANCH   5   6
ENDBRANCH   4   5
ENDBRANCH   3   4
ENDBRANCH   2   3
ENDBRANCH   1   2
BRANCH   1  17
ATOM     17  C   UNL     1     -12.654 -72.108   6.674  1.00  0.00     0.000 C 
BRANCH  17  18
ATOM     18  C   UNL     1     -12.029 -73.051   5.631  1.00  0.00     0.000 C 
BRANCH  18  19
ATOM     19  C   UNL     1     -10.530 -73.291   5.878  1.00  0.00     0.000 C 
BRANCH  19  20
ATOM     20  C   UNL     1      -9.684 -73.125   4.603  1.00  0.00     0.000 C 
BRANCH  20  21
ATOM     21  C   UNL     1      -8.879 -71.813   4.590  1.00  0.00     0.000 C 
BRANCH  21  22
ATOM     22  C   UNL     1      -7.410 -71.946   4.132  1.00  0.00    -0.000 C 
BRANCH  22  23
ATOM     23  C   UNL     1      -6.355 -71.548   5.179  1.00  0.00    -0.000 C 
BRANCH  23  24
ATOM     24  C   UNL     1      -6.830 -71.776   6.624  1.00  0.00    -0.000 C 
BRANCH  24  25
ATOM     25  C   UNL     1      -6.638 -73.230   7.096  1.00  0.00    -0.000 C 
BRANCH  25  26
ATOM     26  C   UNL     1      -5.448 -73.976   6.464  1.00  0.00    -0.000 C 
BRANCH  26  27
ATOM     27  C   UNL     1      -5.745 -75.461   6.189  1.00  0.00    -0.000 C 
BRANCH  27  28
ATOM     28  C   UNL     1      -7.019 -75.655   5.338  1.00  0.00    -0.000 C 
BRANCH  28  29
ATOM     29  C   UNL     1      -6.735 -75.999   3.867  1.00  0.00    -0.003 C 
ATOM     30  C   UNL     1      -8.006 -76.201   3.044  1.00  0.00     0.004 C 
ENDBRANCH  28  29
ENDBRANCH  27  28
ENDBRANCH  26  27
ENDBRANCH  25  26
ENDBRANCH  24  25
ENDBRANCH  23  24
ENDBRANCH  22  23
ENDBRANCH  21  22
ENDBRANCH  20  21
ENDBRANCH  19  20
ENDBRANCH  18  19
ENDBRANCH  17  18
ENDBRANCH   1  17
TORSDOF 26
ENDMDL
MODEL 2
REMARK VINA RESULT:    -4.052      6.744     10.917
REMARK INTER + INTRA:         -13.635
REMARK INTER:                  -8.663
REMARK INTRA:                  -4.972
REMARK UNBOUND:                -3.424
REMARK SMILES CCCCCCCCCCCCCCCCCCCCCCCCCCCC(=O)[O-]
REMARK SMILES IDX 15 1 16 2 17 3 18 4 19 5 20 6 21 7 22 8 23 9 24 10 25 11
REMARK SMILES IDX 26 12 27 13 28 14 29 15 30 16 14 17 13 18 12 19 11 20 10 21
REMARK SMILES IDX 9 22 8 23 7 24 6 25 5 26 4 27 3 28 2 29 1 30
REMARK H PARENT
REMARK Flexibility Score: inf
ROOT
ATOM      1  C   UNL     1      -4.536 -65.147  -0.174  1.00  0.00     0.000 C 
ENDROOT
BRANCH   1   2
ATOM      2  C   UNL     1      -5.886 -65.413  -0.867  1.00  0.00     0.000 C 
BRANCH   2   3
ATOM      3  C   UNL     1      -6.837 -64.206  -0.806  1.00  0.00     0.000 C 
BRANCH   3   4
ATOM      4  C   UNL     1      -8.296 -64.570  -1.141  1.00  0.00     0.000 C 
BRANCH   4   5
ATOM      5  C   UNL     1      -9.188 -64.899   0.070  1.00  0.00     0.000 C 
BRANCH   5   6
ATOM      6  C   UNL     1      -9.210 -66.395   0.417  1.00  0.00     0.000 C 
BRANCH   6   7
ATOM      7  C   UNL     1      -8.471 -66.664   1.736  1.00  0.00     0.000 C 
BRANCH   7   8
ATOM      8  C   UNL     1      -8.140 -65.378   2.510  1.00  0.00     0.000 C 
BRANCH   8   9
ATOM      9  C   UNL     1      -6.651 -65.266   2.873  1.00  0.00     0.000 C 
BRANCH   9  10
ATOM     10  C   UNL     1      -6.343 -63.900   3.505  1.00  0.00     0.000 C 
BRANCH  10  11
ATOM     11  C   UNL     1      -7.462 -62.864   3.258  1.00  0.00     0.000 C 
BRANCH  11  12
ATOM     12  C   UNL     1      -7.129 -61.835   2.159  1.00  0.00     0.006 C 
BRANCH  12  13
ATOM     13  C   UNL     1      -8.356 -61.169   1.518  1.00  0.00     0.053 C 
BRANCH  13  14
ATOM     14  C   UNL     1      -8.256 -59.673   1.516  1.00  0.00     0.041 C 
ATOM     15  O   UNL     1      -7.531 -59.083   2.360  1.00  0.00    -0.550 OA
ATOM     16  O   UNL     1      -8.977 -58.928   0.592  1.00  0.00    -0.550 OA
ENDBRANCH  13  14
ENDBRANCH  12  13
ENDBRANCH  11  12
ENDBRANCH  10  11
ENDBRANCH   9  10
ENDBRANCH   8   9
ENDBRANCH   7   8
ENDBRANCH   6   7
ENDBRANCH   5   6
ENDBRANCH   4   5
ENDBRANCH   3   4
ENDBRANCH   2   3
ENDBRANCH   1   2
BRANCH   1  17
ATOM     17  C   UNL     1      -4.365 -63.734   0.417  1.00  0.00     0.000 C 
BRANCH  17  18
ATOM     18  C   UNL     1      -2.983 -63.126   0.125  1.00  0.00     0.000 C 
BRANCH  18  19
ATOM     19  C   UNL     1      -2.152 -63.988  -0.841  1.00  0.00     0.000 C 
BRANCH  19  20
ATOM     20  C   UNL     1      -1.255 -63.148  -1.766  1.00  0.00     0.000 C 
BRANCH  20  21
ATOM     21  C   UNL     1      -2.034 -62.054  -2.519  1.00  0.00     0.000 C 
BRANCH  21  22
ATOM     22  C   UNL     1      -2.894 -62.553  -3.700  1.00  0.00    -0.000 C 
BRANCH  22  23
ATOM     23  C   UNL     1      -4.356 -62.889  -3.355  1.00  0.00    -0.000 C 
BRANCH  23  24
ATOM     24  C   UNL     1      -4.823 -64.221  -3.967  1.00  0.00    -0.000 C 
BRANCH  24  25
ATOM     25  C   UNL     1      -3.749 -65.323  -3.898  1.00  0.00    -0.000 C 
BRANCH  25  26
ATOM     26  C   UNL     1      -4.277 -66.765  -4.018  1.00  0.00    -0.000 C 
BRANCH  26  27
ATOM     27  C   UNL     1      -3.537 -67.591  -5.085  1.00  0.00    -0.000 C 
BRANCH  27  28
ATOM     28  C   UNL     1      -4.307 -67.645  -6.422  1.00  0.00    -0.000 C 
BRANCH  28  29
ATOM     29  C   UNL     1      -4.266 -66.327  -7.214  1.00  0.00    -0.003 C 
ATOM     30  C   UNL     1      -5.650 -65.722  -7.440  1.00  0.00     0.004 C 
ENDBRANCH  28  29
ENDBRANCH  27  28
ENDBRANCH  26  27
ENDBRANCH  25  26
ENDBRANCH  24  25
ENDBRANCH  23  24
ENDBRANCH  22  23
ENDBRANCH  21  22
ENDBRANCH  20  21
ENDBRANCH  19  20
ENDBRANCH  18  19
ENDBRANCH  17  18
ENDBRANCH   1  17
TORSDOF 26
ENDMDL
MODEL 3
REMARK VINA RESULT:    -4.043      1.823      2.204
REMARK INTER + INTRA:         -13.612
REMARK INTER:                  -9.859
REMARK INTRA:                  -3.752
REMARK UNBOUND:                -3.424
REMARK SMILES CCCCCCCCCCCCCCCCCCCCCCCCCCCC(=O)[O-]
REMARK SMILES IDX 15 1 16 2 17 3 18 4 19 5 20 6 21 7 22 8 23 9 24 10 25 11
REMARK SMILES IDX 26 12 27 13 28 14 29 15 30 16 14 17 13 18 12 19 11 20 10 21
REMARK SMILES IDX 9 22 8 23 7 24 6 25 5 26 4 27 3 28 2 29 1 30
REMARK H PARENT
REMARK Flexibility Score: inf
ROOT
ATOM      1  C   UNL     1     -12.470 -70.491   6.362  1.00  0.00     0.000 C 
ENDROOT
BRANCH   1   2
ATOM      2  C   UNL     1     -11.210 -69.710   6.781  1.00  0.00     0.000 C 
BRANCH   2   3
ATOM      3  C   UNL     1     -11.439 -68.191   6.833  1.00  0.00     0.000 C 
BRANCH   3   4
ATOM      4  C   UNL     1     -10.217 -67.381   6.362  1.00  0.00     0.000 C 
BRANCH   4   5
ATOM      5  C   UNL     1      -8.870 -68.124   6.421  1.00  0.00     0.000 C 
BRANCH   5   6
ATOM      6  C   UNL     1      -7.838 -67.588   5.418  1.00  0.00     0.000 C 
BRANCH   6   7
ATOM      7  C   UNL     1      -8.250 -67.917   3.976  1.00  0.00     0.000 C 
BRANCH   7   8
ATOM      8  C   UNL     1      -8.103 -66.720   3.023  1.00  0.00     0.000 C 
BRANCH   8   9
ATOM      9  C   UNL     1      -6.997 -65.745   3.457  1.00  0.00     0.000 C 
BRANCH   9  10
ATOM     10  C   UNL     1      -6.731 -64.698   2.364  1.00  0.00     0.000 C 
BRANCH  10  11
ATOM     11  C   UNL     1      -8.027 -64.205   1.685  1.00  0.00     0.000 C 
BRANCH  11  12
ATOM     12  C   UNL     1      -7.962 -64.197   0.144  1.00  0.00     0.006 C 
BRANCH  12  13
ATOM     13  C   UNL     1      -8.999 -65.100  -0.542  1.00  0.00     0.053 C 
BRANCH  13  14
ATOM     14  C   UNL     1      -8.524 -66.516  -0.671  1.00  0.00     0.041 C 
ATOM     15  O   UNL     1      -7.291 -66.771  -0.720  1.00  0.00    -0.550 OA
ATOM     16  O   UNL     1      -9.443 -67.554  -0.753  1.00  0.00    -0.550 OA
ENDBRANCH  13  14
ENDBRANCH  12  13
ENDBRANCH  11  12
ENDBRANCH  10  11
ENDBRANCH   9  10
ENDBRANCH   8   9
ENDBRANCH   7   8
ENDBRANCH   6   7
ENDBRANCH   5   6
ENDBRANCH   4   5
ENDBRANCH   3   4
ENDBRANCH   2   3
ENDBRANCH   1   2
BRANCH   1  17
ATOM     17  C   UNL     1     -12.469 -71.989   6.724  1.00  0.00     0.000 C 
BRANCH  17  18
ATOM     18  C   UNL     1     -11.925 -72.878   5.593  1.00  0.00     0.000 C 
BRANCH  18  19
ATOM     19  C   UNL     1     -10.436 -73.218   5.776  1.00  0.00     0.000 C 
BRANCH  19  20
ATOM     20  C   UNL     1      -9.592 -72.878   4.535  1.00  0.00     0.000 C 
BRANCH  20  21
ATOM     21  C   UNL     1      -8.854 -71.534   4.667  1.00  0.00     0.000 C 
BRANCH  21  22
ATOM     22  C   UNL     1      -7.397 -71.529   4.154  1.00  0.00    -0.000 C 
BRANCH  22  23
ATOM     23  C   UNL     1      -6.362 -70.919   5.116  1.00  0.00    -0.000 C 
BRANCH  23  24
ATOM     24  C   UNL     1      -6.541 -71.397   6.567  1.00  0.00    -0.000 C 
BRANCH  24  25
ATOM     25  C   UNL     1      -6.067 -72.847   6.785  1.00  0.00    -0.000 C 
BRANCH  25  26
ATOM     26  C   UNL     1      -4.907 -73.303   5.882  1.00  0.00    -0.000 C 
BRANCH  26  27
ATOM     27  C   UNL     1      -5.116 -74.710   5.296  1.00  0.00    -0.000 C 
BRANCH  27  28
ATOM     28  C   UNL     1      -6.562 -74.929   4.801  1.00  0.00    -0.000 C 
BRANCH  28  29
ATOM     29  C   UNL     1      -7.156 -76.288   5.203  1.00  0.00    -0.003 C 
ATOM     30  C   UNL     1      -6.988 -76.597   6.690  1.00  0.00     0.004 C 
ENDBRANCH  28  29
ENDBRANCH  27  28
ENDBRANCH  26  27
ENDBRANCH  25  26
ENDBRANCH  24  25
ENDBRANCH  23  24
ENDBRANCH  22  23
ENDBRANCH  21  22
ENDBRANCH  20  21
ENDBRANCH  19  20
ENDBRANCH  18  19
ENDBRANCH  17  18
ENDBRANCH   1  17
TORSDOF 26
ENDMDL
MODEL 4
REMARK VINA RESULT:    -3.997      3.588     10.472
REMARK INTER + INTRA:         -13.497
REMARK INTER:                  -9.245
REMARK INTRA:                  -4.253
REMARK UNBOUND:                -3.424
REMARK SMILES CCCCCCCCCCCCCCCCCCCCCCCCCCCC(=O)[O-]
REMARK SMILES IDX 15 1 16 2 17 3 18 4 19 5 20 6 21 7 22 8 23 9 24 10 25 11
REMARK SMILES IDX 26 12 27 13 28 14 29 15 30 16 14 17 13 18 12 19 11 20 10 21
REMARK SMILES IDX 9 22 8 23 7 24 6 25 5 26 4 27 3 28 2 29 1 30
REMARK H PARENT
REMARK Flexibility Score: inf
ROOT
ATOM      1  C   UNL     1      -8.881 -64.771  -0.959  1.00  0.00     0.000 C 
ENDROOT
BRANCH   1   2
ATOM      2  C   UNL     1      -8.658 -66.282  -0.757  1.00  0.00     0.000 C 
BRANCH   2   3
ATOM      3  C   UNL     1      -8.242 -66.638   0.680  1.00  0.00     0.000 C 
BRANCH   3   4
ATOM      4  C   UNL     1      -8.920 -65.752   1.741  1.00  0.00     0.000 C 
BRANCH   4   5
ATOM      5  C   UNL     1      -7.963 -65.045   2.718  1.00  0.00     0.000 C 
BRANCH   5   6
ATOM      6  C   UNL     1      -7.106 -66.021   3.537  1.00  0.00     0.000 C 
BRANCH   6   7
ATOM      7  C   UNL     1      -7.950 -66.731   4.606  1.00  0.00     0.000 C 
BRANCH   7   8
ATOM      8  C   UNL     1      -8.035 -68.250   4.390  1.00  0.00     0.000 C 
BRANCH   8   9
ATOM      9  C   UNL     1      -8.538 -69.002   5.633  1.00  0.00     0.000 C 
BRANCH   9  10
ATOM     10  C   UNL     1      -7.426 -69.880   6.227  1.00  0.00     0.000 C 
BRANCH  10  11
ATOM     11  C   UNL     1      -6.316 -70.209   5.205  1.00  0.00     0.000 C 
BRANCH  11  12
ATOM     12  C   UNL     1      -6.305 -71.681   4.746  1.00  0.00     0.006 C 
BRANCH  12  13
ATOM     13  C   UNL     1      -7.522 -72.499   5.202  1.00  0.00     0.053 C 
BRANCH  13  14
ATOM     14  C   UNL     1      -8.581 -72.584   4.144  1.00  0.00     0.041 C 
ATOM     15  O   UNL     1      -9.798 -72.473   4.451  1.00  0.00    -0.550 OA
ATOM     16  O   UNL     1      -8.225 -72.801   2.818  1.00  0.00    -0.550 OA
ENDBRANCH  13  14
ENDBRANCH  12  13
ENDBRANCH  11  12
ENDBRANCH  10  11
ENDBRANCH   9  10
ENDBRANCH   8   9
ENDBRANCH   7   8
ENDBRANCH   6   7
ENDBRANCH   5   6
ENDBRANCH   4   5
ENDBRANCH   3   4
ENDBRANCH   2   3
ENDBRANCH   1   2
BRANCH   1  17
ATOM     17  C   UNL     1      -7.680 -63.998  -1.537  1.00  0.00     0.000 C 
BRANCH  17  18
ATOM     18  C   UNL     1      -6.964 -63.132  -0.486  1.00  0.00     0.000 C 
BRANCH  18  19
ATOM     19  C   UNL     1      -5.461 -63.439  -0.396  1.00  0.00     0.000 C 
BRANCH  19  20
ATOM     20  C   UNL     1      -5.164 -64.748   0.357  1.00  0.00     0.000 C 
BRANCH  20  21
ATOM     21  C   UNL     1      -4.371 -65.757  -0.493  1.00  0.00     0.000 C 
BRANCH  21  22
ATOM     22  C   UNL     1      -5.198 -66.528  -1.543  1.00  0.00    -0.000 C 
BRANCH  22  23
ATOM     23  C   UNL     1      -4.465 -66.843  -2.859  1.00  0.00    -0.000 C 
BRANCH  23  24
ATOM     24  C   UNL     1      -4.476 -65.662  -3.845  1.00  0.00    -0.000 C 
BRANCH  24  25
ATOM     25  C   UNL     1      -3.311 -64.680  -3.619  1.00  0.00    -0.000 C 
BRANCH  25  26
ATOM     26  C   UNL     1      -3.700 -63.190  -3.610  1.00  0.00    -0.000 C 
BRANCH  26  27
ATOM     27  C   UNL     1      -2.790 -62.335  -2.709  1.00  0.00    -0.000 C 
BRANCH  27  28
ATOM     28  C   UNL     1      -1.877 -63.199  -1.812  1.00  0.00    -0.000 C 
BRANCH  28  29
ATOM     29  C   UNL     1      -1.838 -62.741  -0.345  1.00  0.00    -0.003 C 
ATOM     30  C   UNL     1      -2.436 -61.351  -0.137  1.00  0.00     0.004 C 
ENDBRANCH  28  29
ENDBRANCH  27  28
ENDBRANCH  26  27
ENDBRANCH  25  26
ENDBRANCH  24  25
ENDBRANCH  23  24
ENDBRANCH  22  23
ENDBRANCH  21  22
ENDBRANCH  20  21
ENDBRANCH  19  20
ENDBRANCH  18  19
ENDBRANCH  17  18
ENDBRANCH   1  17
TORSDOF 26
ENDMDL
MODEL 5
REMARK VINA RESULT:    -3.993      5.620      9.077
REMARK INTER + INTRA:         -13.486
REMARK INTER:                  -8.568
REMARK INTRA:                  -4.918
REMARK UNBOUND:                -3.424
REMARK SMILES CCCCCCCCCCCCCCCCCCCCCCCCCCCC(=O)[O-]
REMARK SMILES IDX 15 1 16 2 17 3 18 4 19 5 20 6 21 7 22 8 23 9 24 10 25 11
REMARK SMILES IDX 26 12 27 13 28 14 29 15 30 16 14 17 13 18 12 19 11 20 10 21
REMARK SMILES IDX 9 22 8 23 7 24 6 25 5 26 4 27 3 28 2 29 1 30
REMARK H PARENT
REMARK Flexibility Score: inf
ROOT
ATOM      1  C   UNL     1      -7.723 -63.866  -1.874  1.00  0.00     0.000 C 
ENDROOT
BRANCH   1   2
ATOM      2  C   UNL     1      -6.907 -62.574  -1.680  1.00  0.00     0.000 C 
BRANCH   2   3
ATOM      3  C   UNL     1      -6.387 -62.405  -0.243  1.00  0.00     0.000 C 
BRANCH   3   4
ATOM      4  C   UNL     1      -4.980 -62.996  -0.037  1.00  0.00     0.000 C 
BRANCH   4   5
ATOM      5  C   UNL     1      -4.941 -64.430   0.520  1.00  0.00     0.000 C 
BRANCH   5   6
ATOM      6  C   UNL     1      -4.114 -65.393  -0.345  1.00  0.00     0.000 C 
BRANCH   6   7
ATOM      7  C   UNL     1      -5.017 -66.190  -1.297  1.00  0.00     0.000 C 
BRANCH   7   8
ATOM      8  C   UNL     1      -4.614 -66.038  -2.772  1.00  0.00     0.000 C 
BRANCH   8   9
ATOM      9  C   UNL     1      -3.447 -65.059  -2.973  1.00  0.00     0.000 C 
BRANCH   9  10
ATOM     10  C   UNL     1      -3.766 -64.048  -4.085  1.00  0.00     0.000 C 
BRANCH  10  11
ATOM     11  C   UNL     1      -5.184 -64.231  -4.667  1.00  0.00     0.000 C 
BRANCH  11  12
ATOM     12  C   UNL     1      -5.218 -64.364  -6.203  1.00  0.00     0.006 C 
BRANCH  12  13
ATOM     13  C   UNL     1      -5.229 -65.811  -6.717  1.00  0.00     0.053 C 
BRANCH  13  14
ATOM     14  C   UNL     1      -3.960 -66.172  -7.430  1.00  0.00     0.041 C 
ATOM     15  O   UNL     1      -3.940 -67.136  -8.241  1.00  0.00    -0.550 OA
ATOM     16  O   UNL     1      -2.796 -65.455  -7.186  1.00  0.00    -0.550 OA
ENDBRANCH  13  14
ENDBRANCH  12  13
ENDBRANCH  11  12
ENDBRANCH  10  11
ENDBRANCH   9  10
ENDBRANCH   8   9
ENDBRANCH   7   8
ENDBRANCH   6   7
ENDBRANCH   5   6
ENDBRANCH   4   5
ENDBRANCH   3   4
ENDBRANCH   2   3
ENDBRANCH   1   2
BRANCH   1  17
ATOM     17  C   UNL     1      -8.400 -64.416  -0.604  1.00  0.00     0.000 C 
BRANCH  17  18
ATOM     18  C   UNL     1      -8.905 -65.859  -0.771  1.00  0.00     0.000 C 
BRANCH  18  19
ATOM     19  C   UNL     1      -8.338 -66.810   0.296  1.00  0.00     0.000 C 
BRANCH  19  20
ATOM     20  C   UNL     1      -8.017 -66.094   1.620  1.00  0.00     0.000 C 
BRANCH  20  21
ATOM     21  C   UNL     1      -8.406 -66.926   2.856  1.00  0.00     0.000 C 
BRANCH  21  22
ATOM     22  C   UNL     1      -8.248 -66.205   4.211  1.00  0.00    -0.000 C 
BRANCH  22  23
ATOM     23  C   UNL     1      -9.564 -65.807   4.904  1.00  0.00    -0.000 C 
BRANCH  23  24
ATOM     24  C   UNL     1      -9.396 -64.624   5.873  1.00  0.00    -0.000 C 
BRANCH  24  25
ATOM     25  C   UNL     1      -8.112 -63.813   5.613  1.00  0.00    -0.000 C 
BRANCH  25  26
ATOM     26  C   UNL     1      -8.297 -62.544   4.760  1.00  0.00    -0.000 C 
BRANCH  26  27
ATOM     27  C   UNL     1      -7.444 -62.549   3.479  1.00  0.00    -0.000 C 
BRANCH  27  28
ATOM     28  C   UNL     1      -6.102 -63.289   3.673  1.00  0.00    -0.000 C 
BRANCH  28  29
ATOM     29  C   UNL     1      -4.882 -62.354   3.722  1.00  0.00    -0.003 C 
ATOM     30  C   UNL     1      -5.160 -60.976   3.124  1.00  0.00     0.004 C 
ENDBRANCH  28  29
ENDBRANCH  27  28
ENDBRANCH  26  27
ENDBRANCH  25  26
ENDBRANCH  24  25
ENDBRANCH  23  24
ENDBRANCH  22  23
ENDBRANCH  21  22
ENDBRANCH  20  21
ENDBRANCH  19  20
ENDBRANCH  18  19
ENDBRANCH  17  18
ENDBRANCH   1  17
TORSDOF 26
ENDMDL
MODEL 6
REMARK VINA RESULT:    -3.967      7.015     11.756
REMARK INTER + INTRA:         -13.420
REMARK INTER:                  -9.794
REMARK INTRA:                  -3.626
REMARK UNBOUND:                -3.424
REMARK SMILES CCCCCCCCCCCCCCCCCCCCCCCCCCCC(=O)[O-]
REMARK SMILES IDX 15 1 16 2 17 3 18 4 19 5 20 6 21 7 22 8 23 9 24 10 25 11
REMARK SMILES IDX 26 12 27 13 28 14 29 15 30 16 14 17 13 18 12 19 11 20 10 21
REMARK SMILES IDX 9 22 8 23 7 24 6 25 5 26 4 27 3 28 2 29 1 30
REMARK H PARENT
REMARK Flexibility Score: inf
ROOT
ATOM      1  C   UNL     1      -5.654 -64.763  -1.857  1.00  0.00     0.000 C 
ENDROOT
BRANCH   1   2
ATOM      2  C   UNL     1      -6.665 -63.836  -1.155  1.00  0.00     0.000 C 
BRANCH   2   3
ATOM      3  C   UNL     1      -8.124 -64.170  -1.504  1.00  0.00     0.000 C 
BRANCH   3   4
ATOM      4  C   UNL     1      -8.950 -64.613  -0.282  1.00  0.00     0.000 C 
BRANCH   4   5
ATOM      5  C   UNL     1      -9.001 -66.132  -0.036  1.00  0.00     0.000 C 
BRANCH   5   6
ATOM      6  C   UNL     1      -8.228 -66.568   1.218  1.00  0.00     0.000 C 
BRANCH   6   7
ATOM      7  C   UNL     1      -8.055 -65.393   2.192  1.00  0.00     0.000 C 
BRANCH   7   8
ATOM      8  C   UNL     1      -6.582 -65.021   2.424  1.00  0.00     0.000 C 
BRANCH   8   9
ATOM      9  C   UNL     1      -6.338 -63.504   2.391  1.00  0.00     0.000 C 
BRANCH   9  10
ATOM     10  C   UNL     1      -7.579 -62.740   2.877  1.00  0.00     0.000 C 
BRANCH  10  11
ATOM     11  C   UNL     1      -8.045 -61.662   1.874  1.00  0.00     0.000 C 
BRANCH  11  12
ATOM     12  C   UNL     1      -6.897 -61.014   1.074  1.00  0.00     0.006 C 
BRANCH  12  13
ATOM     13  C   UNL     1      -7.357 -60.072  -0.049  1.00  0.00     0.053 C 
BRANCH  13  14
ATOM     14  C   UNL     1      -8.064 -58.860   0.479  1.00  0.00     0.041 C 
ATOM     15  O   UNL     1      -7.517 -58.135   1.353  1.00  0.00    -0.550 OA
ATOM     16  O   UNL     1      -9.334 -58.538   0.018  1.00  0.00    -0.550 OA
ENDBRANCH  13  14
ENDBRANCH  12  13
ENDBRANCH  11  12
ENDBRANCH  10  11
ENDBRANCH   9  10
ENDBRANCH   8   9
ENDBRANCH   7   8
ENDBRANCH   6   7
ENDBRANCH   5   6
ENDBRANCH   4   5
ENDBRANCH   3   4
ENDBRANCH   2   3
ENDBRANCH   1   2
BRANCH   1  17
ATOM     17  C   UNL     1      -5.450 -66.139  -1.195  1.00  0.00     0.000 C 
BRANCH  17  18
ATOM     18  C   UNL     1      -5.195 -67.262  -2.214  1.00  0.00     0.000 C 
BRANCH  18  19
ATOM     19  C   UNL     1      -4.278 -66.817  -3.365  1.00  0.00     0.000 C 
BRANCH  19  20
ATOM     20  C   UNL     1      -4.390 -67.727  -4.601  1.00  0.00     0.000 C 
BRANCH  20  21
ATOM     21  C   UNL     1      -3.647 -67.161  -5.826  1.00  0.00     0.000 C 
BRANCH  21  22
ATOM     22  C   UNL     1      -4.505 -66.999  -7.099  1.00  0.00    -0.000 C 
BRANCH  22  23
ATOM     23  C   UNL     1      -5.325 -65.700  -7.181  1.00  0.00    -0.000 C 
BRANCH  23  24
ATOM     24  C   UNL     1      -4.950 -64.686  -6.087  1.00  0.00    -0.000 C 
BRANCH  24  25
ATOM     25  C   UNL     1      -3.885 -63.672  -6.547  1.00  0.00    -0.000 C 
BRANCH  25  26
ATOM     26  C   UNL     1      -3.581 -63.677  -8.056  1.00  0.00    -0.000 C 
BRANCH  26  27
ATOM     27  C   UNL     1      -2.078 -63.792  -8.368  1.00  0.00    -0.000 C 
BRANCH  27  28
ATOM     28  C   UNL     1      -1.359 -64.784  -7.427  1.00  0.00    -0.000 C 
BRANCH  28  29
ATOM     29  C   UNL     1       0.173 -64.672  -7.464  1.00  0.00    -0.003 C 
ATOM     30  C   UNL     1       0.690 -63.354  -6.891  1.00  0.00     0.004 C 
ENDBRANCH  28  29
ENDBRANCH  27  28
ENDBRANCH  26  27
ENDBRANCH  25  26
ENDBRANCH  24  25
ENDBRANCH  23  24
ENDBRANCH  22  23
ENDBRANCH  21  22
ENDBRANCH  20  21
ENDBRANCH  19  20
ENDBRANCH  18  19
ENDBRANCH  17  18
ENDBRANCH   1  17
TORSDOF 26
ENDMDL
MODEL 7
REMARK VINA RESULT:    -3.951      6.844     12.679
REMARK INTER + INTRA:         -13.381
REMARK INTER:                  -8.929
REMARK INTRA:                  -4.452
REMARK UNBOUND:                -3.424
REMARK SMILES CCCCCCCCCCCCCCCCCCCCCCCCCCCC(=O)[O-]
REMARK SMILES IDX 15 1 16 2 17 3 18 4 19 5 20 6 21 7 22 8 23 9 24 10 25 11
REMARK SMILES IDX 26 12 27 13 28 14 29 15 30 16 14 17 13 18 12 19 11 20 10 21
REMARK SMILES IDX 9 22 8 23 7 24 6 25 5 26 4 27 3 28 2 29 1 30
REMARK H PARENT
REMARK Flexibility Score: inf
ROOT
ATOM      1  C   UNL     1      -5.449 -66.270  -1.064  1.00  0.00     0.000 C 
ENDROOT
BRANCH   1   2
ATOM      2  C   UNL     1      -4.066 -65.750  -0.627  1.00  0.00     0.000 C 
BRANCH   2   3
ATOM      3  C   UNL     1      -4.118 -64.323  -0.055  1.00  0.00     0.000 C 
BRANCH   3   4
ATOM      4  C   UNL     1      -3.300 -63.313  -0.879  1.00  0.00     0.000 C 
BRANCH   4   5
ATOM      5  C   UNL     1      -3.313 -63.541  -2.402  1.00  0.00     0.000 C 
BRANCH   5   6
ATOM      6  C   UNL     1      -4.409 -62.744  -3.124  1.00  0.00     0.000 C 
BRANCH   6   7
ATOM      7  C   UNL     1      -5.588 -63.651  -3.507  1.00  0.00     0.000 C 
BRANCH   7   8
ATOM      8  C   UNL     1      -6.949 -63.072  -3.091  1.00  0.00     0.000 C 
BRANCH   8   9
ATOM      9  C   UNL     1      -6.893 -62.321  -1.751  1.00  0.00     0.000 C 
BRANCH   9  10
ATOM     10  C   UNL     1      -7.471 -63.182  -0.618  1.00  0.00     0.000 C 
BRANCH  10  11
ATOM     11  C   UNL     1      -8.279 -64.391  -1.140  1.00  0.00     0.000 C 
BRANCH  11  12
ATOM     12  C   UNL     1      -9.332 -64.917  -0.144  1.00  0.00     0.006 C 
BRANCH  12  13
ATOM     13  C   UNL     1      -8.942 -66.225   0.562  1.00  0.00     0.053 C 
BRANCH  13  14
ATOM     14  C   UNL     1      -8.329 -65.983   1.909  1.00  0.00     0.041 C 
ATOM     15  O   UNL     1      -7.129 -65.612   2.004  1.00  0.00    -0.550 OA
ATOM     16  O   UNL     1      -9.078 -66.184   3.061  1.00  0.00    -0.550 OA
ENDBRANCH  13  14
ENDBRANCH  12  13
ENDBRANCH  11  12
ENDBRANCH  10  11
ENDBRANCH   9  10
ENDBRANCH   8   9
ENDBRANCH   7   8
ENDBRANCH   6   7
ENDBRANCH   5   6
ENDBRANCH   4   5
ENDBRANCH   3   4
ENDBRANCH   2   3
ENDBRANCH   1   2
BRANCH   1  17
ATOM     17  C   UNL     1      -5.438 -67.265  -2.240  1.00  0.00     0.000 C 
BRANCH  17  18
ATOM     18  C   UNL     1      -4.323 -66.974  -3.260  1.00  0.00     0.000 C 
BRANCH  18  19
ATOM     19  C   UNL     1      -4.339 -67.952  -4.446  1.00  0.00     0.000 C 
BRANCH  19  20
ATOM     20  C   UNL     1      -3.753 -67.340  -5.730  1.00  0.00     0.000 C 
BRANCH  20  21
ATOM     21  C   UNL     1      -4.339 -65.953  -6.050  1.00  0.00     0.000 C 
BRANCH  21  22
ATOM     22  C   UNL     1      -3.304 -64.870  -6.424  1.00  0.00    -0.000 C 
BRANCH  22  23
ATOM     23  C   UNL     1      -3.890 -63.497  -6.794  1.00  0.00    -0.000 C 
BRANCH  23  24
ATOM     24  C   UNL     1      -3.618 -63.104  -8.256  1.00  0.00    -0.000 C 
BRANCH  24  25
ATOM     25  C   UNL     1      -2.118 -63.103  -8.608  1.00  0.00    -0.000 C 
BRANCH  25  26
ATOM     26  C   UNL     1      -1.414 -61.739  -8.484  1.00  0.00    -0.000 C 
BRANCH  26  27
ATOM     27  C   UNL     1      -0.002 -61.842  -7.880  1.00  0.00    -0.000 C 
BRANCH  27  28
ATOM     28  C   UNL     1      -0.028 -61.875  -6.336  1.00  0.00    -0.000 C 
BRANCH  28  29
ATOM     29  C   UNL     1       0.332 -63.245  -5.739  1.00  0.00    -0.003 C 
ATOM     30  C   UNL     1       0.867 -64.228  -6.780  1.00  0.00     0.004 C 
ENDBRANCH  28  29
ENDBRANCH  27  28
ENDBRANCH  26  27
ENDBRANCH  25  26
ENDBRANCH  24  25
ENDBRANCH  23  24
ENDBRANCH  22  23
ENDBRANCH  21  22
ENDBRANCH  20  21
ENDBRANCH  19  20
ENDBRANCH  18  19
ENDBRANCH  17  18
ENDBRANCH   1  17
TORSDOF 26
ENDMDL
MODEL 8
REMARK VINA RESULT:    -3.950      7.475     13.808
REMARK INTER + INTRA:         -13.379
REMARK INTER:                  -8.793
REMARK INTRA:                  -4.587
REMARK UNBOUND:                -3.424
REMARK SMILES CCCCCCCCCCCCCCCCCCCCCCCCCCCC(=O)[O-]
REMARK SMILES IDX 15 1 16 2 17 3 18 4 19 5 20 6 21 7 22 8 23 9 24 10 25 11
REMARK SMILES IDX 26 12 27 13 28 14 29 15 30 16 14 17 13 18 12 19 11 20 10 21
REMARK SMILES IDX 9 22 8 23 7 24 6 25 5 26 4 27 3 28 2 29 1 30
REMARK H PARENT
REMARK Flexibility Score: inf
ROOT
ATOM      1  C   UNL     1      -4.788 -68.367  -9.163  1.00  0.00     0.000 C 
ENDROOT
BRANCH   1   2
ATOM      2  C   UNL     1      -4.679 -67.474  -7.912  1.00  0.00     0.000 C 
BRANCH   2   3
ATOM      3  C   UNL     1      -3.972 -68.172  -6.739  1.00  0.00     0.000 C 
BRANCH   3   4
ATOM      4  C   UNL     1      -3.909 -67.304  -5.469  1.00  0.00     0.000 C 
BRANCH   4   5
ATOM      5  C   UNL     1      -4.485 -67.952  -4.197  1.00  0.00     0.000 C 
BRANCH   5   6
ATOM      6  C   UNL     1      -4.684 -66.955  -3.046  1.00  0.00     0.000 C 
BRANCH   6   7
ATOM      7  C   UNL     1      -3.917 -65.651  -3.310  1.00  0.00     0.000 C 
BRANCH   7   8
ATOM      8  C   UNL     1      -4.841 -64.431  -3.453  1.00  0.00     0.000 C 
BRANCH   8   9
ATOM      9  C   UNL     1      -5.665 -64.156  -2.186  1.00  0.00     0.000 C 
BRANCH   9  10
ATOM     10  C   UNL     1      -4.749 -63.991  -0.963  1.00  0.00     0.000 C 
BRANCH  10  11
ATOM     11  C   UNL     1      -5.218 -64.825   0.249  1.00  0.00     0.000 C 
BRANCH  11  12
ATOM     12  C   UNL     1      -6.359 -65.811  -0.073  1.00  0.00     0.006 C 
BRANCH  12  13
ATOM     13  C   UNL     1      -7.578 -65.699   0.854  1.00  0.00     0.053 C 
BRANCH  13  14
ATOM     14  C   UNL     1      -8.874 -65.780   0.104  1.00  0.00     0.041 C 
ATOM     15  O   UNL     1      -9.204 -66.847  -0.480  1.00  0.00    -0.550 OA
ATOM     16  O   UNL     1      -9.710 -64.673   0.034  1.00  0.00    -0.550 OA
ENDBRANCH  13  14
ENDBRANCH  12  13
ENDBRANCH  11  12
ENDBRANCH  10  11
ENDBRANCH   9  10
ENDBRANCH   8   9
ENDBRANCH   7   8
ENDBRANCH   6   7
ENDBRANCH   5   6
ENDBRANCH   4   5
ENDBRANCH   3   4
ENDBRANCH   2   3
ENDBRANCH   1   2
BRANCH   1  17
ATOM     17  C   UNL     1      -6.211 -68.543  -9.725  1.00  0.00     0.000 C 
BRANCH  17  18
ATOM     18  C   UNL     1      -6.377 -67.944 -11.133  1.00  0.00     0.000 C 
BRANCH  18  19
ATOM     19  C   UNL     1      -7.142 -66.611 -11.120  1.00  0.00     0.000 C 
BRANCH  19  20
ATOM     20  C   UNL     1      -7.743 -66.284  -9.742  1.00  0.00     0.000 C 
BRANCH  20  21
ATOM     21  C   UNL     1      -7.199 -64.969  -9.152  1.00  0.00     0.000 C 
BRANCH  21  22
ATOM     22  C   UNL     1      -7.445 -64.774  -7.641  1.00  0.00    -0.000 C 
BRANCH  22  23
ATOM     23  C   UNL     1      -6.214 -64.344  -6.822  1.00  0.00    -0.000 C 
BRANCH  23  24
ATOM     24  C   UNL     1      -5.021 -63.939  -7.705  1.00  0.00    -0.000 C 
BRANCH  24  25
ATOM     25  C   UNL     1      -3.698 -63.849  -6.922  1.00  0.00    -0.000 C 
BRANCH  25  26
ATOM     26  C   UNL     1      -2.471 -64.450  -7.631  1.00  0.00    -0.000 C 
BRANCH  26  27
ATOM     27  C   UNL     1      -2.435 -64.144  -9.138  1.00  0.00    -0.000 C 
BRANCH  27  28
ATOM     28  C   UNL     1      -2.464 -65.428  -9.997  1.00  0.00    -0.000 C 
BRANCH  28  29
ATOM     29  C   UNL     1      -3.596 -65.452 -11.037  1.00  0.00    -0.003 C 
ATOM     30  C   UNL     1      -4.237 -64.082 -11.254  1.00  0.00     0.004 C 
ENDBRANCH  28  29
ENDBRANCH  27  28
ENDBRANCH  26  27
ENDBRANCH  25  26
ENDBRANCH  24  25
ENDBRANCH  23  24
ENDBRANCH  22  23
ENDBRANCH  21  22
ENDBRANCH  20  21
ENDBRANCH  19  20
ENDBRANCH  18  19
ENDBRANCH  17  18
ENDBRANCH   1  17
TORSDOF 26
ENDMDL
MODEL 9
REMARK VINA RESULT:    -3.920      1.496      3.065
REMARK INTER + INTRA:         -13.301
REMARK INTER:                  -9.980
REMARK INTRA:                  -3.322
REMARK UNBOUND:                -3.424
REMARK SMILES CCCCCCCCCCCCCCCCCCCCCCCCCCCC(=O)[O-]
REMARK SMILES IDX 15 1 16 2 17 3 18 4 19 5 20 6 21 7 22 8 23 9 24 10 25 11
REMARK SMILES IDX 26 12 27 13 28 14 29 15 30 16 14 17 13 18 12 19 11 20 10 21
REMARK SMILES IDX 9 22 8 23 7 24 6 25 5 26 4 27 3 28 2 29 1 30
REMARK H PARENT
REMARK Flexibility Score: inf
ROOT
ATOM      1  C   UNL     1     -10.039 -69.697   6.420  1.00  0.00     0.000 C 
ENDROOT
BRANCH   1   2
ATOM      2  C   UNL     1     -10.481 -68.400   7.125  1.00  0.00     0.000 C 
BRANCH   2   3
ATOM      3  C   UNL     1     -10.726 -67.241   6.145  1.00  0.00     0.000 C 
BRANCH   3   4
ATOM      4  C   UNL     1      -9.775 -66.051   6.368  1.00  0.00     0.000 C 
BRANCH   4   5
ATOM      5  C   UNL     1      -8.293 -66.323   6.055  1.00  0.00     0.000 C 
BRANCH   5   6
ATOM      6  C   UNL     1      -7.832 -65.708   4.725  1.00  0.00     0.000 C 
BRANCH   6   7
ATOM      7  C   UNL     1      -7.972 -66.717   3.575  1.00  0.00     0.000 C 
BRANCH   7   8
ATOM      8  C   UNL     1      -8.860 -66.202   2.432  1.00  0.00     0.000 C 
BRANCH   8   9
ATOM      9  C   UNL     1      -8.100 -66.060   1.103  1.00  0.00     0.000 C 
BRANCH   9  10
ATOM     10  C   UNL     1      -6.974 -65.022   1.226  1.00  0.00     0.000 C 
BRANCH  10  11
ATOM     11  C   UNL     1      -5.853 -65.234   0.186  1.00  0.00     0.000 C 
BRANCH  11  12
ATOM     12  C   UNL     1      -6.244 -66.172  -0.974  1.00  0.00     0.006 C 
BRANCH  12  13
ATOM     13  C   UNL     1      -5.105 -66.477  -1.958  1.00  0.00     0.053 C 
BRANCH  13  14
ATOM     14  C   UNL     1      -4.496 -65.231  -2.528  1.00  0.00     0.041 C 
ATOM     15  O   UNL     1      -3.291 -64.947  -2.291  1.00  0.00    -0.550 OA
ATOM     16  O   UNL     1      -5.262 -64.373  -3.306  1.00  0.00    -0.550 OA
ENDBRANCH  13  14
ENDBRANCH  12  13
ENDBRANCH  11  12
ENDBRANCH  10  11
ENDBRANCH   9  10
ENDBRANCH   8   9
ENDBRANCH   7   8
ENDBRANCH   6   7
ENDBRANCH   5   6
ENDBRANCH   4   5
ENDBRANCH   3   4
ENDBRANCH   2   3
ENDBRANCH   1   2
BRANCH   1  17
ATOM     17  C   UNL     1      -8.517 -69.929   6.361  1.00  0.00     0.000 C 
BRANCH  17  18
ATOM     18  C   UNL     1      -7.969 -69.945   4.924  1.00  0.00     0.000 C 
BRANCH  18  19
ATOM     19  C   UNL     1      -6.435 -69.863   4.877  1.00  0.00     0.000 C 
BRANCH  19  20
ATOM     20  C   UNL     1      -5.763 -71.247   4.909  1.00  0.00     0.000 C 
BRANCH  20  21
ATOM     21  C   UNL     1      -5.103 -71.557   6.265  1.00  0.00     0.000 C 
BRANCH  21  22
ATOM     22  C   UNL     1      -4.916 -73.056   6.579  1.00  0.00    -0.000 C 
BRANCH  22  23
ATOM     23  C   UNL     1      -5.225 -74.017   5.417  1.00  0.00    -0.000 C 
BRANCH  23  24
ATOM     24  C   UNL     1      -5.305 -75.487   5.862  1.00  0.00    -0.000 C 
BRANCH  24  25
ATOM     25  C   UNL     1      -6.535 -75.783   6.740  1.00  0.00    -0.000 C 
BRANCH  25  26
ATOM     26  C   UNL     1      -7.886 -75.782   6.002  1.00  0.00    -0.000 C 
BRANCH  26  27
ATOM     27  C   UNL     1      -8.820 -74.646   6.454  1.00  0.00    -0.000 C 
BRANCH  27  28
ATOM     28  C   UNL     1      -8.730 -73.411   5.531  1.00  0.00    -0.000 C 
BRANCH  28  29
ATOM     29  C   UNL     1     -10.062 -73.042   4.858  1.00  0.00    -0.003 C 
ATOM     30  C   UNL     1     -11.263 -73.188   5.791  1.00  0.00     0.004 C 
ENDBRANCH  28  29
ENDBRANCH  27  28
ENDBRANCH  26  27
ENDBRANCH  25  26
ENDBRANCH  24  25
ENDBRANCH  23  24
ENDBRANCH  22  23
ENDBRANCH  21  22
ENDBRANCH  20  21
ENDBRANCH  19  20
ENDBRANCH  18  19
ENDBRANCH  17  18
ENDBRANCH   1  17
TORSDOF 26
ENDMDL
