MODEL 1
REMARK VINA RESULT:    -4.048      0.000      0.000
REMARK INTER + INTRA:          -4.811
REMARK INTER:                  -4.758
REMARK INTRA:                  -0.052
REMARK UNBOUND:                -0.052
REMARK SMILES CCCCC(=O)[O-]
REMARK SMILES IDX 4 1 5 2 6 3 7 4 3 5 2 6 1 7
REMARK H PARENT
REMARK Flexibility Score: inf
ROOT
ATOM      1  C   UNL     1       0.628   7.517  20.618  1.00  0.00     0.053 C 
ENDROOT
BRANCH   1   2
ATOM      2  C   UNL     1       1.298   8.539  19.754  1.00  0.00     0.041 C 
ATOM      3  O   UNL     1       0.948   8.680  18.553  1.00  0.00    -0.550 OA
ATOM      4  O   UNL     1       2.344   9.300  20.261  1.00  0.00    -0.550 OA
ENDBRANCH   1   2
BRANCH   1   5
ATOM      5  C   UNL     1       1.583   7.028  21.710  1.00  0.00     0.006 C 
BRANCH   5   6
ATOM      6  C   UNL     1       0.820   6.688  22.995  1.00  0.00    -0.003 C 
ATOM      7  C   UNL     1      -0.690   6.753  22.772  1.00  0.00     0.004 C 
ENDBRANCH   5   6
ENDBRANCH   1   5
TORSDOF 3
ENDMDL
MODEL 2
REMARK VINA RESULT:    -3.935      2.669      3.924
REMARK INTER + INTRA:          -4.677
REMARK INTER:                  -4.644
REMARK INTRA:                  -0.033
REMARK UNBOUND:                -0.052
REMARK SMILES CCCCC(=O)[O-]
REMARK SMILES IDX 4 1 5 2 6 3 7 4 3 5 2 6 1 7
REMARK H PARENT
REMARK Flexibility Score: inf
ROOT
ATOM      1  C   UNL     1      -0.391   6.974  21.157  1.00  0.00     0.053 C 
ENDROOT
BRANCH   1   2
ATOM      2  C   UNL     1      -0.160   6.761  22.620  1.00  0.00     0.041 C 
ATOM      3  O   UNL     1      -1.133   6.743  23.419  1.00  0.00    -0.550 OA
ATOM      4  O   UNL     1       1.135   6.632  23.108  1.00  0.00    -0.550 OA
ENDBRANCH   1   2
BRANCH   1   5
ATOM      5  C   UNL     1       0.916   7.355  20.457  1.00  0.00     0.006 C 
BRANCH   5   6
ATOM      6  C   UNL     1       0.772   8.685  19.710  1.00  0.00    -0.003 C 
ATOM      7  C   UNL     1       1.246   8.560  18.264  1.00  0.00     0.004 C 
ENDBRANCH   5   6
ENDBRANCH   1   5
TORSDOF 3
ENDMDL
MODEL 3
REMARK VINA RESULT:    -3.901      1.374      1.946
REMARK INTER + INTRA:          -4.637
REMARK INTER:                  -4.603
REMARK INTRA:                  -0.034
REMARK UNBOUND:                -0.052
REMARK SMILES CCCCC(=O)[O-]
REMARK SMILES IDX 4 1 5 2 6 3 7 4 3 5 2 6 1 7
REMARK H PARENT
REMARK Flexibility Score: inf
ROOT
ATOM      1  C   UNL     1      -0.131   7.021  20.664  1.00  0.00     0.053 C 
ENDROOT
BRANCH   1   2
ATOM      2  C   UNL     1       0.256   6.973  19.219  1.00  0.00     0.041 C 
ATOM      3  O   UNL     1       0.818   7.963  18.681  1.00  0.00    -0.550 OA
ATOM      4  O   UNL     1      -0.048   5.853  18.455  1.00  0.00    -0.550 OA
ENDBRANCH   1   2
BRANCH   1   5
ATOM      5  C   UNL     1       1.115   7.009  21.554  1.00  0.00     0.006 C 
BRANCH   5   6
ATOM      6  C   UNL     1       0.748   6.680  23.006  1.00  0.00    -0.003 C 
ATOM      7  C   UNL     1      -0.763   6.733  23.218  1.00  0.00     0.004 C 
ENDBRANCH   5   6
ENDBRANCH   1   5
TORSDOF 3
ENDMDL
MODEL 4
REMARK VINA RESULT:    -3.722     16.151     16.806
REMARK INTER + INTRA:          -4.427
REMARK INTER:                  -4.368
REMARK INTRA:                  -0.059
REMARK UNBOUND:                -0.052
REMARK SMILES CCCCC(=O)[O-]
REMARK SMILES IDX 4 1 5 2 6 3 7 4 3 5 2 6 1 7
REMARK H PARENT
REMARK Flexibility Score: inf
ROOT
ATOM      1  C   UNL     1      -5.393  -3.955  10.772  1.00  0.00     0.053 C 
ENDROOT
BRANCH   1   2
ATOM      2  C   UNL     1      -4.770  -3.152  11.871  1.00  0.00     0.041 C 
ATOM      3  O   UNL     1      -4.008  -2.188  11.598  1.00  0.00    -0.550 OA
ATOM      4  O   UNL     1      -4.992  -3.501  13.198  1.00  0.00    -0.550 OA
ENDBRANCH   1   2
BRANCH   1   5
ATOM      5  C   UNL     1      -5.397  -5.443  11.130  1.00  0.00     0.006 C 
BRANCH   5   6
ATOM      6  C   UNL     1      -4.747  -6.276  10.019  1.00  0.00    -0.003 C 
ATOM      7  C   UNL     1      -3.233  -6.081   9.998  1.00  0.00     0.004 C 
ENDBRANCH   5   6
ENDBRANCH   1   5
TORSDOF 3
ENDMDL
MODEL 5
REMARK VINA RESULT:    -3.710     15.656     16.437
REMARK INTER + INTRA:          -4.413
REMARK INTER:                  -4.294
REMARK INTRA:                  -0.119
REMARK UNBOUND:                -0.052
REMARK SMILES CCCCC(=O)[O-]
REMARK SMILES IDX 4 1 5 2 6 3 7 4 3 5 2 6 1 7
REMARK H PARENT
REMARK Flexibility Score: inf
ROOT
ATOM      1  C   UNL     1      -4.507  -3.735  12.097  1.00  0.00     0.053 C 
ENDROOT
BRANCH   1   2
ATOM      2  C   UNL     1      -4.450  -4.933  11.203  1.00  0.00     0.041 C 
ATOM      3  O   UNL     1      -3.373  -5.246  10.631  1.00  0.00    -0.550 OA
ATOM      4  O   UNL     1      -5.600  -5.676  10.963  1.00  0.00    -0.550 OA
ENDBRANCH   1   2
BRANCH   1   5
ATOM      5  C   UNL     1      -5.524  -2.719  11.569  1.00  0.00     0.006 C 
BRANCH   5   6
ATOM      6  C   UNL     1      -4.933  -1.901  10.415  1.00  0.00    -0.003 C 
ATOM      7  C   UNL     1      -3.618  -1.242  10.824  1.00  0.00     0.004 C 
ENDBRANCH   5   6
ENDBRANCH   1   5
TORSDOF 3
ENDMDL
MODEL 6
REMARK VINA RESULT:    -3.702      2.293      4.059
REMARK INTER + INTRA:          -4.404
REMARK INTER:                  -4.365
REMARK INTRA:                  -0.039
REMARK UNBOUND:                -0.052
REMARK SMILES CCCCC(=O)[O-]
REMARK SMILES IDX 4 1 5 2 6 3 7 4 3 5 2 6 1 7
REMARK H PARENT
REMARK Flexibility Score: inf
ROOT
ATOM      1  C   UNL     1       0.078   7.410  20.156  1.00  0.00     0.053 C 
ENDROOT
BRANCH   1   2
ATOM      2  C   UNL     1       0.708   7.051  21.465  1.00  0.00     0.041 C 
ATOM      3  O   UNL     1       1.961   7.052  21.586  1.00  0.00    -0.550 OA
ATOM      4  O   UNL     1      -0.088   6.665  22.536  1.00  0.00    -0.550 OA
ENDBRANCH   1   2
BRANCH   1   5
ATOM      5  C   UNL     1       0.877   8.516  19.461  1.00  0.00     0.006 C 
BRANCH   5   6
ATOM      6  C   UNL     1       1.077   8.199  17.975  1.00  0.00    -0.003 C 
ATOM      7  C   UNL     1       2.038   9.190  17.324  1.00  0.00     0.004 C 
ENDBRANCH   5   6
ENDBRANCH   1   5
TORSDOF 3
ENDMDL
MODEL 7
REMARK VINA RESULT:    -3.653      2.380      4.346
REMARK INTER + INTRA:          -4.346
REMARK INTER:                  -4.328
REMARK INTRA:                  -0.017
REMARK UNBOUND:                -0.052
REMARK SMILES CCCCC(=O)[O-]
REMARK SMILES IDX 4 1 5 2 6 3 7 4 3 5 2 6 1 7
REMARK H PARENT
REMARK Flexibility Score: inf
ROOT
ATOM      1  C   UNL     1       1.110   8.634  19.556  1.00  0.00     0.053 C 
ENDROOT
BRANCH   1   2
ATOM      2  C   UNL     1       0.680   7.462  20.381  1.00  0.00     0.041 C 
ATOM      3  O   UNL     1      -0.374   6.838  20.094  1.00  0.00    -0.550 OA
ATOM      4  O   UNL     1       1.420   7.090  21.498  1.00  0.00    -0.550 OA
ENDBRANCH   1   2
BRANCH   1   5
ATOM      5  C   UNL     1       1.114   8.271  18.069  1.00  0.00     0.006 C 
BRANCH   5   6
ATOM      6  C   UNL     1       2.058   9.187  17.283  1.00  0.00    -0.003 C 
ATOM      7  C   UNL     1       1.308   9.949  16.193  1.00  0.00     0.004 C 
ENDBRANCH   5   6
ENDBRANCH   1   5
TORSDOF 3
ENDMDL
MODEL 8
REMARK VINA RESULT:    -3.617      1.593      2.076
REMARK INTER + INTRA:          -4.304
REMARK INTER:                  -4.275
REMARK INTRA:                  -0.029
REMARK UNBOUND:                -0.052
REMARK SMILES CCCCC(=O)[O-]
REMARK SMILES IDX 4 1 5 2 6 3 7 4 3 5 2 6 1 7
REMARK H PARENT
REMARK Flexibility Score: inf
ROOT
ATOM      1  C   UNL     1       0.955   8.632  19.199  1.00  0.00     0.053 C 
ENDROOT
BRANCH   1   2
ATOM      2  C   UNL     1       1.394   8.493  17.775  1.00  0.00     0.041 C 
ATOM      3  O   UNL     1       0.989   7.524  17.080  1.00  0.00    -0.550 OA
ATOM      4  O   UNL     1       2.290   9.405  17.231  1.00  0.00    -0.550 OA
ENDBRANCH   1   2
BRANCH   1   5
ATOM      5  C   UNL     1       0.290   7.341  19.685  1.00  0.00     0.006 C 
BRANCH   5   6
ATOM      6  C   UNL     1       0.763   6.979  21.097  1.00  0.00    -0.003 C 
ATOM      7  C   UNL     1      -0.419   6.813  22.048  1.00  0.00     0.004 C 
ENDBRANCH   5   6
ENDBRANCH   1   5
TORSDOF 3
ENDMDL
MODEL 9
REMARK VINA RESULT:    -3.304      2.779      3.949
REMARK INTER + INTRA:          -3.936
REMARK INTER:                  -3.911
REMARK INTRA:                  -0.025
REMARK UNBOUND:                -0.052
REMARK SMILES CCCCC(=O)[O-]
REMARK SMILES IDX 4 1 5 2 6 3 7 4 3 5 2 6 1 7
REMARK H PARENT
REMARK Flexibility Score: inf
ROOT
ATOM      1  C   UNL     1       2.148   9.229  17.452  1.00  0.00     0.053 C 
ENDROOT
BRANCH   1   2
ATOM      2  C   UNL     1       1.667   9.983  16.253  1.00  0.00     0.041 C 
ATOM      3  O   UNL     1       2.131  11.124  15.995  1.00  0.00    -0.550 OA
ATOM      4  O   UNL     1       0.669   9.446  15.449  1.00  0.00    -0.550 OA
ENDBRANCH   1   2
BRANCH   1   5
ATOM      5  C   UNL     1       1.049   8.304  17.982  1.00  0.00     0.006 C 
BRANCH   5   6
ATOM      6  C   UNL     1       0.838   8.508  19.486  1.00  0.00    -0.003 C 
ATOM      7  C   UNL     1       0.215   7.271  20.128  1.00  0.00     0.004 C 
ENDBRANCH   5   6
ENDBRANCH   1   5
TORSDOF 3
ENDMDL
