MODEL 1
REMARK VINA RESULT:    -2.975      0.000      0.000
REMARK INTER + INTRA:          -3.171
REMARK INTER:                  -3.149
REMARK INTRA:                  -0.022
REMARK UNBOUND:                -0.022
REMARK SMILES O=C([O-])[C@H]1CCC[NH2+]1
REMARK SMILES IDX 4 1 8 2 7 3 5 4 6 5 2 8 1 9 3 10
REMARK H PARENT 8 6 8 7
REMARK Flexibility Score: inf
ROOT
ATOM      1  C   UNL     1      -0.721   0.199   7.216  1.00  0.00     0.229 C 
ATOM      2  N   UNL     1      -0.733   0.640   8.613  1.00  0.00    -0.339 N 
ATOM      3  C   UNL     1      -0.325  -0.523   9.406  1.00  0.00     0.261 C 
ATOM      4  C   UNL     1       0.373  -0.852   7.104  1.00  0.00     0.077 C 
ATOM      5  C   UNL     1       0.422  -1.485   8.482  1.00  0.00     0.068 C 
ATOM      6  H   UNL     1      -0.047   1.417   8.770  1.00  0.00     0.346 HD
ATOM      7  H   UNL     1      -1.692   0.958   8.891  1.00  0.00     0.346 HD
ENDROOT
BRANCH   1   8
ATOM      8  C   UNL     1      -0.519   1.346   6.260  1.00  0.00     0.099 C 
ATOM      9  O   UNL     1       0.468   1.364   5.477  1.00  0.00    -0.544 OA
ATOM     10  O   UNL     1      -1.429   2.395   6.238  1.00  0.00    -0.544 OA
ENDBRANCH   1   8
TORSDOF 1
ENDMDL
MODEL 2
REMARK VINA RESULT:    -2.968      1.953      2.315
REMARK INTER + INTRA:          -3.163
REMARK INTER:                  -3.142
REMARK INTRA:                  -0.022
REMARK UNBOUND:                -0.022
REMARK SMILES O=C([O-])[C@H]1CCC[NH2+]1
REMARK SMILES IDX 4 1 8 2 7 3 5 4 6 5 2 8 1 9 3 10
REMARK H PARENT 8 6 8 7
REMARK Flexibility Score: inf
ROOT
ATOM      1  C   UNL     1      -0.001   1.553   7.989  1.00  0.00     0.229 C 
ATOM      2  N   UNL     1       0.452   2.771   8.664  1.00  0.00    -0.339 N 
ATOM      3  C   UNL     1       1.341   2.329   9.742  1.00  0.00     0.261 C 
ATOM      4  C   UNL     1       1.135   0.547   8.105  1.00  0.00     0.077 C 
ATOM      5  C   UNL     1       1.830   0.921   9.402  1.00  0.00     0.068 C 
ATOM      6  H   UNL     1       0.992   3.388   8.009  1.00  0.00     0.346 HD
ATOM      7  H   UNL     1      -0.363   3.303   9.052  1.00  0.00     0.346 HD
ENDROOT
BRANCH   1   8
ATOM      8  C   UNL     1      -0.399   1.810   6.558  1.00  0.00     0.099 C 
ATOM      9  O   UNL     1      -1.472   2.414   6.288  1.00  0.00    -0.544 OA
ATOM     10  O   UNL     1       0.424   1.382   5.525  1.00  0.00    -0.544 OA
ENDBRANCH   1   8
TORSDOF 1
ENDMDL
MODEL 3
REMARK VINA RESULT:    -2.964      1.470      1.848
REMARK INTER + INTRA:          -3.159
REMARK INTER:                  -3.135
REMARK INTRA:                  -0.024
REMARK UNBOUND:                -0.022
REMARK SMILES O=C([O-])[C@H]1CCC[NH2+]1
REMARK SMILES IDX 4 1 8 2 7 3 5 4 6 5 2 8 1 9 3 10
REMARK H PARENT 8 6 8 7
REMARK Flexibility Score: inf
ROOT
ATOM      1  C   UNL     1      -0.812   0.163   7.161  1.00  0.00     0.229 C 
ATOM      2  N   UNL     1       0.161  -0.916   6.975  1.00  0.00    -0.339 N 
ATOM      3  C   UNL     1      -0.532  -2.153   7.349  1.00  0.00     0.261 C 
ATOM      4  C   UNL     1      -2.181  -0.436   6.873  1.00  0.00     0.077 C 
ATOM      5  C   UNL     1      -2.036  -1.896   7.258  1.00  0.00     0.068 C 
ATOM      6  H   UNL     1       0.463  -0.985   5.973  1.00  0.00     0.346 HD
ATOM      7  H   UNL     1       1.000  -0.765   7.584  1.00  0.00     0.346 HD
ENDROOT
BRANCH   1   8
ATOM      8  C   UNL     1      -0.510   1.356   6.292  1.00  0.00     0.099 C 
ATOM      9  O   UNL     1       0.496   1.359   5.532  1.00  0.00    -0.544 OA
ATOM     10  O   UNL     1      -1.345   2.464   6.325  1.00  0.00    -0.544 OA
ENDBRANCH   1   8
TORSDOF 1
ENDMDL
MODEL 4
REMARK VINA RESULT:    -2.853     13.339     13.856
REMARK INTER + INTRA:          -3.042
REMARK INTER:                  -3.018
REMARK INTRA:                  -0.025
REMARK UNBOUND:                -0.022
REMARK SMILES O=C([O-])[C@H]1CCC[NH2+]1
REMARK SMILES IDX 4 1 8 2 7 3 5 4 6 5 2 8 1 9 3 10
REMARK H PARENT 8 6 8 7
REMARK Flexibility Score: inf
ROOT
ATOM      1  C   UNL     1      -5.999  -2.727  -4.168  1.00  0.00     0.229 C 
ATOM      2  N   UNL     1      -7.299  -2.766  -3.495  1.00  0.00    -0.339 N 
ATOM      3  C   UNL     1      -7.473  -1.449  -2.876  1.00  0.00     0.261 C 
ATOM      4  C   UNL     1      -5.788  -1.289  -4.617  1.00  0.00     0.077 C 
ATOM      5  C   UNL     1      -6.548  -0.466  -3.594  1.00  0.00     0.068 C 
ATOM      6  H   UNL     1      -8.077  -2.925  -4.181  1.00  0.00     0.346 HD
ATOM      7  H   UNL     1      -7.316  -3.521  -2.768  1.00  0.00     0.346 HD
ENDROOT
BRANCH   1   8
ATOM      8  C   UNL     1      -5.922  -3.706  -5.312  1.00  0.00     0.099 C 
ATOM      9  O   UNL     1      -4.816  -4.194  -5.666  1.00  0.00    -0.544 OA
ATOM     10  O   UNL     1      -7.080  -4.076  -5.983  1.00  0.00    -0.544 OA
ENDBRANCH   1   8
TORSDOF 1
ENDMDL
MODEL 5
REMARK VINA RESULT:    -2.732     12.817     13.641
REMARK INTER + INTRA:          -2.914
REMARK INTER:                  -2.884
REMARK INTRA:                  -0.030
REMARK UNBOUND:                -0.022
REMARK SMILES O=C([O-])[C@H]1CCC[NH2+]1
REMARK SMILES IDX 4 1 8 2 7 3 5 4 6 5 2 8 1 9 3 10
REMARK H PARENT 8 6 8 7
REMARK Flexibility Score: inf
ROOT
ATOM      1  C   UNL     1      -6.877  -1.161  -4.603  1.00  0.00     0.229 C 
ATOM      2  N   UNL     1      -5.931  -0.062  -4.810  1.00  0.00    -0.339 N 
ATOM      3  C   UNL     1      -6.271   0.956  -3.812  1.00  0.00     0.261 C 
ATOM      4  C   UNL     1      -7.205  -1.174  -3.117  1.00  0.00     0.077 C 
ATOM      5  C   UNL     1      -7.055   0.275  -2.691  1.00  0.00     0.068 C 
ATOM      6  H   UNL     1      -4.944  -0.378  -4.651  1.00  0.00     0.346 HD
ATOM      7  H   UNL     1      -6.023   0.326  -5.779  1.00  0.00     0.346 HD
ENDROOT
BRANCH   1   8
ATOM      8  C   UNL     1      -6.330  -2.480  -5.084  1.00  0.00     0.099 C 
ATOM      9  O   UNL     1      -5.193  -2.878  -4.713  1.00  0.00    -0.544 OA
ATOM     10  O   UNL     1      -7.084  -3.267  -5.945  1.00  0.00    -0.544 OA
ENDBRANCH   1   8
TORSDOF 1
ENDMDL
MODEL 6
REMARK VINA RESULT:    -2.719     11.788     11.988
REMARK INTER + INTRA:          -2.900
REMARK INTER:                  -2.877
REMARK INTRA:                  -0.024
REMARK UNBOUND:                -0.022
REMARK SMILES O=C([O-])[C@H]1CCC[NH2+]1
REMARK SMILES IDX 4 1 8 2 7 3 5 4 6 5 2 8 1 9 3 10
REMARK H PARENT 8 6 8 7
REMARK Flexibility Score: inf
ROOT
ATOM      1  C   UNL     1       6.427  -1.993  -2.650  1.00  0.00     0.229 C 
ATOM      2  N   UNL     1       4.977  -2.057  -2.847  1.00  0.00    -0.339 N 
ATOM      3  C   UNL     1       4.610  -3.467  -2.690  1.00  0.00     0.261 C 
ATOM      4  C   UNL     1       6.777  -3.094  -1.660  1.00  0.00     0.077 C 
ATOM      5  C   UNL     1       5.722  -4.158  -1.900  1.00  0.00     0.068 C 
ATOM      6  H   UNL     1       4.471  -1.491  -2.123  1.00  0.00     0.346 HD
ATOM      7  H   UNL     1       4.719  -1.713  -3.803  1.00  0.00     0.346 HD
ENDROOT
BRANCH   1   8
ATOM      8  C   UNL     1       6.877  -0.632  -2.183  1.00  0.00     0.099 C 
ATOM      9  O   UNL     1       7.315  -0.467  -1.013  1.00  0.00    -0.544 OA
ATOM     10  O   UNL     1       6.810   0.451  -3.048  1.00  0.00    -0.544 OA
ENDBRANCH   1   8
TORSDOF 1
ENDMDL
MODEL 7
REMARK VINA RESULT:    -2.698     13.271     14.043
REMARK INTER + INTRA:          -2.877
REMARK INTER:                  -2.858
REMARK INTRA:                  -0.020
REMARK UNBOUND:                -0.022
REMARK SMILES O=C([O-])[C@H]1CCC[NH2+]1
REMARK SMILES IDX 4 1 8 2 7 3 5 4 6 5 2 8 1 9 3 10
REMARK H PARENT 8 6 8 7
REMARK Flexibility Score: inf
ROOT
ATOM      1  C   UNL     1       2.945  -4.375  -5.399  1.00  0.00     0.229 C 
ATOM      2  N   UNL     1       1.497  -4.151  -5.396  1.00  0.00    -0.339 N 
ATOM      3  C   UNL     1       0.957  -4.995  -6.465  1.00  0.00     0.261 C 
ATOM      4  C   UNL     1       3.159  -5.812  -5.850  1.00  0.00     0.077 C 
ATOM      5  C   UNL     1       1.977  -6.096  -6.758  1.00  0.00     0.068 C 
ATOM      6  H   UNL     1       1.071  -4.443  -4.483  1.00  0.00     0.346 HD
ATOM      7  H   UNL     1       1.280  -3.142  -5.577  1.00  0.00     0.346 HD
ENDROOT
BRANCH   1   8
ATOM      8  C   UNL     1       3.565  -4.094  -4.054  1.00  0.00     0.099 C 
ATOM      9  O   UNL     1       4.516  -4.801  -3.624  1.00  0.00    -0.544 OA
ATOM     10  O   UNL     1       3.089  -3.044  -3.280  1.00  0.00    -0.544 OA
ENDBRANCH   1   8
TORSDOF 1
ENDMDL
MODEL 8
REMARK VINA RESULT:    -2.681     12.026     12.493
REMARK INTER + INTRA:          -2.860
REMARK INTER:                  -2.832
REMARK INTRA:                  -0.028
REMARK UNBOUND:                -0.022
REMARK SMILES O=C([O-])[C@H]1CCC[NH2+]1
REMARK SMILES IDX 4 1 8 2 7 3 5 4 6 5 2 8 1 9 3 10
REMARK H PARENT 8 6 8 7
REMARK Flexibility Score: inf
ROOT
ATOM      1  C   UNL     1       5.056  -3.094  -2.739  1.00  0.00     0.229 C 
ATOM      2  N   UNL     1       5.445  -1.684  -2.661  1.00  0.00    -0.339 N 
ATOM      3  C   UNL     1       6.739  -1.660  -1.973  1.00  0.00     0.261 C 
ATOM      4  C   UNL     1       6.346  -3.893  -2.842  1.00  0.00     0.077 C 
ATOM      5  C   UNL     1       7.365  -3.049  -2.099  1.00  0.00     0.068 C 
ATOM      6  H   UNL     1       5.561  -1.269  -3.618  1.00  0.00     0.346 HD
ATOM      7  H   UNL     1       4.732  -1.133  -2.126  1.00  0.00     0.346 HD
ENDROOT
BRANCH   1   8
ATOM      8  C   UNL     1       4.118  -3.361  -3.889  1.00  0.00     0.099 C 
ATOM      9  O   UNL     1       4.567  -3.593  -5.043  1.00  0.00    -0.544 OA
ATOM     10  O   UNL     1       2.746  -3.355  -3.677  1.00  0.00    -0.544 OA
ENDBRANCH   1   8
TORSDOF 1
ENDMDL
MODEL 9
REMARK VINA RESULT:    -2.680      2.072      3.236
REMARK INTER + INTRA:          -2.858
REMARK INTER:                  -2.836
REMARK INTRA:                  -0.023
REMARK UNBOUND:                -0.022
REMARK SMILES O=C([O-])[C@H]1CCC[NH2+]1
REMARK SMILES IDX 4 1 8 2 7 3 5 4 6 5 2 8 1 9 3 10
REMARK H PARENT 8 6 8 7
REMARK Flexibility Score: inf
ROOT
ATOM      1  C   UNL     1      -1.384   0.896   6.980  1.00  0.00     0.229 C 
ATOM      2  N   UNL     1      -2.167  -0.326   6.778  1.00  0.00    -0.339 N 
ATOM      3  C   UNL     1      -3.571   0.095   6.746  1.00  0.00     0.261 C 
ATOM      4  C   UNL     1      -2.158   2.021   6.308  1.00  0.00     0.077 C 
ATOM      5  C   UNL     1      -3.608   1.586   6.410  1.00  0.00     0.068 C 
ATOM      6  H   UNL     1      -1.928  -0.782   5.864  1.00  0.00     0.346 HD
ATOM      7  H   UNL     1      -2.003  -1.004   7.560  1.00  0.00     0.346 HD
ENDROOT
BRANCH   1   8
ATOM      8  C   UNL     1       0.020   0.764   6.450  1.00  0.00     0.099 C 
ATOM      9  O   UNL     1       0.419   1.490   5.500  1.00  0.00    -0.544 OA
ATOM     10  O   UNL     1       0.886  -0.164   7.012  1.00  0.00    -0.544 OA
ENDBRANCH   1   8
TORSDOF 1
ENDMDL
