MODEL 1
REMARK VINA RESULT:    -5.941      0.000      0.000
REMARK INTER + INTRA:          -7.604
REMARK INTER:                  -6.983
REMARK INTRA:                  -0.620
REMARK UNBOUND:                -0.620
REMARK SMILES C=C(C)[C@@H]1CC[C@@]2(CO)CC[C@]3(C)[C@@H](CC[C@@H]4[C@@]5(C)CC[C@H](O)C(C)(C)[C@H]5CC[C@@]43C)[C@@H]12
REMARK SMILES IDX 4 1 5 2 6 3 7 4 32 5 14 6 15 7 16 8 17 9 18 10 20 11 21 12
REMARK SMILES IDX 22 13 24 14 27 15 28 16 29 17 30 18 12 19 11 20 10 21 13 22
REMARK SMILES IDX 31 23 25 24 26 25 19 26 2 27 3 28 1 29 8 30 9 31 23 33
REMARK H PARENT 9 32 23 34
REMARK Flexibility Score: inf
ROOT
ATOM      1  C   UNL     1      -6.507  36.420  43.969  1.00  0.00     0.018 C 
ATOM      2  C   UNL     1      -7.398  35.423  44.757  1.00  0.00     0.009 C 
ATOM      3  C   UNL     1      -6.493  34.719  45.773  1.00  0.00     0.010 C 
ATOM      4  C   UNL     1      -5.312  35.670  46.005  1.00  0.00    -0.003 C 
ATOM      5  C   UNL     1      -5.083  36.265  44.592  1.00  0.00     0.008 C 
ATOM      6  C   UNL     1      -4.089  35.456  43.664  1.00  0.00    -0.000 C 
ATOM      7  C   UNL     1      -4.697  34.277  42.814  1.00  0.00     0.005 C 
ATOM      8  C   UNL     1      -4.016  32.898  42.877  1.00  0.00     0.005 C 
ATOM      9  C   UNL     1      -2.455  32.876  42.887  1.00  0.00     0.002 C 
ATOM     10  C   UNL     1      -1.821  31.496  43.429  1.00  0.00    -0.026 C 
ATOM     11  C   UNL     1      -2.378  30.346  42.519  1.00  0.00     0.010 C 
ATOM     12  C   UNL     1      -1.674  28.983  42.617  1.00  0.00     0.033 C 
ATOM     13  C   UNL     1      -0.173  29.017  42.967  1.00  0.00     0.120 C 
ATOM     14  C   UNL     1       0.514  30.378  42.640  1.00  0.00    -0.006 C 
ATOM     15  C   UNL     1      -0.220  31.522  43.441  1.00  0.00     0.003 C 
ATOM     16  C   UNL     1       0.374  32.915  43.168  1.00  0.00     0.005 C 
ATOM     17  C   UNL     1      -0.388  33.993  43.942  1.00  0.00     0.008 C 
ATOM     18  C   UNL     1      -1.806  34.255  43.353  1.00  0.00    -0.024 C 
ATOM     19  C   UNL     1      -2.750  35.078  44.376  1.00  0.00    -0.024 C 
ATOM     20  C   UNL     1      -3.120  34.266  45.654  1.00  0.00     0.008 C 
ATOM     21  C   UNL     1      -4.070  34.967  46.627  1.00  0.00     0.010 C 
ATOM     22  C   UNL     1      -2.027  36.388  44.839  1.00  0.00     0.012 C 
ATOM     23  C   UNL     1      -1.572  35.126  42.059  1.00  0.00     0.012 C 
ATOM     24  C   UNL     1       0.539  30.621  41.104  1.00  0.00     0.014 C 
ATOM     25  C   UNL     1       1.999  30.279  43.091  1.00  0.00     0.014 C 
ATOM     26  C   UNL     1      -2.276  31.150  44.880  1.00  0.00     0.012 C 
ENDROOT
BRANCH   1  27
ATOM     27  C   UNL     1      -6.986  37.877  43.923  1.00  0.00    -0.077 C 
ATOM     28  C   UNL     1      -6.164  38.993  43.319  1.00  0.00     0.039 C 
ATOM     29  C   UNL     1      -8.118  38.202  44.578  1.00  0.00     0.008 C 
ENDBRANCH   1  27
BRANCH   4  30
ATOM     30  C   UNL     1      -5.740  36.798  46.998  1.00  0.00     0.163 C 
BRANCH  30  31
ATOM     31  O   UNL     1      -4.962  37.957  46.824  1.00  0.00    -0.396 OA
ATOM     32  H   UNL     1      -4.191  37.708  46.252  1.00  0.00     0.210 HD
ENDBRANCH  30  31
ENDBRANCH   4  30
BRANCH  13  33
ATOM     33  O   UNL     1      -0.030  28.708  44.334  1.00  0.00    -0.393 OA
ATOM     34  H   UNL     1       0.893  28.364  44.467  1.00  0.00     0.210 HD
ENDBRANCH  13  33
TORSDOF 4
ENDMDL
MODEL 2
REMARK VINA RESULT:    -5.856      3.887      6.401
REMARK INTER + INTRA:          -7.504
REMARK INTER:                  -6.886
REMARK INTRA:                  -0.618
REMARK UNBOUND:                -0.620
REMARK SMILES C=C(C)[C@@H]1CC[C@@]2(CO)CC[C@]3(C)[C@@H](CC[C@@H]4[C@@]5(C)CC[C@H](O)C(C)(C)[C@H]5CC[C@@]43C)[C@@H]12
REMARK SMILES IDX 4 1 5 2 6 3 7 4 32 5 14 6 15 7 16 8 17 9 18 10 20 11 21 12
REMARK SMILES IDX 22 13 24 14 27 15 28 16 29 17 30 18 12 19 11 20 10 21 13 22
REMARK SMILES IDX 31 23 25 24 26 25 19 26 2 27 3 28 1 29 8 30 9 31 23 33
REMARK H PARENT 9 32 23 34
REMARK Flexibility Score: inf
ROOT
ATOM      1  C   UNL     1     -10.249  31.074  44.474  1.00  0.00     0.018 C 
ATOM      2  C   UNL     1      -9.583  29.818  43.851  1.00  0.00     0.009 C 
ATOM      3  C   UNL     1      -8.139  29.777  44.361  1.00  0.00     0.010 C 
ATOM      4  C   UNL     1      -8.140  30.573  45.672  1.00  0.00    -0.003 C 
ATOM      5  C   UNL     1      -9.139  31.718  45.364  1.00  0.00     0.008 C 
ATOM      6  C   UNL     1      -8.510  33.018  44.720  1.00  0.00    -0.000 C 
ATOM      7  C   UNL     1      -8.358  33.043  43.151  1.00  0.00     0.005 C 
ATOM      8  C   UNL     1      -6.992  33.416  42.550  1.00  0.00     0.005 C 
ATOM      9  C   UNL     1      -6.205  34.576  43.238  1.00  0.00     0.002 C 
ATOM     10  C   UNL     1      -4.630  34.597  42.892  1.00  0.00    -0.026 C 
ATOM     11  C   UNL     1      -4.504  34.702  41.333  1.00  0.00     0.010 C 
ATOM     12  C   UNL     1      -3.121  35.071  40.772  1.00  0.00     0.033 C 
ATOM     13  C   UNL     1      -2.242  35.965  41.668  1.00  0.00     0.120 C 
ATOM     14  C   UNL     1      -3.052  36.788  42.716  1.00  0.00    -0.006 C 
ATOM     15  C   UNL     1      -3.859  35.789  43.632  1.00  0.00     0.003 C 
ATOM     16  C   UNL     1      -4.712  36.510  44.691  1.00  0.00     0.005 C 
ATOM     17  C   UNL     1      -5.498  35.504  45.534  1.00  0.00     0.008 C 
ATOM     18  C   UNL     1      -6.666  34.849  44.739  1.00  0.00    -0.024 C 
ATOM     19  C   UNL     1      -7.237  33.524  45.471  1.00  0.00    -0.024 C 
ATOM     20  C   UNL     1      -6.213  32.348  45.490  1.00  0.00     0.008 C 
ATOM     21  C   UNL     1      -6.721  31.044  46.106  1.00  0.00     0.010 C 
ATOM     22  C   UNL     1      -7.612  33.850  46.956  1.00  0.00     0.012 C 
ATOM     23  C   UNL     1      -7.806  35.937  44.691  1.00  0.00     0.012 C 
ATOM     24  C   UNL     1      -3.954  37.837  42.006  1.00  0.00     0.014 C 
ATOM     25  C   UNL     1      -2.035  37.596  43.573  1.00  0.00     0.014 C 
ATOM     26  C   UNL     1      -3.905  33.276  43.291  1.00  0.00     0.012 C 
ENDROOT
BRANCH   1  27
ATOM     27  C   UNL     1     -11.566  30.845  45.228  1.00  0.00    -0.077 C 
ATOM     28  C   UNL     1     -11.929  31.595  46.491  1.00  0.00     0.039 C 
ATOM     29  C   UNL     1     -12.365  29.833  44.837  1.00  0.00     0.008 C 
ENDBRANCH   1  27
BRANCH   4  30
ATOM     30  C   UNL     1      -8.693  29.675  46.826  1.00  0.00     0.163 C 
BRANCH  30  31
ATOM     31  O   UNL     1      -8.913  30.422  47.997  1.00  0.00    -0.396 OA
ATOM     32  H   UNL     1      -8.022  30.687  48.346  1.00  0.00     0.210 HD
ENDBRANCH  30  31
ENDBRANCH   4  30
BRANCH  13  33
ATOM     33  O   UNL     1      -1.290  35.149  42.311  1.00  0.00    -0.393 OA
ATOM     34  H   UNL     1      -0.864  35.693  43.025  1.00  0.00     0.210 HD
ENDBRANCH  13  33
TORSDOF 4
ENDMDL
MODEL 3
REMARK VINA RESULT:    -5.768      4.599      8.353
REMARK INTER + INTRA:          -7.401
REMARK INTER:                  -6.897
REMARK INTRA:                  -0.503
REMARK UNBOUND:                -0.620
REMARK SMILES C=C(C)[C@@H]1CC[C@@]2(CO)CC[C@]3(C)[C@@H](CC[C@@H]4[C@@]5(C)CC[C@H](O)C(C)(C)[C@H]5CC[C@@]43C)[C@@H]12
REMARK SMILES IDX 4 1 5 2 6 3 7 4 32 5 14 6 15 7 16 8 17 9 18 10 20 11 21 12
REMARK SMILES IDX 22 13 24 14 27 15 28 16 29 17 30 18 12 19 11 20 10 21 13 22
REMARK SMILES IDX 31 23 25 24 26 25 19 26 2 27 3 28 1 29 8 30 9 31 23 33
REMARK H PARENT 9 32 23 34
REMARK Flexibility Score: inf
ROOT
ATOM      1  C   UNL     1       0.402  29.265  42.935  1.00  0.00     0.018 C 
ATOM      2  C   UNL     1      -0.465  28.823  41.727  1.00  0.00     0.009 C 
ATOM      3  C   UNL     1      -1.858  29.429  41.928  1.00  0.00     0.010 C 
ATOM      4  C   UNL     1      -1.652  30.646  42.839  1.00  0.00    -0.003 C 
ATOM      5  C   UNL     1      -0.544  30.154  43.804  1.00  0.00     0.008 C 
ATOM      6  C   UNL     1      -1.053  29.419  45.109  1.00  0.00    -0.000 C 
ATOM      7  C   UNL     1      -1.324  27.870  45.004  1.00  0.00     0.005 C 
ATOM      8  C   UNL     1      -2.675  27.325  45.497  1.00  0.00     0.005 C 
ATOM      9  C   UNL     1      -3.252  27.937  46.813  1.00  0.00     0.002 C 
ATOM     10  C   UNL     1      -4.834  27.696  47.012  1.00  0.00    -0.026 C 
ATOM     11  C   UNL     1      -5.069  26.146  46.983  1.00  0.00     0.010 C 
ATOM     12  C   UNL     1      -6.435  25.642  47.478  1.00  0.00     0.033 C 
ATOM     13  C   UNL     1      -7.120  26.495  48.564  1.00  0.00     0.120 C 
ATOM     14  C   UNL     1      -6.131  27.395  49.367  1.00  0.00    -0.006 C 
ATOM     15  C   UNL     1      -5.387  28.356  48.362  1.00  0.00     0.003 C 
ATOM     16  C   UNL     1      -4.369  29.274  49.060  1.00  0.00     0.005 C 
ATOM     17  C   UNL     1      -3.652  30.164  48.043  1.00  0.00     0.008 C 
ATOM     18  C   UNL     1      -2.643  29.368  47.164  1.00  0.00    -0.024 C 
ATOM     19  C   UNL     1      -2.188  30.195  45.851  1.00  0.00    -0.024 C 
ATOM     20  C   UNL     1      -3.347  30.406  44.830  1.00  0.00     0.008 C 
ATOM     21  C   UNL     1      -2.961  31.121  43.535  1.00  0.00     0.010 C 
ATOM     22  C   UNL     1      -1.658  31.610  46.265  1.00  0.00     0.012 C 
ATOM     23  C   UNL     1      -1.381  29.129  48.081  1.00  0.00     0.012 C 
ATOM     24  C   UNL     1      -5.163  26.520  50.213  1.00  0.00     0.014 C 
ATOM     25  C   UNL     1      -6.967  28.227  50.382  1.00  0.00     0.014 C 
ATOM     26  C   UNL     1      -5.686  28.279  45.844  1.00  0.00     0.012 C 
ENDROOT
BRANCH   1  27
ATOM     27  C   UNL     1       1.735  29.950  42.606  1.00  0.00    -0.077 C 
ATOM     28  C   UNL     1       2.320  31.057  43.455  1.00  0.00     0.039 C 
ATOM     29  C   UNL     1       2.335  29.660  41.435  1.00  0.00     0.008 C 
ENDBRANCH   1  27
BRANCH   4  30
ATOM     30  C   UNL     1      -1.127  31.849  41.990  1.00  0.00     0.163 C 
BRANCH  30  31
ATOM     31  O   UNL     1      -2.188  32.605  41.460  1.00  0.00    -0.396 OA
ATOM     32  H   UNL     1      -2.145  32.516  40.473  1.00  0.00     0.210 HD
ENDBRANCH  30  31
ENDBRANCH   4  30
BRANCH  13  33
ATOM     33  O   UNL     1      -8.113  27.282  47.947  1.00  0.00    -0.393 OA
ATOM     34  H   UNL     1      -8.751  27.566  48.655  1.00  0.00     0.210 HD
ENDBRANCH  13  33
TORSDOF 4
ENDMDL
MODEL 4
REMARK VINA RESULT:    -5.614      2.451      7.572
REMARK INTER + INTRA:          -7.219
REMARK INTER:                  -6.734
REMARK INTRA:                  -0.484
REMARK UNBOUND:                -0.620
REMARK SMILES C=C(C)[C@@H]1CC[C@@]2(CO)CC[C@]3(C)[C@@H](CC[C@@H]4[C@@]5(C)CC[C@H](O)C(C)(C)[C@H]5CC[C@@]43C)[C@@H]12
REMARK SMILES IDX 4 1 5 2 6 3 7 4 32 5 14 6 15 7 16 8 17 9 18 10 20 11 21 12
REMARK SMILES IDX 22 13 24 14 27 15 28 16 29 17 30 18 12 19 11 20 10 21 13 22
REMARK SMILES IDX 31 23 25 24 26 25 19 26 2 27 3 28 1 29 8 30 9 31 23 33
REMARK H PARENT 9 32 23 34
REMARK Flexibility Score: inf
ROOT
ATOM      1  C   UNL     1       2.032  32.898  44.795  1.00  0.00     0.018 C 
ATOM      2  C   UNL     1       1.986  31.583  45.617  1.00  0.00     0.009 C 
ATOM      3  C   UNL     1       1.012  30.641  44.902  1.00  0.00     0.010 C 
ATOM      4  C   UNL     1       0.979  31.110  43.443  1.00  0.00    -0.003 C 
ATOM      5  C   UNL     1       1.072  32.651  43.588  1.00  0.00     0.008 C 
ATOM      6  C   UNL     1      -0.309  33.407  43.733  1.00  0.00    -0.000 C 
ATOM      7  C   UNL     1      -0.907  33.541  45.185  1.00  0.00     0.005 C 
ATOM      8  C   UNL     1      -2.368  33.118  45.420  1.00  0.00     0.005 C 
ATOM      9  C   UNL     1      -3.405  33.500  44.318  1.00  0.00     0.002 C 
ATOM     10  C   UNL     1      -4.769  32.641  44.372  1.00  0.00    -0.026 C 
ATOM     11  C   UNL     1      -5.387  32.852  45.798  1.00  0.00     0.010 C 
ATOM     12  C   UNL     1      -6.846  32.411  45.994  1.00  0.00     0.033 C 
ATOM     13  C   UNL     1      -7.754  32.498  44.751  1.00  0.00     0.120 C 
ATOM     14  C   UNL     1      -7.238  33.496  43.670  1.00  0.00    -0.006 C 
ATOM     15  C   UNL     1      -5.795  33.049  43.214  1.00  0.00     0.003 C 
ATOM     16  C   UNL     1      -5.188  33.989  42.158  1.00  0.00     0.005 C 
ATOM     17  C   UNL     1      -3.779  33.533  41.769  1.00  0.00     0.008 C 
ATOM     18  C   UNL     1      -2.740  33.794  42.899  1.00  0.00    -0.024 C 
ATOM     19  C   UNL     1      -1.366  32.972  42.668  1.00  0.00    -0.024 C 
ATOM     20  C   UNL     1      -1.548  31.429  42.801  1.00  0.00     0.008 C 
ATOM     21  C   UNL     1      -0.269  30.602  42.662  1.00  0.00     0.010 C 
ATOM     22  C   UNL     1      -0.802  33.261  41.236  1.00  0.00     0.012 C 
ATOM     23  C   UNL     1      -2.428  35.339  42.838  1.00  0.00     0.012 C 
ATOM     24  C   UNL     1      -7.290  34.955  44.205  1.00  0.00     0.014 C 
ATOM     25  C   UNL     1      -8.221  33.438  42.465  1.00  0.00     0.014 C 
ATOM     26  C   UNL     1      -4.524  31.107  44.237  1.00  0.00     0.012 C 
ENDROOT
BRANCH   1  27
ATOM     27  C   UNL     1       3.422  33.388  44.366  1.00  0.00    -0.077 C 
ATOM     28  C   UNL     1       4.698  32.675  44.754  1.00  0.00     0.039 C 
ATOM     29  C   UNL     1       3.521  34.579  43.746  1.00  0.00     0.008 C 
ENDBRANCH   1  27
BRANCH   4  30
ATOM     30  C   UNL     1       2.236  30.565  42.691  1.00  0.00     0.163 C 
BRANCH  30  31
ATOM     31  O   UNL     1       2.176  29.169  42.535  1.00  0.00    -0.396 OA
ATOM     32  H   UNL     1       2.782  28.933  41.785  1.00  0.00     0.210 HD
ENDBRANCH  30  31
ENDBRANCH   4  30
BRANCH  13  33
ATOM     33  O   UNL     1      -7.885  31.205  44.207  1.00  0.00    -0.393 OA
ATOM     34  H   UNL     1      -8.491  31.272  43.422  1.00  0.00     0.210 HD
ENDBRANCH  13  33
TORSDOF 4
ENDMDL
MODEL 5
REMARK VINA RESULT:    -5.553      4.262      6.365
REMARK INTER + INTRA:          -7.147
REMARK INTER:                  -6.651
REMARK INTRA:                  -0.496
REMARK UNBOUND:                -0.620
REMARK SMILES C=C(C)[C@@H]1CC[C@@]2(CO)CC[C@]3(C)[C@@H](CC[C@@H]4[C@@]5(C)CC[C@H](O)C(C)(C)[C@H]5CC[C@@]43C)[C@@H]12
REMARK SMILES IDX 4 1 5 2 6 3 7 4 32 5 14 6 15 7 16 8 17 9 18 10 20 11 21 12
REMARK SMILES IDX 22 13 24 14 27 15 28 16 29 17 30 18 12 19 11 20 10 21 13 22
REMARK SMILES IDX 31 23 25 24 26 25 19 26 2 27 3 28 1 29 8 30 9 31 23 33
REMARK H PARENT 9 32 23 34
REMARK Flexibility Score: inf
ROOT
ATOM      1  C   UNL     1      -6.001  37.275  43.997  1.00  0.00     0.018 C 
ATOM      2  C   UNL     1      -7.403  37.938  44.034  1.00  0.00     0.009 C 
ATOM      3  C   UNL     1      -8.191  37.260  45.159  1.00  0.00     0.010 C 
ATOM      4  C   UNL     1      -7.138  36.697  46.121  1.00  0.00    -0.003 C 
ATOM      5  C   UNL     1      -6.024  36.223  45.152  1.00  0.00     0.008 C 
ATOM      6  C   UNL     1      -6.162  34.737  44.629  1.00  0.00    -0.000 C 
ATOM      7  C   UNL     1      -7.051  34.504  43.349  1.00  0.00     0.005 C 
ATOM      8  C   UNL     1      -8.144  33.422  43.400  1.00  0.00     0.005 C 
ATOM      9  C   UNL     1      -7.787  32.085  44.122  1.00  0.00     0.002 C 
ATOM     10  C   UNL     1      -9.070  31.213  44.563  1.00  0.00    -0.026 C 
ATOM     11  C   UNL     1      -9.898  30.926  43.262  1.00  0.00     0.010 C 
ATOM     12  C   UNL     1     -10.985  29.842  43.356  1.00  0.00     0.033 C 
ATOM     13  C   UNL     1     -10.718  28.699  44.356  1.00  0.00     0.120 C 
ATOM     14  C   UNL     1      -9.210  28.514  44.706  1.00  0.00    -0.006 C 
ATOM     15  C   UNL     1      -8.661  29.861  45.317  1.00  0.00     0.003 C 
ATOM     16  C   UNL     1      -7.167  29.786  45.676  1.00  0.00     0.005 C 
ATOM     17  C   UNL     1      -6.674  31.122  46.236  1.00  0.00     0.008 C 
ATOM     18  C   UNL     1      -6.566  32.221  45.139  1.00  0.00    -0.024 C 
ATOM     19  C   UNL     1      -6.438  33.705  45.769  1.00  0.00    -0.024 C 
ATOM     20  C   UNL     1      -7.731  34.168  46.508  1.00  0.00     0.008 C 
ATOM     21  C   UNL     1      -7.695  35.592  47.065  1.00  0.00     0.010 C 
ATOM     22  C   UNL     1      -5.260  33.750  46.800  1.00  0.00     0.012 C 
ATOM     23  C   UNL     1      -5.249  31.891  44.337  1.00  0.00     0.012 C 
ATOM     24  C   UNL     1      -8.416  28.036  43.457  1.00  0.00     0.014 C 
ATOM     25  C   UNL     1      -9.104  27.369  45.754  1.00  0.00     0.014 C 
ATOM     26  C   UNL     1     -10.030  31.987  45.517  1.00  0.00     0.012 C 
ENDROOT
BRANCH   1  27
ATOM     27  C   UNL     1      -4.795  38.222  44.072  1.00  0.00    -0.077 C 
ATOM     28  C   UNL     1      -3.410  37.756  44.460  1.00  0.00     0.039 C 
ATOM     29  C   UNL     1      -5.007  39.545  43.932  1.00  0.00     0.008 C 
ENDBRANCH   1  27
BRANCH   4  30
ATOM     30  C   UNL     1      -6.600  37.845  47.035  1.00  0.00     0.163 C 
BRANCH  30  31
ATOM     31  O   UNL     1      -7.598  38.800  47.302  1.00  0.00    -0.396 OA
ATOM     32  H   UNL     1      -7.926  38.629  48.222  1.00  0.00     0.210 HD
ENDBRANCH  30  31
ENDBRANCH   4  30
BRANCH  13  33
ATOM     33  O   UNL     1     -11.468  28.948  45.523  1.00  0.00    -0.393 OA
ATOM     34  H   UNL     1     -10.873  29.418  46.165  1.00  0.00     0.210 HD
ENDBRANCH  13  33
TORSDOF 4
ENDMDL
MODEL 6
REMARK VINA RESULT:    -5.464     11.114     14.802
REMARK INTER + INTRA:          -7.042
REMARK INTER:                  -6.488
REMARK INTRA:                  -0.554
REMARK UNBOUND:                -0.620
REMARK SMILES C=C(C)[C@@H]1CC[C@@]2(CO)CC[C@]3(C)[C@@H](CC[C@@H]4[C@@]5(C)CC[C@H](O)C(C)(C)[C@H]5CC[C@@]43C)[C@@H]12
REMARK SMILES IDX 4 1 5 2 6 3 7 4 32 5 14 6 15 7 16 8 17 9 18 10 20 11 21 12
REMARK SMILES IDX 22 13 24 14 27 15 28 16 29 17 30 18 12 19 11 20 10 21 13 22
REMARK SMILES IDX 31 23 25 24 26 25 19 26 2 27 3 28 1 29 8 30 9 31 23 33
REMARK H PARENT 9 32 23 34
REMARK Flexibility Score: inf
ROOT
ATOM      1  C   UNL     1      -7.466  26.313  50.761  1.00  0.00     0.018 C 
ATOM      2  C   UNL     1      -5.955  26.283  51.111  1.00  0.00     0.009 C 
ATOM      3  C   UNL     1      -5.850  26.177  52.636  1.00  0.00     0.010 C 
ATOM      4  C   UNL     1      -7.171  25.552  53.099  1.00  0.00    -0.003 C 
ATOM      5  C   UNL     1      -8.199  26.198  52.135  1.00  0.00     0.008 C 
ATOM      6  C   UNL     1      -8.821  27.569  52.619  1.00  0.00    -0.000 C 
ATOM      7  C   UNL     1      -8.023  28.883  52.273  1.00  0.00     0.005 C 
ATOM      8  C   UNL     1      -7.726  29.882  53.405  1.00  0.00     0.005 C 
ATOM      9  C   UNL     1      -8.862  30.137  54.445  1.00  0.00     0.002 C 
ATOM     10  C   UNL     1      -8.351  30.786  55.831  1.00  0.00    -0.026 C 
ATOM     11  C   UNL     1      -7.630  32.131  55.470  1.00  0.00     0.010 C 
ATOM     12  C   UNL     1      -7.345  33.098  56.630  1.00  0.00     0.033 C 
ATOM     13  C   UNL     1      -8.343  33.062  57.805  1.00  0.00     0.120 C 
ATOM     14  C   UNL     1      -9.738  32.480  57.421  1.00  0.00    -0.006 C 
ATOM     15  C   UNL     1      -9.544  31.013  56.875  1.00  0.00     0.003 C 
ATOM     16  C   UNL     1     -10.868  30.357  56.447  1.00  0.00     0.005 C 
ATOM     17  C   UNL     1     -10.627  28.950  55.898  1.00  0.00     0.008 C 
ATOM     18  C   UNL     1      -9.945  28.969  54.498  1.00  0.00    -0.024 C 
ATOM     19  C   UNL     1      -9.333  27.528  54.095  1.00  0.00    -0.024 C 
ATOM     20  C   UNL     1      -8.128  27.104  54.990  1.00  0.00     0.008 C 
ATOM     21  C   UNL     1      -7.462  25.781  54.612  1.00  0.00     0.010 C 
ATOM     22  C   UNL     1     -10.434  26.421  54.226  1.00  0.00     0.012 C 
ATOM     23  C   UNL     1     -11.088  29.343  53.477  1.00  0.00     0.012 C 
ATOM     24  C   UNL     1     -10.463  33.420  56.417  1.00  0.00     0.014 C 
ATOM     25  C   UNL     1     -10.612  32.459  58.708  1.00  0.00     0.014 C 
ATOM     26  C   UNL     1      -7.283  29.909  56.552  1.00  0.00     0.012 C 
ENDROOT
BRANCH   1  27
ATOM     27  C   UNL     1      -7.950  25.281  49.734  1.00  0.00    -0.077 C 
ATOM     28  C   UNL     1      -7.235  25.027  48.426  1.00  0.00     0.039 C 
ATOM     29  C   UNL     1      -9.140  24.682  49.935  1.00  0.00     0.008 C 
ENDBRANCH   1  27
BRANCH   4  30
ATOM     30  C   UNL     1      -7.123  24.006  52.875  1.00  0.00     0.163 C 
BRANCH  30  31
ATOM     31  O   UNL     1      -8.342  23.398  53.227  1.00  0.00    -0.396 OA
ATOM     32  H   UNL     1      -8.175  22.865  54.047  1.00  0.00     0.210 HD
ENDBRANCH  30  31
ENDBRANCH   4  30
BRANCH  13  33
ATOM     33  O   UNL     1      -7.767  32.314  58.851  1.00  0.00    -0.393 OA
ATOM     34  H   UNL     1      -7.239  32.942  59.411  1.00  0.00     0.210 HD
ENDBRANCH  13  33
TORSDOF 4
ENDMDL
MODEL 7
REMARK VINA RESULT:    -5.454      2.538      8.268
REMARK INTER + INTRA:          -7.031
REMARK INTER:                  -6.505
REMARK INTRA:                  -0.526
REMARK UNBOUND:                -0.620
REMARK SMILES C=C(C)[C@@H]1CC[C@@]2(CO)CC[C@]3(C)[C@@H](CC[C@@H]4[C@@]5(C)CC[C@H](O)C(C)(C)[C@H]5CC[C@@]43C)[C@@H]12
REMARK SMILES IDX 4 1 5 2 6 3 7 4 32 5 14 6 15 7 16 8 17 9 18 10 20 11 21 12
REMARK SMILES IDX 22 13 24 14 27 15 28 16 29 17 30 18 12 19 11 20 10 21 13 22
REMARK SMILES IDX 31 23 25 24 26 25 19 26 2 27 3 28 1 29 8 30 9 31 23 33
REMARK H PARENT 9 32 23 34
REMARK Flexibility Score: inf
ROOT
ATOM      1  C   UNL     1      -0.102  30.083  42.302  1.00  0.00     0.018 C 
ATOM      2  C   UNL     1       0.557  31.485  42.402  1.00  0.00     0.009 C 
ATOM      3  C   UNL     1       0.366  31.968  43.844  1.00  0.00     0.010 C 
ATOM      4  C   UNL     1       0.181  30.699  44.685  1.00  0.00    -0.003 C 
ATOM      5  C   UNL     1      -0.645  29.791  43.737  1.00  0.00     0.008 C 
ATOM      6  C   UNL     1      -2.216  29.943  43.844  1.00  0.00    -0.000 C 
ATOM      7  C   UNL     1      -2.891  31.069  42.973  1.00  0.00     0.005 C 
ATOM      8  C   UNL     1      -3.852  32.054  43.662  1.00  0.00     0.005 C 
ATOM      9  C   UNL     1      -4.829  31.466  44.728  1.00  0.00     0.002 C 
ATOM     10  C   UNL     1      -5.446  32.567  45.733  1.00  0.00    -0.026 C 
ATOM     11  C   UNL     1      -6.180  33.634  44.849  1.00  0.00     0.010 C 
ATOM     12  C   UNL     1      -7.126  34.604  45.576  1.00  0.00     0.033 C 
ATOM     13  C   UNL     1      -7.818  34.057  46.841  1.00  0.00     0.120 C 
ATOM     14  C   UNL     1      -7.891  32.500  46.889  1.00  0.00    -0.006 C 
ATOM     15  C   UNL     1      -6.426  31.920  46.821  1.00  0.00     0.003 C 
ATOM     16  C   UNL     1      -6.393  30.382  46.840  1.00  0.00     0.005 C 
ATOM     17  C   UNL     1      -4.956  29.866  46.743  1.00  0.00     0.008 C 
ATOM     18  C   UNL     1      -4.349  30.067  45.323  1.00  0.00    -0.024 C 
ATOM     19  C   UNL     1      -2.740  29.902  45.315  1.00  0.00    -0.024 C 
ATOM     20  C   UNL     1      -2.007  31.033  46.099  1.00  0.00     0.008 C 
ATOM     21  C   UNL     1      -0.479  30.970  46.068  1.00  0.00     0.010 C 
ATOM     22  C   UNL     1      -2.338  28.536  45.967  1.00  0.00     0.012 C 
ATOM     23  C   UNL     1      -4.984  28.934  44.428  1.00  0.00     0.012 C 
ATOM     24  C   UNL     1      -8.818  31.963  45.761  1.00  0.00     0.014 C 
ATOM     25  C   UNL     1      -8.563  32.099  48.234  1.00  0.00     0.014 C 
ATOM     26  C   UNL     1      -4.350  33.346  46.521  1.00  0.00     0.012 C 
ENDROOT
BRANCH   1  27
ATOM     27  C   UNL     1       0.778  28.953  41.751  1.00  0.00    -0.077 C 
ATOM     28  C   UNL     1       2.235  29.146  41.397  1.00  0.00     0.039 C 
ATOM     29  C   UNL     1       0.194  27.782  41.430  1.00  0.00     0.008 C 
ENDBRANCH   1  27
BRANCH   4  30
ATOM     30  C   UNL     1       1.575  30.052  44.966  1.00  0.00     0.163 C 
BRANCH  30  31
ATOM     31  O   UNL     1       1.459  28.917  45.788  1.00  0.00    -0.396 OA
ATOM     32  H   UNL     1       1.790  28.142  45.265  1.00  0.00     0.210 HD
ENDBRANCH  30  31
ENDBRANCH   4  30
BRANCH  13  33
ATOM     33  O   UNL     1      -7.135  34.553  47.969  1.00  0.00    -0.393 OA
ATOM     34  H   UNL     1      -7.514  34.102  48.769  1.00  0.00     0.210 HD
ENDBRANCH  13  33
TORSDOF 4
ENDMDL
MODEL 8
REMARK VINA RESULT:    -5.368      1.384      7.997
REMARK INTER + INTRA:          -6.929
REMARK INTER:                  -6.305
REMARK INTRA:                  -0.624
REMARK UNBOUND:                -0.620
REMARK SMILES C=C(C)[C@@H]1CC[C@@]2(CO)CC[C@]3(C)[C@@H](CC[C@@H]4[C@@]5(C)CC[C@H](O)C(C)(C)[C@H]5CC[C@@]43C)[C@@H]12
REMARK SMILES IDX 4 1 5 2 6 3 7 4 32 5 14 6 15 7 16 8 17 9 18 10 20 11 21 12
REMARK SMILES IDX 22 13 24 14 27 15 28 16 29 17 30 18 12 19 11 20 10 21 13 22
REMARK SMILES IDX 31 23 25 24 26 25 19 26 2 27 3 28 1 29 8 30 9 31 23 33
REMARK H PARENT 9 32 23 34
REMARK Flexibility Score: inf
ROOT
ATOM      1  C   UNL     1      -0.625  31.554  42.869  1.00  0.00     0.018 C 
ATOM      2  C   UNL     1       0.467  32.113  43.819  1.00  0.00     0.009 C 
ATOM      3  C   UNL     1      -0.206  32.373  45.171  1.00  0.00     0.010 C 
ATOM      4  C   UNL     1      -1.429  31.449  45.209  1.00  0.00    -0.003 C 
ATOM      5  C   UNL     1      -1.920  31.488  43.739  1.00  0.00     0.008 C 
ATOM      6  C   UNL     1      -2.952  32.636  43.395  1.00  0.00    -0.000 C 
ATOM      7  C   UNL     1      -2.360  34.039  42.990  1.00  0.00     0.005 C 
ATOM      8  C   UNL     1      -2.883  35.294  43.710  1.00  0.00     0.005 C 
ATOM      9  C   UNL     1      -4.415  35.362  43.999  1.00  0.00     0.002 C 
ATOM     10  C   UNL     1      -4.823  36.421  45.145  1.00  0.00    -0.026 C 
ATOM     11  C   UNL     1      -4.292  37.823  44.683  1.00  0.00     0.010 C 
ATOM     12  C   UNL     1      -4.834  39.051  45.432  1.00  0.00     0.033 C 
ATOM     13  C   UNL     1      -6.264  38.926  45.995  1.00  0.00     0.120 C 
ATOM     14  C   UNL     1      -7.124  37.838  45.281  1.00  0.00    -0.006 C 
ATOM     15  C   UNL     1      -6.399  36.444  45.423  1.00  0.00     0.003 C 
ATOM     16  C   UNL     1      -7.163  35.304  44.729  1.00  0.00     0.005 C 
ATOM     17  C   UNL     1      -6.408  33.980  44.867  1.00  0.00     0.008 C 
ATOM     18  C   UNL     1      -5.125  33.934  43.987  1.00  0.00    -0.024 C 
ATOM     19  C   UNL     1      -4.129  32.735  44.419  1.00  0.00    -0.024 C 
ATOM     20  C   UNL     1      -3.497  32.944  45.829  1.00  0.00     0.008 C 
ATOM     21  C   UNL     1      -2.491  31.878  46.264  1.00  0.00     0.010 C 
ATOM     22  C   UNL     1      -4.904  31.375  44.444  1.00  0.00     0.012 C 
ATOM     23  C   UNL     1      -5.630  33.673  42.516  1.00  0.00     0.012 C 
ATOM     24  C   UNL     1      -7.397  38.243  43.805  1.00  0.00     0.014 C 
ATOM     25  C   UNL     1      -8.510  37.794  45.985  1.00  0.00     0.014 C 
ATOM     26  C   UNL     1      -4.129  36.131  46.511  1.00  0.00     0.012 C 
ENDROOT
BRANCH   1  27
ATOM     27  C   UNL     1      -0.305  30.227  42.168  1.00  0.00    -0.077 C 
ATOM     28  C   UNL     1      -1.360  29.189  41.855  1.00  0.00     0.039 C 
ATOM     29  C   UNL     1       0.986  29.907  41.954  1.00  0.00     0.008 C 
ENDBRANCH   1  27
BRANCH   4  30
ATOM     30  C   UNL     1      -0.977  30.001  45.584  1.00  0.00     0.163 C 
BRANCH  30  31
ATOM     31  O   UNL     1      -1.984  29.060  45.306  1.00  0.00    -0.396 OA
ATOM     32  H   UNL     1      -2.601  29.478  44.651  1.00  0.00     0.210 HD
ENDBRANCH  30  31
ENDBRANCH   4  30
BRANCH  13  33
ATOM     33  O   UNL     1      -6.174  38.656  47.376  1.00  0.00    -0.393 OA
ATOM     34  H   UNL     1      -5.687  37.797  47.480  1.00  0.00     0.210 HD
ENDBRANCH  13  33
TORSDOF 4
ENDMDL
MODEL 9
REMARK VINA RESULT:    -5.356      4.773      8.160
REMARK INTER + INTRA:          -6.915
REMARK INTER:                  -6.310
REMARK INTRA:                  -0.606
REMARK UNBOUND:                -0.620
REMARK SMILES C=C(C)[C@@H]1CC[C@@]2(CO)CC[C@]3(C)[C@@H](CC[C@@H]4[C@@]5(C)CC[C@H](O)C(C)(C)[C@H]5CC[C@@]43C)[C@@H]12
REMARK SMILES IDX 4 1 5 2 6 3 7 4 32 5 14 6 15 7 16 8 17 9 18 10 20 11 21 12
REMARK SMILES IDX 22 13 24 14 27 15 28 16 29 17 30 18 12 19 11 20 10 21 13 22
REMARK SMILES IDX 31 23 25 24 26 25 19 26 2 27 3 28 1 29 8 30 9 31 23 33
REMARK H PARENT 9 32 23 34
REMARK Flexibility Score: inf
ROOT
ATOM      1  C   UNL     1       0.527  29.288  42.476  1.00  0.00     0.018 C 
ATOM      2  C   UNL     1      -0.519  28.477  43.286  1.00  0.00     0.009 C 
ATOM      3  C   UNL     1      -1.156  29.443  44.290  1.00  0.00     0.010 C 
ATOM      4  C   UNL     1      -0.967  30.843  43.694  1.00  0.00    -0.003 C 
ATOM      5  C   UNL     1       0.437  30.740  43.044  1.00  0.00     0.008 C 
ATOM      6  C   UNL     1       1.653  31.111  43.984  1.00  0.00    -0.000 C 
ATOM      7  C   UNL     1       2.243  29.960  44.885  1.00  0.00     0.005 C 
ATOM      8  C   UNL     1       2.423  30.224  46.390  1.00  0.00     0.005 C 
ATOM      9  C   UNL     1       2.955  31.631  46.807  1.00  0.00     0.002 C 
ATOM     10  C   UNL     1       2.669  32.013  48.347  1.00  0.00    -0.026 C 
ATOM     11  C   UNL     1       3.333  30.897  49.227  1.00  0.00     0.010 C 
ATOM     12  C   UNL     1       3.489  31.197  50.727  1.00  0.00     0.033 C 
ATOM     13  C   UNL     1       3.681  32.679  51.106  1.00  0.00     0.120 C 
ATOM     14  C   UNL     1       4.221  33.558  49.937  1.00  0.00    -0.006 C 
ATOM     15  C   UNL     1       3.213  33.470  48.727  1.00  0.00     0.003 C 
ATOM     16  C   UNL     1       3.672  34.292  47.510  1.00  0.00     0.005 C 
ATOM     17  C   UNL     1       2.679  34.152  46.353  1.00  0.00     0.008 C 
ATOM     18  C   UNL     1       2.739  32.746  45.687  1.00  0.00    -0.024 C 
ATOM     19  C   UNL     1       1.451  32.455  44.754  1.00  0.00    -0.024 C 
ATOM     20  C   UNL     1       0.125  32.328  45.565  1.00  0.00     0.008 C 
ATOM     21  C   UNL     1      -1.118  31.983  44.744  1.00  0.00     0.010 C 
ATOM     22  C   UNL     1       1.264  33.617  43.720  1.00  0.00     0.012 C 
ATOM     23  C   UNL     1       4.032  32.761  44.784  1.00  0.00     0.012 C 
ATOM     24  C   UNL     1       5.670  33.135  49.562  1.00  0.00     0.014 C 
ATOM     25  C   UNL     1       4.313  35.024  50.450  1.00  0.00     0.014 C 
ATOM     26  C   UNL     1       1.152  31.991  48.704  1.00  0.00     0.012 C 
ENDROOT
BRANCH   1  27
ATOM     27  C   UNL     1       0.400  29.233  40.947  1.00  0.00    -0.077 C 
ATOM     28  C   UNL     1      -0.080  28.004  40.208  1.00  0.00     0.039 C 
ATOM     29  C   UNL     1       0.875  30.266  40.224  1.00  0.00     0.008 C 
ENDBRANCH   1  27
BRANCH   4  30
ATOM     30  C   UNL     1      -2.050  31.092  42.595  1.00  0.00     0.163 C 
BRANCH  30  31
ATOM     31  O   UNL     1      -1.682  32.148  41.742  1.00  0.00    -0.396 OA
ATOM     32  H   UNL     1      -2.494  32.411  41.236  1.00  0.00     0.210 HD
ENDBRANCH  30  31
ENDBRANCH   4  30
BRANCH  13  33
ATOM     33  O   UNL     1       2.448  33.180  51.570  1.00  0.00    -0.393 OA
ATOM     34  H   UNL     1       2.426  33.049  52.555  1.00  0.00     0.210 HD
ENDBRANCH  13  33
TORSDOF 4
ENDMDL
