MODEL 1
REMARK VINA RESULT:     1.018      0.000      0.000
REMARK INTER + INTRA:           1.461
REMARK INTER:                   1.226
REMARK INTRA:                   0.234
REMARK UNBOUND:                 0.234
REMARK SMILES O=c1c(O)c(-c2ccc(O)c(O)c2)oc2cc(O)cc(O)c12
REMARK SMILES IDX 5 1 3 2 2 3 1 4 22 5 20 6 19 7 17 8 16 9 15 10 14 11 6 12
REMARK SMILES IDX 7 13 8 14 9 15 13 16 11 17 10 18 12 20 4 22 21 24 18 26
REMARK H PARENT 10 19 12 21 4 23 21 25 18 27
REMARK Flexibility Score: inf
ROOT
ATOM      1  C   UNL     1      41.175  11.171  11.360  1.00  0.00     0.180 A 
ATOM      2  C   UNL     1      40.033  10.725  12.053  1.00  0.00     0.208 A 
ATOM      3  C   UNL     1      39.827   9.344  12.203  1.00  0.00     0.238 A 
ATOM      4  O   UNL     1      38.813   8.933  12.830  1.00  0.00    -0.285 OA
ATOM      5  C   UNL     1      40.749   8.438  11.643  1.00  0.00     0.111 A 
ATOM      6  C   UNL     1      40.612   7.032  11.744  1.00  0.00     0.134 A 
ATOM      7  C   UNL     1      41.570   6.195  11.151  1.00  0.00     0.093 A 
ATOM      8  C   UNL     1      42.657   6.734  10.460  1.00  0.00     0.123 A 
ATOM      9  C   UNL     1      42.797   8.121  10.356  1.00  0.00     0.094 A 
ATOM     10  C   UNL     1      41.856   8.973  10.942  1.00  0.00     0.146 A 
ATOM     11  O   UNL     1      42.016  10.286  10.833  1.00  0.00    -0.452 OA
ENDROOT
BRANCH   1  12
ATOM     12  C   UNL     1      41.472  12.610  11.178  1.00  0.00     0.025 A 
ATOM     13  C   UNL     1      42.207  13.027  10.057  1.00  0.00     0.016 A 
ATOM     14  C   UNL     1      42.517  14.378   9.875  1.00  0.00     0.051 A 
ATOM     15  C   UNL     1      42.109  15.328  10.820  1.00  0.00     0.157 A 
ATOM     16  C   UNL     1      41.083  13.566  12.134  1.00  0.00     0.062 A 
ATOM     17  C   UNL     1      41.395  14.921  11.953  1.00  0.00     0.158 A 
BRANCH  15  18
ATOM     18  O   UNL     1      42.414  16.677  10.641  1.00  0.00    -0.504 OA
ATOM     19  H   UNL     1      43.288  17.070  10.970  1.00  0.00     0.293 HD
ENDBRANCH  15  18
BRANCH  17  20
ATOM     20  O   UNL     1      41.002  15.868  12.898  1.00  0.00    -0.504 OA
ATOM     21  H   UNL     1      41.583  16.093  13.697  1.00  0.00     0.293 HD
ENDBRANCH  17  20
ENDBRANCH   1  12
BRANCH   2  22
ATOM     22  O   UNL     1      39.107  11.644  12.556  1.00  0.00    -0.502 OA
ATOM     23  H   UNL     1      38.510  12.197  11.954  1.00  0.00     0.293 HD
ENDBRANCH   2  22
BRANCH   6  24
ATOM     24  O   UNL     1      39.537   6.462  12.428  1.00  0.00    -0.507 OA
ATOM     25  H   UNL     1      39.190   6.853  13.295  1.00  0.00     0.293 HD
ENDBRANCH   6  24
BRANCH   8  26
ATOM     26  O   UNL     1      43.592   5.881   9.879  1.00  0.00    -0.508 OA
ATOM     27  H   UNL     1      43.743   4.942  10.229  1.00  0.00     0.293 HD
ENDBRANCH   8  26
TORSDOF 6
ENDMDL
MODEL 2
REMARK VINA RESULT:     2.663      1.017      1.070
REMARK INTER + INTRA:           3.443
REMARK INTER:                   3.750
REMARK INTRA:                  -0.307
REMARK UNBOUND:                 0.234
REMARK SMILES O=c1c(O)c(-c2ccc(O)c(O)c2)oc2cc(O)cc(O)c12
REMARK SMILES IDX 5 1 3 2 2 3 1 4 22 5 20 6 19 7 17 8 16 9 15 10 14 11 6 12
REMARK SMILES IDX 7 13 8 14 9 15 13 16 11 17 10 18 12 20 4 22 21 24 18 26
REMARK H PARENT 10 19 12 21 4 23 21 25 18 27
REMARK Flexibility Score: inf
ROOT
ATOM      1  C   UNL     1      41.111  11.850  11.277  1.00  0.00     0.180 A 
ATOM      2  C   UNL     1      39.997  11.251  11.897  1.00  0.00     0.208 A 
ATOM      3  C   UNL     1      39.958   9.853  12.018  1.00  0.00     0.238 A 
ATOM      4  O   UNL     1      38.971   9.307  12.580  1.00  0.00    -0.285 OA
ATOM      5  C   UNL     1      41.017   9.080  11.501  1.00  0.00     0.111 A 
ATOM      6  C   UNL     1      41.053   7.667  11.578  1.00  0.00     0.134 A 
ATOM      7  C   UNL     1      42.141   6.967  11.032  1.00  0.00     0.093 A 
ATOM      8  C   UNL     1      43.188   7.651  10.411  1.00  0.00     0.123 A 
ATOM      9  C   UNL     1      43.158   9.047  10.333  1.00  0.00     0.094 A 
ATOM     10  C   UNL     1      42.086   9.763  10.873  1.00  0.00     0.146 A 
ATOM     11  O   UNL     1      42.085  11.088  10.789  1.00  0.00    -0.452 OA
ENDROOT
BRANCH   1  12
ATOM     12  C   UNL     1      41.234  13.318  11.130  1.00  0.00     0.025 A 
ATOM     13  C   UNL     1      40.613  13.958  10.045  1.00  0.00     0.016 A 
ATOM     14  C   UNL     1      40.733  15.340   9.875  1.00  0.00     0.051 A 
ATOM     15  C   UNL     1      41.488  16.099  10.778  1.00  0.00     0.157 A 
ATOM     16  C   UNL     1      42.008  14.082  12.022  1.00  0.00     0.062 A 
ATOM     17  C   UNL     1      42.131  15.468  11.851  1.00  0.00     0.158 A 
BRANCH  15  18
ATOM     18  O   UNL     1      41.609  17.478  10.613  1.00  0.00    -0.504 OA
ATOM     19  H   UNL     1      41.296  18.127  11.325  1.00  0.00     0.293 HD
ENDBRANCH  15  18
BRANCH  17  20
ATOM     20  O   UNL     1      42.892  16.225  12.740  1.00  0.00    -0.504 OA
ATOM     21  H   UNL     1      42.685  17.201  12.918  1.00  0.00     0.293 HD
ENDBRANCH  17  20
ENDBRANCH   1  12
BRANCH   2  22
ATOM     22  O   UNL     1      38.936  12.038  12.356  1.00  0.00    -0.502 OA
ATOM     23  H   UNL     1      38.999  13.046  12.424  1.00  0.00     0.293 HD
ENDBRANCH   2  22
BRANCH   6  24
ATOM     24  O   UNL     1      40.022   6.954  12.191  1.00  0.00    -0.507 OA
ATOM     25  H   UNL     1      39.956   5.946  12.121  1.00  0.00     0.293 HD
ENDBRANCH   6  24
BRANCH   8  26
ATOM     26  O   UNL     1      44.255   6.933   9.875  1.00  0.00    -0.508 OA
ATOM     27  H   UNL     1      44.110   6.065   9.374  1.00  0.00     0.293 HD
ENDBRANCH   8  26
TORSDOF 6
ENDMDL
MODEL 3
REMARK VINA RESULT:     2.993      1.461      3.062
REMARK INTER + INTRA:           3.839
REMARK INTER:                   4.157
REMARK INTRA:                  -0.318
REMARK UNBOUND:                 0.234
REMARK SMILES O=c1c(O)c(-c2ccc(O)c(O)c2)oc2cc(O)cc(O)c12
REMARK SMILES IDX 5 1 3 2 2 3 1 4 22 5 20 6 19 7 17 8 16 9 15 10 14 11 6 12
REMARK SMILES IDX 7 13 8 14 9 15 13 16 11 17 10 18 12 20 4 22 21 24 18 26
REMARK H PARENT 10 19 12 21 4 23 21 25 18 27
REMARK Flexibility Score: inf
ROOT
ATOM      1  C   UNL     1      41.596  12.204  11.040  1.00  0.00     0.180 A 
ATOM      2  C   UNL     1      42.683  11.516  10.467  1.00  0.00     0.208 A 
ATOM      3  C   UNL     1      42.707  10.114  10.529  1.00  0.00     0.238 A 
ATOM      4  O   UNL     1      43.671   9.488  10.010  1.00  0.00    -0.285 OA
ATOM      5  C   UNL     1      41.661   9.427  11.176  1.00  0.00     0.111 A 
ATOM      6  C   UNL     1      41.612   8.016  11.285  1.00  0.00     0.134 A 
ATOM      7  C   UNL     1      40.539   7.407  11.954  1.00  0.00     0.093 A 
ATOM      8  C   UNL     1      39.519   8.178  12.514  1.00  0.00     0.123 A 
ATOM      9  C   UNL     1      39.561   9.571  12.409  1.00  0.00     0.094 A 
ATOM     10  C   UNL     1      40.620  10.198  11.745  1.00  0.00     0.146 A 
ATOM     11  O   UNL     1      40.633  11.523  11.655  1.00  0.00    -0.452 OA
ENDROOT
BRANCH   1  12
ATOM     12  C   UNL     1      41.488  13.680  10.999  1.00  0.00     0.025 A 
ATOM     13  C   UNL     1      40.791  14.292   9.946  1.00  0.00     0.016 A 
ATOM     14  C   UNL     1      40.693  15.685   9.875  1.00  0.00     0.051 A 
ATOM     15  C   UNL     1      41.305  16.485  10.849  1.00  0.00     0.157 A 
ATOM     16  C   UNL     1      42.118  14.489  11.963  1.00  0.00     0.062 A 
ATOM     17  C   UNL     1      42.023  15.886  11.892  1.00  0.00     0.158 A 
BRANCH  15  18
ATOM     18  O   UNL     1      41.209  17.874  10.784  1.00  0.00    -0.504 OA
ATOM     19  H   UNL     1      40.796  18.339   9.984  1.00  0.00     0.293 HD
ENDBRANCH  15  18
BRANCH  17  20
ATOM     20  O   UNL     1      42.641  16.685  12.851  1.00  0.00    -0.504 OA
ATOM     21  H   UNL     1      43.403  17.309  12.611  1.00  0.00     0.293 HD
ENDBRANCH  17  20
ENDBRANCH   1  12
BRANCH   2  22
ATOM     22  O   UNL     1      43.733  12.224   9.875  1.00  0.00    -0.502 OA
ATOM     23  H   UNL     1      43.827  12.316   8.871  1.00  0.00     0.293 HD
ENDBRANCH   2  22
BRANCH   6  24
ATOM     24  O   UNL     1      42.617   7.218  10.737  1.00  0.00    -0.507 OA
ATOM     25  H   UNL     1      42.620   6.964   9.756  1.00  0.00     0.293 HD
ENDBRANCH   6  24
BRANCH   8  26
ATOM     26  O   UNL     1      38.465   7.548  13.173  1.00  0.00    -0.508 OA
ATOM     27  H   UNL     1      38.509   7.340  14.164  1.00  0.00     0.293 HD
ENDBRANCH   8  26
TORSDOF 6
ENDMDL
