MODEL 1
REMARK VINA RESULT:    -3.107      0.000      0.000
REMARK INTER + INTRA:          -3.832
REMARK INTER:                  -3.743
REMARK INTRA:                  -0.089
REMARK UNBOUND:                -0.089
REMARK SMILES CC[C@H](C)[C@H]([NH3+])C(=O)[O-]
REMARK SMILES IDX 3 1 4 2 5 3 6 4 7 8 8 9 9 10 2 11 1 12
REMARK H PARENT 6 5 6 6 6 7
REMARK Flexibility Score: inf
ROOT
ATOM      1  C   UNL     1      -4.330   5.571   0.663  1.00  0.00     0.050 C 
ATOM      2  C   UNL     1      -4.061   6.583  -0.467  1.00  0.00     0.014 C 
ENDROOT
BRANCH   1   3
ATOM      3  C   UNL     1      -4.384   4.108   0.119  1.00  0.00     0.230 C 
BRANCH   3   4
ATOM      4  N   UNL     1      -5.612   3.412   0.533  1.00  0.00    -0.350 N 
ATOM      5  H   UNL     1      -6.451   3.894   0.135  1.00  0.00     0.345 HD
ATOM      6  H   UNL     1      -5.603   2.418   0.205  1.00  0.00     0.345 HD
ATOM      7  H   UNL     1      -5.710   3.435   1.574  1.00  0.00     0.345 HD
ENDBRANCH   3   4
BRANCH   3   8
ATOM      8  C   UNL     1      -3.182   3.321   0.582  1.00  0.00     0.099 C 
ATOM      9  O   UNL     1      -2.075   3.441  -0.009  1.00  0.00    -0.544 OA
ATOM     10  O   UNL     1      -3.294   2.447   1.655  1.00  0.00    -0.544 OA
ENDBRANCH   3   8
ENDBRANCH   1   3
BRANCH   1  11
ATOM     11  C   UNL     1      -5.584   5.984   1.479  1.00  0.00     0.006 C 
ATOM     12  C   UNL     1      -5.278   6.579   2.859  1.00  0.00     0.004 C 
ENDBRANCH   1  11
TORSDOF 4
ENDMDL
MODEL 2
REMARK VINA RESULT:    -3.082      0.865      0.906
REMARK INTER + INTRA:          -3.801
REMARK INTER:                  -3.711
REMARK INTRA:                  -0.090
REMARK UNBOUND:                -0.089
REMARK SMILES CC[C@H](C)[C@H]([NH3+])C(=O)[O-]
REMARK SMILES IDX 3 1 4 2 5 3 6 4 7 8 8 9 9 10 2 11 1 12
REMARK H PARENT 6 5 6 6 6 7
REMARK Flexibility Score: inf
ROOT
ATOM      1  C   UNL     1      -4.067   5.190   0.576  1.00  0.00     0.050 C 
ATOM      2  C   UNL     1      -4.416   6.290  -0.446  1.00  0.00     0.014 C 
ENDROOT
BRANCH   1   3
ATOM      3  C   UNL     1      -4.307   3.765  -0.016  1.00  0.00     0.230 C 
BRANCH   3   4
ATOM      4  N   UNL     1      -5.382   3.051   0.691  1.00  0.00    -0.350 N 
ATOM      5  H   UNL     1      -5.282   3.179   1.724  1.00  0.00     0.345 HD
ATOM      6  H   UNL     1      -6.320   3.407   0.393  1.00  0.00     0.345 HD
ATOM      7  H   UNL     1      -5.322   2.025   0.501  1.00  0.00     0.345 HD
ENDBRANCH   3   4
BRANCH   3   8
ATOM      8  C   UNL     1      -3.041   2.944   0.037  1.00  0.00     0.099 C 
ATOM      9  O   UNL     1      -1.915   3.509   0.043  1.00  0.00    -0.544 OA
ATOM     10  O   UNL     1      -3.112   1.557   0.063  1.00  0.00    -0.544 OA
ENDBRANCH   3   8
ENDBRANCH   1   3
BRANCH   1  11
ATOM     11  C   UNL     1      -4.797   5.443   1.921  1.00  0.00     0.006 C 
ATOM     12  C   UNL     1      -6.008   6.377   1.823  1.00  0.00     0.004 C 
ENDBRANCH   1  11
TORSDOF 4
ENDMDL
MODEL 3
REMARK VINA RESULT:    -2.991      2.238      2.915
REMARK INTER + INTRA:          -3.692
REMARK INTER:                  -3.639
REMARK INTRA:                  -0.053
REMARK UNBOUND:                -0.089
REMARK SMILES CC[C@H](C)[C@H]([NH3+])C(=O)[O-]
REMARK SMILES IDX 3 1 4 2 5 3 6 4 7 8 8 9 9 10 2 11 1 12
REMARK H PARENT 6 5 6 6 6 7
REMARK Flexibility Score: inf
ROOT
ATOM      1  C   UNL     1      -6.429   5.488   0.320  1.00  0.00     0.050 C 
ATOM      2  C   UNL     1      -6.248   6.287   1.626  1.00  0.00     0.014 C 
ENDROOT
BRANCH   1   3
ATOM      3  C   UNL     1      -6.362   3.950   0.578  1.00  0.00     0.230 C 
BRANCH   3   4
ATOM      4  N   UNL     1      -5.455   3.618   1.687  1.00  0.00    -0.350 N 
ATOM      5  H   UNL     1      -5.550   4.323   2.454  1.00  0.00     0.345 HD
ATOM      6  H   UNL     1      -5.671   2.667   2.069  1.00  0.00     0.345 HD
ATOM      7  H   UNL     1      -4.461   3.646   1.365  1.00  0.00     0.345 HD
ENDBRANCH   3   4
BRANCH   3   8
ATOM      8  C   UNL     1      -5.922   3.218  -0.666  1.00  0.00     0.099 C 
ATOM      9  O   UNL     1      -6.726   3.042  -1.621  1.00  0.00    -0.544 OA
ATOM     10  O   UNL     1      -4.629   2.719  -0.759  1.00  0.00    -0.544 OA
ENDBRANCH   3   8
ENDBRANCH   1   3
BRANCH   1  11
ATOM     11  C   UNL     1      -5.439   5.987  -0.766  1.00  0.00     0.006 C 
ATOM     12  C   UNL     1      -4.083   6.453  -0.227  1.00  0.00     0.004 C 
ENDBRANCH   1  11
TORSDOF 4
ENDMDL
MODEL 4
REMARK VINA RESULT:    -2.951      2.310      3.120
REMARK INTER + INTRA:          -3.643
REMARK INTER:                  -3.585
REMARK INTRA:                  -0.058
REMARK UNBOUND:                -0.089
REMARK SMILES CC[C@H](C)[C@H]([NH3+])C(=O)[O-]
REMARK SMILES IDX 3 1 4 2 5 3 6 4 7 8 8 9 9 10 2 11 1 12
REMARK H PARENT 6 5 6 6 6 7
REMARK Flexibility Score: inf
ROOT
ATOM      1  C   UNL     1      -6.517   6.026   0.632  1.00  0.00     0.050 C 
ATOM      2  C   UNL     1      -5.727   6.344   1.916  1.00  0.00     0.014 C 
ENDROOT
BRANCH   1   3
ATOM      3  C   UNL     1      -7.321   4.694   0.771  1.00  0.00     0.230 C 
BRANCH   3   4
ATOM      4  N   UNL     1      -7.661   4.402   2.172  1.00  0.00    -0.350 N 
ATOM      5  H   UNL     1      -6.837   4.587   2.790  1.00  0.00     0.345 HD
ATOM      6  H   UNL     1      -8.463   4.995   2.489  1.00  0.00     0.345 HD
ATOM      7  H   UNL     1      -7.909   3.393   2.283  1.00  0.00     0.345 HD
ENDBRANCH   3   4
BRANCH   3   8
ATOM      8  C   UNL     1      -6.544   3.537   0.192  1.00  0.00     0.099 C 
ATOM      9  O   UNL     1      -6.878   3.034  -0.914  1.00  0.00    -0.544 OA
ATOM     10  O   UNL     1      -5.462   3.010   0.885  1.00  0.00    -0.544 OA
ENDBRANCH   3   8
ENDBRANCH   1   3
BRANCH   1  11
ATOM     11  C   UNL     1      -5.585   6.070  -0.608  1.00  0.00     0.006 C 
ATOM     12  C   UNL     1      -4.123   6.405  -0.294  1.00  0.00     0.004 C 
ENDBRANCH   1  11
TORSDOF 4
ENDMDL
MODEL 5
REMARK VINA RESULT:    -2.948      1.847      2.612
REMARK INTER + INTRA:          -3.640
REMARK INTER:                  -3.537
REMARK INTRA:                  -0.103
REMARK UNBOUND:                -0.089
REMARK SMILES CC[C@H](C)[C@H]([NH3+])C(=O)[O-]
REMARK SMILES IDX 3 1 4 2 5 3 6 4 7 8 8 9 9 10 2 11 1 12
REMARK H PARENT 6 5 6 6 6 7
REMARK Flexibility Score: inf
ROOT
ATOM      1  C   UNL     1      -6.317   6.248   1.174  1.00  0.00     0.050 C 
ATOM      2  C   UNL     1      -7.810   5.899   1.327  1.00  0.00     0.014 C 
ENDROOT
BRANCH   1   3
ATOM      3  C   UNL     1      -5.719   5.640  -0.134  1.00  0.00     0.230 C 
BRANCH   3   4
ATOM      4  N   UNL     1      -6.006   4.202  -0.252  1.00  0.00    -0.350 N 
ATOM      5  H   UNL     1      -5.828   3.723   0.661  1.00  0.00     0.345 HD
ATOM      6  H   UNL     1      -7.003   4.046  -0.530  1.00  0.00     0.345 HD
ATOM      7  H   UNL     1      -5.374   3.762  -0.959  1.00  0.00     0.345 HD
ENDBRANCH   3   4
BRANCH   3   8
ATOM      8  C   UNL     1      -4.227   5.860  -0.193  1.00  0.00     0.099 C 
ATOM      9  O   UNL     1      -3.760   6.996  -0.474  1.00  0.00    -0.544 OA
ATOM     10  O   UNL     1      -3.358   4.804   0.050  1.00  0.00    -0.544 OA
ENDBRANCH   3   8
ENDBRANCH   1   3
BRANCH   1  11
ATOM     11  C   UNL     1      -5.533   5.870   2.459  1.00  0.00     0.006 C 
ATOM     12  C   UNL     1      -5.156   7.059   3.349  1.00  0.00     0.004 C 
ENDBRANCH   1  11
TORSDOF 4
ENDMDL
MODEL 6
REMARK VINA RESULT:    -2.947      3.733      4.474
REMARK INTER + INTRA:          -3.638
REMARK INTER:                  -3.544
REMARK INTRA:                  -0.094
REMARK UNBOUND:                -0.089
REMARK SMILES CC[C@H](C)[C@H]([NH3+])C(=O)[O-]
REMARK SMILES IDX 3 1 4 2 5 3 6 4 7 8 8 9 9 10 2 11 1 12
REMARK H PARENT 6 5 6 6 6 7
REMARK Flexibility Score: inf
ROOT
ATOM      1  C   UNL     1      -6.408   6.094   0.910  1.00  0.00     0.050 C 
ATOM      2  C   UNL     1      -5.452   6.404   2.078  1.00  0.00     0.014 C 
ENDROOT
BRANCH   1   3
ATOM      3  C   UNL     1      -7.265   4.820   1.196  1.00  0.00     0.230 C 
BRANCH   3   4
ATOM      4  N   UNL     1      -7.018   3.758   0.209  1.00  0.00    -0.350 N 
ATOM      5  H   UNL     1      -7.435   2.856   0.537  1.00  0.00     0.345 HD
ATOM      6  H   UNL     1      -7.436   4.009  -0.717  1.00  0.00     0.345 HD
ATOM      7  H   UNL     1      -5.991   3.599   0.096  1.00  0.00     0.345 HD
ENDBRANCH   3   4
BRANCH   3   8
ATOM      8  C   UNL     1      -8.736   5.158   1.210  1.00  0.00     0.099 C 
ATOM      9  O   UNL     1      -9.131   6.270   1.654  1.00  0.00    -0.544 OA
ATOM     10  O   UNL     1      -9.666   4.237   0.746  1.00  0.00    -0.544 OA
ENDBRANCH   3   8
ENDBRANCH   1   3
BRANCH   1  11
ATOM     11  C   UNL     1      -5.631   6.040  -0.432  1.00  0.00     0.006 C 
ATOM     12  C   UNL     1      -4.146   6.405  -0.324  1.00  0.00     0.004 C 
ENDBRANCH   1  11
TORSDOF 4
ENDMDL
MODEL 7
REMARK VINA RESULT:    -2.938      1.723      2.453
REMARK INTER + INTRA:          -3.628
REMARK INTER:                  -3.519
REMARK INTRA:                  -0.109
REMARK UNBOUND:                -0.089
REMARK SMILES CC[C@H](C)[C@H]([NH3+])C(=O)[O-]
REMARK SMILES IDX 3 1 4 2 5 3 6 4 7 8 8 9 9 10 2 11 1 12
REMARK H PARENT 6 5 6 6 6 7
REMARK Flexibility Score: inf
ROOT
ATOM      1  C   UNL     1      -5.267   5.665   1.539  1.00  0.00     0.050 C 
ATOM      2  C   UNL     1      -4.943   6.467   2.814  1.00  0.00     0.014 C 
ENDROOT
BRANCH   1   3
ATOM      3  C   UNL     1      -4.041   5.609   0.573  1.00  0.00     0.230 C 
BRANCH   3   4
ATOM      4  N   UNL     1      -4.234   6.459  -0.611  1.00  0.00    -0.350 N 
ATOM      5  H   UNL     1      -3.347   6.517  -1.163  1.00  0.00     0.345 HD
ATOM      6  H   UNL     1      -4.991   6.074  -1.223  1.00  0.00     0.345 HD
ATOM      7  H   UNL     1      -4.481   7.433  -0.323  1.00  0.00     0.345 HD
ENDBRANCH   3   4
BRANCH   3   8
ATOM      8  C   UNL     1      -3.771   4.191   0.133  1.00  0.00     0.099 C 
ATOM      9  O   UNL     1      -4.725   3.420  -0.155  1.00  0.00    -0.544 OA
ATOM     10  O   UNL     1      -2.466   3.722   0.058  1.00  0.00    -0.544 OA
ENDBRANCH   3   8
ENDBRANCH   1   3
BRANCH   1  11
ATOM     11  C   UNL     1      -6.565   6.195   0.875  1.00  0.00     0.006 C 
ATOM     12  C   UNL     1      -7.784   5.280   1.039  1.00  0.00     0.004 C 
ENDBRANCH   1  11
TORSDOF 4
ENDMDL
MODEL 8
REMARK VINA RESULT:    -2.923      1.375      2.297
REMARK INTER + INTRA:          -3.610
REMARK INTER:                  -3.521
REMARK INTRA:                  -0.089
REMARK UNBOUND:                -0.089
REMARK SMILES CC[C@H](C)[C@H]([NH3+])C(=O)[O-]
REMARK SMILES IDX 3 1 4 2 5 3 6 4 7 8 8 9 9 10 2 11 1 12
REMARK H PARENT 6 5 6 6 6 7
REMARK Flexibility Score: inf
ROOT
ATOM      1  C   UNL     1      -4.506   4.037   0.038  1.00  0.00     0.050 C 
ATOM      2  C   UNL     1      -5.865   3.771  -0.639  1.00  0.00     0.014 C 
ENDROOT
BRANCH   1   3
ATOM      3  C   UNL     1      -4.142   2.904   1.049  1.00  0.00     0.230 C 
BRANCH   3   4
ATOM      4  N   UNL     1      -4.438   3.289   2.437  1.00  0.00    -0.350 N 
ATOM      5  H   UNL     1      -3.949   4.183   2.676  1.00  0.00     0.345 HD
ATOM      6  H   UNL     1      -5.468   3.418   2.573  1.00  0.00     0.345 HD
ATOM      7  H   UNL     1      -4.088   2.561   3.099  1.00  0.00     0.345 HD
ENDBRANCH   3   4
BRANCH   3   8
ATOM      8  C   UNL     1      -2.683   2.532   0.933  1.00  0.00     0.099 C 
ATOM      9  O   UNL     1      -2.161   1.732   1.754  1.00  0.00    -0.544 OA
ATOM     10  O   UNL     1      -1.903   3.084  -0.075  1.00  0.00    -0.544 OA
ENDBRANCH   3   8
ENDBRANCH   1   3
BRANCH   1  11
ATOM     11  C   UNL     1      -4.470   5.461   0.652  1.00  0.00     0.006 C 
ATOM     12  C   UNL     1      -4.122   6.575  -0.342  1.00  0.00     0.004 C 
ENDBRANCH   1  11
TORSDOF 4
ENDMDL
MODEL 9
REMARK VINA RESULT:    -2.792      2.837      3.782
REMARK INTER + INTRA:          -3.451
REMARK INTER:                  -3.340
REMARK INTRA:                  -0.111
REMARK UNBOUND:                -0.089
REMARK SMILES CC[C@H](C)[C@H]([NH3+])C(=O)[O-]
REMARK SMILES IDX 3 1 4 2 5 3 6 4 7 8 8 9 9 10 2 11 1 12
REMARK H PARENT 6 5 6 6 6 7
REMARK Flexibility Score: inf
ROOT
ATOM      1  C   UNL     1      -5.374   5.750  -0.091  1.00  0.00     0.050 C 
ATOM      2  C   UNL     1      -4.096   6.562  -0.380  1.00  0.00     0.014 C 
ENDROOT
BRANCH   1   3
ATOM      3  C   UNL     1      -6.106   6.273   1.185  1.00  0.00     0.230 C 
BRANCH   3   4
ATOM      4  N   UNL     1      -5.176   6.490   2.303  1.00  0.00    -0.350 N 
ATOM      5  H   UNL     1      -5.067   5.609   2.858  1.00  0.00     0.345 HD
ATOM      6  H   UNL     1      -4.236   6.787   1.950  1.00  0.00     0.345 HD
ATOM      7  H   UNL     1      -5.550   7.218   2.952  1.00  0.00     0.345 HD
ENDBRANCH   3   4
BRANCH   3   8
ATOM      8  C   UNL     1      -7.188   5.312   1.612  1.00  0.00     0.099 C 
ATOM      9  O   UNL     1      -8.253   5.212   0.946  1.00  0.00    -0.544 OA
ATOM     10  O   UNL     1      -7.021   4.540   2.754  1.00  0.00    -0.544 OA
ENDBRANCH   3   8
ENDBRANCH   1   3
BRANCH   1  11
ATOM     11  C   UNL     1      -5.060   4.231  -0.057  1.00  0.00     0.006 C 
ATOM     12  C   UNL     1      -3.593   3.890   0.227  1.00  0.00     0.004 C 
ENDBRANCH   1  11
TORSDOF 4
ENDMDL
