MODEL 1
REMARK VINA RESULT:    -3.010      0.000      0.000
REMARK INTER + INTRA:          -3.274
REMARK INTER:                  -3.274
REMARK INTRA:                   0.000
REMARK UNBOUND:                 0.000
REMARK SMILES Oc1cccc(O)c1O
REMARK SMILES IDX 4 1 5 2 6 3 8 4 2 5 3 6 7 7 1 9 9 11
REMARK H PARENT 7 8 1 10 9 12
REMARK Flexibility Score: inf
ROOT
ATOM      1  C   UNL     1      30.376  24.125  29.187  1.00  0.00     0.008 A 
ATOM      2  C   UNL     1      29.687  23.224  28.373  1.00  0.00     0.050 A 
ATOM      3  C   UNL     1      30.375  22.228  27.672  1.00  0.00     0.161 A 
ATOM      4  C   UNL     1      31.785  22.134  27.791  1.00  0.00     0.200 A 
ATOM      5  C   UNL     1      32.470  23.049  28.616  1.00  0.00     0.161 A 
ATOM      6  C   UNL     1      31.762  24.038  29.307  1.00  0.00     0.050 A 
ENDROOT
BRANCH   3   7
ATOM      7  O   UNL     1      29.625  21.359  26.875  1.00  0.00    -0.504 OA
ATOM      8  H   UNL     1      29.384  20.414  27.138  1.00  0.00     0.293 HD
ENDBRANCH   3   7
BRANCH   5   9
ATOM      9  O   UNL     1      33.856  22.992  28.760  1.00  0.00    -0.504 OA
ATOM     10  H   UNL     1      34.485  23.061  27.969  1.00  0.00     0.293 HD
ENDBRANCH   5   9
BRANCH   4  11
ATOM     11  O   UNL     1      32.528  21.163  27.116  1.00  0.00    -0.502 OA
ATOM     12  H   UNL     1      32.710  20.237  27.475  1.00  0.00     0.293 HD
ENDBRANCH   4  11
TORSDOF 3
ENDMDL
MODEL 2
REMARK VINA RESULT:    -3.000      0.076      2.826
REMARK INTER + INTRA:          -3.263
REMARK INTER:                  -3.263
REMARK INTRA:                   0.000
REMARK UNBOUND:                 0.000
REMARK SMILES Oc1cccc(O)c1O
REMARK SMILES IDX 4 1 5 2 6 3 8 4 2 5 3 6 7 7 1 9 9 11
REMARK H PARENT 7 8 1 10 9 12
REMARK Flexibility Score: inf
ROOT
ATOM      1  C   UNL     1      30.460  24.125  29.195  1.00  0.00     0.008 A 
ATOM      2  C   UNL     1      31.848  24.022  29.299  1.00  0.00     0.050 A 
ATOM      3  C   UNL     1      32.544  23.032  28.596  1.00  0.00     0.161 A 
ATOM      4  C   UNL     1      31.830  22.127  27.772  1.00  0.00     0.200 A 
ATOM      5  C   UNL     1      30.428  22.239  27.675  1.00  0.00     0.161 A 
ATOM      6  C   UNL     1      29.753  23.236  28.386  1.00  0.00     0.050 A 
ENDROOT
BRANCH   3   7
ATOM      7  O   UNL     1      33.932  22.986  28.744  1.00  0.00    -0.504 OA
ATOM      8  H   UNL     1      34.405  22.534  29.513  1.00  0.00     0.293 HD
ENDBRANCH   3   7
BRANCH   5   9
ATOM      9  O   UNL     1      29.688  21.368  26.876  1.00  0.00    -0.504 OA
ATOM     10  H   UNL     1      29.790  20.361  26.934  1.00  0.00     0.293 HD
ENDBRANCH   5   9
BRANCH   4  11
ATOM     11  O   UNL     1      32.466  21.117  27.047  1.00  0.00    -0.502 OA
ATOM     12  H   UNL     1      33.297  20.632  27.358  1.00  0.00     0.293 HD
ENDBRANCH   4  11
TORSDOF 3
ENDMDL
MODEL 3
REMARK VINA RESULT:    -2.840      1.525      2.639
REMARK INTER + INTRA:          -3.089
REMARK INTER:                  -3.089
REMARK INTRA:                   0.000
REMARK UNBOUND:                 0.000
REMARK SMILES Oc1cccc(O)c1O
REMARK SMILES IDX 4 1 5 2 6 3 8 4 2 5 3 6 7 7 1 9 9 11
REMARK H PARENT 7 8 1 10 9 12
REMARK Flexibility Score: inf
ROOT
ATOM      1  C   UNL     1      29.992  22.335  27.577  1.00  0.00     0.008 A 
ATOM      2  C   UNL     1      31.182  21.938  26.965  1.00  0.00     0.050 A 
ATOM      3  C   UNL     1      32.418  22.255  27.539  1.00  0.00     0.161 A 
ATOM      4  C   UNL     1      32.460  22.986  28.753  1.00  0.00     0.200 A 
ATOM      5  C   UNL     1      31.252  23.382  29.362  1.00  0.00     0.161 A 
ATOM      6  C   UNL     1      30.027  23.055  28.770  1.00  0.00     0.050 A 
ENDROOT
BRANCH   3   7
ATOM      7  O   UNL     1      33.571  21.827  26.875  1.00  0.00    -0.504 OA
ATOM      8  H   UNL     1      33.925  20.882  26.907  1.00  0.00     0.293 HD
ENDBRANCH   3   7
BRANCH   5   9
ATOM      9  O   UNL     1      31.249  24.103  30.555  1.00  0.00    -0.504 OA
ATOM     10  H   UNL     1      30.423  24.579  30.899  1.00  0.00     0.293 HD
ENDBRANCH   5   9
BRANCH   4  11
ATOM     11  O   UNL     1      33.661  23.334  29.374  1.00  0.00    -0.502 OA
ATOM     12  H   UNL     1      33.897  23.096  30.328  1.00  0.00     0.293 HD
ENDBRANCH   4  11
TORSDOF 3
ENDMDL
MODEL 4
REMARK VINA RESULT:    -2.488      1.696      3.758
REMARK INTER + INTRA:          -2.706
REMARK INTER:                  -2.706
REMARK INTRA:                   0.000
REMARK UNBOUND:                 0.000
REMARK SMILES Oc1cccc(O)c1O
REMARK SMILES IDX 4 1 5 2 6 3 8 4 2 5 3 6 7 7 1 9 9 11
REMARK H PARENT 7 8 1 10 9 12
REMARK Flexibility Score: inf
ROOT
ATOM      1  C   UNL     1      32.456  22.055  26.875  1.00  0.00     0.008 A 
ATOM      2  C   UNL     1      33.158  22.760  27.854  1.00  0.00     0.050 A 
ATOM      3  C   UNL     1      32.480  23.386  28.906  1.00  0.00     0.161 A 
ATOM      4  C   UNL     1      31.066  23.302  28.976  1.00  0.00     0.200 A 
ATOM      5  C   UNL     1      30.367  22.588  27.982  1.00  0.00     0.161 A 
ATOM      6  C   UNL     1      31.065  21.971  26.939  1.00  0.00     0.050 A 
ENDROOT
BRANCH   3   7
ATOM      7  O   UNL     1      33.243  24.075  29.853  1.00  0.00    -0.504 OA
ATOM      8  H   UNL     1      33.658  23.646  30.667  1.00  0.00     0.293 HD
ENDBRANCH   3   7
BRANCH   5   9
ATOM      9  O   UNL     1      28.977  22.482  28.013  1.00  0.00    -0.504 OA
ATOM     10  H   UNL     1      28.374  23.120  27.508  1.00  0.00     0.293 HD
ENDBRANCH   5   9
BRANCH   4  11
ATOM     11  O   UNL     1      30.333  23.906  30.000  1.00  0.00    -0.502 OA
ATOM     12  H   UNL     1      30.317  23.580  30.956  1.00  0.00     0.293 HD
ENDBRANCH   4  11
TORSDOF 3
ENDMDL
MODEL 5
REMARK VINA RESULT:    -2.442      1.745      2.486
REMARK INTER + INTRA:          -2.656
REMARK INTER:                  -2.656
REMARK INTRA:                   0.000
REMARK UNBOUND:                 0.000
REMARK SMILES Oc1cccc(O)c1O
REMARK SMILES IDX 4 1 5 2 6 3 8 4 2 5 3 6 7 7 1 9 9 11
REMARK H PARENT 7 8 1 10 9 12
REMARK Flexibility Score: inf
ROOT
ATOM      1  C   UNL     1      32.327  22.236  26.876  1.00  0.00     0.008 A 
ATOM      2  C   UNL     1      30.937  22.152  26.962  1.00  0.00     0.050 A 
ATOM      3  C   UNL     1      30.253  22.724  28.041  1.00  0.00     0.161 A 
ATOM      4  C   UNL     1      30.983  23.395  29.055  1.00  0.00     0.200 A 
ATOM      5  C   UNL     1      32.387  23.473  28.958  1.00  0.00     0.161 A 
ATOM      6  C   UNL     1      33.049  22.894  27.872  1.00  0.00     0.050 A 
ENDROOT
BRANCH   3   7
ATOM      7  O   UNL     1      28.862  22.603  28.066  1.00  0.00    -0.504 OA
ATOM      8  H   UNL     1      28.368  21.810  28.449  1.00  0.00     0.293 HD
ENDBRANCH   3   7
BRANCH   5   9
ATOM      9  O   UNL     1      33.142  24.123  29.935  1.00  0.00    -0.504 OA
ATOM     10  H   UNL     1      32.905  24.080  30.919  1.00  0.00     0.293 HD
ENDBRANCH   5   9
BRANCH   4  11
ATOM     11  O   UNL     1      30.359  23.984  30.157  1.00  0.00    -0.502 OA
ATOM     12  H   UNL     1      30.848  24.493  30.881  1.00  0.00     0.293 HD
ENDBRANCH   4  11
TORSDOF 3
ENDMDL
MODEL 6
REMARK VINA RESULT:    -2.417      1.193      2.773
REMARK INTER + INTRA:          -2.629
REMARK INTER:                  -2.629
REMARK INTRA:                   0.000
REMARK UNBOUND:                 0.000
REMARK SMILES Oc1cccc(O)c1O
REMARK SMILES IDX 4 1 5 2 6 3 8 4 2 5 3 6 7 7 1 9 9 11
REMARK H PARENT 7 8 1 10 9 12
REMARK Flexibility Score: inf
ROOT
ATOM      1  C   UNL     1      32.265  23.749  29.048  1.00  0.00     0.008 A 
ATOM      2  C   UNL     1      32.667  22.621  28.331  1.00  0.00     0.050 A 
ATOM      3  C   UNL     1      31.734  21.858  27.620  1.00  0.00     0.161 A 
ATOM      4  C   UNL     1      30.367  22.237  27.630  1.00  0.00     0.200 A 
ATOM      5  C   UNL     1      29.972  23.378  28.358  1.00  0.00     0.161 A 
ATOM      6  C   UNL     1      30.922  24.125  29.061  1.00  0.00     0.050 A 
ENDROOT
BRANCH   3   7
ATOM      7  O   UNL     1      32.203  20.741  26.924  1.00  0.00    -0.504 OA
ATOM      8  H   UNL     1      32.737  19.994  27.344  1.00  0.00     0.293 HD
ENDBRANCH   3   7
BRANCH   5   9
ATOM      9  O   UNL     1      28.638  23.784  28.394  1.00  0.00    -0.504 OA
ATOM     10  H   UNL     1      28.176  24.193  27.591  1.00  0.00     0.293 HD
ENDBRANCH   5   9
BRANCH   4  11
ATOM     11  O   UNL     1      29.388  21.516  26.942  1.00  0.00    -0.502 OA
ATOM     12  H   UNL     1      29.224  20.526  27.061  1.00  0.00     0.293 HD
ENDBRANCH   4  11
TORSDOF 3
ENDMDL
MODEL 7
REMARK VINA RESULT:    -0.884     19.863     20.614
REMARK INTER + INTRA:          -0.962
REMARK INTER:                  -0.962
REMARK INTRA:                   0.000
REMARK UNBOUND:                 0.000
REMARK SMILES Oc1cccc(O)c1O
REMARK SMILES IDX 4 1 5 2 6 3 8 4 2 5 3 6 7 7 1 9 9 11
REMARK H PARENT 7 8 1 10 9 12
REMARK Flexibility Score: inf
ROOT
ATOM      1  C   UNL     1      19.720  21.907  47.125  1.00  0.00     0.008 A 
ATOM      2  C   UNL     1      18.906  22.657  46.275  1.00  0.00     0.050 A 
ATOM      3  C   UNL     1      19.462  23.396  45.224  1.00  0.00     0.161 A 
ATOM      4  C   UNL     1      20.865  23.380  45.024  1.00  0.00     0.200 A 
ATOM      5  C   UNL     1      21.678  22.619  45.889  1.00  0.00     0.161 A 
ATOM      6  C   UNL     1      21.101  21.889  46.932  1.00  0.00     0.050 A 
ENDROOT
BRANCH   3   7
ATOM      7  O   UNL     1      18.590  24.125  44.411  1.00  0.00    -0.504 OA
ATOM      8  H   UNL     1      18.094  24.951  44.710  1.00  0.00     0.293 HD
ENDBRANCH   3   7
BRANCH   5   9
ATOM      9  O   UNL     1      23.063  22.578  45.726  1.00  0.00    -0.504 OA
ATOM     10  H   UNL     1      23.703  22.847  46.464  1.00  0.00     0.293 HD
ENDBRANCH   5   9
BRANCH   4  11
ATOM     11  O   UNL     1      21.480  24.097  43.995  1.00  0.00    -0.502 OA
ATOM     12  H   UNL     1      21.527  23.785  43.035  1.00  0.00     0.293 HD
ENDBRANCH   4  11
TORSDOF 3
ENDMDL
MODEL 8
REMARK VINA RESULT:    -0.111     19.832     20.732
REMARK INTER + INTRA:          -0.120
REMARK INTER:                  -0.120
REMARK INTRA:                   0.000
REMARK UNBOUND:                 0.000
REMARK SMILES Oc1cccc(O)c1O
REMARK SMILES IDX 4 1 5 2 6 3 8 4 2 5 3 6 7 7 1 9 9 11
REMARK H PARENT 7 8 1 10 9 12
REMARK Flexibility Score: inf
ROOT
ATOM      1  C   UNL     1      20.889  21.076  47.125  1.00  0.00     0.008 A 
ATOM      2  C   UNL     1      22.082  21.515  46.547  1.00  0.00     0.050 A 
ATOM      3  C   UNL     1      22.076  22.528  45.582  1.00  0.00     0.161 A 
ATOM      4  C   UNL     1      20.845  23.112  45.188  1.00  0.00     0.200 A 
ATOM      5  C   UNL     1      19.647  22.661  45.778  1.00  0.00     0.161 A 
ATOM      6  C   UNL     1      19.676  21.647  46.741  1.00  0.00     0.050 A 
ENDROOT
BRANCH   3   7
ATOM      7  O   UNL     1      23.304  22.920  45.044  1.00  0.00    -0.504 OA
ATOM      8  H   UNL     1      23.467  23.082  44.061  1.00  0.00     0.293 HD
ENDBRANCH   3   7
BRANCH   5   9
ATOM      9  O   UNL     1      18.416  23.209  45.418  1.00  0.00    -0.504 OA
ATOM     10  H   UNL     1      17.545  22.906  45.838  1.00  0.00     0.293 HD
ENDBRANCH   5   9
BRANCH   4  11
ATOM     11  O   UNL     1      20.773  24.125  44.229  1.00  0.00    -0.502 OA
ATOM     12  H   UNL     1      21.569  24.479  43.717  1.00  0.00     0.293 HD
ENDBRANCH   4  11
TORSDOF 3
ENDMDL
