MODEL 1
REMARK VINA RESULT:    -3.668      0.000      0.000
REMARK INTER + INTRA:          -4.673
REMARK INTER:                  -4.525
REMARK INTRA:                  -0.148
REMARK UNBOUND:                -0.148
REMARK SMILES CCCCCC(=O)[O-]
REMARK SMILES IDX 4 1 5 2 6 3 7 4 8 5 3 6 2 7 1 8
REMARK H PARENT
REMARK Flexibility Score: inf
ROOT
ATOM      1  C   UNL     1      -6.471  20.304  -9.239  1.00  0.00     0.006 C 
ENDROOT
BRANCH   1   2
ATOM      2  C   UNL     1      -6.998  20.311 -10.678  1.00  0.00     0.053 C 
BRANCH   2   3
ATOM      3  C   UNL     1      -5.868  20.429 -11.651  1.00  0.00     0.041 C 
ATOM      4  O   UNL     1      -5.638  19.501 -12.469  1.00  0.00    -0.550 OA
ATOM      5  O   UNL     1      -5.037  21.542 -11.619  1.00  0.00    -0.550 OA
ENDBRANCH   2   3
ENDBRANCH   1   2
BRANCH   1   6
ATOM      6  C   UNL     1      -6.042  18.890  -8.819  1.00  0.00     0.000 C 
BRANCH   6   7
ATOM      7  C   UNL     1      -6.892  18.334  -7.667  1.00  0.00    -0.003 C 
ATOM      8  C   UNL     1      -7.868  19.365  -7.099  1.00  0.00     0.004 C 
ENDBRANCH   6   7
ENDBRANCH   1   6
TORSDOF 4
ENDMDL
MODEL 2
REMARK VINA RESULT:    -3.631      0.102      1.150
REMARK INTER + INTRA:          -4.628
REMARK INTER:                  -4.473
REMARK INTRA:                  -0.155
REMARK UNBOUND:                -0.148
REMARK SMILES CCCCCC(=O)[O-]
REMARK SMILES IDX 4 1 5 2 6 3 7 4 8 5 3 6 2 7 1 8
REMARK H PARENT
REMARK Flexibility Score: inf
ROOT
ATOM      1  C   UNL     1      -6.491  20.407  -9.237  1.00  0.00     0.006 C 
ENDROOT
BRANCH   1   2
ATOM      2  C   UNL     1      -7.000  20.469 -10.681  1.00  0.00     0.053 C 
BRANCH   2   3
ATOM      3  C   UNL     1      -5.853  20.498 -11.641  1.00  0.00     0.041 C 
ATOM      4  O   UNL     1      -5.076  21.488 -11.669  1.00  0.00    -0.550 OA
ATOM      5  O   UNL     1      -5.673  19.454 -12.540  1.00  0.00    -0.550 OA
ENDBRANCH   2   3
ENDBRANCH   1   2
BRANCH   1   6
ATOM      6  C   UNL     1      -6.043  18.984  -8.874  1.00  0.00     0.000 C 
BRANCH   6   7
ATOM      7  C   UNL     1      -6.917  18.351  -7.781  1.00  0.00    -0.003 C 
ATOM      8  C   UNL     1      -7.862  19.356  -7.122  1.00  0.00     0.004 C 
ENDBRANCH   6   7
ENDBRANCH   1   6
TORSDOF 4
ENDMDL
MODEL 3
REMARK VINA RESULT:    -3.466      1.535      1.974
REMARK INTER + INTRA:          -4.424
REMARK INTER:                  -4.312
REMARK INTRA:                  -0.112
REMARK UNBOUND:                -0.148
REMARK SMILES CCCCCC(=O)[O-]
REMARK SMILES IDX 4 1 5 2 6 3 7 4 8 5 3 6 2 7 1 8
REMARK H PARENT
REMARK Flexibility Score: inf
ROOT
ATOM      1  C   UNL     1      -6.141  20.213  -9.126  1.00  0.00     0.006 C 
ENDROOT
BRANCH   1   2
ATOM      2  C   UNL     1      -6.088  20.531 -10.623  1.00  0.00     0.053 C 
BRANCH   2   3
ATOM      3  C   UNL     1      -7.327  21.253 -11.051  1.00  0.00     0.041 C 
ATOM      4  O   UNL     1      -7.413  22.501 -10.909  1.00  0.00    -0.550 OA
ATOM      5  O   UNL     1      -8.406  20.541 -11.558  1.00  0.00    -0.550 OA
ENDBRANCH   2   3
ENDBRANCH   1   2
BRANCH   1   6
ATOM      6  C   UNL     1      -6.141  18.696  -8.886  1.00  0.00     0.000 C 
BRANCH   6   7
ATOM      7  C   UNL     1      -6.861  18.304  -7.587  1.00  0.00    -0.003 C 
ATOM      8  C   UNL     1      -7.880  19.351  -7.135  1.00  0.00     0.004 C 
ENDBRANCH   6   7
ENDBRANCH   1   6
TORSDOF 4
ENDMDL
MODEL 4
REMARK VINA RESULT:    -3.429      1.076      1.398
REMARK INTER + INTRA:          -4.378
REMARK INTER:                  -4.288
REMARK INTRA:                  -0.090
REMARK UNBOUND:                -0.148
REMARK SMILES CCCCCC(=O)[O-]
REMARK SMILES IDX 4 1 5 2 6 3 7 4 8 5 3 6 2 7 1 8
REMARK H PARENT
REMARK Flexibility Score: inf
ROOT
ATOM      1  C   UNL     1      -6.248  20.136  -9.224  1.00  0.00     0.006 C 
ENDROOT
BRANCH   1   2
ATOM      2  C   UNL     1      -6.403  20.361 -10.732  1.00  0.00     0.053 C 
BRANCH   2   3
ATOM      3  C   UNL     1      -6.012  21.759 -11.096  1.00  0.00     0.041 C 
ATOM      4  O   UNL     1      -4.908  21.982 -11.659  1.00  0.00    -0.550 OA
ATOM      5  O   UNL     1      -6.845  22.822 -10.768  1.00  0.00    -0.550 OA
ENDBRANCH   2   3
ENDBRANCH   1   2
BRANCH   1   6
ATOM      6  C   UNL     1      -6.246  18.637  -8.891  1.00  0.00     0.000 C 
BRANCH   6   7
ATOM      7  C   UNL     1      -6.894  18.333  -7.531  1.00  0.00    -0.003 C 
ATOM      8  C   UNL     1      -7.892  19.408  -7.098  1.00  0.00     0.004 C 
ENDBRANCH   6   7
ENDBRANCH   1   6
TORSDOF 4
ENDMDL
MODEL 5
REMARK VINA RESULT:    -3.014      2.754      4.424
REMARK INTER + INTRA:          -3.866
REMARK INTER:                  -3.790
REMARK INTRA:                  -0.076
REMARK UNBOUND:                -0.148
REMARK SMILES CCCCCC(=O)[O-]
REMARK SMILES IDX 4 1 5 2 6 3 7 4 8 5 3 6 2 7 1 8
REMARK H PARENT
REMARK Flexibility Score: inf
ROOT
ATOM      1  C   UNL     1      -6.950  20.654 -10.234  1.00  0.00     0.006 C 
ENDROOT
BRANCH   1   2
ATOM      2  C   UNL     1      -6.470  20.339  -8.814  1.00  0.00     0.053 C 
BRANCH   2   3
ATOM      3  C   UNL     1      -7.274  19.222  -8.224  1.00  0.00     0.041 C 
ATOM      4  O   UNL     1      -7.315  18.102  -8.797  1.00  0.00    -0.550 OA
ATOM      5  O   UNL     1      -8.018  19.434  -7.070  1.00  0.00    -0.550 OA
ENDBRANCH   2   3
ENDBRANCH   1   2
BRANCH   1   6
ATOM      6  C   UNL     1      -5.853  20.349 -11.264  1.00  0.00     0.000 C 
BRANCH   6   7
ATOM      7  C   UNL     1      -6.410  20.175 -12.685  1.00  0.00    -0.003 C 
ATOM      8  C   UNL     1      -5.540  19.266 -13.554  1.00  0.00     0.004 C 
ENDBRANCH   6   7
ENDBRANCH   1   6
TORSDOF 4
ENDMDL
MODEL 6
REMARK VINA RESULT:    -2.861      2.970      4.196
REMARK INTER + INTRA:          -3.678
REMARK INTER:                  -3.552
REMARK INTRA:                  -0.126
REMARK UNBOUND:                -0.148
REMARK SMILES CCCCCC(=O)[O-]
REMARK SMILES IDX 4 1 5 2 6 3 7 4 8 5 3 6 2 7 1 8
REMARK H PARENT
REMARK Flexibility Score: inf
ROOT
ATOM      1  C   UNL     1      -6.309  19.826 -10.404  1.00  0.00     0.006 C 
ENDROOT
BRANCH   1   2
ATOM      2  C   UNL     1      -6.201  19.904  -8.878  1.00  0.00     0.053 C 
BRANCH   2   3
ATOM      3  C   UNL     1      -7.208  19.003  -8.234  1.00  0.00     0.041 C 
ATOM      4  O   UNL     1      -7.491  17.893  -8.758  1.00  0.00    -0.550 OA
ATOM      5  O   UNL     1      -7.872  19.411  -7.084  1.00  0.00    -0.550 OA
ENDBRANCH   2   3
ENDBRANCH   1   2
BRANCH   1   6
ATOM      6  C   UNL     1      -7.137  20.996 -10.956  1.00  0.00     0.000 C 
BRANCH   6   7
ATOM      7  C   UNL     1      -6.670  22.356 -10.419  1.00  0.00    -0.003 C 
ATOM      8  C   UNL     1      -7.461  23.527 -11.003  1.00  0.00     0.004 C 
ENDBRANCH   6   7
ENDBRANCH   1   6
TORSDOF 4
ENDMDL
MODEL 7
REMARK VINA RESULT:    -2.857     11.591     12.571
REMARK INTER + INTRA:          -3.673
REMARK INTER:                  -3.568
REMARK INTRA:                  -0.105
REMARK UNBOUND:                -0.148
REMARK SMILES CCCCCC(=O)[O-]
REMARK SMILES IDX 4 1 5 2 6 3 7 4 8 5 3 6 2 7 1 8
REMARK H PARENT
REMARK Flexibility Score: inf
ROOT
ATOM      1  C   UNL     1      -4.733  30.971  -7.436  1.00  0.00     0.006 C 
ENDROOT
BRANCH   1   2
ATOM      2  C   UNL     1      -5.697  31.883  -6.670  1.00  0.00     0.053 C 
BRANCH   2   3
ATOM      3  C   UNL     1      -4.945  32.770  -5.728  1.00  0.00     0.041 C 
ATOM      4  O   UNL     1      -4.442  33.848  -6.140  1.00  0.00    -0.550 OA
ATOM      5  O   UNL     1      -4.755  32.381  -4.408  1.00  0.00    -0.550 OA
ENDBRANCH   2   3
ENDBRANCH   1   2
BRANCH   1   6
ATOM      6  C   UNL     1      -5.238  30.713  -8.863  1.00  0.00     0.000 C 
BRANCH   6   7
ATOM      7  C   UNL     1      -6.254  29.564  -8.931  1.00  0.00    -0.003 C 
ATOM      8  C   UNL     1      -7.654  30.033  -9.328  1.00  0.00     0.004 C 
ENDBRANCH   6   7
ENDBRANCH   1   6
TORSDOF 4
ENDMDL
MODEL 8
REMARK VINA RESULT:    -2.856     11.084     11.912
REMARK INTER + INTRA:          -3.671
REMARK INTER:                  -3.545
REMARK INTRA:                  -0.127
REMARK UNBOUND:                -0.148
REMARK SMILES CCCCCC(=O)[O-]
REMARK SMILES IDX 4 1 5 2 6 3 7 4 8 5 3 6 2 7 1 8
REMARK H PARENT
REMARK Flexibility Score: inf
ROOT
ATOM      1  C   UNL     1      -4.788  30.936  -7.394  1.00  0.00     0.006 C 
ENDROOT
BRANCH   1   2
ATOM      2  C   UNL     1      -5.266  30.673  -8.826  1.00  0.00     0.053 C 
BRANCH   2   3
ATOM      3  C   UNL     1      -6.467  29.782  -8.822  1.00  0.00     0.041 C 
ATOM      4  O   UNL     1      -6.426  28.666  -8.241  1.00  0.00    -0.550 OA
ATOM      5  O   UNL     1      -7.617  30.161  -9.505  1.00  0.00    -0.550 OA
ENDBRANCH   2   3
ENDBRANCH   1   2
BRANCH   1   6
ATOM      6  C   UNL     1      -5.700  31.952  -6.689  1.00  0.00     0.000 C 
BRANCH   6   7
ATOM      7  C   UNL     1      -4.974  32.725  -5.578  1.00  0.00    -0.003 C 
ATOM      8  C   UNL     1      -4.301  34.000  -6.085  1.00  0.00     0.004 C 
ENDBRANCH   6   7
ENDBRANCH   1   6
TORSDOF 4
ENDMDL
MODEL 9
REMARK VINA RESULT:    -2.788     10.123     11.058
REMARK INTER + INTRA:          -3.588
REMARK INTER:                  -3.425
REMARK INTRA:                  -0.163
REMARK UNBOUND:                -0.148
REMARK SMILES CCCCCC(=O)[O-]
REMARK SMILES IDX 4 1 5 2 6 3 7 4 8 5 3 6 2 7 1 8
REMARK H PARENT
REMARK Flexibility Score: inf
ROOT
ATOM      1  C   UNL     1     -14.269  27.861 -11.378  1.00  0.00     0.006 C 
ENDROOT
BRANCH   1   2
ATOM      2  C   UNL     1     -13.569  28.030 -10.026  1.00  0.00     0.053 C 
BRANCH   2   3
ATOM      3  C   UNL     1     -12.641  26.885  -9.769  1.00  0.00     0.041 C 
ATOM      4  O   UNL     1     -12.555  25.941 -10.598  1.00  0.00    -0.550 OA
ATOM      5  O   UNL     1     -11.909  26.834  -8.589  1.00  0.00    -0.550 OA
ENDBRANCH   2   3
ENDBRANCH   1   2
BRANCH   1   6
ATOM      6  C   UNL     1     -15.780  27.653 -11.193  1.00  0.00     0.000 C 
BRANCH   6   7
ATOM      7  C   UNL     1     -16.386  26.737 -12.266  1.00  0.00    -0.003 C 
ATOM      8  C   UNL     1     -15.866  25.302 -12.182  1.00  0.00     0.004 C 
ENDBRANCH   6   7
ENDBRANCH   1   6
TORSDOF 4
ENDMDL
