MODEL 1
REMARK VINA RESULT:    -3.596      0.000      0.000
REMARK INTER + INTRA:          -6.105
REMARK INTER:                  -5.172
REMARK INTRA:                  -0.933
REMARK UNBOUND:                -0.933
REMARK SMILES O=C(CO)[C@H](O)[C@@H](O)[C@H](O)CO
REMARK SMILES IDX 7 1 9 2 11 3 12 4 10 6 5 8 2 9 1 10 3 11 4 12 6 14 8 16
REMARK H PARENT 12 5 10 7 4 13 6 15 8 17
REMARK Flexibility Score: inf
ROOT
ATOM      1  C   UNL     1      44.833  27.622  -2.661  1.00  0.00     0.181 C 
ENDROOT
BRANCH   1   2
ATOM      2  C   UNL     1      46.048  28.130  -1.843  1.00  0.00     0.171 C 
BRANCH   2   3
ATOM      3  C   UNL     1      45.666  28.411  -0.378  1.00  0.00     0.190 C 
BRANCH   3   4
ATOM      4  O   UNL     1      45.228  27.243   0.262  1.00  0.00    -0.394 OA
ATOM      5  H   UNL     1      44.886  26.640  -0.449  1.00  0.00     0.210 HD
ENDBRANCH   3   4
ENDBRANCH   2   3
BRANCH   2   6
ATOM      6  O   UNL     1      47.085  27.182  -1.878  1.00  0.00    -0.388 OA
ATOM      7  H   UNL     1      46.667  26.303  -2.075  1.00  0.00     0.211 HD
ENDBRANCH   2   6
ENDBRANCH   1   2
BRANCH   1   8
ATOM      8  C   UNL     1      45.088  27.650  -4.190  1.00  0.00     0.214 C 
BRANCH   8   9
ATOM      9  C   UNL     1      43.775  27.704  -4.941  1.00  0.00     0.189 C 
ATOM     10  O   UNL     1      42.729  27.599  -4.316  1.00  0.00    -0.294 OA
BRANCH   9  11
ATOM     11  C   UNL     1      43.736  27.902  -6.437  1.00  0.00     0.234 C 
BRANCH  11  12
ATOM     12  O   UNL     1      44.157  26.748  -7.115  1.00  0.00    -0.388 OA
ATOM     13  H   UNL     1      43.819  26.825  -8.046  1.00  0.00     0.211 HD
ENDBRANCH  11  12
ENDBRANCH   9  11
ENDBRANCH   8   9
BRANCH   8  14
ATOM     14  O   UNL     1      45.828  26.524  -4.592  1.00  0.00    -0.382 OA
ATOM     15  H   UNL     1      46.317  26.770  -5.420  1.00  0.00     0.211 HD
ENDBRANCH   8  14
ENDBRANCH   1   8
BRANCH   1  16
ATOM     16  O   UNL     1      44.423  26.345  -2.232  1.00  0.00    -0.387 OA
ATOM     17  H   UNL     1      43.585  26.116  -2.710  1.00  0.00     0.211 HD
ENDBRANCH   1  16
TORSDOF 10
ENDMDL
MODEL 2
REMARK VINA RESULT:    -3.562      1.667      2.253
REMARK INTER + INTRA:          -6.056
REMARK INTER:                  -5.395
REMARK INTRA:                  -0.661
REMARK UNBOUND:                -0.933
REMARK SMILES O=C(CO)[C@H](O)[C@@H](O)[C@H](O)CO
REMARK SMILES IDX 7 1 9 2 11 3 12 4 10 6 5 8 2 9 1 10 3 11 4 12 6 14 8 16
REMARK H PARENT 12 5 10 7 4 13 6 15 8 17
REMARK Flexibility Score: inf
ROOT
ATOM      1  C   UNL     1      44.061  27.632  -3.810  1.00  0.00     0.181 C 
ENDROOT
BRANCH   1   2
ATOM      2  C   UNL     1      45.537  27.787  -3.363  1.00  0.00     0.171 C 
BRANCH   2   3
ATOM      3  C   UNL     1      45.668  27.768  -1.829  1.00  0.00     0.190 C 
BRANCH   3   4
ATOM      4  O   UNL     1      44.898  26.740  -1.269  1.00  0.00    -0.394 OA
ATOM      5  H   UNL     1      45.056  25.932  -1.823  1.00  0.00     0.210 HD
ENDBRANCH   3   4
ENDBRANCH   2   3
BRANCH   2   6
ATOM      6  O   UNL     1      46.319  26.754  -3.907  1.00  0.00    -0.388 OA
ATOM      7  H   UNL     1      46.452  26.082  -3.188  1.00  0.00     0.211 HD
ENDBRANCH   2   6
ENDBRANCH   1   2
BRANCH   1   8
ATOM      8  C   UNL     1      43.815  28.150  -5.251  1.00  0.00     0.214 C 
BRANCH   8   9
ATOM      9  C   UNL     1      42.385  28.619  -5.404  1.00  0.00     0.189 C 
ATOM     10  O   UNL     1      41.549  28.248  -4.593  1.00  0.00    -0.294 OA
BRANCH   9  11
ATOM     11  C   UNL     1      41.980  29.546  -6.525  1.00  0.00     0.234 C 
BRANCH  11  12
ATOM     12  O   UNL     1      40.726  30.125  -6.280  1.00  0.00    -0.388 OA
ATOM     13  H   UNL     1      40.744  30.457  -5.344  1.00  0.00     0.211 HD
ENDBRANCH  11  12
ENDBRANCH   9  11
ENDBRANCH   8   9
BRANCH   8  14
ATOM     14  O   UNL     1      44.099  27.146  -6.195  1.00  0.00    -0.382 OA
ATOM     15  H   UNL     1      43.274  26.998  -6.727  1.00  0.00     0.211 HD
ENDBRANCH   8  14
ENDBRANCH   1   8
BRANCH   1  16
ATOM     16  O   UNL     1      43.616  26.305  -3.659  1.00  0.00    -0.387 OA
ATOM     17  H   UNL     1      43.645  26.081  -2.693  1.00  0.00     0.211 HD
ENDBRANCH   1  16
TORSDOF 10
ENDMDL
MODEL 3
REMARK VINA RESULT:    -3.506      1.726      4.777
REMARK INTER + INTRA:          -5.976
REMARK INTER:                  -5.028
REMARK INTRA:                  -0.948
REMARK UNBOUND:                -0.933
REMARK SMILES O=C(CO)[C@H](O)[C@@H](O)[C@H](O)CO
REMARK SMILES IDX 7 1 9 2 11 3 12 4 10 6 5 8 2 9 1 10 3 11 4 12 6 14 8 16
REMARK H PARENT 12 5 10 7 4 13 6 15 8 17
REMARK Flexibility Score: inf
ROOT
ATOM      1  C   UNL     1      43.819  28.167  -5.217  1.00  0.00     0.181 C 
ENDROOT
BRANCH   1   2
ATOM      2  C   UNL     1      42.509  28.874  -4.784  1.00  0.00     0.171 C 
BRANCH   2   3
ATOM      3  C   UNL     1      41.742  29.434  -5.996  1.00  0.00     0.190 C 
BRANCH   3   4
ATOM      4  O   UNL     1      42.570  29.515  -7.124  1.00  0.00    -0.394 OA
ATOM      5  H   UNL     1      42.141  28.967  -7.832  1.00  0.00     0.210 HD
ENDBRANCH   3   4
ENDBRANCH   2   3
BRANCH   2   6
ATOM      6  O   UNL     1      41.682  27.976  -4.088  1.00  0.00    -0.388 OA
ATOM      7  H   UNL     1      41.191  28.505  -3.405  1.00  0.00     0.211 HD
ENDBRANCH   2   6
ENDBRANCH   1   2
BRANCH   1   8
ATOM      8  C   UNL     1      44.623  27.608  -4.014  1.00  0.00     0.214 C 
BRANCH   8   9
ATOM      9  C   UNL     1      46.086  27.477  -4.375  1.00  0.00     0.189 C 
ATOM     10  O   UNL     1      46.431  27.665  -5.533  1.00  0.00    -0.294 OA
BRANCH   9  11
ATOM     11  C   UNL     1      47.123  27.140  -3.331  1.00  0.00     0.234 C 
BRANCH  11  12
ATOM     12  O   UNL     1      46.531  26.913  -2.079  1.00  0.00    -0.388 OA
ATOM     13  H   UNL     1      47.110  27.357  -1.405  1.00  0.00     0.211 HD
ENDBRANCH  11  12
ENDBRANCH   9  11
ENDBRANCH   8   9
BRANCH   8  14
ATOM     14  O   UNL     1      44.111  26.361  -3.611  1.00  0.00    -0.382 OA
ATOM     15  H   UNL     1      44.804  25.678  -3.810  1.00  0.00     0.211 HD
ENDBRANCH   8  14
ENDBRANCH   1   8
BRANCH   1  16
ATOM     16  O   UNL     1      43.570  27.167  -6.177  1.00  0.00    -0.387 OA
ATOM     17  H   UNL     1      43.558  27.597  -7.070  1.00  0.00     0.211 HD
ENDBRANCH   1  16
TORSDOF 10
ENDMDL
MODEL 4
REMARK VINA RESULT:    -3.323      1.401      4.789
REMARK INTER + INTRA:          -5.712
REMARK INTER:                  -4.675
REMARK INTRA:                  -1.036
REMARK UNBOUND:                -0.933
REMARK SMILES O=C(CO)[C@H](O)[C@@H](O)[C@H](O)CO
REMARK SMILES IDX 7 1 9 2 11 3 12 4 10 6 5 8 2 9 1 10 3 11 4 12 6 14 8 16
REMARK H PARENT 12 5 10 7 4 13 6 15 8 17
REMARK Flexibility Score: inf
ROOT
ATOM      1  C   UNL     1      44.667  28.481  -3.001  1.00  0.00     0.181 C 
ENDROOT
BRANCH   1   2
ATOM      2  C   UNL     1      43.776  27.664  -3.971  1.00  0.00     0.171 C 
BRANCH   2   3
ATOM      3  C   UNL     1      44.300  27.736  -5.417  1.00  0.00     0.190 C 
BRANCH   3   4
ATOM      4  O   UNL     1      45.480  26.993  -5.564  1.00  0.00    -0.394 OA
ATOM      5  H   UNL     1      45.267  26.063  -5.291  1.00  0.00     0.210 HD
ENDBRANCH   3   4
ENDBRANCH   2   3
BRANCH   2   6
ATOM      6  O   UNL     1      43.724  26.319  -3.563  1.00  0.00    -0.388 OA
ATOM      7  H   UNL     1      44.160  26.270  -2.672  1.00  0.00     0.211 HD
ENDBRANCH   2   6
ENDBRANCH   1   2
BRANCH   1   8
ATOM      8  C   UNL     1      45.447  27.584  -2.005  1.00  0.00     0.214 C 
BRANCH   8   9
ATOM      9  C   UNL     1      46.111  28.433  -0.942  1.00  0.00     0.189 C 
ATOM     10  O   UNL     1      46.819  29.368  -1.286  1.00  0.00    -0.294 OA
BRANCH   9  11
ATOM     11  C   UNL     1      45.898  28.155   0.527  1.00  0.00     0.234 C 
BRANCH  11  12
ATOM     12  O   UNL     1      44.987  27.106   0.720  1.00  0.00    -0.388 OA
ATOM     13  H   UNL     1      44.090  27.459   0.479  1.00  0.00     0.211 HD
ENDBRANCH  11  12
ENDBRANCH   9  11
ENDBRANCH   8   9
BRANCH   8  14
ATOM     14  O   UNL     1      46.411  26.814  -2.681  1.00  0.00    -0.382 OA
ATOM     15  H   UNL     1      46.159  25.860  -2.570  1.00  0.00     0.211 HD
ENDBRANCH   8  14
ENDBRANCH   1   8
BRANCH   1  16
ATOM     16  O   UNL     1      45.532  29.343  -3.702  1.00  0.00    -0.387 OA
ATOM     17  H   UNL     1      45.072  29.629  -4.533  1.00  0.00     0.211 HD
ENDBRANCH   1  16
TORSDOF 10
ENDMDL
MODEL 5
REMARK VINA RESULT:    -3.154      1.442      4.647
REMARK INTER + INTRA:          -5.470
REMARK INTER:                  -4.464
REMARK INTRA:                  -1.006
REMARK UNBOUND:                -0.933
REMARK SMILES O=C(CO)[C@H](O)[C@@H](O)[C@H](O)CO
REMARK SMILES IDX 7 1 9 2 11 3 12 4 10 6 5 8 2 9 1 10 3 11 4 12 6 14 8 16
REMARK H PARENT 12 5 10 7 4 13 6 15 8 17
REMARK Flexibility Score: inf
ROOT
ATOM      1  C   UNL     1      44.895  27.771  -4.230  1.00  0.00     0.181 C 
ENDROOT
BRANCH   1   2
ATOM      2  C   UNL     1      44.110  28.495  -5.354  1.00  0.00     0.171 C 
BRANCH   2   3
ATOM      3  C   UNL     1      42.623  28.096  -5.353  1.00  0.00     0.190 C 
BRANCH   3   4
ATOM      4  O   UNL     1      41.987  28.524  -4.179  1.00  0.00    -0.394 OA
ATOM      5  H   UNL     1      41.971  29.516  -4.209  1.00  0.00     0.210 HD
ENDBRANCH   3   4
ENDBRANCH   2   3
BRANCH   2   6
ATOM      6  O   UNL     1      44.216  29.888  -5.198  1.00  0.00    -0.388 OA
ATOM      7  H   UNL     1      44.961  30.052  -4.561  1.00  0.00     0.211 HD
ENDBRANCH   2   6
ENDBRANCH   1   2
BRANCH   1   8
ATOM      8  C   UNL     1      45.288  28.719  -3.068  1.00  0.00     0.214 C 
BRANCH   8   9
ATOM      9  C   UNL     1      46.000  27.948  -1.978  1.00  0.00     0.189 C 
ATOM     10  O   UNL     1      46.785  27.065  -2.292  1.00  0.00    -0.294 OA
BRANCH   9  11
ATOM     11  C   UNL     1      45.771  28.262  -0.519  1.00  0.00     0.234 C 
BRANCH  11  12
ATOM     12  O   UNL     1      45.174  27.181   0.148  1.00  0.00    -0.388 OA
ATOM     13  H   UNL     1      44.785  27.544   0.987  1.00  0.00     0.211 HD
ENDBRANCH  11  12
ENDBRANCH   9  11
ENDBRANCH   8   9
BRANCH   8  14
ATOM     14  O   UNL     1      44.150  29.359  -2.543  1.00  0.00    -0.382 OA
ATOM     15  H   UNL     1      43.371  29.071  -3.086  1.00  0.00     0.211 HD
ENDBRANCH   8  14
ENDBRANCH   1   8
BRANCH   1  16
ATOM     16  O   UNL     1      44.194  26.644  -3.758  1.00  0.00    -0.387 OA
ATOM     17  H   UNL     1      44.474  26.479  -2.821  1.00  0.00     0.211 HD
ENDBRANCH   1  16
TORSDOF 10
ENDMDL
MODEL 6
REMARK VINA RESULT:    -3.050      1.845      4.543
REMARK INTER + INTRA:          -5.320
REMARK INTER:                  -4.122
REMARK INTRA:                  -1.198
REMARK UNBOUND:                -0.933
REMARK SMILES O=C(CO)[C@H](O)[C@@H](O)[C@H](O)CO
REMARK SMILES IDX 7 1 9 2 11 3 12 4 10 6 5 8 2 9 1 10 3 11 4 12 6 14 8 16
REMARK H PARENT 12 5 10 7 4 13 6 15 8 17
REMARK Flexibility Score: inf
ROOT
ATOM      1  C   UNL     1      45.977  27.439  -4.626  1.00  0.00     0.181 C 
ENDROOT
BRANCH   1   2
ATOM      2  C   UNL     1      45.747  28.286  -5.904  1.00  0.00     0.171 C 
BRANCH   2   3
ATOM      3  C   UNL     1      45.429  27.398  -7.122  1.00  0.00     0.190 C 
BRANCH   3   4
ATOM      4  O   UNL     1      44.082  27.009  -7.125  1.00  0.00    -0.394 OA
ATOM      5  H   UNL     1      43.640  27.521  -7.851  1.00  0.00     0.210 HD
ENDBRANCH   3   4
ENDBRANCH   2   3
BRANCH   2   6
ATOM      6  O   UNL     1      44.690  29.190  -5.702  1.00  0.00    -0.388 OA
ATOM      7  H   UNL     1      44.495  29.609  -6.581  1.00  0.00     0.211 HD
ENDBRANCH   2   6
ENDBRANCH   1   2
BRANCH   1   8
ATOM      8  C   UNL     1      46.416  28.296  -3.411  1.00  0.00     0.214 C 
BRANCH   8   9
ATOM      9  C   UNL     1      45.265  28.461  -2.442  1.00  0.00     0.189 C 
ATOM     10  O   UNL     1      44.359  29.232  -2.723  1.00  0.00    -0.294 OA
BRANCH   9  11
ATOM     11  C   UNL     1      45.211  27.680  -1.151  1.00  0.00     0.234 C 
BRANCH  11  12
ATOM     12  O   UNL     1      44.708  26.387  -1.358  1.00  0.00    -0.388 OA
ATOM     13  H   UNL     1      43.991  26.249  -0.684  1.00  0.00     0.211 HD
ENDBRANCH  11  12
ENDBRANCH   9  11
ENDBRANCH   8   9
BRANCH   8  14
ATOM     14  O   UNL     1      46.878  29.556  -3.833  1.00  0.00    -0.382 OA
ATOM     15  H   UNL     1      47.802  29.433  -4.174  1.00  0.00     0.211 HD
ENDBRANCH   8  14
ENDBRANCH   1   8
BRANCH   1  16
ATOM     16  O   UNL     1      44.848  26.655  -4.321  1.00  0.00    -0.387 OA
ATOM     17  H   UNL     1      44.799  26.559  -3.334  1.00  0.00     0.211 HD
ENDBRANCH   1  16
TORSDOF 10
ENDMDL
MODEL 7
REMARK VINA RESULT:    -3.017      1.476      4.592
REMARK INTER + INTRA:          -5.272
REMARK INTER:                  -4.463
REMARK INTRA:                  -0.808
REMARK UNBOUND:                -0.933
REMARK SMILES O=C(CO)[C@H](O)[C@@H](O)[C@H](O)CO
REMARK SMILES IDX 7 1 9 2 11 3 12 4 10 6 5 8 2 9 1 10 3 11 4 12 6 14 8 16
REMARK H PARENT 12 5 10 7 4 13 6 15 8 17
REMARK Flexibility Score: inf
ROOT
ATOM      1  C   UNL     1      43.045  27.826  -4.810  1.00  0.00     0.181 C 
ENDROOT
BRANCH   1   2
ATOM      2  C   UNL     1      43.815  28.716  -5.820  1.00  0.00     0.171 C 
BRANCH   2   3
ATOM      3  C   UNL     1      44.118  27.957  -7.125  1.00  0.00     0.190 C 
BRANCH   3   4
ATOM      4  O   UNL     1      45.077  26.956  -6.916  1.00  0.00    -0.394 OA
ATOM      5  H   UNL     1      44.866  26.539  -6.040  1.00  0.00     0.210 HD
ENDBRANCH   3   4
ENDBRANCH   2   3
BRANCH   2   6
ATOM      6  O   UNL     1      43.067  29.868  -6.117  1.00  0.00    -0.388 OA
ATOM      7  H   UNL     1      42.116  29.588  -6.180  1.00  0.00     0.211 HD
ENDBRANCH   2   6
ENDBRANCH   1   2
BRANCH   1   8
ATOM      8  C   UNL     1      43.941  27.333  -3.644  1.00  0.00     0.214 C 
BRANCH   8   9
ATOM      9  C   UNL     1      44.645  28.502  -2.991  1.00  0.00     0.189 C 
ATOM     10  O   UNL     1      43.986  29.467  -2.633  1.00  0.00    -0.294 OA
BRANCH   9  11
ATOM     11  C   UNL     1      46.137  28.486  -2.759  1.00  0.00     0.234 C 
BRANCH  11  12
ATOM     12  O   UNL     1      46.526  27.363  -2.014  1.00  0.00    -0.388 OA
ATOM     13  H   UNL     1      47.000  26.756  -2.641  1.00  0.00     0.211 HD
ENDBRANCH  11  12
ENDBRANCH   9  11
ENDBRANCH   8   9
BRANCH   8  14
ATOM     14  O   UNL     1      44.884  26.395  -4.104  1.00  0.00    -0.382 OA
ATOM     15  H   UNL     1      44.592  25.501  -3.786  1.00  0.00     0.211 HD
ENDBRANCH   8  14
ENDBRANCH   1   8
BRANCH   1  16
ATOM     16  O   UNL     1      41.890  28.474  -4.331  1.00  0.00    -0.387 OA
ATOM     17  H   UNL     1      42.060  29.452  -4.343  1.00  0.00     0.211 HD
ENDBRANCH   1  16
TORSDOF 10
ENDMDL
MODEL 8
REMARK VINA RESULT:    -3.008      1.675      2.432
REMARK INTER + INTRA:          -5.259
REMARK INTER:                  -4.467
REMARK INTRA:                  -0.792
REMARK UNBOUND:                -0.933
REMARK SMILES O=C(CO)[C@H](O)[C@@H](O)[C@H](O)CO
REMARK SMILES IDX 7 1 9 2 11 3 12 4 10 6 5 8 2 9 1 10 3 11 4 12 6 14 8 16
REMARK H PARENT 12 5 10 7 4 13 6 15 8 17
REMARK Flexibility Score: inf
ROOT
ATOM      1  C   UNL     1      45.383  27.997  -1.426  1.00  0.00     0.181 C 
ENDROOT
BRANCH   1   2
ATOM      2  C   UNL     1      45.710  28.770  -0.122  1.00  0.00     0.171 C 
BRANCH   2   3
ATOM      3  C   UNL     1      46.427  27.873   0.903  1.00  0.00     0.190 C 
BRANCH   3   4
ATOM      4  O   UNL     1      45.509  27.101   1.628  1.00  0.00    -0.394 OA
ATOM      5  H   UNL     1      45.791  27.141   2.579  1.00  0.00     0.210 HD
ENDBRANCH   3   4
ENDBRANCH   2   3
BRANCH   2   6
ATOM      6  O   UNL     1      46.518  29.883  -0.409  1.00  0.00    -0.388 OA
ATOM      7  H   UNL     1      46.022  30.440  -1.065  1.00  0.00     0.211 HD
ENDBRANCH   2   6
ENDBRANCH   1   2
BRANCH   1   8
ATOM      8  C   UNL     1      46.583  27.946  -2.407  1.00  0.00     0.214 C 
BRANCH   8   9
ATOM      9  C   UNL     1      46.151  28.391  -3.788  1.00  0.00     0.189 C 
ATOM     10  O   UNL     1      46.130  29.585  -4.047  1.00  0.00    -0.294 OA
BRANCH   9  11
ATOM     11  C   UNL     1      45.767  27.388  -4.850  1.00  0.00     0.234 C 
BRANCH  11  12
ATOM     12  O   UNL     1      44.820  26.473  -4.367  1.00  0.00    -0.388 OA
ATOM     13  H   UNL     1      43.964  26.680  -4.827  1.00  0.00     0.211 HD
ENDBRANCH  11  12
ENDBRANCH   9  11
ENDBRANCH   8   9
BRANCH   8  14
ATOM     14  O   UNL     1      47.123  26.648  -2.464  1.00  0.00    -0.382 OA
ATOM     15  H   UNL     1      47.195  26.399  -3.423  1.00  0.00     0.211 HD
ENDBRANCH   8  14
ENDBRANCH   1   8
BRANCH   1  16
ATOM     16  O   UNL     1      44.892  26.707  -1.148  1.00  0.00    -0.387 OA
ATOM     17  H   UNL     1      43.901  26.754  -1.132  1.00  0.00     0.211 HD
ENDBRANCH   1  16
TORSDOF 10
ENDMDL
MODEL 9
REMARK VINA RESULT:    -2.582      0.883      4.924
REMARK INTER + INTRA:          -4.647
REMARK INTER:                  -3.845
REMARK INTRA:                  -0.801
REMARK UNBOUND:                -0.933
REMARK SMILES O=C(CO)[C@H](O)[C@@H](O)[C@H](O)CO
REMARK SMILES IDX 7 1 9 2 11 3 12 4 10 6 5 8 2 9 1 10 3 11 4 12 6 14 8 16
REMARK H PARENT 12 5 10 7 4 13 6 15 8 17
REMARK Flexibility Score: inf
ROOT
ATOM      1  C   UNL     1      45.216  28.193  -4.626  1.00  0.00     0.181 C 
ENDROOT
BRANCH   1   2
ATOM      2  C   UNL     1      44.172  28.673  -5.667  1.00  0.00     0.171 C 
BRANCH   2   3
ATOM      3  C   UNL     1      44.460  28.096  -7.065  1.00  0.00     0.190 C 
BRANCH   3   4
ATOM      4  O   UNL     1      44.135  26.734  -7.125  1.00  0.00    -0.394 OA
ATOM      5  H   UNL     1      43.324  26.659  -7.693  1.00  0.00     0.210 HD
ENDBRANCH   3   4
ENDBRANCH   2   3
BRANCH   2   6
ATOM      6  O   UNL     1      42.879  28.294  -5.266  1.00  0.00    -0.388 OA
ATOM      7  H   UNL     1      42.974  27.806  -4.406  1.00  0.00     0.211 HD
ENDBRANCH   2   6
ENDBRANCH   1   2
BRANCH   1   8
ATOM      8  C   UNL     1      44.562  27.663  -3.324  1.00  0.00     0.214 C 
BRANCH   8   9
ATOM      9  C   UNL     1      45.582  27.610  -2.207  1.00  0.00     0.189 C 
ATOM     10  O   UNL     1      46.681  27.123  -2.431  1.00  0.00    -0.294 OA
BRANCH   9  11
ATOM     11  C   UNL     1      45.272  28.161  -0.836  1.00  0.00     0.234 C 
BRANCH  11  12
ATOM     12  O   UNL     1      45.234  27.141   0.126  1.00  0.00    -0.388 OA
ATOM     13  H   UNL     1      45.982  27.316   0.756  1.00  0.00     0.211 HD
ENDBRANCH  11  12
ENDBRANCH   9  11
ENDBRANCH   8   9
BRANCH   8  14
ATOM     14  O   UNL     1      44.005  26.387  -3.531  1.00  0.00    -0.382 OA
ATOM     15  H   UNL     1      43.031  26.510  -3.680  1.00  0.00     0.211 HD
ENDBRANCH   8  14
ENDBRANCH   1   8
BRANCH   1  16
ATOM     16  O   UNL     1      46.095  27.245  -5.182  1.00  0.00    -0.387 OA
ATOM     17  H   UNL     1      45.664  26.863  -5.989  1.00  0.00     0.211 HD
ENDBRANCH   1  16
TORSDOF 10
ENDMDL
