MODEL 1
REMARK VINA RESULT:    -5.601      0.000      0.000
REMARK INTER + INTRA:          -8.745
REMARK INTER:                  -7.566
REMARK INTRA:                  -1.179
REMARK UNBOUND:                -1.179
REMARK SMILES O=c1c(-c2ccc(O)cc2)coc2c([C@@H]3O[C@H](CO)[C@H](O)[C@H](O)[C@@H]3O)c(O)ccc12
REMARK SMILES IDX 3 1 11 2 12 3 13 4 30 5 2 6 1 7 29 8 28 9 26 10 14 11 4 12
REMARK SMILES IDX 5 13 6 14 7 15 10 16 9 17 8 18 15 20 24 21 16 22 22 23 17 24
REMARK SMILES IDX 20 25 25 26 23 28 18 30 19 31 21 33 27 35
REMARK H PARENT 8 19 25 27 23 29 19 32 21 34 27 36
REMARK Flexibility Score: inf
ROOT
ATOM      1  C   UNL     1      -4.817  32.407  44.384  1.00  0.00     0.065 A 
ATOM      2  C   UNL     1      -3.902  32.440  43.321  1.00  0.00     0.208 A 
ATOM      3  O   UNL     1      -3.045  31.445  43.130  1.00  0.00    -0.463 OA
ATOM      4  C   UNL     1      -2.990  30.369  43.912  1.00  0.00     0.147 A 
ATOM      5  C   UNL     1      -3.876  30.256  45.008  1.00  0.00     0.066 A 
ATOM      6  C   UNL     1      -4.804  31.288  45.236  1.00  0.00     0.200 A 
ATOM      7  O   UNL     1      -5.632  31.202  46.185  1.00  0.00    -0.288 OA
ATOM      8  C   UNL     1      -3.809  29.126  45.839  1.00  0.00     0.020 A 
ATOM      9  C   UNL     1      -2.865  28.133  45.596  1.00  0.00     0.047 A 
ATOM     10  C   UNL     1      -1.979  28.236  44.517  1.00  0.00     0.125 A 
ATOM     11  C   UNL     1      -2.049  29.348  43.643  1.00  0.00     0.069 A 
ENDROOT
BRANCH   1  12
ATOM     12  C   UNL     1      -5.762  33.535  44.582  1.00  0.00    -0.011 A 
ATOM     13  C   UNL     1      -7.020  33.525  43.954  1.00  0.00     0.013 A 
ATOM     14  C   UNL     1      -7.909  34.589  44.132  1.00  0.00     0.047 A 
ATOM     15  C   UNL     1      -7.552  35.678  44.932  1.00  0.00     0.115 A 
ATOM     16  C   UNL     1      -5.407  34.637  45.380  1.00  0.00     0.013 A 
ATOM     17  C   UNL     1      -6.298  35.701  45.555  1.00  0.00     0.047 A 
BRANCH  15  18
ATOM     18  O   UNL     1      -8.448  36.731  45.100  1.00  0.00    -0.508 OA
ATOM     19  H   UNL     1      -8.684  37.084  46.020  1.00  0.00     0.293 HD
ENDBRANCH  15  18
ENDBRANCH   1  12
BRANCH  11  20
ATOM     20  C   UNL     1      -1.082  29.498  42.474  1.00  0.00     0.188 C 
ATOM     21  C   UNL     1       0.210  30.216  42.929  1.00  0.00     0.179 C 
ATOM     22  O   UNL     1      -0.789  28.230  41.908  1.00  0.00    -0.362 OA
ATOM     23  C   UNL     1       1.171  30.344  41.731  1.00  0.00     0.177 C 
ATOM     24  C   UNL     1      -0.025  28.374  40.720  1.00  0.00     0.176 C 
ATOM     25  C   UNL     1       1.361  28.979  41.036  1.00  0.00     0.177 C 
BRANCH  21  26
ATOM     26  O   UNL     1       0.819  29.495  43.972  1.00  0.00    -0.387 OA
ATOM     27  H   UNL     1       1.668  29.961  44.190  1.00  0.00     0.211 HD
ENDBRANCH  21  26
BRANCH  23  28
ATOM     28  O   UNL     1       2.405  30.862  42.159  1.00  0.00    -0.387 OA
ATOM     29  H   UNL     1       2.744  31.437  41.424  1.00  0.00     0.211 HD
ENDBRANCH  23  28
BRANCH  24  30
ATOM     30  C   UNL     1       0.111  27.005  40.046  1.00  0.00     0.191 C 
BRANCH  30  31
ATOM     31  O   UNL     1       0.133  26.000  41.022  1.00  0.00    -0.394 OA
ATOM     32  H   UNL     1      -0.794  25.929  41.366  1.00  0.00     0.210 HD
ENDBRANCH  30  31
ENDBRANCH  24  30
BRANCH  25  33
ATOM     33  O   UNL     1       2.089  28.104  41.862  1.00  0.00    -0.388 OA
ATOM     34  H   UNL     1       1.730  27.192  41.704  1.00  0.00     0.211 HD
ENDBRANCH  25  33
ENDBRANCH  11  20
BRANCH  10  35
ATOM     35  O   UNL     1      -1.025  27.236  44.320  1.00  0.00    -0.507 OA
ATOM     36  H   UNL     1      -0.675  26.675  45.088  1.00  0.00     0.293 HD
ENDBRANCH  10  35
TORSDOF 9
ENDMDL
MODEL 2
REMARK VINA RESULT:    -5.482      2.794      4.837
REMARK INTER + INTRA:          -8.585
REMARK INTER:                  -7.462
REMARK INTRA:                  -1.123
REMARK UNBOUND:                -1.179
REMARK SMILES O=c1c(-c2ccc(O)cc2)coc2c([C@@H]3O[C@H](CO)[C@H](O)[C@H](O)[C@@H]3O)c(O)ccc12
REMARK SMILES IDX 3 1 11 2 12 3 13 4 30 5 2 6 1 7 29 8 28 9 26 10 14 11 4 12
REMARK SMILES IDX 5 13 6 14 7 15 10 16 9 17 8 18 15 20 24 21 16 22 22 23 17 24
REMARK SMILES IDX 20 25 25 26 23 28 18 30 19 31 21 33 27 35
REMARK H PARENT 8 19 25 27 23 29 19 32 21 34 27 36
REMARK Flexibility Score: inf
ROOT
ATOM      1  C   UNL     1      -4.417  36.137  43.701  1.00  0.00     0.065 A 
ATOM      2  C   UNL     1      -4.070  35.075  44.548  1.00  0.00     0.208 A 
ATOM      3  O   UNL     1      -3.214  34.140  44.153  1.00  0.00    -0.463 OA
ATOM      4  C   UNL     1      -2.635  34.142  42.954  1.00  0.00     0.147 A 
ATOM      5  C   UNL     1      -2.930  35.177  42.037  1.00  0.00     0.066 A 
ATOM      6  C   UNL     1      -3.827  36.189  42.425  1.00  0.00     0.200 A 
ATOM      7  O   UNL     1      -4.085  37.145  41.643  1.00  0.00    -0.288 OA
ATOM      8  C   UNL     1      -2.328  35.170  40.769  1.00  0.00     0.020 A 
ATOM      9  C   UNL     1      -1.460  34.142  40.411  1.00  0.00     0.047 A 
ATOM     10  C   UNL     1      -1.165  33.109  41.308  1.00  0.00     0.125 A 
ATOM     11  C   UNL     1      -1.732  33.111  42.606  1.00  0.00     0.069 A 
ENDROOT
BRANCH   1  12
ATOM     12  C   UNL     1      -5.382  37.167  44.162  1.00  0.00    -0.011 A 
ATOM     13  C   UNL     1      -4.928  38.307  44.849  1.00  0.00     0.013 A 
ATOM     14  C   UNL     1      -5.835  39.274  45.292  1.00  0.00     0.047 A 
ATOM     15  C   UNL     1      -7.204  39.114  45.061  1.00  0.00     0.115 A 
ATOM     16  C   UNL     1      -6.761  37.009  43.939  1.00  0.00     0.013 A 
ATOM     17  C   UNL     1      -7.666  37.978  44.384  1.00  0.00     0.047 A 
BRANCH  15  18
ATOM     18  O   UNL     1      -8.095  40.086  45.509  1.00  0.00    -0.508 OA
ATOM     19  H   UNL     1      -8.418  40.830  44.899  1.00  0.00     0.293 HD
ENDBRANCH  15  18
ENDBRANCH   1  12
BRANCH  11  20
ATOM     20  C   UNL     1      -1.446  31.988  43.595  1.00  0.00     0.188 C 
ATOM     21  C   UNL     1      -2.357  30.771  43.313  1.00  0.00     0.179 C 
ATOM     22  O   UNL     1      -0.076  31.620  43.546  1.00  0.00    -0.362 OA
ATOM     23  C   UNL     1      -2.040  29.650  44.320  1.00  0.00     0.177 C 
ATOM     24  C   UNL     1       0.235  30.695  44.577  1.00  0.00     0.176 C 
ATOM     25  C   UNL     1      -0.523  29.366  44.360  1.00  0.00     0.177 C 
BRANCH  21  26
ATOM     26  O   UNL     1      -2.160  30.319  41.995  1.00  0.00    -0.387 OA
ATOM     27  H   UNL     1      -1.362  30.793  41.643  1.00  0.00     0.211 HD
ENDBRANCH  21  26
BRANCH  23  28
ATOM     28  O   UNL     1      -2.756  28.488  43.987  1.00  0.00    -0.387 OA
ATOM     29  H   UNL     1      -2.086  27.803  43.729  1.00  0.00     0.211 HD
ENDBRANCH  23  28
BRANCH  24  30
ATOM     30  C   UNL     1       1.750  30.469  44.603  1.00  0.00     0.191 C 
BRANCH  30  31
ATOM     31  O   UNL     1       2.029  29.209  45.149  1.00  0.00    -0.394 OA
ATOM     32  H   UNL     1       1.347  28.591  44.778  1.00  0.00     0.210 HD
ENDBRANCH  30  31
ENDBRANCH  24  30
BRANCH  25  33
ATOM     33  O   UNL     1      -0.103  28.765  43.160  1.00  0.00    -0.388 OA
ATOM     34  H   UNL     1      -0.702  29.101  42.443  1.00  0.00     0.211 HD
ENDBRANCH  25  33
ENDBRANCH  11  20
BRANCH  10  35
ATOM     35  O   UNL     1      -0.314  32.079  40.905  1.00  0.00    -0.507 OA
ATOM     36  H   UNL     1       0.442  32.238  40.249  1.00  0.00     0.293 HD
ENDBRANCH  10  35
TORSDOF 9
ENDMDL
MODEL 3
REMARK VINA RESULT:    -5.471      9.559     13.845
REMARK INTER + INTRA:          -8.570
REMARK INTER:                  -7.475
REMARK INTRA:                  -1.095
REMARK UNBOUND:                -1.179
REMARK SMILES O=c1c(-c2ccc(O)cc2)coc2c([C@@H]3O[C@H](CO)[C@H](O)[C@H](O)[C@@H]3O)c(O)ccc12
REMARK SMILES IDX 3 1 11 2 12 3 13 4 30 5 2 6 1 7 29 8 28 9 26 10 14 11 4 12
REMARK SMILES IDX 5 13 6 14 7 15 10 16 9 17 8 18 15 20 24 21 16 22 22 23 17 24
REMARK SMILES IDX 20 25 25 26 23 28 18 30 19 31 21 33 27 35
REMARK H PARENT 8 19 25 27 23 29 19 32 21 34 27 36
REMARK Flexibility Score: inf
ROOT
ATOM      1  C   UNL     1      -6.415  26.867  51.377  1.00  0.00     0.065 A 
ATOM      2  C   UNL     1      -6.527  28.196  51.809  1.00  0.00     0.208 A 
ATOM      3  O   UNL     1      -6.837  28.480  53.068  1.00  0.00    -0.463 OA
ATOM      4  C   UNL     1      -7.060  27.547  53.992  1.00  0.00     0.147 A 
ATOM      5  C   UNL     1      -6.969  26.180  53.641  1.00  0.00     0.066 A 
ATOM      6  C   UNL     1      -6.633  25.844  52.317  1.00  0.00     0.200 A 
ATOM      7  O   UNL     1      -6.510  24.634  51.979  1.00  0.00    -0.288 OA
ATOM      8  C   UNL     1      -7.216  25.198  54.613  1.00  0.00     0.020 A 
ATOM      9  C   UNL     1      -7.565  25.567  55.909  1.00  0.00     0.047 A 
ATOM     10  C   UNL     1      -7.663  26.917  56.267  1.00  0.00     0.125 A 
ATOM     11  C   UNL     1      -7.385  27.927  55.314  1.00  0.00     0.069 A 
ENDROOT
BRANCH   1  12
ATOM     12  C   UNL     1      -6.073  26.575  49.962  1.00  0.00    -0.011 A 
ATOM     13  C   UNL     1      -4.735  26.625  49.531  1.00  0.00     0.013 A 
ATOM     14  C   UNL     1      -4.411  26.359  48.198  1.00  0.00     0.047 A 
ATOM     15  C   UNL     1      -5.416  26.045  47.278  1.00  0.00     0.115 A 
ATOM     16  C   UNL     1      -7.079  26.265  49.030  1.00  0.00     0.013 A 
ATOM     17  C   UNL     1      -6.751  26.000  47.696  1.00  0.00     0.047 A 
BRANCH  15  18
ATOM     18  O   UNL     1      -5.077  25.782  45.952  1.00  0.00    -0.508 OA
ATOM     19  H   UNL     1      -5.666  25.209  45.359  1.00  0.00     0.293 HD
ENDBRANCH  15  18
ENDBRANCH   1  12
BRANCH  11  20
ATOM     20  C   UNL     1      -7.507  29.404  55.670  1.00  0.00     0.188 C 
ATOM     21  C   UNL     1      -8.974  29.875  55.537  1.00  0.00     0.179 C 
ATOM     22  O   UNL     1      -7.012  29.641  56.979  1.00  0.00    -0.362 OA
ATOM     23  C   UNL     1      -9.068  31.366  55.912  1.00  0.00     0.177 C 
ATOM     24  C   UNL     1      -6.965  31.033  57.256  1.00  0.00     0.176 C 
ATOM     25  C   UNL     1      -8.390  31.630  57.274  1.00  0.00     0.177 C 
BRANCH  21  26
ATOM     26  O   UNL     1      -9.803  29.105  56.374  1.00  0.00    -0.387 OA
ATOM     27  H   UNL     1     -10.459  29.727  56.783  1.00  0.00     0.211 HD
ENDBRANCH  21  26
BRANCH  23  28
ATOM     28  O   UNL     1     -10.413  31.772  55.937  1.00  0.00    -0.387 OA
ATOM     29  H   UNL     1     -10.940  30.993  56.253  1.00  0.00     0.211 HD
ENDBRANCH  23  28
BRANCH  24  30
ATOM     30  C   UNL     1      -6.258  31.251  58.596  1.00  0.00     0.191 C 
BRANCH  30  31
ATOM     31  O   UNL     1      -6.903  32.270  59.309  1.00  0.00    -0.394 OA
ATOM     32  H   UNL     1      -6.949  33.049  58.696  1.00  0.00     0.210 HD
ENDBRANCH  30  31
ENDBRANCH  24  30
BRANCH  25  33
ATOM     33  O   UNL     1      -9.139  31.052  58.315  1.00  0.00    -0.388 OA
ATOM     34  H   UNL     1      -9.701  30.343  57.908  1.00  0.00     0.211 HD
ENDBRANCH  25  33
ENDBRANCH  11  20
BRANCH  10  35
ATOM     35  O   UNL     1      -8.045  27.251  57.567  1.00  0.00    -0.507 OA
ATOM     36  H   UNL     1      -8.840  27.852  57.752  1.00  0.00     0.293 HD
ENDBRANCH  10  35
TORSDOF 9
ENDMDL
MODEL 4
REMARK VINA RESULT:    -5.458      5.939      9.193
REMARK INTER + INTRA:          -8.551
REMARK INTER:                  -7.431
REMARK INTRA:                  -1.120
REMARK UNBOUND:                -1.179
REMARK SMILES O=c1c(-c2ccc(O)cc2)coc2c([C@@H]3O[C@H](CO)[C@H](O)[C@H](O)[C@@H]3O)c(O)ccc12
REMARK SMILES IDX 3 1 11 2 12 3 13 4 30 5 2 6 1 7 29 8 28 9 26 10 14 11 4 12
REMARK SMILES IDX 5 13 6 14 7 15 10 16 9 17 8 18 15 20 24 21 16 22 22 23 17 24
REMARK SMILES IDX 20 25 25 26 23 28 18 30 19 31 21 33 27 35
REMARK H PARENT 8 19 25 27 23 29 19 32 21 34 27 36
REMARK Flexibility Score: inf
ROOT
ATOM      1  C   UNL     1      -9.261  31.055  43.329  1.00  0.00     0.065 A 
ATOM      2  C   UNL     1      -9.478  32.403  43.008  1.00  0.00     0.208 A 
ATOM      3  O   UNL     1      -8.694  33.355  43.501  1.00  0.00    -0.463 OA
ATOM      4  C   UNL     1      -7.671  33.107  44.316  1.00  0.00     0.147 A 
ATOM      5  C   UNL     1      -7.384  31.774  44.693  1.00  0.00     0.066 A 
ATOM      6  C   UNL     1      -8.189  30.740  44.182  1.00  0.00     0.200 A 
ATOM      7  O   UNL     1      -7.938  29.537  44.471  1.00  0.00    -0.288 OA
ATOM      8  C   UNL     1      -6.312  31.516  45.562  1.00  0.00     0.020 A 
ATOM      9  C   UNL     1      -5.549  32.567  46.064  1.00  0.00     0.047 A 
ATOM     10  C   UNL     1      -5.827  33.891  45.704  1.00  0.00     0.125 A 
ATOM     11  C   UNL     1      -6.881  34.175  44.801  1.00  0.00     0.069 A 
ENDROOT
BRANCH   1  12
ATOM     12  C   UNL     1     -10.155  30.009  42.770  1.00  0.00    -0.011 A 
ATOM     13  C   UNL     1      -9.811  29.345  41.580  1.00  0.00     0.013 A 
ATOM     14  C   UNL     1     -10.654  28.365  41.047  1.00  0.00     0.047 A 
ATOM     15  C   UNL     1     -11.852  28.041  41.691  1.00  0.00     0.115 A 
ATOM     16  C   UNL     1     -11.364  29.682  43.410  1.00  0.00     0.013 A 
ATOM     17  C   UNL     1     -12.206  28.702  42.874  1.00  0.00     0.047 A 
BRANCH  15  18
ATOM     18  O   UNL     1     -12.682  27.062  41.148  1.00  0.00    -0.508 OA
ATOM     19  H   UNL     1     -13.401  26.611  41.702  1.00  0.00     0.293 HD
ENDBRANCH  15  18
ENDBRANCH   1  12
BRANCH  11  20
ATOM     20  C   UNL     1      -7.220  35.608  44.408  1.00  0.00     0.188 C 
ATOM     21  C   UNL     1      -8.113  36.268  45.484  1.00  0.00     0.179 C 
ATOM     22  O   UNL     1      -6.034  36.359  44.199  1.00  0.00    -0.362 OA
ATOM     23  C   UNL     1      -8.432  37.716  45.066  1.00  0.00     0.177 C 
ATOM     24  C   UNL     1      -6.337  37.642  43.673  1.00  0.00     0.176 C 
ATOM     25  C   UNL     1      -7.139  38.475  44.698  1.00  0.00     0.177 C 
BRANCH  21  26
ATOM     26  O   UNL     1      -7.459  36.248  46.729  1.00  0.00    -0.387 OA
ATOM     27  H   UNL     1      -6.688  35.629  46.642  1.00  0.00     0.211 HD
ENDBRANCH  21  26
BRANCH  23  28
ATOM     28  O   UNL     1      -9.120  38.374  46.099  1.00  0.00    -0.387 OA
ATOM     29  H   UNL     1      -8.751  39.294  46.148  1.00  0.00     0.211 HD
ENDBRANCH  23  28
BRANCH  24  30
ATOM     30  C   UNL     1      -5.030  38.345  43.291  1.00  0.00     0.191 C 
BRANCH  30  31
ATOM     31  O   UNL     1      -5.221  39.733  43.306  1.00  0.00    -0.394 OA
ATOM     32  H   UNL     1      -4.471  40.120  42.784  1.00  0.00     0.210 HD
ENDBRANCH  30  31
ENDBRANCH  24  30
BRANCH  25  33
ATOM     33  O   UNL     1      -6.358  38.700  45.847  1.00  0.00    -0.388 OA
ATOM     34  H   UNL     1      -5.772  39.476  45.650  1.00  0.00     0.211 HD
ENDBRANCH  25  33
ENDBRANCH  11  20
BRANCH  10  35
ATOM     35  O   UNL     1      -5.061  34.921  46.249  1.00  0.00    -0.507 OA
ATOM     36  H   UNL     1      -4.209  34.735  46.767  1.00  0.00     0.293 HD
ENDBRANCH  10  35
TORSDOF 9
ENDMDL
MODEL 5
REMARK VINA RESULT:    -5.442      2.623      3.106
REMARK INTER + INTRA:          -8.531
REMARK INTER:                  -7.363
REMARK INTRA:                  -1.168
REMARK UNBOUND:                -1.179
REMARK SMILES O=c1c(-c2ccc(O)cc2)coc2c([C@@H]3O[C@H](CO)[C@H](O)[C@H](O)[C@@H]3O)c(O)ccc12
REMARK SMILES IDX 3 1 11 2 12 3 13 4 30 5 2 6 1 7 29 8 28 9 26 10 14 11 4 12
REMARK SMILES IDX 5 13 6 14 7 15 10 16 9 17 8 18 15 20 24 21 16 22 22 23 17 24
REMARK SMILES IDX 20 25 25 26 23 28 18 30 19 31 21 33 27 35
REMARK H PARENT 8 19 25 27 23 29 19 32 21 34 27 36
REMARK Flexibility Score: inf
ROOT
ATOM      1  C   UNL     1      -6.703  29.860  45.531  1.00  0.00     0.065 A 
ATOM      2  C   UNL     1      -5.788  30.596  44.764  1.00  0.00     0.208 A 
ATOM      3  O   UNL     1      -4.584  30.109  44.487  1.00  0.00    -0.463 OA
ATOM      4  C   UNL     1      -4.166  28.917  44.906  1.00  0.00     0.147 A 
ATOM      5  C   UNL     1      -5.025  28.109  45.687  1.00  0.00     0.066 A 
ATOM      6  C   UNL     1      -6.312  28.590  45.992  1.00  0.00     0.200 A 
ATOM      7  O   UNL     1      -7.115  27.880  46.657  1.00  0.00    -0.288 OA
ATOM      8  C   UNL     1      -4.578  26.857  46.138  1.00  0.00     0.020 A 
ATOM      9  C   UNL     1      -3.291  26.422  45.834  1.00  0.00     0.047 A 
ATOM     10  C   UNL     1      -2.430  27.214  45.067  1.00  0.00     0.125 A 
ATOM     11  C   UNL     1      -2.869  28.466  44.570  1.00  0.00     0.069 A 
ENDROOT
BRANCH   1  12
ATOM     12  C   UNL     1      -8.041  30.428  45.832  1.00  0.00    -0.011 A 
ATOM     13  C   UNL     1      -9.110  30.237  44.940  1.00  0.00     0.013 A 
ATOM     14  C   UNL     1     -10.369  30.777  45.217  1.00  0.00     0.047 A 
ATOM     15  C   UNL     1     -10.576  31.519  46.384  1.00  0.00     0.115 A 
ATOM     16  C   UNL     1      -8.254  31.180  47.001  1.00  0.00     0.013 A 
ATOM     17  C   UNL     1      -9.515  31.720  47.275  1.00  0.00     0.047 A 
BRANCH  15  18
ATOM     18  O   UNL     1     -11.836  32.051  46.646  1.00  0.00    -0.508 OA
ATOM     19  H   UNL     1     -11.965  33.039  46.835  1.00  0.00     0.293 HD
ENDBRANCH  15  18
ENDBRANCH   1  12
BRANCH  11  20
ATOM     20  C   UNL     1      -1.945  29.360  43.751  1.00  0.00     0.188 C 
ATOM     21  C   UNL     1      -1.030  30.191  44.681  1.00  0.00     0.179 C 
ATOM     22  O   UNL     1      -1.178  28.582  42.845  1.00  0.00    -0.362 OA
ATOM     23  C   UNL     1      -0.102  31.076  43.827  1.00  0.00     0.177 C 
ATOM     24  C   UNL     1      -0.439  29.416  41.965  1.00  0.00     0.176 C 
ATOM     25  C   UNL     1       0.612  30.235  42.748  1.00  0.00     0.177 C 
BRANCH  21  26
ATOM     26  O   UNL     1      -0.274  29.334  45.502  1.00  0.00    -0.387 OA
ATOM     27  H   UNL     1      -0.068  29.837  46.333  1.00  0.00     0.211 HD
ENDBRANCH  21  26
BRANCH  23  28
ATOM     28  O   UNL     1       0.831  31.728  44.651  1.00  0.00    -0.387 OA
ATOM     29  H   UNL     1       1.506  31.048  44.912  1.00  0.00     0.211 HD
ENDBRANCH  23  28
BRANCH  24  30
ATOM     30  C   UNL     1       0.225  28.547  40.893  1.00  0.00     0.191 C 
BRANCH  30  31
ATOM     31  O   UNL     1       0.540  27.293  41.432  1.00  0.00    -0.394 OA
ATOM     32  H   UNL     1      -0.302  26.768  41.420  1.00  0.00     0.210 HD
ENDBRANCH  30  31
ENDBRANCH  24  30
BRANCH  25  33
ATOM     33  O   UNL     1       1.550  29.369  43.340  1.00  0.00    -0.388 OA
ATOM     34  H   UNL     1       1.034  28.658  43.803  1.00  0.00     0.211 HD
ENDBRANCH  25  33
ENDBRANCH  11  20
BRANCH  10  35
ATOM     35  O   UNL     1      -1.137  26.760  44.806  1.00  0.00    -0.507 OA
ATOM     36  H   UNL     1      -0.842  25.821  45.051  1.00  0.00     0.293 HD
ENDBRANCH  10  35
TORSDOF 9
ENDMDL
MODEL 6
REMARK VINA RESULT:    -5.371      1.235      2.523
REMARK INTER + INTRA:          -8.434
REMARK INTER:                  -7.807
REMARK INTRA:                  -0.627
REMARK UNBOUND:                -1.179
REMARK SMILES O=c1c(-c2ccc(O)cc2)coc2c([C@@H]3O[C@H](CO)[C@H](O)[C@H](O)[C@@H]3O)c(O)ccc12
REMARK SMILES IDX 3 1 11 2 12 3 13 4 30 5 2 6 1 7 29 8 28 9 26 10 14 11 4 12
REMARK SMILES IDX 5 13 6 14 7 15 10 16 9 17 8 18 15 20 24 21 16 22 22 23 17 24
REMARK SMILES IDX 20 25 25 26 23 28 18 30 19 31 21 33 27 35
REMARK H PARENT 8 19 25 27 23 29 19 32 21 34 27 36
REMARK Flexibility Score: inf
ROOT
ATOM      1  C   UNL     1      -4.681  31.788  44.520  1.00  0.00     0.065 A 
ATOM      2  C   UNL     1      -3.495  31.821  43.773  1.00  0.00     0.208 A 
ATOM      3  O   UNL     1      -2.672  30.779  43.754  1.00  0.00    -0.463 OA
ATOM      4  C   UNL     1      -2.906  29.654  44.425  1.00  0.00     0.147 A 
ATOM      5  C   UNL     1      -4.079  29.536  45.206  1.00  0.00     0.066 A 
ATOM      6  C   UNL     1      -4.977  30.618  45.242  1.00  0.00     0.200 A 
ATOM      7  O   UNL     1      -6.050  30.533  45.901  1.00  0.00    -0.288 OA
ATOM      8  C   UNL     1      -4.318  28.353  45.923  1.00  0.00     0.020 A 
ATOM      9  C   UNL     1      -3.397  27.310  45.880  1.00  0.00     0.047 A 
ATOM     10  C   UNL     1      -2.229  27.416  45.115  1.00  0.00     0.125 A 
ATOM     11  C   UNL     1      -1.982  28.585  44.355  1.00  0.00     0.069 A 
ENDROOT
BRANCH   1  12
ATOM     12  C   UNL     1      -5.582  32.968  44.530  1.00  0.00    -0.011 A 
ATOM     13  C   UNL     1      -5.355  34.025  45.429  1.00  0.00     0.013 A 
ATOM     14  C   UNL     1      -6.206  35.134  45.447  1.00  0.00     0.047 A 
ATOM     15  C   UNL     1      -7.296  35.199  44.574  1.00  0.00     0.115 A 
ATOM     16  C   UNL     1      -6.683  33.037  43.659  1.00  0.00     0.013 A 
ATOM     17  C   UNL     1      -7.534  34.147  43.680  1.00  0.00     0.047 A 
BRANCH  15  18
ATOM     18  O   UNL     1      -8.135  36.310  44.603  1.00  0.00    -0.508 OA
ATOM     19  H   UNL     1      -7.939  37.106  45.200  1.00  0.00     0.293 HD
ENDBRANCH  15  18
ENDBRANCH   1  12
BRANCH  11  20
ATOM     20  C   UNL     1      -0.709  28.738  43.531  1.00  0.00     0.188 C 
ATOM     21  C   UNL     1      -0.972  28.371  42.053  1.00  0.00     0.179 C 
ATOM     22  O   UNL     1      -0.200  30.058  43.646  1.00  0.00    -0.362 OA
ATOM     23  C   UNL     1       0.327  28.544  41.243  1.00  0.00     0.177 C 
ATOM     24  C   UNL     1       1.070  30.165  43.020  1.00  0.00     0.176 C 
ATOM     25  C   UNL     1       0.946  29.935  41.497  1.00  0.00     0.177 C 
BRANCH  21  26
ATOM     26  O   UNL     1      -1.990  29.188  41.529  1.00  0.00    -0.387 OA
ATOM     27  H   UNL     1      -2.707  28.585  41.201  1.00  0.00     0.211 HD
ENDBRANCH  21  26
BRANCH  23  28
ATOM     28  O   UNL     1       0.070  28.354  39.875  1.00  0.00    -0.387 OA
ATOM     29  H   UNL     1       0.943  28.426  39.408  1.00  0.00     0.211 HD
ENDBRANCH  23  28
BRANCH  24  30
ATOM     30  C   UNL     1       1.662  31.545  43.325  1.00  0.00     0.191 C 
BRANCH  30  31
ATOM     31  O   UNL     1       0.634  32.495  43.383  1.00  0.00    -0.394 OA
ATOM     32  H   UNL     1       0.171  32.348  44.247  1.00  0.00     0.210 HD
ENDBRANCH  30  31
ENDBRANCH  24  30
BRANCH  25  33
ATOM     33  O   UNL     1       0.146  30.941  40.925  1.00  0.00    -0.388 OA
ATOM     34  H   UNL     1      -0.798  30.709  41.125  1.00  0.00     0.211 HD
ENDBRANCH  25  33
ENDBRANCH  11  20
BRANCH  10  35
ATOM     35  O   UNL     1      -1.314  26.363  45.119  1.00  0.00    -0.507 OA
ATOM     36  H   UNL     1      -0.413  26.438  44.660  1.00  0.00     0.293 HD
ENDBRANCH  10  35
TORSDOF 9
ENDMDL
MODEL 7
REMARK VINA RESULT:    -5.289      7.778      9.371
REMARK INTER + INTRA:          -8.324
REMARK INTER:                  -7.311
REMARK INTRA:                  -1.012
REMARK UNBOUND:                -1.179
REMARK SMILES O=c1c(-c2ccc(O)cc2)coc2c([C@@H]3O[C@H](CO)[C@H](O)[C@H](O)[C@@H]3O)c(O)ccc12
REMARK SMILES IDX 3 1 11 2 12 3 13 4 30 5 2 6 1 7 29 8 28 9 26 10 14 11 4 12
REMARK SMILES IDX 5 13 6 14 7 15 10 16 9 17 8 18 15 20 24 21 16 22 22 23 17 24
REMARK SMILES IDX 20 25 25 26 23 28 18 30 19 31 21 33 27 35
REMARK H PARENT 8 19 25 27 23 29 19 32 21 34 27 36
REMARK Flexibility Score: inf
ROOT
ATOM      1  C   UNL     1      -9.811  29.782  43.113  1.00  0.00     0.065 A 
ATOM      2  C   UNL     1      -9.032  28.746  42.579  1.00  0.00     0.208 A 
ATOM      3  O   UNL     1      -9.524  27.519  42.451  1.00  0.00    -0.463 OA
ATOM      4  C   UNL     1     -10.763  27.190  42.810  1.00  0.00     0.147 A 
ATOM      5  C   UNL     1     -11.616  28.175  43.360  1.00  0.00     0.066 A 
ATOM      6  C   UNL     1     -11.130  29.487  43.502  1.00  0.00     0.200 A 
ATOM      7  O   UNL     1     -11.877  30.397  43.958  1.00  0.00    -0.288 OA
ATOM      8  C   UNL     1     -12.918  27.823  43.750  1.00  0.00     0.020 A 
ATOM      9  C   UNL     1     -13.360  26.510  43.613  1.00  0.00     0.047 A 
ATOM     10  C   UNL     1     -12.522  25.525  43.076  1.00  0.00     0.125 A 
ATOM     11  C   UNL     1     -11.217  25.862  42.642  1.00  0.00     0.069 A 
ENDROOT
BRANCH   1  12
ATOM     12  C   UNL     1      -9.236  31.144  43.253  1.00  0.00    -0.011 A 
ATOM     13  C   UNL     1      -9.064  31.960  42.121  1.00  0.00     0.013 A 
ATOM     14  C   UNL     1      -8.515  33.240  42.248  1.00  0.00     0.047 A 
ATOM     15  C   UNL     1      -8.127  33.718  43.503  1.00  0.00     0.115 A 
ATOM     16  C   UNL     1      -8.838  31.629  44.511  1.00  0.00     0.013 A 
ATOM     17  C   UNL     1      -8.288  32.909  44.635  1.00  0.00     0.047 A 
BRANCH  15  18
ATOM     18  O   UNL     1      -7.582  34.995  43.614  1.00  0.00    -0.508 OA
ATOM     19  H   UNL     1      -8.124  35.823  43.394  1.00  0.00     0.293 HD
ENDBRANCH  15  18
ENDBRANCH   1  12
BRANCH  11  20
ATOM     20  C   UNL     1     -10.275  24.806  42.074  1.00  0.00     0.188 C 
ATOM     21  C   UNL     1      -9.397  24.203  43.195  1.00  0.00     0.179 C 
ATOM     22  O   UNL     1     -11.011  23.794  41.404  1.00  0.00    -0.362 OA
ATOM     23  C   UNL     1      -8.465  23.134  42.594  1.00  0.00     0.177 C 
ATOM     24  C   UNL     1     -10.140  22.899  40.730  1.00  0.00     0.176 C 
ATOM     25  C   UNL     1      -9.267  22.126  41.744  1.00  0.00     0.177 C 
BRANCH  21  26
ATOM     26  O   UNL     1     -10.212  23.639  44.193  1.00  0.00    -0.387 OA
ATOM     27  H   UNL     1     -10.091  24.189  45.011  1.00  0.00     0.211 HD
ENDBRANCH  21  26
BRANCH  23  28
ATOM     28  O   UNL     1      -7.764  22.476  43.620  1.00  0.00    -0.387 OA
ATOM     29  H   UNL     1      -7.642  21.536  43.325  1.00  0.00     0.211 HD
ENDBRANCH  23  28
BRANCH  24  30
ATOM     30  C   UNL     1     -10.974  21.940  39.875  1.00  0.00     0.191 C 
BRANCH  30  31
ATOM     31  O   UNL     1     -10.418  20.655  39.930  1.00  0.00    -0.394 OA
ATOM     32  H   UNL     1     -10.782  20.164  39.149  1.00  0.00     0.210 HD
ENDBRANCH  30  31
ENDBRANCH  24  30
BRANCH  25  33
ATOM     33  O   UNL     1     -10.082  21.328  42.568  1.00  0.00    -0.388 OA
ATOM     34  H   UNL     1      -9.497  20.634  42.969  1.00  0.00     0.211 HD
ENDBRANCH  25  33
ENDBRANCH  11  20
BRANCH  10  35
ATOM     35  O   UNL     1     -12.987  24.213  42.980  1.00  0.00    -0.507 OA
ATOM     36  H   UNL     1     -12.660  23.583  42.256  1.00  0.00     0.293 HD
ENDBRANCH  10  35
TORSDOF 9
ENDMDL
MODEL 8
REMARK VINA RESULT:    -5.280     12.101     16.772
REMARK INTER + INTRA:          -8.311
REMARK INTER:                  -7.344
REMARK INTRA:                  -0.967
REMARK UNBOUND:                -1.179
REMARK SMILES O=c1c(-c2ccc(O)cc2)coc2c([C@@H]3O[C@H](CO)[C@H](O)[C@H](O)[C@@H]3O)c(O)ccc12
REMARK SMILES IDX 3 1 11 2 12 3 13 4 30 5 2 6 1 7 29 8 28 9 26 10 14 11 4 12
REMARK SMILES IDX 5 13 6 14 7 15 10 16 9 17 8 18 15 20 24 21 16 22 22 23 17 24
REMARK SMILES IDX 20 25 25 26 23 28 18 30 19 31 21 33 27 35
REMARK H PARENT 8 19 25 27 23 29 19 32 21 34 27 36
REMARK Flexibility Score: inf
ROOT
ATOM      1  C   UNL     1      -8.093  28.017  55.377  1.00  0.00     0.065 A 
ATOM      2  C   UNL     1      -9.340  28.615  55.142  1.00  0.00     0.208 A 
ATOM      3  O   UNL     1      -9.697  29.721  55.785  1.00  0.00    -0.463 OA
ATOM      4  C   UNL     1      -8.918  30.328  56.678  1.00  0.00     0.147 A 
ATOM      5  C   UNL     1      -7.644  29.791  56.976  1.00  0.00     0.066 A 
ATOM      6  C   UNL     1      -7.230  28.625  56.306  1.00  0.00     0.200 A 
ATOM      7  O   UNL     1      -6.086  28.139  56.523  1.00  0.00    -0.288 OA
ATOM      8  C   UNL     1      -6.830  30.426  57.926  1.00  0.00     0.020 A 
ATOM      9  C   UNL     1      -7.280  31.567  58.584  1.00  0.00     0.047 A 
ATOM     10  C   UNL     1      -8.541  32.106  58.302  1.00  0.00     0.125 A 
ATOM     11  C   UNL     1      -9.368  31.504  57.322  1.00  0.00     0.069 A 
ENDROOT
BRANCH   1  12
ATOM     12  C   UNL     1      -7.719  26.778  54.650  1.00  0.00    -0.011 A 
ATOM     13  C   UNL     1      -8.026  25.518  55.192  1.00  0.00     0.013 A 
ATOM     14  C   UNL     1      -7.668  24.349  54.514  1.00  0.00     0.047 A 
ATOM     15  C   UNL     1      -6.995  24.423  53.291  1.00  0.00     0.115 A 
ATOM     16  C   UNL     1      -7.036  26.845  53.422  1.00  0.00     0.013 A 
ATOM     17  C   UNL     1      -6.678  25.674  52.747  1.00  0.00     0.047 A 
BRANCH  15  18
ATOM     18  O   UNL     1      -6.644  23.249  52.627  1.00  0.00    -0.508 OA
ATOM     19  H   UNL     1      -5.797  23.187  52.074  1.00  0.00     0.293 HD
ENDBRANCH  15  18
ENDBRANCH   1  12
BRANCH  11  20
ATOM     20  C   UNL     1     -10.755  32.055  57.011  1.00  0.00     0.188 C 
ATOM     21  C   UNL     1     -11.802  31.470  57.986  1.00  0.00     0.179 C 
ATOM     22  O   UNL     1     -10.747  33.474  57.062  1.00  0.00    -0.362 OA
ATOM     23  C   UNL     1     -13.190  32.051  57.655  1.00  0.00     0.177 C 
ATOM     24  C   UNL     1     -11.986  34.000  56.612  1.00  0.00     0.176 C 
ATOM     25  C   UNL     1     -13.129  33.591  57.568  1.00  0.00     0.177 C 
BRANCH  21  26
ATOM     26  O   UNL     1     -11.446  31.774  59.313  1.00  0.00    -0.387 OA
ATOM     27  H   UNL     1     -12.255  31.634  59.870  1.00  0.00     0.211 HD
ENDBRANCH  21  26
BRANCH  23  28
ATOM     28  O   UNL     1     -14.125  31.643  58.621  1.00  0.00    -0.387 OA
ATOM     29  H   UNL     1     -14.406  30.723  58.376  1.00  0.00     0.211 HD
ENDBRANCH  23  28
BRANCH  24  30
ATOM     30  C   UNL     1     -11.872  35.524  56.508  1.00  0.00     0.191 C 
BRANCH  30  31
ATOM     31  O   UNL     1     -10.549  35.878  56.210  1.00  0.00    -0.394 OA
ATOM     32  H   UNL     1     -10.340  36.665  56.778  1.00  0.00     0.210 HD
ENDBRANCH  30  31
ENDBRANCH  24  30
BRANCH  25  33
ATOM     33  O   UNL     1     -12.911  34.148  58.841  1.00  0.00    -0.388 OA
ATOM     34  H   UNL     1     -13.751  34.607  59.105  1.00  0.00     0.211 HD
ENDBRANCH  25  33
ENDBRANCH  11  20
BRANCH  10  35
ATOM     35  O   UNL     1      -8.973  33.233  59.001  1.00  0.00    -0.507 OA
ATOM     36  H   UNL     1      -8.391  34.059  59.093  1.00  0.00     0.293 HD
ENDBRANCH  10  35
TORSDOF 9
ENDMDL
MODEL 9
REMARK VINA RESULT:    -5.231      5.420      7.052
REMARK INTER + INTRA:          -8.245
REMARK INTER:                  -7.104
REMARK INTRA:                  -1.141
REMARK UNBOUND:                -1.179
REMARK SMILES O=c1c(-c2ccc(O)cc2)coc2c([C@@H]3O[C@H](CO)[C@H](O)[C@H](O)[C@@H]3O)c(O)ccc12
REMARK SMILES IDX 3 1 11 2 12 3 13 4 30 5 2 6 1 7 29 8 28 9 26 10 14 11 4 12
REMARK SMILES IDX 5 13 6 14 7 15 10 16 9 17 8 18 15 20 24 21 16 22 22 23 17 24
REMARK SMILES IDX 20 25 25 26 23 28 18 30 19 31 21 33 27 35
REMARK H PARENT 8 19 25 27 23 29 19 32 21 34 27 36
REMARK Flexibility Score: inf
ROOT
ATOM      1  C   UNL     1      -5.457  33.751  47.183  1.00  0.00     0.065 A 
ATOM      2  C   UNL     1      -5.930  32.432  47.233  1.00  0.00     0.208 A 
ATOM      3  O   UNL     1      -5.376  31.540  48.045  1.00  0.00    -0.463 OA
ATOM      4  C   UNL     1      -4.357  31.824  48.853  1.00  0.00     0.147 A 
ATOM      5  C   UNL     1      -3.817  33.131  48.864  1.00  0.00     0.066 A 
ATOM      6  C   UNL     1      -4.385  34.104  48.022  1.00  0.00     0.200 A 
ATOM      7  O   UNL     1      -3.950  35.288  48.033  1.00  0.00    -0.288 OA
ATOM      8  C   UNL     1      -2.734  33.425  49.708  1.00  0.00     0.020 A 
ATOM      9  C   UNL     1      -2.184  32.432  50.514  1.00  0.00     0.047 A 
ATOM     10  C   UNL     1      -2.706  31.133  50.507  1.00  0.00     0.125 A 
ATOM     11  C   UNL     1      -3.820  30.820  49.691  1.00  0.00     0.069 A 
ENDROOT
BRANCH   1  12
ATOM     12  C   UNL     1      -6.089  34.729  46.261  1.00  0.00    -0.011 A 
ATOM     13  C   UNL     1      -5.563  34.931  44.973  1.00  0.00     0.013 A 
ATOM     14  C   UNL     1      -6.151  35.857  44.106  1.00  0.00     0.047 A 
ATOM     15  C   UNL     1      -7.265  36.596  44.515  1.00  0.00     0.115 A 
ATOM     16  C   UNL     1      -7.206  35.480  46.668  1.00  0.00     0.013 A 
ATOM     17  C   UNL     1      -7.791  36.407  45.799  1.00  0.00     0.047 A 
BRANCH  15  18
ATOM     18  O   UNL     1      -7.839  37.515  43.640  1.00  0.00    -0.508 OA
ATOM     19  H   UNL     1      -8.675  37.292  43.111  1.00  0.00     0.293 HD
ENDBRANCH  15  18
ENDBRANCH   1  12
BRANCH  11  20
ATOM     20  C   UNL     1      -4.395  29.409  49.647  1.00  0.00     0.188 C 
ATOM     21  C   UNL     1      -3.725  28.585  48.523  1.00  0.00     0.179 C 
ATOM     22  O   UNL     1      -4.243  28.771  50.906  1.00  0.00    -0.362 OA
ATOM     23  C   UNL     1      -4.317  27.163  48.508  1.00  0.00     0.177 C 
ATOM     24  C   UNL     1      -4.921  27.524  50.925  1.00  0.00     0.176 C 
ATOM     25  C   UNL     1      -4.278  26.541  49.920  1.00  0.00     0.177 C 
BRANCH  21  26
ATOM     26  O   UNL     1      -2.334  28.536  48.727  1.00  0.00    -0.387 OA
ATOM     27  H   UNL     1      -1.921  28.290  47.858  1.00  0.00     0.211 HD
ENDBRANCH  21  26
BRANCH  23  28
ATOM     28  O   UNL     1      -3.618  26.361  47.590  1.00  0.00    -0.387 OA
ATOM     29  H   UNL     1      -4.191  26.285  46.783  1.00  0.00     0.211 HD
ENDBRANCH  23  28
BRANCH  24  30
ATOM     30  C   UNL     1      -4.887  26.960  52.348  1.00  0.00     0.191 C 
BRANCH  30  31
ATOM     31  O   UNL     1      -3.723  27.390  52.998  1.00  0.00    -0.394 OA
ATOM     32  H   UNL     1      -3.570  26.751  53.742  1.00  0.00     0.210 HD
ENDBRANCH  30  31
ENDBRANCH  24  30
BRANCH  25  33
ATOM     33  O   UNL     1      -2.951  26.267  50.300  1.00  0.00    -0.388 OA
ATOM     34  H   UNL     1      -2.652  27.023  50.870  1.00  0.00     0.211 HD
ENDBRANCH  25  33
ENDBRANCH  11  20
BRANCH  10  35
ATOM     35  O   UNL     1      -2.111  30.156  51.305  1.00  0.00    -0.507 OA
ATOM     36  H   UNL     1      -1.232  30.320  51.783  1.00  0.00     0.293 HD
ENDBRANCH  10  35
TORSDOF 9
ENDMDL
