MODEL 1
REMARK VINA RESULT:    -4.099      0.000      0.000
REMARK INTER + INTRA:          -7.907
REMARK INTER:                  -6.256
REMARK INTRA:                  -1.651
REMARK UNBOUND:                -1.651
REMARK SMILES CC(=O)CCC=C(C)CCC=C(C)CCC=C(C)C
REMARK SMILES IDX 10 1 11 2 12 3 13 4 14 5 15 6 16 7 18 8 17 9 19 10 9 11 7 12
REMARK SMILES IDX 6 13 8 14 5 15 4 16 2 17 3 18 1 19
REMARK H PARENT
REMARK Flexibility Score: inf
ROOT
ATOM      1  C   UNL     1     199.556 151.476 162.474  1.00  0.00     0.032 C 
ENDROOT
BRANCH   1   2
ATOM      2  C   UNL     1     199.614 151.162 163.951  1.00  0.00    -0.028 C 
ATOM      3  C   UNL     1     200.768 151.128 164.653  1.00  0.00    -0.077 C 
ATOM      4  C   UNL     1     202.096 151.432 164.003  1.00  0.00     0.039 C 
BRANCH   3   5
ATOM      5  C   UNL     1     200.726 150.770 166.125  1.00  0.00     0.034 C 
BRANCH   5   6
ATOM      6  C   UNL     1     201.934 149.918 166.540  1.00  0.00     0.032 C 
BRANCH   6   7
ATOM      7  C   UNL     1     201.497 148.694 167.310  1.00  0.00    -0.028 C 
ATOM      8  C   UNL     1     201.116 147.260 169.267  1.00  0.00     0.039 C 
ATOM      9  C   UNL     1     201.663 148.516 168.640  1.00  0.00    -0.080 C 
ATOM     10  C   UNL     1     202.375 149.528 169.504  1.00  0.00     0.039 C 
ENDBRANCH   6   7
ENDBRANCH   5   6
ENDBRANCH   3   5
ENDBRANCH   1   2
BRANCH   1  11
ATOM     11  C   UNL     1     199.240 150.238 161.621  1.00  0.00     0.034 C 
BRANCH  11  12
ATOM     12  C   UNL     1     197.748 150.073 161.371  1.00  0.00    -0.077 C 
ATOM     13  C   UNL     1     196.945 149.293 162.132  1.00  0.00    -0.028 C 
ATOM     14  C   UNL     1     197.124 150.824 160.223  1.00  0.00     0.039 C 
BRANCH  13  15
ATOM     15  C   UNL     1     197.403 148.420 163.278  1.00  0.00     0.035 C 
BRANCH  15  16
ATOM     16  C   UNL     1     197.699 146.982 162.829  1.00  0.00     0.079 C 
BRANCH  16  17
ATOM     17  C   UNL     1     199.085 146.546 163.238  1.00  0.00     0.130 C 
ATOM     18  O   UNL     1     199.501 145.453 162.886  1.00  0.00    -0.300 OA
ATOM     19  C   UNL     1     199.963 147.430 164.072  1.00  0.00     0.087 C 
ENDBRANCH  16  17
ENDBRANCH  15  16
ENDBRANCH  13  15
ENDBRANCH  11  12
ENDBRANCH   1  11
TORSDOF 9
ENDMDL
MODEL 2
REMARK VINA RESULT:    -4.078      3.382      6.832
REMARK INTER + INTRA:          -7.874
REMARK INTER:                  -6.541
REMARK INTRA:                  -1.333
REMARK UNBOUND:                -1.651
REMARK SMILES CC(=O)CCC=C(C)CCC=C(C)CCC=C(C)C
REMARK SMILES IDX 10 1 11 2 12 3 13 4 14 5 15 6 16 7 18 8 17 9 19 10 9 11 7 12
REMARK SMILES IDX 6 13 8 14 5 15 4 16 2 17 3 18 1 19
REMARK H PARENT
REMARK Flexibility Score: inf
ROOT
ATOM      1  C   UNL     1     202.386 148.712 166.534  1.00  0.00     0.032 C 
ENDROOT
BRANCH   1   2
ATOM      2  C   UNL     1     201.312 149.764 166.387  1.00  0.00    -0.028 C 
ATOM      3  C   UNL     1     200.313 149.678 165.480  1.00  0.00    -0.077 C 
ATOM      4  C   UNL     1     200.189 148.492 164.555  1.00  0.00     0.039 C 
BRANCH   3   5
ATOM      5  C   UNL     1     199.300 150.801 165.388  1.00  0.00     0.034 C 
BRANCH   5   6
ATOM      6  C   UNL     1     199.620 151.939 166.367  1.00  0.00     0.032 C 
BRANCH   6   7
ATOM      7  C   UNL     1     199.656 153.273 165.659  1.00  0.00    -0.028 C 
ATOM      8  C   UNL     1     200.618 155.145 164.393  1.00  0.00     0.039 C 
ATOM      9  C   UNL     1     200.762 153.833 165.120  1.00  0.00    -0.080 C 
ATOM     10  C   UNL     1     202.123 153.190 165.228  1.00  0.00     0.039 C 
ENDBRANCH   6   7
ENDBRANCH   5   6
ENDBRANCH   3   5
ENDBRANCH   1   2
BRANCH   1  11
ATOM     11  C   UNL     1     202.904 148.599 167.976  1.00  0.00     0.034 C 
BRANCH  11  12
ATOM     12  C   UNL     1     201.779 148.629 168.999  1.00  0.00    -0.077 C 
ATOM     13  C   UNL     1     201.041 147.543 169.329  1.00  0.00    -0.028 C 
ATOM     14  C   UNL     1     201.471 149.931 169.692  1.00  0.00     0.039 C 
BRANCH  13  15
ATOM     15  C   UNL     1     201.162 146.177 168.695  1.00  0.00     0.035 C 
BRANCH  15  16
ATOM     16  C   UNL     1     200.876 145.046 169.694  1.00  0.00     0.079 C 
BRANCH  16  17
ATOM     17  C   UNL     1     202.057 144.792 170.598  1.00  0.00     0.130 C 
ATOM     18  O   UNL     1     201.867 144.501 171.770  1.00  0.00    -0.300 OA
ATOM     19  C   UNL     1     203.463 144.893 170.087  1.00  0.00     0.087 C 
ENDBRANCH  16  17
ENDBRANCH  15  16
ENDBRANCH  13  15
ENDBRANCH  11  12
ENDBRANCH   1  11
TORSDOF 9
ENDMDL
MODEL 3
REMARK VINA RESULT:    -4.073      1.720      5.232
REMARK INTER + INTRA:          -7.867
REMARK INTER:                  -6.232
REMARK INTRA:                  -1.635
REMARK UNBOUND:                -1.651
REMARK SMILES CC(=O)CCC=C(C)CCC=C(C)CCC=C(C)C
REMARK SMILES IDX 10 1 11 2 12 3 13 4 14 5 15 6 16 7 18 8 17 9 19 10 9 11 7 12
REMARK SMILES IDX 6 13 8 14 5 15 4 16 2 17 3 18 1 19
REMARK H PARENT
REMARK Flexibility Score: inf
ROOT
ATOM      1  C   UNL     1     199.785 151.736 162.535  1.00  0.00     0.032 C 
ENDROOT
BRANCH   1   2
ATOM      2  C   UNL     1     198.858 150.583 162.841  1.00  0.00    -0.028 C 
ATOM      3  C   UNL     1     198.025 150.042 161.925  1.00  0.00    -0.077 C 
ATOM      4  C   UNL     1     197.982 150.547 160.503  1.00  0.00     0.039 C 
BRANCH   3   5
ATOM      5  C   UNL     1     197.109 148.908 162.338  1.00  0.00     0.034 C 
BRANCH   5   6
ATOM      6  C   UNL     1     197.471 148.358 163.724  1.00  0.00     0.032 C 
BRANCH   6   7
ATOM      7  C   UNL     1     197.896 146.911 163.641  1.00  0.00    -0.028 C 
ATOM      8  C   UNL     1     199.408 144.979 163.760  1.00  0.00     0.039 C 
ATOM      9  C   UNL     1     199.160 146.464 163.816  1.00  0.00    -0.080 C 
ATOM     10  C   UNL     1     200.317 147.401 164.061  1.00  0.00     0.039 C 
ENDBRANCH   6   7
ENDBRANCH   5   6
ENDBRANCH   3   5
ENDBRANCH   1   2
BRANCH   1  11
ATOM     11  C   UNL     1     200.857 151.932 163.618  1.00  0.00     0.034 C 
BRANCH  11  12
ATOM     12  C   UNL     1     200.290 152.550 164.887  1.00  0.00    -0.077 C 
ATOM     13  C   UNL     1     200.084 151.853 166.029  1.00  0.00    -0.028 C 
ATOM     14  C   UNL     1     199.947 154.018 164.882  1.00  0.00     0.039 C 
BRANCH  13  15
ATOM     15  C   UNL     1     200.306 150.368 166.201  1.00  0.00     0.035 C 
BRANCH  15  16
ATOM     16  C   UNL     1     201.666 150.055 166.841  1.00  0.00     0.079 C 
BRANCH  16  17
ATOM     17  C   UNL     1     201.534 149.056 167.964  1.00  0.00     0.130 C 
ATOM     18  O   UNL     1     201.369 147.874 167.702  1.00  0.00    -0.300 OA
ATOM     19  C   UNL     1     201.599 149.486 169.399  1.00  0.00     0.087 C 
ENDBRANCH  16  17
ENDBRANCH  15  16
ENDBRANCH  13  15
ENDBRANCH  11  12
ENDBRANCH   1  11
TORSDOF 9
ENDMDL
MODEL 4
REMARK VINA RESULT:    -4.039      2.754      6.797
REMARK INTER + INTRA:          -7.815
REMARK INTER:                  -5.987
REMARK INTRA:                  -1.828
REMARK UNBOUND:                -1.651
REMARK SMILES CC(=O)CCC=C(C)CCC=C(C)CCC=C(C)C
REMARK SMILES IDX 10 1 11 2 12 3 13 4 14 5 15 6 16 7 18 8 17 9 19 10 9 11 7 12
REMARK SMILES IDX 6 13 8 14 5 15 4 16 2 17 3 18 1 19
REMARK H PARENT
REMARK Flexibility Score: inf
ROOT
ATOM      1  C   UNL     1     201.812 148.125 165.081  1.00  0.00     0.032 C 
ENDROOT
BRANCH   1   2
ATOM      2  C   UNL     1     200.378 147.838 164.700  1.00  0.00    -0.028 C 
ATOM      3  C   UNL     1     199.987 147.593 163.430  1.00  0.00    -0.077 C 
ATOM      4  C   UNL     1     200.978 147.565 162.291  1.00  0.00     0.039 C 
BRANCH   3   5
ATOM      5  C   UNL     1     198.519 147.347 163.143  1.00  0.00     0.034 C 
BRANCH   5   6
ATOM      6  C   UNL     1     197.658 148.571 163.487  1.00  0.00     0.032 C 
BRANCH   6   7
ATOM      7  C   UNL     1     197.070 149.188 162.240  1.00  0.00    -0.028 C 
ATOM      8  C   UNL     1     196.943 150.662 160.279  1.00  0.00     0.039 C 
ATOM      9  C   UNL     1     197.630 150.198 161.538  1.00  0.00    -0.080 C 
ATOM     10  C   UNL     1     198.909 150.869 161.975  1.00  0.00     0.039 C 
ENDBRANCH   6   7
ENDBRANCH   5   6
ENDBRANCH   3   5
ENDBRANCH   1   2
BRANCH   1  11
ATOM     11  C   UNL     1     202.027 149.588 165.499  1.00  0.00     0.034 C 
BRANCH  11  12
ATOM     12  C   UNL     1     201.199 149.969 166.717  1.00  0.00    -0.077 C 
ATOM     13  C   UNL     1     200.220 150.904 166.691  1.00  0.00    -0.028 C 
ATOM     14  C   UNL     1     201.470 149.265 168.021  1.00  0.00     0.039 C 
BRANCH  13  15
ATOM     15  C   UNL     1     199.853 151.754 165.497  1.00  0.00     0.035 C 
BRANCH  15  16
ATOM     16  C   UNL     1     199.590 153.216 165.885  1.00  0.00     0.079 C 
BRANCH  16  17
ATOM     17  C   UNL     1     200.112 154.171 164.840  1.00  0.00     0.130 C 
ATOM     18  O   UNL     1     199.957 155.373 164.991  1.00  0.00    -0.300 OA
ATOM     19  C   UNL     1     200.818 153.672 163.615  1.00  0.00     0.087 C 
ENDBRANCH  16  17
ENDBRANCH  15  16
ENDBRANCH  13  15
ENDBRANCH  11  12
ENDBRANCH   1  11
TORSDOF 9
ENDMDL
MODEL 5
REMARK VINA RESULT:    -4.021     14.209     16.625
REMARK INTER + INTRA:          -7.788
REMARK INTER:                  -5.491
REMARK INTRA:                  -2.297
REMARK UNBOUND:                -1.651
REMARK SMILES CC(=O)CCC=C(C)CCC=C(C)CCC=C(C)C
REMARK SMILES IDX 10 1 11 2 12 3 13 4 14 5 15 6 16 7 18 8 17 9 19 10 9 11 7 12
REMARK SMILES IDX 6 13 8 14 5 15 4 16 2 17 3 18 1 19
REMARK H PARENT
REMARK Flexibility Score: inf
ROOT
ATOM      1  C   UNL     1     213.173 161.358 161.820  1.00  0.00     0.032 C 
ENDROOT
BRANCH   1   2
ATOM      2  C   UNL     1     212.441 160.202 162.461  1.00  0.00    -0.028 C 
ATOM      3  C   UNL     1     211.319 159.658 161.938  1.00  0.00    -0.077 C 
ATOM      4  C   UNL     1     210.729 160.162 160.644  1.00  0.00     0.039 C 
BRANCH   3   5
ATOM      5  C   UNL     1     210.639 158.521 162.673  1.00  0.00     0.034 C 
BRANCH   5   6
ATOM      6  C   UNL     1     211.365 158.170 163.979  1.00  0.00     0.032 C 
BRANCH   6   7
ATOM      7  C   UNL     1     210.430 158.262 165.162  1.00  0.00    -0.028 C 
ATOM      8  C   UNL     1     209.757 158.315 167.524  1.00  0.00     0.039 C 
ATOM      9  C   UNL     1     210.804 158.136 166.456  1.00  0.00    -0.080 C 
ATOM     10  C   UNL     1     212.225 157.823 166.855  1.00  0.00     0.039 C 
ENDBRANCH   6   7
ENDBRANCH   5   6
ENDBRANCH   3   5
ENDBRANCH   1   2
BRANCH   1  11
ATOM     11  C   UNL     1     214.511 160.932 161.195  1.00  0.00     0.034 C 
BRANCH  11  12
ATOM     12  C   UNL     1     214.430 160.817 159.680  1.00  0.00    -0.077 C 
ATOM     13  C   UNL     1     214.549 159.646 159.013  1.00  0.00    -0.028 C 
ATOM     14  C   UNL     1     214.195 162.069 158.875  1.00  0.00     0.039 C 
BRANCH  13  15
ATOM     15  C   UNL     1     214.851 158.306 159.644  1.00  0.00     0.035 C 
BRANCH  15  16
ATOM     16  C   UNL     1     213.576 157.497 159.925  1.00  0.00     0.079 C 
BRANCH  16  17
ATOM     17  C   UNL     1     213.632 156.825 161.275  1.00  0.00     0.130 C 
ATOM     18  O   UNL     1     212.838 155.934 161.537  1.00  0.00    -0.300 OA
ATOM     19  C   UNL     1     214.642 157.232 162.305  1.00  0.00     0.087 C 
ENDBRANCH  16  17
ENDBRANCH  15  16
ENDBRANCH  13  15
ENDBRANCH  11  12
ENDBRANCH   1  11
TORSDOF 9
ENDMDL
MODEL 6
REMARK VINA RESULT:    -3.925     13.981     16.241
REMARK INTER + INTRA:          -7.642
REMARK INTER:                  -5.683
REMARK INTRA:                  -1.959
REMARK UNBOUND:                -1.651
REMARK SMILES CC(=O)CCC=C(C)CCC=C(C)CCC=C(C)C
REMARK SMILES IDX 10 1 11 2 12 3 13 4 14 5 15 6 16 7 18 8 17 9 19 10 9 11 7 12
REMARK SMILES IDX 6 13 8 14 5 15 4 16 2 17 3 18 1 19
REMARK H PARENT
REMARK Flexibility Score: inf
ROOT
ATOM      1  C   UNL     1     212.849 149.166 169.707  1.00  0.00     0.032 C 
ENDROOT
BRANCH   1   2
ATOM      2  C   UNL     1     213.289 149.990 170.894  1.00  0.00    -0.028 C 
ATOM      3  C   UNL     1     214.576 150.338 171.116  1.00  0.00    -0.077 C 
ATOM      4  C   UNL     1     215.675 149.939 170.161  1.00  0.00     0.039 C 
BRANCH   3   5
ATOM      5  C   UNL     1     214.922 151.140 172.354  1.00  0.00     0.034 C 
BRANCH   5   6
ATOM      6  C   UNL     1     215.070 152.636 172.042  1.00  0.00     0.032 C 
BRANCH   6   7
ATOM      7  C   UNL     1     213.751 153.356 172.193  1.00  0.00    -0.028 C 
ATOM      8  C   UNL     1     211.658 154.431 171.488  1.00  0.00     0.039 C 
ATOM      9  C   UNL     1     212.978 153.779 171.167  1.00  0.00    -0.080 C 
ATOM     10  C   UNL     1     213.397 153.620 169.726  1.00  0.00     0.039 C 
ENDBRANCH   6   7
ENDBRANCH   5   6
ENDBRANCH   3   5
ENDBRANCH   1   2
BRANCH   1  11
ATOM     11  C   UNL     1     212.948 147.656 169.971  1.00  0.00     0.034 C 
BRANCH  11  12
ATOM     12  C   UNL     1     212.407 147.271 171.340  1.00  0.00    -0.077 C 
ATOM     13  C   UNL     1     213.195 146.904 172.378  1.00  0.00    -0.028 C 
ATOM     14  C   UNL     1     210.917 147.310 171.562  1.00  0.00     0.039 C 
BRANCH  13  15
ATOM     15  C   UNL     1     214.697 146.745 172.323  1.00  0.00     0.035 C 
BRANCH  15  16
ATOM     16  C   UNL     1     215.121 145.274 172.209  1.00  0.00     0.079 C 
BRANCH  16  17
ATOM     17  C   UNL     1     215.179 144.823 170.771  1.00  0.00     0.130 C 
ATOM     18  O   UNL     1     214.487 143.885 170.404  1.00  0.00    -0.300 OA
ATOM     19  C   UNL     1     216.075 145.502 169.778  1.00  0.00     0.087 C 
ENDBRANCH  16  17
ENDBRANCH  15  16
ENDBRANCH  13  15
ENDBRANCH  11  12
ENDBRANCH   1  11
TORSDOF 9
ENDMDL
MODEL 7
REMARK VINA RESULT:    -3.918     13.348     15.551
REMARK INTER + INTRA:          -7.631
REMARK INTER:                  -5.232
REMARK INTRA:                  -2.399
REMARK UNBOUND:                -1.651
REMARK SMILES CC(=O)CCC=C(C)CCC=C(C)CCC=C(C)C
REMARK SMILES IDX 10 1 11 2 12 3 13 4 14 5 15 6 16 7 18 8 17 9 19 10 9 11 7 12
REMARK SMILES IDX 6 13 8 14 5 15 4 16 2 17 3 18 1 19
REMARK H PARENT
REMARK Flexibility Score: inf
ROOT
ATOM      1  C   UNL     1     215.019 147.868 171.454  1.00  0.00     0.032 C 
ENDROOT
BRANCH   1   2
ATOM      2  C   UNL     1     213.881 148.666 170.861  1.00  0.00    -0.028 C 
ATOM      3  C   UNL     1     212.580 148.352 171.051  1.00  0.00    -0.077 C 
ATOM      4  C   UNL     1     212.171 147.175 171.903  1.00  0.00     0.039 C 
BRANCH   3   5
ATOM      5  C   UNL     1     211.512 149.196 170.386  1.00  0.00     0.034 C 
BRANCH   5   6
ATOM      6  C   UNL     1     212.115 150.385 169.626  1.00  0.00     0.032 C 
BRANCH   6   7
ATOM      7  C   UNL     1     211.501 151.688 170.080  1.00  0.00    -0.028 C 
ATOM      8  C   UNL     1     211.363 153.850 171.238  1.00  0.00     0.039 C 
ATOM      9  C   UNL     1     212.083 152.562 170.932  1.00  0.00    -0.080 C 
ATOM     10  C   UNL     1     213.418 152.286 171.579  1.00  0.00     0.039 C 
ENDBRANCH   6   7
ENDBRANCH   5   6
ENDBRANCH   3   5
ENDBRANCH   1   2
BRANCH   1  11
ATOM     11  C   UNL     1     215.548 146.794 170.491  1.00  0.00     0.034 C 
BRANCH  11  12
ATOM     12  C   UNL     1     215.329 145.385 171.020  1.00  0.00    -0.077 C 
ATOM     13  C   UNL     1     214.702 144.412 170.318  1.00  0.00    -0.028 C 
ATOM     14  C   UNL     1     215.846 145.044 172.395  1.00  0.00     0.039 C 
BRANCH  13  15
ATOM     15  C   UNL     1     214.064 144.587 168.959  1.00  0.00     0.035 C 
BRANCH  15  16
ATOM     16  C   UNL     1     212.549 144.812 169.054  1.00  0.00     0.079 C 
BRANCH  16  17
ATOM     17  C   UNL     1     212.126 146.062 168.323  1.00  0.00     0.130 C 
ATOM     18  O   UNL     1     210.944 146.374 168.296  1.00  0.00    -0.300 OA
ATOM     19  C   UNL     1     213.128 146.930 167.623  1.00  0.00     0.087 C 
ENDBRANCH  16  17
ENDBRANCH  15  16
ENDBRANCH  13  15
ENDBRANCH  11  12
ENDBRANCH   1  11
TORSDOF 9
ENDMDL
MODEL 8
REMARK VINA RESULT:    -3.913     11.417     13.713
REMARK INTER + INTRA:          -7.623
REMARK INTER:                  -5.445
REMARK INTRA:                  -2.178
REMARK UNBOUND:                -1.651
REMARK SMILES CC(=O)CCC=C(C)CCC=C(C)CCC=C(C)C
REMARK SMILES IDX 10 1 11 2 12 3 13 4 14 5 15 6 16 7 18 8 17 9 19 10 9 11 7 12
REMARK SMILES IDX 6 13 8 14 5 15 4 16 2 17 3 18 1 19
REMARK H PARENT
REMARK Flexibility Score: inf
ROOT
ATOM      1  C   UNL     1     212.995 158.514 165.256  1.00  0.00     0.032 C 
ENDROOT
BRANCH   1   2
ATOM      2  C   UNL     1     212.417 157.528 166.245  1.00  0.00    -0.028 C 
ATOM      3  C   UNL     1     211.277 157.756 166.934  1.00  0.00    -0.077 C 
ATOM      4  C   UNL     1     210.478 159.022 166.738  1.00  0.00     0.039 C 
BRANCH   3   5
ATOM      5  C   UNL     1     210.795 156.719 167.928  1.00  0.00     0.034 C 
BRANCH   5   6
ATOM      6  C   UNL     1     211.755 155.524 168.017  1.00  0.00     0.032 C 
BRANCH   6   7
ATOM      7  C   UNL     1     211.667 154.856 169.368  1.00  0.00    -0.028 C 
ATOM      8  C   UNL     1     211.018 153.163 171.025  1.00  0.00     0.039 C 
ATOM      9  C   UNL     1     210.952 153.739 169.635  1.00  0.00    -0.080 C 
ATOM     10  C   UNL     1     210.098 153.063 168.590  1.00  0.00     0.039 C 
ENDBRANCH   6   7
ENDBRANCH   5   6
ENDBRANCH   3   5
ENDBRANCH   1   2
BRANCH   1  11
ATOM     11  C   UNL     1     212.811 158.061 163.799  1.00  0.00     0.034 C 
BRANCH  11  12
ATOM     12  C   UNL     1     211.746 158.869 163.073  1.00  0.00    -0.077 C 
ATOM     13  C   UNL     1     210.469 158.451 162.916  1.00  0.00    -0.028 C 
ATOM     14  C   UNL     1     212.126 160.213 162.504  1.00  0.00     0.039 C 
BRANCH  13  15
ATOM     15  C   UNL     1     209.925 157.112 163.359  1.00  0.00     0.035 C 
BRANCH  15  16
ATOM     16  C   UNL     1     208.598 157.247 164.118  1.00  0.00     0.079 C 
BRANCH  16  17
ATOM     17  C   UNL     1     208.439 156.163 165.156  1.00  0.00     0.130 C 
ATOM     18  O   UNL     1     207.595 156.287 166.031  1.00  0.00    -0.300 OA
ATOM     19  C   UNL     1     209.299 154.935 165.136  1.00  0.00     0.087 C 
ENDBRANCH  16  17
ENDBRANCH  15  16
ENDBRANCH  13  15
ENDBRANCH  11  12
ENDBRANCH   1  11
TORSDOF 9
ENDMDL
MODEL 9
REMARK VINA RESULT:    -3.876     14.048     16.888
REMARK INTER + INTRA:          -7.566
REMARK INTER:                  -5.230
REMARK INTRA:                  -2.337
REMARK UNBOUND:                -1.651
REMARK SMILES CC(=O)CCC=C(C)CCC=C(C)CCC=C(C)C
REMARK SMILES IDX 10 1 11 2 12 3 13 4 14 5 15 6 16 7 18 8 17 9 19 10 9 11 7 12
REMARK SMILES IDX 6 13 8 14 5 15 4 16 2 17 3 18 1 19
REMARK H PARENT
REMARK Flexibility Score: inf
ROOT
ATOM      1  C   UNL     1     210.636 159.579 160.662  1.00  0.00     0.032 C 
ENDROOT
BRANCH   1   2
ATOM      2  C   UNL     1     211.560 159.681 161.853  1.00  0.00    -0.028 C 
ATOM      3  C   UNL     1     212.282 158.638 162.319  1.00  0.00    -0.077 C 
ATOM      4  C   UNL     1     212.230 157.285 161.653  1.00  0.00     0.039 C 
BRANCH   3   5
ATOM      5  C   UNL     1     213.156 158.833 163.541  1.00  0.00     0.034 C 
BRANCH   5   6
ATOM      6  C   UNL     1     212.775 157.871 164.675  1.00  0.00     0.032 C 
BRANCH   6   7
ATOM      7  C   UNL     1     211.902 158.557 165.699  1.00  0.00    -0.028 C 
ATOM      8  C   UNL     1     209.832 159.175 166.868  1.00  0.00     0.039 C 
ATOM      9  C   UNL     1     210.553 158.478 165.743  1.00  0.00    -0.080 C 
ATOM     10  C   UNL     1     209.757 157.721 164.708  1.00  0.00     0.039 C 
ENDBRANCH   6   7
ENDBRANCH   5   6
ENDBRANCH   3   5
ENDBRANCH   1   2
BRANCH   1  11
ATOM     11  C   UNL     1     211.257 160.163 159.384  1.00  0.00     0.034 C 
BRANCH  11  12
ATOM     12  C   UNL     1     211.649 161.624 159.547  1.00  0.00    -0.077 C 
ATOM     13  C   UNL     1     212.900 162.090 159.323  1.00  0.00    -0.028 C 
ATOM     14  C   UNL     1     210.591 162.610 159.969  1.00  0.00     0.039 C 
BRANCH  13  15
ATOM     15  C   UNL     1     214.098 161.244 158.959  1.00  0.00     0.035 C 
BRANCH  15  16
ATOM     16  C   UNL     1     214.795 160.662 160.197  1.00  0.00     0.079 C 
BRANCH  16  17
ATOM     17  C   UNL     1     215.056 159.184 160.044  1.00  0.00     0.130 C 
ATOM     18  O   UNL     1     215.724 158.600 160.885  1.00  0.00    -0.300 OA
ATOM     19  C   UNL     1     214.514 158.415 158.877  1.00  0.00     0.087 C 
ENDBRANCH  16  17
ENDBRANCH  15  16
ENDBRANCH  13  15
ENDBRANCH  11  12
ENDBRANCH   1  11
TORSDOF 9
ENDMDL
