MODEL 1
REMARK VINA RESULT:    -4.272      0.000      0.000
REMARK INTER + INTRA:          -4.869
REMARK INTER:                  -4.772
REMARK INTRA:                  -0.097
REMARK UNBOUND:                -0.097
REMARK SMILES CCc1ccc(O)cc1O
REMARK SMILES IDX 3 1 9 2 8 3 6 4 5 5 4 6 2 7 1 8 10 9 7 11
REMARK H PARENT 10 10 7 12
REMARK Flexibility Score: inf
ROOT
ATOM      1  C   UNL     1     -27.499 -52.954  52.851  1.00  0.00    -0.006 A 
ATOM      2  C   UNL     1     -26.559 -52.318  53.702  1.00  0.00     0.122 A 
ATOM      3  C   UNL     1     -26.569 -52.596  55.075  1.00  0.00     0.092 A 
ATOM      4  C   UNL     1     -27.483 -53.505  55.613  1.00  0.00     0.119 A 
ATOM      5  C   UNL     1     -28.399 -54.147  54.774  1.00  0.00     0.047 A 
ATOM      6  C   UNL     1     -28.404 -53.878  53.404  1.00  0.00     0.011 A 
ENDROOT
BRANCH   1   7
ATOM      7  C   UNL     1     -27.532 -52.705  51.362  1.00  0.00     0.036 C 
ATOM      8  C   UNL     1     -28.360 -51.466  51.034  1.00  0.00     0.009 C 
ENDBRANCH   1   7
BRANCH   2   9
ATOM      9  O   UNL     1     -25.606 -51.417  53.224  1.00  0.00    -0.508 OA
ATOM     10  H   UNL     1     -24.945 -51.637  52.492  1.00  0.00     0.293 HD
ENDBRANCH   2   9
BRANCH   4  11
ATOM     11  O   UNL     1     -27.471 -53.765  56.981  1.00  0.00    -0.508 OA
ATOM     12  H   UNL     1     -28.329 -53.862  57.510  1.00  0.00     0.293 HD
ENDBRANCH   4  11
TORSDOF 3
ENDMDL
MODEL 2
REMARK VINA RESULT:    -4.219      1.787      3.957
REMARK INTER + INTRA:          -4.809
REMARK INTER:                  -4.725
REMARK INTRA:                  -0.084
REMARK UNBOUND:                -0.097
REMARK SMILES CCc1ccc(O)cc1O
REMARK SMILES IDX 3 1 9 2 8 3 6 4 5 5 4 6 2 7 1 8 10 9 7 11
REMARK H PARENT 10 10 7 12
REMARK Flexibility Score: inf
ROOT
ATOM      1  C   UNL     1     -26.284 -52.137  55.362  1.00  0.00    -0.006 A 
ATOM      2  C   UNL     1     -27.085 -53.283  55.603  1.00  0.00     0.122 A 
ATOM      3  C   UNL     1     -27.718 -53.924  54.530  1.00  0.00     0.092 A 
ATOM      4  C   UNL     1     -27.555 -53.457  53.224  1.00  0.00     0.119 A 
ATOM      5  C   UNL     1     -26.751 -52.339  52.981  1.00  0.00     0.047 A 
ATOM      6  C   UNL     1     -26.117 -51.687  54.041  1.00  0.00     0.011 A 
ENDROOT
BRANCH   1   7
ATOM      7  C   UNL     1     -25.567 -51.409  56.475  1.00  0.00     0.036 C 
ATOM      8  C   UNL     1     -25.253 -49.971  56.072  1.00  0.00     0.009 C 
ENDBRANCH   1   7
BRANCH   2   9
ATOM      9  O   UNL     1     -27.271 -53.812  56.882  1.00  0.00    -0.508 OA
ATOM     10  H   UNL     1     -27.958 -54.520  57.100  1.00  0.00     0.293 HD
ENDBRANCH   2   9
BRANCH   4  11
ATOM     11  O   UNL     1     -28.194 -54.113  52.174  1.00  0.00    -0.508 OA
ATOM     12  H   UNL     1     -27.870 -55.011  51.834  1.00  0.00     0.293 HD
ENDBRANCH   4  11
TORSDOF 3
ENDMDL
MODEL 3
REMARK VINA RESULT:    -4.179      1.591      2.055
REMARK INTER + INTRA:          -4.764
REMARK INTER:                  -4.680
REMARK INTRA:                  -0.084
REMARK UNBOUND:                -0.097
REMARK SMILES CCc1ccc(O)cc1O
REMARK SMILES IDX 3 1 9 2 8 3 6 4 5 5 4 6 2 7 1 8 10 9 7 11
REMARK H PARENT 10 10 7 12
REMARK Flexibility Score: inf
ROOT
ATOM      1  C   UNL     1     -27.058 -53.005  54.280  1.00  0.00    -0.006 A 
ATOM      2  C   UNL     1     -26.801 -53.126  55.669  1.00  0.00     0.122 A 
ATOM      3  C   UNL     1     -27.527 -54.050  56.431  1.00  0.00     0.092 A 
ATOM      4  C   UNL     1     -28.490 -54.867  55.834  1.00  0.00     0.119 A 
ATOM      5  C   UNL     1     -28.733 -54.764  54.460  1.00  0.00     0.047 A 
ATOM      6  C   UNL     1     -28.020 -53.844  53.689  1.00  0.00     0.011 A 
ENDROOT
BRANCH   1   7
ATOM      7  C   UNL     1     -26.302 -52.036  53.403  1.00  0.00     0.036 C 
ATOM      8  C   UNL     1     -27.209 -51.455  52.322  1.00  0.00     0.009 C 
ENDBRANCH   1   7
BRANCH   2   9
ATOM      9  O   UNL     1     -25.838 -52.354  56.322  1.00  0.00    -0.508 OA
ATOM     10  H   UNL     1     -25.910 -51.353  56.442  1.00  0.00     0.293 HD
ENDBRANCH   2   9
BRANCH   4  11
ATOM     11  O   UNL     1     -29.197 -55.780  56.613  1.00  0.00    -0.508 OA
ATOM     12  H   UNL     1     -30.209 -55.820  56.595  1.00  0.00     0.293 HD
ENDBRANCH   4  11
TORSDOF 3
ENDMDL
MODEL 4
REMARK VINA RESULT:    -4.051     12.849     14.758
REMARK INTER + INTRA:          -4.621
REMARK INTER:                  -4.537
REMARK INTRA:                  -0.085
REMARK UNBOUND:                -0.097
REMARK SMILES CCc1ccc(O)cc1O
REMARK SMILES IDX 3 1 9 2 8 3 6 4 5 5 4 6 2 7 1 8 10 9 7 11
REMARK H PARENT 10 10 7 12
REMARK Flexibility Score: inf
ROOT
ATOM      1  C   UNL     1     -32.178 -52.156  66.825  1.00  0.00    -0.006 A 
ATOM      2  C   UNL     1     -31.521 -52.727  67.944  1.00  0.00     0.122 A 
ATOM      3  C   UNL     1     -31.348 -51.967  69.109  1.00  0.00     0.092 A 
ATOM      4  C   UNL     1     -31.829 -50.658  69.184  1.00  0.00     0.119 A 
ATOM      5  C   UNL     1     -32.494 -50.098  68.088  1.00  0.00     0.047 A 
ATOM      6  C   UNL     1     -32.671 -50.842  66.920  1.00  0.00     0.011 A 
ENDROOT
BRANCH   1   7
ATOM      7  C   UNL     1     -32.405 -52.927  65.546  1.00  0.00     0.036 C 
ATOM      8  C   UNL     1     -32.216 -52.029  64.327  1.00  0.00     0.009 C 
ENDBRANCH   1   7
BRANCH   2   9
ATOM      9  O   UNL     1     -31.035 -54.036  67.940  1.00  0.00    -0.508 OA
ATOM     10  H   UNL     1     -31.543 -54.820  67.554  1.00  0.00     0.293 HD
ENDBRANCH   2   9
BRANCH   4  11
ATOM     11  O   UNL     1     -31.646 -49.924  70.354  1.00  0.00    -0.508 OA
ATOM     12  H   UNL     1     -30.842 -50.072  70.952  1.00  0.00     0.293 HD
ENDBRANCH   4  11
TORSDOF 3
ENDMDL
MODEL 5
REMARK VINA RESULT:    -4.027      2.005      2.450
REMARK INTER + INTRA:          -4.595
REMARK INTER:                  -4.510
REMARK INTRA:                  -0.084
REMARK UNBOUND:                -0.097
REMARK SMILES CCc1ccc(O)cc1O
REMARK SMILES IDX 3 1 9 2 8 3 6 4 5 5 4 6 2 7 1 8 10 9 7 11
REMARK H PARENT 10 10 7 12
REMARK Flexibility Score: inf
ROOT
ATOM      1  C   UNL     1     -27.740 -51.837  52.013  1.00  0.00    -0.006 A 
ATOM      2  C   UNL     1     -26.849 -52.144  53.073  1.00  0.00     0.122 A 
ATOM      3  C   UNL     1     -26.599 -53.482  53.402  1.00  0.00     0.092 A 
ATOM      4  C   UNL     1     -27.206 -54.518  52.688  1.00  0.00     0.119 A 
ATOM      5  C   UNL     1     -28.071 -54.219  51.631  1.00  0.00     0.047 A 
ATOM      6  C   UNL     1     -28.332 -52.890  51.293  1.00  0.00     0.011 A 
ENDROOT
BRANCH   1   7
ATOM      7  C   UNL     1     -28.042 -50.415  51.603  1.00  0.00     0.036 C 
ATOM      8  C   UNL     1     -29.380 -50.329  50.875  1.00  0.00     0.009 C 
ENDBRANCH   1   7
BRANCH   2   9
ATOM      9  O   UNL     1     -26.194 -51.156  53.811  1.00  0.00    -0.508 OA
ATOM     10  H   UNL     1     -25.240 -50.870  53.640  1.00  0.00     0.293 HD
ENDBRANCH   2   9
BRANCH   4  11
ATOM     11  O   UNL     1     -26.939 -55.841  53.034  1.00  0.00    -0.508 OA
ATOM     12  H   UNL     1     -27.373 -56.276  53.840  1.00  0.00     0.293 HD
ENDBRANCH   4  11
TORSDOF 3
ENDMDL
MODEL 6
REMARK VINA RESULT:    -3.976     16.315     16.869
REMARK INTER + INTRA:          -4.538
REMARK INTER:                  -4.453
REMARK INTRA:                  -0.085
REMARK UNBOUND:                -0.097
REMARK SMILES CCc1ccc(O)cc1O
REMARK SMILES IDX 3 1 9 2 8 3 6 4 5 5 4 6 2 7 1 8 10 9 7 11
REMARK H PARENT 10 10 7 12
REMARK Flexibility Score: inf
ROOT
ATOM      1  C   UNL     1     -22.416 -68.487  57.035  1.00  0.00    -0.006 A 
ATOM      2  C   UNL     1     -21.979 -68.791  58.349  1.00  0.00     0.122 A 
ATOM      3  C   UNL     1     -22.896 -68.766  59.408  1.00  0.00     0.092 A 
ATOM      4  C   UNL     1     -24.240 -68.460  59.180  1.00  0.00     0.119 A 
ATOM      5  C   UNL     1     -24.678 -68.178  57.883  1.00  0.00     0.047 A 
ATOM      6  C   UNL     1     -23.775 -68.196  56.818  1.00  0.00     0.011 A 
ENDROOT
BRANCH   1   7
ATOM      7  C   UNL     1     -21.479 -68.508  55.850  1.00  0.00     0.036 C 
ATOM      8  C   UNL     1     -22.257 -68.579  54.540  1.00  0.00     0.009 C 
ENDBRANCH   1   7
BRANCH   2   9
ATOM      9  O   UNL     1     -20.654 -69.125  58.639  1.00  0.00    -0.508 OA
ATOM     10  H   UNL     1     -20.199 -68.898  59.513  1.00  0.00     0.293 HD
ENDBRANCH   2   9
BRANCH   4  11
ATOM     11  O   UNL     1     -25.132 -68.443  60.250  1.00  0.00    -0.508 OA
ATOM     12  H   UNL     1     -24.917 -67.958  61.112  1.00  0.00     0.293 HD
ENDBRANCH   4  11
TORSDOF 3
ENDMDL
MODEL 7
REMARK VINA RESULT:    -3.913      1.644      3.216
REMARK INTER + INTRA:          -4.467
REMARK INTER:                  -4.361
REMARK INTRA:                  -0.106
REMARK UNBOUND:                -0.097
REMARK SMILES CCc1ccc(O)cc1O
REMARK SMILES IDX 3 1 9 2 8 3 6 4 5 5 4 6 2 7 1 8 10 9 7 11
REMARK H PARENT 10 10 7 12
REMARK Flexibility Score: inf
ROOT
ATOM      1  C   UNL     1     -27.280 -53.627  54.263  1.00  0.00    -0.006 A 
ATOM      2  C   UNL     1     -27.031 -53.471  55.650  1.00  0.00     0.122 A 
ATOM      3  C   UNL     1     -26.305 -52.362  56.103  1.00  0.00     0.092 A 
ATOM      4  C   UNL     1     -25.837 -51.400  55.205  1.00  0.00     0.119 A 
ATOM      5  C   UNL     1     -26.098 -51.542  53.838  1.00  0.00     0.047 A 
ATOM      6  C   UNL     1     -26.817 -52.643  53.371  1.00  0.00     0.011 A 
ENDROOT
BRANCH   1   7
ATOM      7  C   UNL     1     -28.066 -54.795  53.713  1.00  0.00     0.036 C 
ATOM      8  C   UNL     1     -29.550 -54.452  53.608  1.00  0.00     0.009 C 
ENDBRANCH   1   7
BRANCH   2   9
ATOM      9  O   UNL     1     -27.489 -54.385  56.601  1.00  0.00    -0.508 OA
ATOM     10  H   UNL     1     -28.458 -54.469  56.876  1.00  0.00     0.293 HD
ENDBRANCH   2   9
BRANCH   4  11
ATOM     11  O   UNL     1     -25.119 -50.306  55.681  1.00  0.00    -0.508 OA
ATOM     12  H   UNL     1     -24.673 -49.650  55.051  1.00  0.00     0.293 HD
ENDBRANCH   4  11
TORSDOF 3
ENDMDL
MODEL 8
REMARK VINA RESULT:    -3.897     15.443     16.560
REMARK INTER + INTRA:          -4.450
REMARK INTER:                  -4.365
REMARK INTRA:                  -0.085
REMARK UNBOUND:                -0.097
REMARK SMILES CCc1ccc(O)cc1O
REMARK SMILES IDX 3 1 9 2 8 3 6 4 5 5 4 6 2 7 1 8 10 9 7 11
REMARK H PARENT 10 10 7 12
REMARK Flexibility Score: inf
ROOT
ATOM      1  C   UNL     1     -22.729 -68.366  56.832  1.00  0.00    -0.006 A 
ATOM      2  C   UNL     1     -23.946 -67.640  56.871  1.00  0.00     0.122 A 
ATOM      3  C   UNL     1     -24.742 -67.683  58.023  1.00  0.00     0.092 A 
ATOM      4  C   UNL     1     -24.341 -68.420  59.140  1.00  0.00     0.119 A 
ATOM      5  C   UNL     1     -23.132 -69.121  59.111  1.00  0.00     0.047 A 
ATOM      6  C   UNL     1     -22.330 -69.091  57.969  1.00  0.00     0.011 A 
ENDROOT
BRANCH   1   7
ATOM      7  C   UNL     1     -21.822 -68.351  55.624  1.00  0.00     0.036 C 
ATOM      8  C   UNL     1     -20.520 -69.094  55.910  1.00  0.00     0.009 C 
ENDBRANCH   1   7
BRANCH   2   9
ATOM      9  O   UNL     1     -24.393 -66.868  55.797  1.00  0.00    -0.508 OA
ATOM     10  H   UNL     1     -24.196 -67.088  54.830  1.00  0.00     0.293 HD
ENDBRANCH   2   9
BRANCH   4  11
ATOM     11  O   UNL     1     -25.150 -68.445  60.274  1.00  0.00    -0.508 OA
ATOM     12  H   UNL     1     -25.941 -69.073  60.348  1.00  0.00     0.293 HD
ENDBRANCH   4  11
TORSDOF 3
ENDMDL
MODEL 9
REMARK VINA RESULT:    -3.832      1.751      2.387
REMARK INTER + INTRA:          -4.378
REMARK INTER:                  -4.291
REMARK INTRA:                  -0.086
REMARK UNBOUND:                -0.097
REMARK SMILES CCc1ccc(O)cc1O
REMARK SMILES IDX 3 1 9 2 8 3 6 4 5 5 4 6 2 7 1 8 10 9 7 11
REMARK H PARENT 10 10 7 12
REMARK Flexibility Score: inf
ROOT
ATOM      1  C   UNL     1     -27.747 -52.304  52.255  1.00  0.00    -0.006 A 
ATOM      2  C   UNL     1     -28.202 -53.468  52.925  1.00  0.00     0.122 A 
ATOM      3  C   UNL     1     -27.655 -53.811  54.168  1.00  0.00     0.092 A 
ATOM      4  C   UNL     1     -26.678 -53.010  54.763  1.00  0.00     0.119 A 
ATOM      5  C   UNL     1     -26.240 -51.851  54.113  1.00  0.00     0.047 A 
ATOM      6  C   UNL     1     -26.774 -51.498  52.872  1.00  0.00     0.011 A 
ENDROOT
BRANCH   1   7
ATOM      7  C   UNL     1     -28.305 -51.874  50.919  1.00  0.00     0.036 C 
ATOM      8  C   UNL     1     -28.515 -50.363  50.875  1.00  0.00     0.009 C 
ENDBRANCH   1   7
BRANCH   2   9
ATOM      9  O   UNL     1     -29.191 -54.299  52.394  1.00  0.00    -0.508 OA
ATOM     10  H   UNL     1     -29.448 -54.309  51.416  1.00  0.00     0.293 HD
ENDBRANCH   2   9
BRANCH   4  11
ATOM     11  O   UNL     1     -26.150 -53.373  56.000  1.00  0.00    -0.508 OA
ATOM     12  H   UNL     1     -26.120 -52.721  56.775  1.00  0.00     0.293 HD
ENDBRANCH   4  11
TORSDOF 3
ENDMDL
