MODEL 1
REMARK VINA RESULT:    -2.379      0.000      0.000
REMARK INTER + INTRA:          -2.519
REMARK INTER:                  -2.519
REMARK INTRA:                   0.000
REMARK UNBOUND:                 0.000
REMARK SMILES Cc1cc(O)c(C)c(C)c1O
REMARK SMILES IDX 1 1 2 2 3 3 4 4 6 5 8 6 10 7 9 8 7 9 11 10 5 12
REMARK H PARENT 11 11 5 13
REMARK Flexibility Score: inf
ROOT
ATOM      1  C   UNL     1     -17.053   7.739  -2.950  1.00  0.00     0.048 C 
ATOM      2  C   UNL     1     -17.980   6.554  -2.985  1.00  0.00    -0.005 A 
ATOM      3  C   UNL     1     -17.455   5.261  -3.078  1.00  0.00     0.053 A 
ATOM      4  C   UNL     1     -18.299   4.150  -3.143  1.00  0.00     0.119 A 
ATOM      5  C   UNL     1     -19.699   4.318  -3.111  1.00  0.00    -0.003 A 
ATOM      6  C   UNL     1     -20.244   5.624  -2.972  1.00  0.00    -0.002 A 
ATOM      7  C   UNL     1     -19.371   6.742  -2.949  1.00  0.00     0.121 A 
ATOM      8  C   UNL     1     -21.737   5.852  -2.875  1.00  0.00     0.049 C 
ATOM      9  C   UNL     1     -20.594   3.103  -3.204  1.00  0.00     0.049 C 
ENDROOT
BRANCH   7  10
ATOM     10  O   UNL     1     -19.859   8.054  -2.897  1.00  0.00    -0.507 OA
ATOM     11  H   UNL     1     -19.333   8.862  -3.204  1.00  0.00     0.293 HD
ENDBRANCH   7  10
BRANCH   4  12
ATOM     12  O   UNL     1     -17.740   2.875  -3.240  1.00  0.00    -0.508 OA
ATOM     13  H   UNL     1     -16.836   2.655  -2.838  1.00  0.00     0.293 HD
ENDBRANCH   4  12
TORSDOF 2
ENDMDL
MODEL 2
REMARK VINA RESULT:    -1.712      1.335      3.274
REMARK INTER + INTRA:          -1.812
REMARK INTER:                  -1.812
REMARK INTRA:                   0.000
REMARK UNBOUND:                 0.000
REMARK SMILES Cc1cc(O)c(C)c(C)c1O
REMARK SMILES IDX 1 1 2 2 3 3 4 4 6 5 8 6 10 7 9 8 7 9 11 10 5 12
REMARK H PARENT 11 11 5 13
REMARK Flexibility Score: inf
ROOT
ATOM      1  C   UNL     1     -22.125   3.052  -3.297  1.00  0.00     0.048 C 
ATOM      2  C   UNL     1     -20.833   3.819  -3.219  1.00  0.00    -0.005 A 
ATOM      3  C   UNL     1     -19.613   3.139  -3.283  1.00  0.00     0.053 A 
ATOM      4  C   UNL     1     -18.404   3.830  -3.180  1.00  0.00     0.119 A 
ATOM      5  C   UNL     1     -18.397   5.230  -3.015  1.00  0.00    -0.003 A 
ATOM      6  C   UNL     1     -19.630   5.938  -2.993  1.00  0.00    -0.002 A 
ATOM      7  C   UNL     1     -20.848   5.214  -3.057  1.00  0.00     0.121 A 
ATOM      8  C   UNL     1     -19.674   7.447  -2.875  1.00  0.00     0.049 C 
ATOM      9  C   UNL     1     -17.076   5.956  -2.884  1.00  0.00     0.049 C 
ENDROOT
BRANCH   7  10
ATOM     10  O   UNL     1     -22.089   5.854  -2.956  1.00  0.00    -0.507 OA
ATOM     11  H   UNL     1     -22.953   5.375  -2.739  1.00  0.00     0.293 HD
ENDBRANCH   7  10
BRANCH   4  12
ATOM     12  O   UNL     1     -17.205   3.118  -3.244  1.00  0.00    -0.508 OA
ATOM     13  H   UNL     1     -17.155   2.133  -3.010  1.00  0.00     0.293 HD
ENDBRANCH   4  12
TORSDOF 2
ENDMDL
MODEL 3
REMARK VINA RESULT:    -1.329      1.349      2.947
REMARK INTER + INTRA:          -1.406
REMARK INTER:                  -1.406
REMARK INTRA:                   0.000
REMARK UNBOUND:                 0.000
REMARK SMILES Cc1cc(O)c(C)c(C)c1O
REMARK SMILES IDX 1 1 2 2 3 3 4 4 6 5 8 6 10 7 9 8 7 9 11 10 5 12
REMARK H PARENT 11 11 5 13
REMARK Flexibility Score: inf
ROOT
ATOM      1  C   UNL     1     -17.503   7.891  -2.878  1.00  0.00     0.048 C 
ATOM      2  C   UNL     1     -18.446   6.719  -2.908  1.00  0.00    -0.005 A 
ATOM      3  C   UNL     1     -19.827   6.934  -2.897  1.00  0.00     0.053 A 
ATOM      4  C   UNL     1     -20.718   5.859  -2.892  1.00  0.00     0.119 A 
ATOM      5  C   UNL     1     -20.234   4.534  -2.902  1.00  0.00    -0.003 A 
ATOM      6  C   UNL     1     -18.832   4.303  -2.957  1.00  0.00    -0.002 A 
ATOM      7  C   UNL     1     -17.943   5.407  -2.920  1.00  0.00     0.121 A 
ATOM      8  C   UNL     1     -18.263   2.901  -3.028  1.00  0.00     0.049 C 
ATOM      9  C   UNL     1     -21.216   3.385  -2.875  1.00  0.00     0.049 C 
ENDROOT
BRANCH   7  10
ATOM     10  O   UNL     1     -16.554   5.232  -2.889  1.00  0.00    -0.507 OA
ATOM     11  H   UNL     1     -16.099   4.331  -2.955  1.00  0.00     0.293 HD
ENDBRANCH   7  10
BRANCH   4  12
ATOM     12  O   UNL     1     -22.091   6.111  -2.877  1.00  0.00    -0.508 OA
ATOM     13  H   UNL     1     -22.575   6.482  -3.686  1.00  0.00     0.293 HD
ENDBRANCH   4  12
TORSDOF 2
ENDMDL
MODEL 4
REMARK VINA RESULT:     0.198      1.376      3.859
REMARK INTER + INTRA:           0.210
REMARK INTER:                   0.210
REMARK INTRA:                   0.000
REMARK UNBOUND:                 0.000
REMARK SMILES Cc1cc(O)c(C)c(C)c1O
REMARK SMILES IDX 1 1 2 2 3 3 4 4 6 5 8 6 10 7 9 8 7 9 11 10 5 12
REMARK H PARENT 11 11 5 13
REMARK Flexibility Score: inf
ROOT
ATOM      1  C   UNL     1     -22.125   5.848  -2.890  1.00  0.00     0.048 C 
ATOM      2  C   UNL     1     -20.625   5.745  -2.948  1.00  0.00    -0.005 A 
ATOM      3  C   UNL     1     -19.844   6.903  -2.876  1.00  0.00     0.053 A 
ATOM      4  C   UNL     1     -18.451   6.831  -2.960  1.00  0.00     0.119 A 
ATOM      5  C   UNL     1     -17.811   5.585  -3.115  1.00  0.00    -0.003 A 
ATOM      6  C   UNL     1     -18.592   4.396  -3.145  1.00  0.00    -0.002 A 
ATOM      7  C   UNL     1     -20.006   4.493  -3.100  1.00  0.00     0.121 A 
ATOM      8  C   UNL     1     -17.950   3.029  -3.253  1.00  0.00     0.049 C 
ATOM      9  C   UNL     1     -16.304   5.533  -3.225  1.00  0.00     0.049 C 
ENDROOT
BRANCH   7  10
ATOM     10  O   UNL     1     -20.825   3.362  -3.210  1.00  0.00    -0.507 OA
ATOM     11  H   UNL     1     -21.650   3.319  -3.794  1.00  0.00     0.293 HD
ENDBRANCH   7  10
BRANCH   4  12
ATOM     12  O   UNL     1     -17.704   8.008  -2.888  1.00  0.00    -0.508 OA
ATOM     13  H   UNL     1     -16.725   8.005  -2.623  1.00  0.00     0.293 HD
ENDBRANCH   4  12
TORSDOF 2
ENDMDL
MODEL 5
REMARK VINA RESULT:     0.328      1.422      3.349
REMARK INTER + INTRA:           0.348
REMARK INTER:                   0.348
REMARK INTRA:                   0.000
REMARK UNBOUND:                 0.000
REMARK SMILES Cc1cc(O)c(C)c(C)c1O
REMARK SMILES IDX 1 1 2 2 3 3 4 4 6 5 8 6 10 7 9 8 7 9 11 10 5 12
REMARK H PARENT 11 11 5 13
REMARK Flexibility Score: inf
ROOT
ATOM      1  C   UNL     1     -17.647   2.876  -3.009  1.00  0.00     0.048 C 
ATOM      2  C   UNL     1     -18.172   4.286  -3.004  1.00  0.00    -0.005 A 
ATOM      3  C   UNL     1     -17.280   5.362  -3.032  1.00  0.00     0.053 A 
ATOM      4  C   UNL     1     -17.746   6.678  -2.996  1.00  0.00     0.119 A 
ATOM      5  C   UNL     1     -19.130   6.941  -2.935  1.00  0.00    -0.003 A 
ATOM      6  C   UNL     1     -20.049   5.856  -2.951  1.00  0.00    -0.002 A 
ATOM      7  C   UNL     1     -19.555   4.526  -2.946  1.00  0.00     0.121 A 
ATOM      8  C   UNL     1     -21.546   6.086  -2.945  1.00  0.00     0.049 C 
ATOM      9  C   UNL     1     -19.612   8.373  -2.875  1.00  0.00     0.049 C 
ENDROOT
BRANCH   7  10
ATOM     10  O   UNL     1     -20.414   3.423  -2.878  1.00  0.00    -0.507 OA
ATOM     11  H   UNL     1     -21.044   3.153  -3.622  1.00  0.00     0.293 HD
ENDBRANCH   7  10
BRANCH   4  12
ATOM     12  O   UNL     1     -16.826   7.727  -3.021  1.00  0.00    -0.508 OA
ATOM     13  H   UNL     1     -15.829   7.567  -2.937  1.00  0.00     0.293 HD
ENDBRANCH   4  12
TORSDOF 2
ENDMDL
