MODEL 1
REMARK VINA RESULT:    -3.953      0.000      0.000
REMARK INTER + INTRA:          -6.293
REMARK INTER:                  -5.571
REMARK INTRA:                  -0.723
REMARK UNBOUND:                -0.723
REMARK SMILES CCCCCCCCC(=O)[O-]
REMARK SMILES IDX 6 1 7 2 8 3 9 4 10 5 11 6 5 7 4 8 3 9 2 10 1 11
REMARK H PARENT
REMARK Flexibility Score: inf
ROOT
ATOM      1  C   UNL     1      15.486 -22.055  21.227  1.00  0.00     0.000 C 
ENDROOT
BRANCH   1   2
ATOM      2  C   UNL     1      15.852 -20.800  22.033  1.00  0.00     0.006 C 
BRANCH   2   3
ATOM      3  C   UNL     1      16.572 -21.141  23.345  1.00  0.00     0.053 C 
BRANCH   3   4
ATOM      4  C   UNL     1      15.628 -21.155  24.508  1.00  0.00     0.041 C 
ATOM      5  O   UNL     1      15.920 -21.790  25.555  1.00  0.00    -0.550 OA
ATOM      6  O   UNL     1      14.410 -20.493  24.422  1.00  0.00    -0.550 OA
ENDBRANCH   3   4
ENDBRANCH   2   3
ENDBRANCH   1   2
BRANCH   1   7
ATOM      7  C   UNL     1      14.013 -22.026  20.804  1.00  0.00     0.000 C 
BRANCH   7   8
ATOM      8  C   UNL     1      13.120 -22.672  21.870  1.00  0.00    -0.000 C 
BRANCH   8   9
ATOM      9  C   UNL     1      11.920 -21.773  22.199  1.00  0.00    -0.000 C 
BRANCH   9  10
ATOM     10  C   UNL     1      11.931 -20.460  21.402  1.00  0.00    -0.003 C 
ATOM     11  C   UNL     1      11.846 -19.223  22.297  1.00  0.00     0.004 C 
ENDBRANCH   9  10
ENDBRANCH   8   9
ENDBRANCH   7   8
ENDBRANCH   1   7
TORSDOF 7
ENDMDL
MODEL 2
REMARK VINA RESULT:    -3.950      1.314      2.297
REMARK INTER + INTRA:          -6.289
REMARK INTER:                  -5.718
REMARK INTRA:                  -0.571
REMARK UNBOUND:                -0.723
REMARK SMILES CCCCCCCCC(=O)[O-]
REMARK SMILES IDX 6 1 7 2 8 3 9 4 10 5 11 6 5 7 4 8 3 9 2 10 1 11
REMARK H PARENT
REMARK Flexibility Score: inf
ROOT
ATOM      1  C   UNL     1      16.264 -20.226  21.185  1.00  0.00     0.000 C 
ENDROOT
BRANCH   1   2
ATOM      2  C   UNL     1      16.473 -21.467  22.065  1.00  0.00     0.006 C 
BRANCH   2   3
ATOM      3  C   UNL     1      16.941 -21.103  23.481  1.00  0.00     0.053 C 
BRANCH   3   4
ATOM      4  C   UNL     1      15.814 -21.145  24.466  1.00  0.00     0.041 C 
ATOM      5  O   UNL     1      14.747 -20.518  24.237  1.00  0.00    -0.550 OA
ATOM      6  O   UNL     1      15.956 -21.851  25.655  1.00  0.00    -0.550 OA
ENDBRANCH   3   4
ENDBRANCH   2   3
ENDBRANCH   1   2
BRANCH   1   7
ATOM      7  C   UNL     1      15.542 -20.590  19.882  1.00  0.00     0.000 C 
BRANCH   7   8
ATOM      8  C   UNL     1      14.661 -21.831  20.069  1.00  0.00    -0.000 C 
BRANCH   8   9
ATOM      9  C   UNL     1      13.263 -21.442  20.572  1.00  0.00    -0.000 C 
BRANCH   9  10
ATOM     10  C   UNL     1      12.824 -22.268  21.791  1.00  0.00    -0.003 C 
ATOM     11  C   UNL     1      13.591 -23.584  21.921  1.00  0.00     0.004 C 
ENDBRANCH   9  10
ENDBRANCH   8   9
ENDBRANCH   7   8
ENDBRANCH   1   7
TORSDOF 7
ENDMDL
MODEL 3
REMARK VINA RESULT:    -3.945      2.346      4.161
REMARK INTER + INTRA:          -6.283
REMARK INTER:                  -5.672
REMARK INTRA:                  -0.610
REMARK UNBOUND:                -0.723
REMARK SMILES CCCCCCCCC(=O)[O-]
REMARK SMILES IDX 6 1 7 2 8 3 9 4 10 5 11 6 5 7 4 8 3 9 2 10 1 11
REMARK H PARENT
REMARK Flexibility Score: inf
ROOT
ATOM      1  C   UNL     1      14.920 -21.619  20.786  1.00  0.00     0.000 C 
ENDROOT
BRANCH   1   2
ATOM      2  C   UNL     1      13.657 -22.489  20.715  1.00  0.00     0.006 C 
BRANCH   2   3
ATOM      3  C   UNL     1      12.750 -22.298  21.939  1.00  0.00     0.053 C 
BRANCH   3   4
ATOM      4  C   UNL     1      11.693 -21.266  21.691  1.00  0.00     0.041 C 
ATOM      5  O   UNL     1      10.476 -21.564  21.805  1.00  0.00    -0.550 OA
ATOM      6  O   UNL     1      12.054 -19.982  21.303  1.00  0.00    -0.550 OA
ENDBRANCH   3   4
ENDBRANCH   2   3
ENDBRANCH   1   2
BRANCH   1   7
ATOM      7  C   UNL     1      15.943 -22.212  21.762  1.00  0.00     0.000 C 
BRANCH   7   8
ATOM      8  C   UNL     1      16.742 -21.106  22.462  1.00  0.00    -0.000 C 
BRANCH   8   9
ATOM      9  C   UNL     1      16.693 -21.276  23.988  1.00  0.00    -0.000 C 
BRANCH   9  10
ATOM     10  C   UNL     1      15.262 -21.214  24.542  1.00  0.00    -0.003 C 
ATOM     11  C   UNL     1      14.546 -19.910  24.189  1.00  0.00     0.004 C 
ENDBRANCH   9  10
ENDBRANCH   8   9
ENDBRANCH   7   8
ENDBRANCH   1   7
TORSDOF 7
ENDMDL
MODEL 4
REMARK VINA RESULT:    -3.812      2.420      3.978
REMARK INTER + INTRA:          -6.095
REMARK INTER:                  -5.423
REMARK INTRA:                  -0.672
REMARK UNBOUND:                -0.723
REMARK SMILES CCCCCCCCC(=O)[O-]
REMARK SMILES IDX 6 1 7 2 8 3 9 4 10 5 11 6 5 7 4 8 3 9 2 10 1 11
REMARK H PARENT
REMARK Flexibility Score: inf
ROOT
ATOM      1  C   UNL     1      15.403 -20.172  20.856  1.00  0.00     0.000 C 
ENDROOT
BRANCH   1   2
ATOM      2  C   UNL     1      15.157 -21.236  19.776  1.00  0.00     0.006 C 
BRANCH   2   3
ATOM      3  C   UNL     1      13.769 -21.879  19.899  1.00  0.00     0.053 C 
BRANCH   3   4
ATOM      4  C   UNL     1      13.702 -22.842  21.044  1.00  0.00     0.041 C 
ATOM      5  O   UNL     1      12.932 -22.623  22.014  1.00  0.00    -0.550 OA
ATOM      6  O   UNL     1      14.517 -23.968  21.053  1.00  0.00    -0.550 OA
ENDBRANCH   3   4
ENDBRANCH   2   3
ENDBRANCH   1   2
BRANCH   1   7
ATOM      7  C   UNL     1      16.764 -20.377  21.531  1.00  0.00     0.000 C 
BRANCH   7   8
ATOM      8  C   UNL     1      16.712 -21.533  22.537  1.00  0.00    -0.000 C 
BRANCH   8   9
ATOM      9  C   UNL     1      16.521 -21.008  23.968  1.00  0.00    -0.000 C 
BRANCH   9  10
ATOM     10  C   UNL     1      15.093 -21.224  24.489  1.00  0.00    -0.003 C 
ATOM     11  C   UNL     1      14.173 -20.036  24.206  1.00  0.00     0.004 C 
ENDBRANCH   9  10
ENDBRANCH   8   9
ENDBRANCH   7   8
ENDBRANCH   1   7
TORSDOF 7
ENDMDL
MODEL 5
REMARK VINA RESULT:    -3.760      2.200      4.188
REMARK INTER + INTRA:          -6.022
REMARK INTER:                  -5.315
REMARK INTRA:                  -0.708
REMARK UNBOUND:                -0.723
REMARK SMILES CCCCCCCCC(=O)[O-]
REMARK SMILES IDX 6 1 7 2 8 3 9 4 10 5 11 6 5 7 4 8 3 9 2 10 1 11
REMARK H PARENT
REMARK Flexibility Score: inf
ROOT
ATOM      1  C   UNL     1      14.941 -19.707  21.041  1.00  0.00     0.000 C 
ENDROOT
BRANCH   1   2
ATOM      2  C   UNL     1      13.436 -19.620  20.751  1.00  0.00     0.006 C 
BRANCH   2   3
ATOM      3  C   UNL     1      12.586 -19.922  21.993  1.00  0.00     0.053 C 
BRANCH   3   4
ATOM      4  C   UNL     1      11.824 -21.203  21.846  1.00  0.00     0.041 C 
ATOM      5  O   UNL     1      12.435 -22.299  21.751  1.00  0.00    -0.550 OA
ATOM      6  O   UNL     1      10.436 -21.181  21.782  1.00  0.00    -0.550 OA
ENDBRANCH   3   4
ENDBRANCH   2   3
ENDBRANCH   1   2
BRANCH   1   7
ATOM      7  C   UNL     1      15.505 -21.070  20.620  1.00  0.00     0.000 C 
BRANCH   7   8
ATOM      8  C   UNL     1      15.895 -21.908  21.844  1.00  0.00    -0.000 C 
BRANCH   8   9
ATOM      9  C   UNL     1      16.980 -21.202  22.669  1.00  0.00    -0.000 C 
BRANCH   9  10
ATOM     10  C   UNL     1      16.662 -21.186  24.172  1.00  0.00    -0.003 C 
ATOM     11  C   UNL     1      15.163 -21.091  24.458  1.00  0.00     0.004 C 
ENDBRANCH   9  10
ENDBRANCH   8   9
ENDBRANCH   7   8
ENDBRANCH   1   7
TORSDOF 7
ENDMDL
MODEL 6
REMARK VINA RESULT:    -3.648      1.887      4.273
REMARK INTER + INTRA:          -5.864
REMARK INTER:                  -5.228
REMARK INTRA:                  -0.636
REMARK UNBOUND:                -0.723
REMARK SMILES CCCCCCCCC(=O)[O-]
REMARK SMILES IDX 6 1 7 2 8 3 9 4 10 5 11 6 5 7 4 8 3 9 2 10 1 11
REMARK H PARENT
REMARK Flexibility Score: inf
ROOT
ATOM      1  C   UNL     1      13.794 -22.759  21.145  1.00  0.00     0.000 C 
ENDROOT
BRANCH   1   2
ATOM      2  C   UNL     1      12.926 -22.130  22.245  1.00  0.00     0.006 C 
BRANCH   2   3
ATOM      3  C   UNL     1      11.758 -21.317  21.670  1.00  0.00     0.053 C 
BRANCH   3   4
ATOM      4  C   UNL     1      12.124 -19.877  21.482  1.00  0.00     0.041 C 
ATOM      5  O   UNL     1      12.914 -19.312  22.282  1.00  0.00    -0.550 OA
ATOM      6  O   UNL     1      11.564 -19.150  20.438  1.00  0.00    -0.550 OA
ENDBRANCH   3   4
ENDBRANCH   2   3
ENDBRANCH   1   2
BRANCH   1   7
ATOM      7  C   UNL     1      15.281 -22.695  21.514  1.00  0.00     0.000 C 
BRANCH   7   8
ATOM      8  C   UNL     1      15.783 -21.246  21.536  1.00  0.00    -0.000 C 
BRANCH   8   9
ATOM      9  C   UNL     1      16.966 -21.090  22.503  1.00  0.00    -0.000 C 
BRANCH   9  10
ATOM     10  C   UNL     1      16.588 -21.421  23.955  1.00  0.00    -0.003 C 
ATOM     11  C   UNL     1      15.434 -20.565  24.477  1.00  0.00     0.004 C 
ENDBRANCH   9  10
ENDBRANCH   8   9
ENDBRANCH   7   8
ENDBRANCH   1   7
TORSDOF 7
ENDMDL
MODEL 7
REMARK VINA RESULT:    -3.619      1.828      2.598
REMARK INTER + INTRA:          -5.823
REMARK INTER:                  -4.995
REMARK INTRA:                  -0.828
REMARK UNBOUND:                -0.723
REMARK SMILES CCCCCCCCC(=O)[O-]
REMARK SMILES IDX 6 1 7 2 8 3 9 4 10 5 11 6 5 7 4 8 3 9 2 10 1 11
REMARK H PARENT
REMARK Flexibility Score: inf
ROOT
ATOM      1  C   UNL     1      14.128 -22.700  20.536  1.00  0.00     0.000 C 
ENDROOT
BRANCH   1   2
ATOM      2  C   UNL     1      15.135 -22.303  21.626  1.00  0.00     0.006 C 
BRANCH   2   3
ATOM      3  C   UNL     1      14.444 -21.866  22.925  1.00  0.00     0.053 C 
BRANCH   3   4
ATOM      4  C   UNL     1      15.313 -20.956  23.737  1.00  0.00     0.041 C 
ATOM      5  O   UNL     1      14.813 -19.971  24.340  1.00  0.00    -0.550 OA
ATOM      6  O   UNL     1      16.683 -21.180  23.803  1.00  0.00    -0.550 OA
ENDBRANCH   3   4
ENDBRANCH   2   3
ENDBRANCH   1   2
BRANCH   1   7
ATOM      7  C   UNL     1      14.373 -21.908  19.246  1.00  0.00     0.000 C 
BRANCH   7   8
ATOM      8  C   UNL     1      15.371 -20.767  19.480  1.00  0.00    -0.000 C 
BRANCH   8   9
ATOM      9  C   UNL     1      14.678 -19.401  19.370  1.00  0.00    -0.000 C 
BRANCH   9  10
ATOM     10  C   UNL     1      14.451 -18.743  20.739  1.00  0.00    -0.003 C 
ATOM     11  C   UNL     1      13.013 -18.891  21.236  1.00  0.00     0.004 C 
ENDBRANCH   9  10
ENDBRANCH   8   9
ENDBRANCH   7   8
ENDBRANCH   1   7
TORSDOF 7
ENDMDL
MODEL 8
REMARK VINA RESULT:    -3.556      1.732      2.970
REMARK INTER + INTRA:          -5.735
REMARK INTER:                  -5.004
REMARK INTRA:                  -0.731
REMARK UNBOUND:                -0.723
REMARK SMILES CCCCCCCCC(=O)[O-]
REMARK SMILES IDX 6 1 7 2 8 3 9 4 10 5 11 6 5 7 4 8 3 9 2 10 1 11
REMARK H PARENT
REMARK Flexibility Score: inf
ROOT
ATOM      1  C   UNL     1      12.897 -21.255  21.955  1.00  0.00     0.000 C 
ENDROOT
BRANCH   1   2
ATOM      2  C   UNL     1      14.179 -21.769  22.626  1.00  0.00     0.006 C 
BRANCH   2   3
ATOM      3  C   UNL     1      14.830 -20.708  23.524  1.00  0.00     0.053 C 
BRANCH   3   4
ATOM      4  C   UNL     1      16.112 -21.199  24.123  1.00  0.00     0.041 C 
ATOM      5  O   UNL     1      17.167 -21.219  23.438  1.00  0.00    -0.550 OA
ATOM      6  O   UNL     1      16.132 -21.666  25.432  1.00  0.00    -0.550 OA
ENDBRANCH   3   4
ENDBRANCH   2   3
ENDBRANCH   1   2
BRANCH   1   7
ATOM      7  C   UNL     1      13.075 -21.149  20.436  1.00  0.00     0.000 C 
BRANCH   7   8
ATOM      8  C   UNL     1      14.282 -21.968  19.963  1.00  0.00    -0.000 C 
BRANCH   8   9
ATOM      9  C   UNL     1      15.166 -21.146  19.013  1.00  0.00    -0.000 C 
BRANCH   9  10
ATOM     10  C   UNL     1      15.338 -19.692  19.479  1.00  0.00    -0.003 C 
ATOM     11  C   UNL     1      16.523 -19.510  20.428  1.00  0.00     0.004 C 
ENDBRANCH   9  10
ENDBRANCH   8   9
ENDBRANCH   7   8
ENDBRANCH   1   7
TORSDOF 7
ENDMDL
