MODEL 1
REMARK VINA RESULT:    -2.999      0.000      0.000
REMARK INTER + INTRA:          -3.262
REMARK INTER:                  -3.262
REMARK INTRA:                   0.000
REMARK UNBOUND:                 0.000
REMARK SMILES [NH3+]CC(=O)[O-]
REMARK SMILES IDX 2 1 1 2 3 6 4 7 5 8
REMARK H PARENT 1 3 1 4 1 5
REMARK Flexibility Score: inf
ROOT
ATOM      1  C   UNL     1      14.830  20.508  23.507  1.00  0.00     0.312 C 
ENDROOT
BRANCH   1   2
ATOM      2  N   UNL     1      15.383  21.150  24.697  1.00  0.00    -0.353 N 
ATOM      3  H   UNL     1      16.082  20.509  25.139  1.00  0.00     0.344 HD
ATOM      4  H   UNL     1      15.862  22.043  24.434  1.00  0.00     0.344 HD
ATOM      5  H   UNL     1      14.621  21.347  25.387  1.00  0.00     0.344 HD
ENDBRANCH   1   2
BRANCH   1   6
ATOM      6  C   UNL     1      15.509  21.011  22.272  1.00  0.00     0.096 C 
ATOM      7  O   UNL     1      14.827  21.425  21.298  1.00  0.00    -0.544 OA
ATOM      8  O   UNL     1      16.894  20.975  22.176  1.00  0.00    -0.544 OA
ENDBRANCH   1   6
TORSDOF 2
ENDMDL
MODEL 2
REMARK VINA RESULT:    -2.903     12.393     12.856
REMARK INTER + INTRA:          -3.157
REMARK INTER:                  -3.157
REMARK INTRA:                   0.000
REMARK UNBOUND:                 0.000
REMARK SMILES [NH3+]CC(=O)[O-]
REMARK SMILES IDX 2 1 1 2 3 6 4 7 5 8
REMARK H PARENT 1 3 1 4 1 5
REMARK Flexibility Score: inf
ROOT
ATOM      1  C   UNL     1       8.271  27.684  16.126  1.00  0.00     0.312 C 
ENDROOT
BRANCH   1   2
ATOM      2  N   UNL     1       9.056  28.182  14.998  1.00  0.00    -0.353 N 
ATOM      3  H   UNL     1       9.753  27.455  14.719  1.00  0.00     0.344 HD
ATOM      4  H   UNL     1       8.429  28.381  14.184  1.00  0.00     0.344 HD
ATOM      5  H   UNL     1       9.566  29.054  15.273  1.00  0.00     0.344 HD
ENDBRANCH   1   2
BRANCH   1   6
ATOM      6  C   UNL     1       6.874  27.360  15.695  1.00  0.00     0.096 C 
ATOM      7  O   UNL     1       6.066  28.285  15.419  1.00  0.00    -0.544 OA
ATOM      8  O   UNL     1       6.451  26.038  15.646  1.00  0.00    -0.544 OA
ENDBRANCH   1   6
TORSDOF 2
ENDMDL
MODEL 3
REMARK VINA RESULT:    -2.800      2.188      2.732
REMARK INTER + INTRA:          -3.045
REMARK INTER:                  -3.045
REMARK INTRA:                   0.000
REMARK UNBOUND:                 0.000
REMARK SMILES [NH3+]CC(=O)[O-]
REMARK SMILES IDX 2 1 1 2 3 6 4 7 5 8
REMARK H PARENT 1 3 1 4 1 5
REMARK Flexibility Score: inf
ROOT
ATOM      1  C   UNL     1      15.153  21.435  21.684  1.00  0.00     0.312 C 
ENDROOT
BRANCH   1   2
ATOM      2  N   UNL     1      16.615  21.461  21.694  1.00  0.00    -0.353 N 
ATOM      3  H   UNL     1      16.940  22.455  21.683  1.00  0.00     0.344 HD
ATOM      4  H   UNL     1      16.976  20.996  22.559  1.00  0.00     0.344 HD
ATOM      5  H   UNL     1      16.988  20.972  20.847  1.00  0.00     0.344 HD
ENDBRANCH   1   2
BRANCH   1   6
ATOM      6  C   UNL     1      14.628  20.796  22.931  1.00  0.00     0.096 C 
ATOM      7  O   UNL     1      15.292  20.853  24.000  1.00  0.00    -0.544 OA
ATOM      8  O   UNL     1      13.430  20.094  22.901  1.00  0.00    -0.544 OA
ENDBRANCH   1   6
TORSDOF 2
ENDMDL
MODEL 4
REMARK VINA RESULT:    -2.747     12.590     12.995
REMARK INTER + INTRA:          -2.988
REMARK INTER:                  -2.988
REMARK INTRA:                   0.000
REMARK UNBOUND:                 0.000
REMARK SMILES [NH3+]CC(=O)[O-]
REMARK SMILES IDX 2 1 1 2 3 6 4 7 5 8
REMARK H PARENT 1 3 1 4 1 5
REMARK Flexibility Score: inf
ROOT
ATOM      1  C   UNL     1       6.104  26.087  16.103  1.00  0.00     0.312 C 
ENDROOT
BRANCH   1   2
ATOM      2  N   UNL     1       4.749  26.241  15.577  1.00  0.00    -0.353 N 
ATOM      3  H   UNL     1       4.397  25.308  15.259  1.00  0.00     0.344 HD
ATOM      4  H   UNL     1       4.113  26.605  16.324  1.00  0.00     0.344 HD
ATOM      5  H   UNL     1       4.752  26.898  14.763  1.00  0.00     0.344 HD
ENDBRANCH   1   2
BRANCH   1   6
ATOM      6  C   UNL     1       6.861  27.373  15.995  1.00  0.00     0.096 C 
ATOM      7  O   UNL     1       6.449  28.288  15.235  1.00  0.00    -0.544 OA
ATOM      8  O   UNL     1       8.048  27.542  16.696  1.00  0.00    -0.544 OA
ENDBRANCH   1   6
TORSDOF 2
ENDMDL
MODEL 5
REMARK VINA RESULT:    -2.741     12.589     12.903
REMARK INTER + INTRA:          -2.982
REMARK INTER:                  -2.982
REMARK INTRA:                   0.000
REMARK UNBOUND:                 0.000
REMARK SMILES [NH3+]CC(=O)[O-]
REMARK SMILES IDX 2 1 1 2 3 6 4 7 5 8
REMARK H PARENT 1 3 1 4 1 5
REMARK Flexibility Score: inf
ROOT
ATOM      1  C   UNL     1       6.135  27.472  28.318  1.00  0.00     0.312 C 
ENDROOT
BRANCH   1   2
ATOM      2  N   UNL     1       7.395  26.882  28.765  1.00  0.00    -0.353 N 
ATOM      3  H   UNL     1       7.959  27.613  29.258  1.00  0.00     0.344 HD
ATOM      4  H   UNL     1       7.208  26.094  29.427  1.00  0.00     0.344 HD
ATOM      5  H   UNL     1       7.939  26.533  27.942  1.00  0.00     0.344 HD
ENDBRANCH   1   2
BRANCH   1   6
ATOM      6  C   UNL     1       5.048  26.443  28.298  1.00  0.00     0.096 C 
ATOM      7  O   UNL     1       5.212  25.339  28.880  1.00  0.00    -0.544 OA
ATOM      8  O   UNL     1       3.875  26.684  27.594  1.00  0.00    -0.544 OA
ENDBRANCH   1   6
TORSDOF 2
ENDMDL
MODEL 6
REMARK VINA RESULT:    -2.739     12.105     12.538
REMARK INTER + INTRA:          -2.979
REMARK INTER:                  -2.979
REMARK INTRA:                   0.000
REMARK UNBOUND:                 0.000
REMARK SMILES [NH3+]CC(=O)[O-]
REMARK SMILES IDX 2 1 1 2 3 6 4 7 5 8
REMARK H PARENT 1 3 1 4 1 5
REMARK Flexibility Score: inf
ROOT
ATOM      1  C   UNL     1       5.640  25.566  16.514  1.00  0.00     0.312 C 
ENDROOT
BRANCH   1   2
ATOM      2  N   UNL     1       4.723  26.217  15.580  1.00  0.00    -0.353 N 
ATOM      3  H   UNL     1       4.137  26.908  16.103  1.00  0.00     0.344 HD
ATOM      4  H   UNL     1       5.264  26.722  14.840  1.00  0.00     0.344 HD
ATOM      5  H   UNL     1       4.096  25.506  15.138  1.00  0.00     0.344 HD
ENDBRANCH   1   2
BRANCH   1   6
ATOM      6  C   UNL     1       6.407  26.584  17.298  1.00  0.00     0.096 C 
ATOM      7  O   UNL     1       6.163  27.811  17.152  1.00  0.00    -0.544 OA
ATOM      8  O   UNL     1       7.426  26.182  18.152  1.00  0.00    -0.544 OA
ENDBRANCH   1   6
TORSDOF 2
ENDMDL
MODEL 7
REMARK VINA RESULT:    -2.735     17.633     17.746
REMARK INTER + INTRA:          -2.975
REMARK INTER:                  -2.975
REMARK INTRA:                   0.000
REMARK UNBOUND:                 0.000
REMARK SMILES [NH3+]CC(=O)[O-]
REMARK SMILES IDX 2 1 1 2 3 6 4 7 5 8
REMARK H PARENT 1 3 1 4 1 5
REMARK Flexibility Score: inf
ROOT
ATOM      1  C   UNL     1      -1.640  19.021  21.692  1.00  0.00     0.312 C 
ENDROOT
BRANCH   1   2
ATOM      2  N   UNL     1      -2.766  18.390  21.008  1.00  0.00    -0.353 N 
ATOM      3  H   UNL     1      -2.434  17.987  20.102  1.00  0.00     0.344 HD
ATOM      4  H   UNL     1      -3.159  17.620  21.598  1.00  0.00     0.344 HD
ATOM      5  H   UNL     1      -3.510  19.099  20.812  1.00  0.00     0.344 HD
ENDBRANCH   1   2
BRANCH   1   6
ATOM      6  C   UNL     1      -1.935  20.460  21.978  1.00  0.00     0.096 C 
ATOM      7  O   UNL     1      -2.292  21.230  21.048  1.00  0.00    -0.544 OA
ATOM      8  O   UNL     1      -1.767  20.963  23.262  1.00  0.00    -0.544 OA
ENDBRANCH   1   6
TORSDOF 2
ENDMDL
MODEL 8
REMARK VINA RESULT:    -2.729     17.402     17.601
REMARK INTER + INTRA:          -2.968
REMARK INTER:                  -2.968
REMARK INTRA:                   0.000
REMARK UNBOUND:                 0.000
REMARK SMILES [NH3+]CC(=O)[O-]
REMARK SMILES IDX 2 1 1 2 3 6 4 7 5 8
REMARK H PARENT 1 3 1 4 1 5
REMARK Flexibility Score: inf
ROOT
ATOM      1  C   UNL     1      -1.763  21.236  21.395  1.00  0.00     0.312 C 
ENDROOT
BRANCH   1   2
ATOM      2  N   UNL     1      -3.125  21.373  20.882  1.00  0.00    -0.353 N 
ATOM      3  H   UNL     1      -3.290  22.370  20.612  1.00  0.00     0.344 HD
ATOM      4  H   UNL     1      -3.254  20.767  20.038  1.00  0.00     0.344 HD
ATOM      5  H   UNL     1      -3.815  21.103  21.620  1.00  0.00     0.344 HD
ENDBRANCH   1   2
BRANCH   1   6
ATOM      6  C   UNL     1      -1.620  19.972  22.183  1.00  0.00     0.096 C 
ATOM      7  O   UNL     1      -1.975  18.872  21.685  1.00  0.00    -0.544 OA
ATOM      8  O   UNL     1      -1.143  20.016  23.487  1.00  0.00    -0.544 OA
ENDBRANCH   1   6
TORSDOF 2
ENDMDL
MODEL 9
REMARK VINA RESULT:    -2.726     12.110     12.569
REMARK INTER + INTRA:          -2.965
REMARK INTER:                  -2.965
REMARK INTRA:                   0.000
REMARK UNBOUND:                 0.000
REMARK SMILES [NH3+]CC(=O)[O-]
REMARK SMILES IDX 2 1 1 2 3 6 4 7 5 8
REMARK H PARENT 1 3 1 4 1 5
REMARK Flexibility Score: inf
ROOT
ATOM      1  C   UNL     1       6.573  28.528  28.207  1.00  0.00     0.312 C 
ENDROOT
BRANCH   1   2
ATOM      2  N   UNL     1       7.014  28.768  26.835  1.00  0.00    -0.353 N 
ATOM      3  H   UNL     1       7.973  28.370  26.708  1.00  0.00     0.344 HD
ATOM      4  H   UNL     1       6.362  28.302  26.161  1.00  0.00     0.344 HD
ATOM      5  H   UNL     1       7.046  29.796  26.643  1.00  0.00     0.344 HD
ENDBRANCH   1   2
BRANCH   1   6
ATOM      6  C   UNL     1       6.342  27.068  28.440  1.00  0.00     0.096 C 
ATOM      7  O   UNL     1       7.300  26.254  28.355  1.00  0.00    -0.544 OA
ATOM      8  O   UNL     1       5.061  26.598  28.700  1.00  0.00    -0.544 OA
ENDBRANCH   1   6
TORSDOF 2
ENDMDL
