MODEL 1
REMARK VINA RESULT:    -4.198      0.000      0.000
REMARK INTER + INTRA:          -5.343
REMARK INTER:                  -5.180
REMARK INTRA:                  -0.163
REMARK UNBOUND:                -0.163
REMARK SMILES C=CC[C@H](C)C(=O)CC
REMARK SMILES IDX 4 1 5 2 6 3 7 4 8 5 9 6 3 7 2 8 1 9
REMARK H PARENT
REMARK Flexibility Score: inf
ROOT
ATOM      1  C   UNL     1      13.129 -30.622  22.703  1.00  0.00     0.057 C 
ATOM      2  C   UNL     1      13.613 -31.682  23.703  1.00  0.00     0.016 C 
ENDROOT
BRANCH   1   3
ATOM      3  C   UNL     1      13.810 -30.824  21.367  1.00  0.00     0.135 C 
ATOM      4  O   UNL     1      14.799 -30.163  21.085  1.00  0.00    -0.299 OA
BRANCH   3   5
ATOM      5  C   UNL     1      13.295 -31.831  20.373  1.00  0.00     0.072 C 
ATOM      6  C   UNL     1      14.222 -33.040  20.298  1.00  0.00     0.012 C 
ENDBRANCH   3   5
ENDBRANCH   1   3
BRANCH   1   7
ATOM      7  C   UNL     1      13.393 -29.190  23.216  1.00  0.00     0.038 C 
BRANCH   7   8
ATOM      8  C   UNL     1      12.144 -28.527  23.733  1.00  0.00    -0.034 C 
ATOM      9  C   UNL     1      12.192 -27.407  24.461  1.00  0.00     0.004 C 
ENDBRANCH   7   8
ENDBRANCH   1   7
TORSDOF 4
ENDMDL
MODEL 2
REMARK VINA RESULT:    -4.186      1.448      2.114
REMARK INTER + INTRA:          -5.328
REMARK INTER:                  -5.133
REMARK INTRA:                  -0.194
REMARK UNBOUND:                -0.163
REMARK SMILES C=CC[C@H](C)C(=O)CC
REMARK SMILES IDX 4 1 5 2 6 3 7 4 8 5 9 6 3 7 2 8 1 9
REMARK H PARENT
REMARK Flexibility Score: inf
ROOT
ATOM      1  C   UNL     1      13.555 -29.361  23.414  1.00  0.00     0.057 C 
ATOM      2  C   UNL     1      14.732 -28.871  22.559  1.00  0.00     0.016 C 
ENDROOT
BRANCH   1   3
ATOM      3  C   UNL     1      13.050 -30.686  22.882  1.00  0.00     0.135 C 
ATOM      4  O   UNL     1      13.303 -31.718  23.488  1.00  0.00    -0.299 OA
BRANCH   3   5
ATOM      5  C   UNL     1      12.235 -30.760  21.618  1.00  0.00     0.072 C 
ATOM      6  C   UNL     1      13.026 -31.438  20.504  1.00  0.00     0.012 C 
ENDBRANCH   3   5
ENDBRANCH   1   3
BRANCH   1   7
ATOM      7  C   UNL     1      12.404 -28.334  23.445  1.00  0.00     0.038 C 
BRANCH   7   8
ATOM      8  C   UNL     1      12.491 -27.412  24.633  1.00  0.00    -0.034 C 
ATOM      9  C   UNL     1      13.267 -26.325  24.623  1.00  0.00     0.004 C 
ENDBRANCH   7   8
ENDBRANCH   1   7
TORSDOF 4
ENDMDL
MODEL 3
REMARK VINA RESULT:    -4.096     10.224     11.151
REMARK INTER + INTRA:          -5.217
REMARK INTER:                  -4.980
REMARK INTRA:                  -0.237
REMARK UNBOUND:                -0.163
REMARK SMILES C=CC[C@H](C)C(=O)CC
REMARK SMILES IDX 4 1 5 2 6 3 7 4 8 5 9 6 3 7 2 8 1 9
REMARK H PARENT
REMARK Flexibility Score: inf
ROOT
ATOM      1  C   UNL     1      22.582 -25.366  19.617  1.00  0.00     0.057 C 
ATOM      2  C   UNL     1      23.368 -26.619  20.027  1.00  0.00     0.016 C 
ENDROOT
BRANCH   1   3
ATOM      3  C   UNL     1      23.157 -24.148  20.310  1.00  0.00     0.135 C 
ATOM      4  O   UNL     1      23.956 -23.436  19.719  1.00  0.00    -0.299 OA
BRANCH   3   5
ATOM      5  C   UNL     1      22.760 -23.792  21.718  1.00  0.00     0.072 C 
ATOM      6  C   UNL     1      23.404 -22.478  22.146  1.00  0.00     0.012 C 
ENDBRANCH   3   5
ENDBRANCH   1   3
BRANCH   1   7
ATOM      7  C   UNL     1      21.081 -25.499  19.947  1.00  0.00     0.038 C 
BRANCH   7   8
ATOM      8  C   UNL     1      20.771 -26.761  20.707  1.00  0.00    -0.034 C 
ATOM      9  C   UNL     1      19.562 -27.330  20.662  1.00  0.00     0.004 C 
ENDBRANCH   7   8
ENDBRANCH   1   7
TORSDOF 4
ENDMDL
MODEL 4
REMARK VINA RESULT:    -4.048      1.284      4.372
REMARK INTER + INTRA:          -5.157
REMARK INTER:                  -4.965
REMARK INTRA:                  -0.192
REMARK UNBOUND:                -0.163
REMARK SMILES C=CC[C@H](C)C(=O)CC
REMARK SMILES IDX 4 1 5 2 6 3 7 4 8 5 9 6 3 7 2 8 1 9
REMARK H PARENT
REMARK Flexibility Score: inf
ROOT
ATOM      1  C   UNL     1      12.758 -30.756  22.692  1.00  0.00     0.057 C 
ATOM      2  C   UNL     1      13.127 -31.000  21.221  1.00  0.00     0.016 C 
ENDROOT
BRANCH   1   3
ATOM      3  C   UNL     1      13.008 -29.307  23.052  1.00  0.00     0.135 C 
ATOM      4  O   UNL     1      14.123 -28.828  22.900  1.00  0.00    -0.299 OA
BRANCH   3   5
ATOM      5  C   UNL     1      11.905 -28.436  23.593  1.00  0.00     0.072 C 
ATOM      6  C   UNL     1      12.461 -27.396  24.559  1.00  0.00     0.012 C 
ENDBRANCH   3   5
ENDBRANCH   1   3
BRANCH   1   7
ATOM      7  C   UNL     1      13.554 -31.678  23.641  1.00  0.00     0.038 C 
BRANCH   7   8
ATOM      8  C   UNL     1      14.689 -32.378  22.941  1.00  0.00    -0.034 C 
ATOM      9  C   UNL     1      14.997 -33.651  23.202  1.00  0.00     0.004 C 
ENDBRANCH   7   8
ENDBRANCH   1   7
TORSDOF 4
ENDMDL
MODEL 5
REMARK VINA RESULT:    -4.029      1.306      1.827
REMARK INTER + INTRA:          -5.134
REMARK INTER:                  -4.894
REMARK INTRA:                  -0.241
REMARK UNBOUND:                -0.163
REMARK SMILES C=CC[C@H](C)C(=O)CC
REMARK SMILES IDX 4 1 5 2 6 3 7 4 8 5 9 6 3 7 2 8 1 9
REMARK H PARENT
REMARK Flexibility Score: inf
ROOT
ATOM      1  C   UNL     1      13.861 -30.874  22.065  1.00  0.00     0.057 C 
ATOM      2  C   UNL     1      14.786 -29.730  21.627  1.00  0.00     0.016 C 
ENDROOT
BRANCH   1   3
ATOM      3  C   UNL     1      13.584 -31.790  20.891  1.00  0.00     0.135 C 
ATOM      4  O   UNL     1      12.692 -31.510  20.103  1.00  0.00    -0.299 OA
BRANCH   3   5
ATOM      5  C   UNL     1      14.390 -33.042  20.671  1.00  0.00     0.072 C 
ATOM      6  C   UNL     1      14.904 -33.595  21.996  1.00  0.00     0.012 C 
ENDBRANCH   3   5
ENDBRANCH   1   3
BRANCH   1   7
ATOM      7  C   UNL     1      12.532 -30.345  22.644  1.00  0.00     0.038 C 
BRANCH   7   8
ATOM      8  C   UNL     1      12.714 -29.070  23.424  1.00  0.00    -0.034 C 
ATOM      9  C   UNL     1      11.688 -28.257  23.691  1.00  0.00     0.004 C 
ENDBRANCH   7   8
ENDBRANCH   1   7
TORSDOF 4
ENDMDL
MODEL 6
REMARK VINA RESULT:    -4.023      1.855      2.630
REMARK INTER + INTRA:          -5.127
REMARK INTER:                  -4.791
REMARK INTRA:                  -0.336
REMARK UNBOUND:                -0.163
REMARK SMILES C=CC[C@H](C)C(=O)CC
REMARK SMILES IDX 4 1 5 2 6 3 7 4 8 5 9 6 3 7 2 8 1 9
REMARK H PARENT
REMARK Flexibility Score: inf
ROOT
ATOM      1  C   UNL     1      13.572 -30.523  22.104  1.00  0.00     0.057 C 
ATOM      2  C   UNL     1      13.142 -31.382  20.906  1.00  0.00     0.016 C 
ENDROOT
BRANCH   1   3
ATOM      3  C   UNL     1      14.187 -31.402  23.173  1.00  0.00     0.135 C 
ATOM      4  O   UNL     1      13.462 -32.050  23.915  1.00  0.00    -0.299 OA
BRANCH   3   5
ATOM      5  C   UNL     1      15.680 -31.498  23.340  1.00  0.00     0.072 C 
ATOM      6  C   UNL     1      16.357 -30.201  22.911  1.00  0.00     0.012 C 
ENDBRANCH   3   5
ENDBRANCH   1   3
BRANCH   1   7
ATOM      7  C   UNL     1      12.386 -29.731  22.693  1.00  0.00     0.038 C 
BRANCH   7   8
ATOM      8  C   UNL     1      12.836 -28.538  23.496  1.00  0.00    -0.034 C 
ATOM      9  C   UNL     1      11.969 -27.780  24.173  1.00  0.00     0.004 C 
ENDBRANCH   7   8
ENDBRANCH   1   7
TORSDOF 4
ENDMDL
MODEL 7
REMARK VINA RESULT:    -4.018      1.428      4.655
REMARK INTER + INTRA:          -5.120
REMARK INTER:                  -4.884
REMARK INTRA:                  -0.236
REMARK UNBOUND:                -0.163
REMARK SMILES C=CC[C@H](C)C(=O)CC
REMARK SMILES IDX 4 1 5 2 6 3 7 4 8 5 9 6 3 7 2 8 1 9
REMARK H PARENT
REMARK Flexibility Score: inf
ROOT
ATOM      1  C   UNL     1      13.809 -30.700  21.018  1.00  0.00     0.057 C 
ATOM      2  C   UNL     1      15.231 -30.573  21.583  1.00  0.00     0.016 C 
ENDROOT
BRANCH   1   3
ATOM      3  C   UNL     1      12.795 -30.422  22.108  1.00  0.00     0.135 C 
ATOM      4  O   UNL     1      11.602 -30.537  21.868  1.00  0.00    -0.299 OA
BRANCH   3   5
ATOM      5  C   UNL     1      13.228 -30.007  23.489  1.00  0.00     0.072 C 
ATOM      6  C   UNL     1      12.517 -28.727  23.917  1.00  0.00     0.012 C 
ENDBRANCH   3   5
ENDBRANCH   1   3
BRANCH   1   7
ATOM      7  C   UNL     1      13.558 -32.097  20.411  1.00  0.00     0.038 C 
BRANCH   7   8
ATOM      8  C   UNL     1      14.554 -33.118  20.892  1.00  0.00    -0.034 C 
ATOM      9  C   UNL     1      14.908 -34.163  20.139  1.00  0.00     0.004 C 
ENDBRANCH   7   8
ENDBRANCH   1   7
TORSDOF 4
ENDMDL
MODEL 8
REMARK VINA RESULT:    -3.975      1.935      3.984
REMARK INTER + INTRA:          -5.067
REMARK INTER:                  -4.751
REMARK INTRA:                  -0.316
REMARK UNBOUND:                -0.163
REMARK SMILES C=CC[C@H](C)C(=O)CC
REMARK SMILES IDX 4 1 5 2 6 3 7 4 8 5 9 6 3 7 2 8 1 9
REMARK H PARENT
REMARK Flexibility Score: inf
ROOT
ATOM      1  C   UNL     1      13.549 -30.033  22.930  1.00  0.00     0.057 C 
ATOM      2  C   UNL     1      13.590 -31.445  23.531  1.00  0.00     0.016 C 
ENDROOT
BRANCH   1   3
ATOM      3  C   UNL     1      12.114 -29.624  22.673  1.00  0.00     0.135 C 
ATOM      4  O   UNL     1      11.414 -30.304  21.936  1.00  0.00    -0.299 OA
BRANCH   3   5
ATOM      5  C   UNL     1      11.527 -28.393  23.310  1.00  0.00     0.072 C 
ATOM      6  C   UNL     1      12.530 -27.743  24.257  1.00  0.00     0.012 C 
ENDBRANCH   3   5
ENDBRANCH   1   3
BRANCH   1   7
ATOM      7  C   UNL     1      14.363 -29.945  21.622  1.00  0.00     0.038 C 
BRANCH   7   8
ATOM      8  C   UNL     1      15.637 -29.158  21.791  1.00  0.00    -0.034 C 
ATOM      9  C   UNL     1      16.821 -29.761  21.928  1.00  0.00     0.004 C 
ENDBRANCH   7   8
ENDBRANCH   1   7
TORSDOF 4
ENDMDL
MODEL 9
REMARK VINA RESULT:    -3.941      1.162      4.019
REMARK INTER + INTRA:          -5.025
REMARK INTER:                  -4.705
REMARK INTRA:                  -0.321
REMARK UNBOUND:                -0.163
REMARK SMILES C=CC[C@H](C)C(=O)CC
REMARK SMILES IDX 4 1 5 2 6 3 7 4 8 5 9 6 3 7 2 8 1 9
REMARK H PARENT
REMARK Flexibility Score: inf
ROOT
ATOM      1  C   UNL     1      14.515 -30.726  23.123  1.00  0.00     0.057 C 
ATOM      2  C   UNL     1      13.520 -31.684  23.794  1.00  0.00     0.016 C 
ENDROOT
BRANCH   1   3
ATOM      3  C   UNL     1      13.907 -29.344  23.016  1.00  0.00     0.135 C 
ATOM      4  O   UNL     1      14.599 -28.404  22.650  1.00  0.00    -0.299 OA
BRANCH   3   5
ATOM      5  C   UNL     1      12.458 -29.101  23.349  1.00  0.00     0.072 C 
ATOM      6  C   UNL     1      12.299 -27.824  24.167  1.00  0.00     0.012 C 
ENDBRANCH   3   5
ENDBRANCH   1   3
BRANCH   1   7
ATOM      7  C   UNL     1      14.935 -31.225  21.725  1.00  0.00     0.038 C 
BRANCH   7   8
ATOM      8  C   UNL     1      13.899 -32.123  21.101  1.00  0.00    -0.034 C 
ATOM      9  C   UNL     1      13.106 -31.700  20.113  1.00  0.00     0.004 C 
ENDBRANCH   7   8
ENDBRANCH   1   7
TORSDOF 4
ENDMDL
