MODEL 1
REMARK VINA RESULT:     5.939      0.000      0.000
REMARK INTER + INTRA:           7.820
REMARK INTER:                   8.022
REMARK INTRA:                  -0.202
REMARK UNBOUND:                -0.202
REMARK SMILES CCCCCCCC(=O)[O-]
REMARK SMILES IDX 5 1 6 2 7 3 8 4 9 5 10 6 4 7 3 8 2 9 1 10
REMARK H PARENT
REMARK Flexibility Score: inf
ROOT
ATOM      1  C   UNL     1      -2.740   8.378 -24.083  1.00  0.00     0.000 C 
ENDROOT
BRANCH   1   2
ATOM      2  C   UNL     1      -1.246   8.736 -24.051  1.00  0.00     0.006 C 
BRANCH   2   3
ATOM      3  C   UNL     1      -0.796   9.504 -25.301  1.00  0.00     0.053 C 
BRANCH   3   4
ATOM      4  C   UNL     1       0.289   8.756 -26.010  1.00  0.00     0.041 C 
ATOM      5  O   UNL     1       0.628   7.608 -25.620  1.00  0.00    -0.550 OA
ATOM      6  O   UNL     1       0.960   9.349 -27.072  1.00  0.00    -0.550 OA
ENDBRANCH   3   4
ENDBRANCH   2   3
ENDBRANCH   1   2
BRANCH   1   7
ATOM      7  C   UNL     1      -3.119   7.321 -23.034  1.00  0.00     0.000 C 
BRANCH   7   8
ATOM      8  C   UNL     1      -2.331   7.534 -21.733  1.00  0.00    -0.000 C 
BRANCH   8   9
ATOM      9  C   UNL     1      -3.124   7.116 -20.486  1.00  0.00    -0.003 C 
ATOM     10  C   UNL     1      -2.742   7.921 -19.244  1.00  0.00     0.004 C 
ENDBRANCH   8   9
ENDBRANCH   7   8
ENDBRANCH   1   7
TORSDOF 6
ENDMDL
MODEL 2
REMARK VINA RESULT:     7.384      2.789      5.517
REMARK INTER + INTRA:           9.772
REMARK INTER:                  10.030
REMARK INTRA:                  -0.258
REMARK UNBOUND:                -0.202
REMARK SMILES CCCCCCCC(=O)[O-]
REMARK SMILES IDX 5 1 6 2 7 3 8 4 9 5 10 6 4 7 3 8 2 9 1 10
REMARK H PARENT
REMARK Flexibility Score: inf
ROOT
ATOM      1  C   UNL     1      -2.196   8.972 -24.143  1.00  0.00     0.000 C 
ENDROOT
BRANCH   1   2
ATOM      2  C   UNL     1      -2.023   7.569 -23.539  1.00  0.00     0.006 C 
BRANCH   2   3
ATOM      3  C   UNL     1      -3.067   7.259 -22.458  1.00  0.00     0.053 C 
BRANCH   3   4
ATOM      4  C   UNL     1      -2.489   7.477 -21.095  1.00  0.00     0.041 C 
ATOM      5  O   UNL     1      -3.183   7.256 -20.069  1.00  0.00    -0.550 OA
ATOM      6  O   UNL     1      -1.197   7.972 -20.961  1.00  0.00    -0.550 OA
ENDBRANCH   3   4
ENDBRANCH   2   3
ENDBRANCH   1   2
BRANCH   1   7
ATOM      7  C   UNL     1      -1.014   9.383 -25.033  1.00  0.00     0.000 C 
BRANCH   7   8
ATOM      8  C   UNL     1       0.020   8.251 -25.128  1.00  0.00    -0.000 C 
BRANCH   8   9
ATOM      9  C   UNL     1       0.714   8.198 -26.498  1.00  0.00    -0.003 C 
ATOM     10  C   UNL     1       0.903   9.581 -27.119  1.00  0.00     0.004 C 
ENDBRANCH   8   9
ENDBRANCH   7   8
ENDBRANCH   1   7
TORSDOF 6
ENDMDL
