MODEL 1
REMARK VINA RESULT:    -5.814      0.000      0.000
REMARK INTER + INTRA:          -5.814
REMARK INTER:                  -5.814
REMARK INTRA:                   0.000
REMARK UNBOUND:                 0.000
REMARK SMILES O=c1ccc2ccc3occc3c2o1
REMARK SMILES IDX 6 1 7 2 8 3 12 4 11 5 10 6 9 7 13 8 5 9 4 10 3 11 2 12 1 13
REMARK SMILES IDX 14 14
REMARK H PARENT
REMARK Flexibility Score: inf
ROOT
ATOM      1  C   UNL     1      27.061  24.604  50.265  1.00  0.00     0.016 A 
ATOM      2  C   UNL     1      26.506  24.182  51.489  1.00  0.00     0.048 A 
ATOM      3  C   UNL     1      27.078  23.080  52.123  1.00  0.00     0.137 A 
ATOM      4  C   UNL     1      28.148  22.413  51.590  1.00  0.00     0.064 A 
ATOM      5  C   UNL     1      28.456  21.392  52.459  1.00  0.00     0.054 A 
ATOM      6  C   UNL     1      27.526  21.513  53.487  1.00  0.00     0.196 A 
ATOM      7  O   UNL     1      26.715  22.532  53.257  1.00  0.00    -0.464 OA
ATOM      8  C   UNL     1      28.726  22.799  50.382  1.00  0.00     0.149 A 
ATOM      9  C   UNL     1      28.168  23.917  49.709  1.00  0.00     0.018 A 
ATOM     10  C   UNL     1      28.743  24.310  48.497  1.00  0.00     0.019 A 
ATOM     11  C   UNL     1      29.833  23.598  47.994  1.00  0.00     0.094 A 
ATOM     12  C   UNL     1      30.327  22.504  48.718  1.00  0.00     0.336 A 
ATOM     13  O   UNL     1      31.310  21.853  48.276  1.00  0.00    -0.246 OA
ATOM     14  O   UNL     1      29.765  22.148  49.869  1.00  0.00    -0.422 OA
ENDROOT
TORSDOF 0
ENDMDL
MODEL 2
REMARK VINA RESULT:    -5.787      1.267      4.313
REMARK INTER + INTRA:          -5.787
REMARK INTER:                  -5.787
REMARK INTRA:                   0.000
REMARK UNBOUND:                 0.000
REMARK SMILES O=c1ccc2ccc3occc3c2o1
REMARK SMILES IDX 6 1 7 2 8 3 12 4 11 5 10 6 9 7 13 8 5 9 4 10 3 11 2 12 1 13
REMARK SMILES IDX 14 14
REMARK H PARENT
REMARK Flexibility Score: inf
ROOT
ATOM      1  C   UNL     1      27.866  24.262  48.532  1.00  0.00     0.016 A 
ATOM      2  C   UNL     1      29.010  23.831  47.831  1.00  0.00     0.048 A 
ATOM      3  C   UNL     1      29.993  23.144  48.540  1.00  0.00     0.137 A 
ATOM      4  C   UNL     1      29.872  22.884  49.879  1.00  0.00     0.064 A 
ATOM      5  C   UNL     1      31.003  22.199  50.258  1.00  0.00     0.054 A 
ATOM      6  C   UNL     1      31.753  22.088  49.091  1.00  0.00     0.196 A 
ATOM      7  O   UNL     1      31.122  22.663  48.081  1.00  0.00    -0.464 OA
ATOM      8  C   UNL     1      28.757  23.293  50.608  1.00  0.00     0.149 A 
ATOM      9  C   UNL     1      27.736  23.996  49.917  1.00  0.00     0.018 A 
ATOM     10  C   UNL     1      26.615  24.409  50.642  1.00  0.00     0.019 A 
ATOM     11  C   UNL     1      26.537  24.120  52.006  1.00  0.00     0.094 A 
ATOM     12  C   UNL     1      27.586  23.422  52.617  1.00  0.00     0.336 A 
ATOM     13  O   UNL     1      27.530  23.155  53.845  1.00  0.00    -0.246 OA
ATOM     14  O   UNL     1      28.645  23.038  51.908  1.00  0.00    -0.422 OA
ENDROOT
TORSDOF 0
ENDMDL
MODEL 3
REMARK VINA RESULT:    -5.693      1.967      2.412
REMARK INTER + INTRA:          -5.693
REMARK INTER:                  -5.693
REMARK INTRA:                   0.000
REMARK UNBOUND:                 0.000
REMARK SMILES O=c1ccc2ccc3occc3c2o1
REMARK SMILES IDX 6 1 7 2 8 3 12 4 11 5 10 6 9 7 13 8 5 9 4 10 3 11 2 12 1 13
REMARK SMILES IDX 14 14
REMARK H PARENT
REMARK Flexibility Score: inf
ROOT
ATOM      1  C   UNL     1      26.618  22.153  49.403  1.00  0.00     0.016 A 
ATOM      2  C   UNL     1      26.983  21.489  50.590  1.00  0.00     0.048 A 
ATOM      3  C   UNL     1      28.301  21.607  51.029  1.00  0.00     0.137 A 
ATOM      4  C   UNL     1      29.230  22.341  50.342  1.00  0.00     0.064 A 
ATOM      5  C   UNL     1      30.411  22.248  51.040  1.00  0.00     0.054 A 
ATOM      6  C   UNL     1      30.109  21.440  52.133  1.00  0.00     0.196 A 
ATOM      7  O   UNL     1      28.839  21.073  52.098  1.00  0.00    -0.464 OA
ATOM      8  C   UNL     1      28.908  23.013  49.164  1.00  0.00     0.149 A 
ATOM      9  C   UNL     1      27.576  22.914  48.688  1.00  0.00     0.018 A 
ATOM     10  C   UNL     1      27.246  23.585  47.507  1.00  0.00     0.019 A 
ATOM     11  C   UNL     1      28.228  24.321  46.842  1.00  0.00     0.094 A 
ATOM     12  C   UNL     1      29.523  24.371  47.375  1.00  0.00     0.336 A 
ATOM     13  O   UNL     1      30.418  25.031  46.786  1.00  0.00    -0.246 OA
ATOM     14  O   UNL     1      29.814  23.724  48.501  1.00  0.00    -0.422 OA
ENDROOT
TORSDOF 0
ENDMDL
MODEL 4
REMARK VINA RESULT:    -5.634      1.635      2.866
REMARK INTER + INTRA:          -5.634
REMARK INTER:                  -5.634
REMARK INTRA:                   0.000
REMARK UNBOUND:                 0.000
REMARK SMILES O=c1ccc2ccc3occc3c2o1
REMARK SMILES IDX 6 1 7 2 8 3 12 4 11 5 10 6 9 7 13 8 5 9 4 10 3 11 2 12 1 13
REMARK SMILES IDX 14 14
REMARK H PARENT
REMARK Flexibility Score: inf
ROOT
ATOM      1  C   UNL     1      30.246  21.908  50.748  1.00  0.00     0.016 A 
ATOM      2  C   UNL     1      29.127  21.981  51.601  1.00  0.00     0.048 A 
ATOM      3  C   UNL     1      28.093  22.847  51.252  1.00  0.00     0.137 A 
ATOM      4  C   UNL     1      28.141  23.615  50.118  1.00  0.00     0.064 A 
ATOM      5  C   UNL     1      26.976  24.343  50.078  1.00  0.00     0.054 A 
ATOM      6  C   UNL     1      26.282  23.958  51.221  1.00  0.00     0.196 A 
ATOM      7  O   UNL     1      26.976  23.063  51.902  1.00  0.00    -0.464 OA
ATOM      8  C   UNL     1      29.230  23.571  49.250  1.00  0.00     0.149 A 
ATOM      9  C   UNL     1      30.302  22.699  49.574  1.00  0.00     0.018 A 
ATOM     10  C   UNL     1      31.397  22.650  48.707  1.00  0.00     0.019 A 
ATOM     11  C   UNL     1      31.400  23.451  47.564  1.00  0.00     0.094 A 
ATOM     12  C   UNL     1      30.304  24.287  47.311  1.00  0.00     0.336 A 
ATOM     13  O   UNL     1      30.294  25.014  46.285  1.00  0.00    -0.246 OA
ATOM     14  O   UNL     1      29.272  24.317  48.151  1.00  0.00    -0.422 OA
ENDROOT
TORSDOF 0
ENDMDL
MODEL 5
REMARK VINA RESULT:    -5.624      1.666      2.737
REMARK INTER + INTRA:          -5.624
REMARK INTER:                  -5.624
REMARK INTRA:                   0.000
REMARK UNBOUND:                 0.000
REMARK SMILES O=c1ccc2ccc3occc3c2o1
REMARK SMILES IDX 6 1 7 2 8 3 12 4 11 5 10 6 9 7 13 8 5 9 4 10 3 11 2 12 1 13
REMARK SMILES IDX 14 14
REMARK H PARENT
REMARK Flexibility Score: inf
ROOT
ATOM      1  C   UNL     1      29.130  23.593  47.991  1.00  0.00     0.016 A 
ATOM      2  C   UNL     1      27.936  24.190  48.442  1.00  0.00     0.048 A 
ATOM      3  C   UNL     1      27.588  24.031  49.782  1.00  0.00     0.137 A 
ATOM      4  C   UNL     1      28.369  23.318  50.653  1.00  0.00     0.064 A 
ATOM      5  C   UNL     1      27.743  23.359  51.877  1.00  0.00     0.054 A 
ATOM      6  C   UNL     1      26.595  24.113  51.658  1.00  0.00     0.196 A 
ATOM      7  O   UNL     1      26.530  24.500  50.396  1.00  0.00    -0.464 OA
ATOM      8  C   UNL     1      29.557  22.713  50.247  1.00  0.00     0.149 A 
ATOM      9  C   UNL     1      29.941  22.855  48.888  1.00  0.00     0.018 A 
ATOM     10  C   UNL     1      31.131  22.251  48.474  1.00  0.00     0.019 A 
ATOM     11  C   UNL     1      31.893  21.535  49.399  1.00  0.00     0.094 A 
ATOM     12  C   UNL     1      31.447  21.439  50.724  1.00  0.00     0.336 A 
ATOM     13  O   UNL     1      32.124  20.797  51.568  1.00  0.00    -0.246 OA
ATOM     14  O   UNL     1      30.311  22.023  51.096  1.00  0.00    -0.422 OA
ENDROOT
TORSDOF 0
ENDMDL
MODEL 6
REMARK VINA RESULT:    -5.601      2.111      3.907
REMARK INTER + INTRA:          -5.601
REMARK INTER:                  -5.601
REMARK INTRA:                   0.000
REMARK UNBOUND:                 0.000
REMARK SMILES O=c1ccc2ccc3occc3c2o1
REMARK SMILES IDX 6 1 7 2 8 3 12 4 11 5 10 6 9 7 13 8 5 9 4 10 3 11 2 12 1 13
REMARK SMILES IDX 14 14
REMARK H PARENT
REMARK Flexibility Score: inf
ROOT
ATOM      1  C   UNL     1      26.814  24.263  51.943  1.00  0.00     0.016 A 
ATOM      2  C   UNL     1      26.369  24.361  50.611  1.00  0.00     0.048 A 
ATOM      3  C   UNL     1      27.291  24.131  49.592  1.00  0.00     0.137 A 
ATOM      4  C   UNL     1      28.598  23.817  49.856  1.00  0.00     0.064 A 
ATOM      5  C   UNL     1      29.225  23.657  48.642  1.00  0.00     0.054 A 
ATOM      6  C   UNL     1      28.228  23.891  47.700  1.00  0.00     0.196 A 
ATOM      7  O   UNL     1      27.084  24.172  48.299  1.00  0.00    -0.464 OA
ATOM      8  C   UNL     1      29.077  23.710  51.160  1.00  0.00     0.149 A 
ATOM      9  C   UNL     1      28.165  23.939  52.222  1.00  0.00     0.018 A 
ATOM     10  C   UNL     1      28.639  23.833  53.532  1.00  0.00     0.019 A 
ATOM     11  C   UNL     1      29.980  23.511  53.751  1.00  0.00     0.094 A 
ATOM     12  C   UNL     1      30.820  23.300  52.650  1.00  0.00     0.336 A 
ATOM     13  O   UNL     1      32.030  23.009  52.832  1.00  0.00    -0.246 OA
ATOM     14  O   UNL     1      30.347  23.406  51.411  1.00  0.00    -0.422 OA
ENDROOT
TORSDOF 0
ENDMDL
MODEL 7
REMARK VINA RESULT:    -5.452     14.218     15.564
REMARK INTER + INTRA:          -5.452
REMARK INTER:                  -5.452
REMARK INTRA:                   0.000
REMARK UNBOUND:                 0.000
REMARK SMILES O=c1ccc2ccc3occc3c2o1
REMARK SMILES IDX 6 1 7 2 8 3 12 4 11 5 10 6 9 7 13 8 5 9 4 10 3 11 2 12 1 13
REMARK SMILES IDX 14 14
REMARK H PARENT
REMARK Flexibility Score: inf
ROOT
ATOM      1  C   UNL     1      20.056  25.229  40.232  1.00  0.00     0.016 A 
ATOM      2  C   UNL     1      19.603  26.347  39.504  1.00  0.00     0.048 A 
ATOM      3  C   UNL     1      19.214  26.153  38.180  1.00  0.00     0.137 A 
ATOM      4  C   UNL     1      19.263  24.920  37.584  1.00  0.00     0.064 A 
ATOM      5  C   UNL     1      18.815  25.082  36.294  1.00  0.00     0.054 A 
ATOM      6  C   UNL     1      18.517  26.437  36.193  1.00  0.00     0.196 A 
ATOM      7  O   UNL     1      18.767  27.050  37.337  1.00  0.00    -0.464 OA
ATOM      8  C   UNL     1      19.705  23.791  38.270  1.00  0.00     0.149 A 
ATOM      9  C   UNL     1      20.109  23.952  39.621  1.00  0.00     0.018 A 
ATOM     10  C   UNL     1      20.553  22.824  40.315  1.00  0.00     0.019 A 
ATOM     11  C   UNL     1      20.585  21.589  39.664  1.00  0.00     0.094 A 
ATOM     12  C   UNL     1      20.170  21.510  38.328  1.00  0.00     0.336 A 
ATOM     13  O   UNL     1      20.193  20.403  37.730  1.00  0.00    -0.246 OA
ATOM     14  O   UNL     1      19.750  22.597  37.687  1.00  0.00    -0.422 OA
ENDROOT
TORSDOF 0
ENDMDL
MODEL 8
REMARK VINA RESULT:    -5.373     12.364     13.073
REMARK INTER + INTRA:          -5.373
REMARK INTER:                  -5.373
REMARK INTRA:                   0.000
REMARK UNBOUND:                 0.000
REMARK SMILES O=c1ccc2ccc3occc3c2o1
REMARK SMILES IDX 6 1 7 2 8 3 12 4 11 5 10 6 9 7 13 8 5 9 4 10 3 11 2 12 1 13
REMARK SMILES IDX 14 14
REMARK H PARENT
REMARK Flexibility Score: inf
ROOT
ATOM      1  C   UNL     1      17.506  24.850  41.680  1.00  0.00     0.016 A 
ATOM      2  C   UNL     1      16.714  24.942  42.840  1.00  0.00     0.048 A 
ATOM      3  C   UNL     1      17.130  25.805  43.853  1.00  0.00     0.137 A 
ATOM      4  C   UNL     1      18.272  26.552  43.743  1.00  0.00     0.064 A 
ATOM      5  C   UNL     1      18.385  27.283  44.902  1.00  0.00     0.054 A 
ATOM      6  C   UNL     1      17.274  26.919  45.656  1.00  0.00     0.196 A 
ATOM      7  O   UNL     1      16.543  26.034  45.001  1.00  0.00    -0.464 OA
ATOM      8  C   UNL     1      19.083  26.490  42.611  1.00  0.00     0.149 A 
ATOM      9  C   UNL     1      18.689  25.621  41.561  1.00  0.00     0.018 A 
ATOM     10  C   UNL     1      19.498  25.554  40.423  1.00  0.00     0.019 A 
ATOM     11  C   UNL     1      20.653  26.335  40.358  1.00  0.00     0.094 A 
ATOM     12  C   UNL     1      20.975  27.169  41.436  1.00  0.00     0.336 A 
ATOM     13  O   UNL     1      22.014  27.879  41.391  1.00  0.00    -0.246 OA
ATOM     14  O   UNL     1      20.191  27.217  42.510  1.00  0.00    -0.422 OA
ENDROOT
TORSDOF 0
ENDMDL
MODEL 9
REMARK VINA RESULT:    -5.287     12.935     13.821
REMARK INTER + INTRA:          -5.287
REMARK INTER:                  -5.287
REMARK INTRA:                   0.000
REMARK UNBOUND:                 0.000
REMARK SMILES O=c1ccc2ccc3occc3c2o1
REMARK SMILES IDX 6 1 7 2 8 3 12 4 11 5 10 6 9 7 13 8 5 9 4 10 3 11 2 12 1 13
REMARK SMILES IDX 14 14
REMARK H PARENT
REMARK Flexibility Score: inf
ROOT
ATOM      1  C   UNL     1      17.454  23.893  42.872  1.00  0.00     0.016 A 
ATOM      2  C   UNL     1      18.165  23.830  41.657  1.00  0.00     0.048 A 
ATOM      3  C   UNL     1      18.918  24.940  41.279  1.00  0.00     0.137 A 
ATOM      4  C   UNL     1      18.979  26.070  42.051  1.00  0.00     0.064 A 
ATOM      5  C   UNL     1      19.798  26.958  41.394  1.00  0.00     0.054 A 
ATOM      6  C   UNL     1      20.187  26.289  40.238  1.00  0.00     0.196 A 
ATOM      7  O   UNL     1      19.644  25.084  40.198  1.00  0.00    -0.464 OA
ATOM      8  C   UNL     1      18.291  26.171  43.258  1.00  0.00     0.149 A 
ATOM      9  C   UNL     1      17.514  25.059  43.674  1.00  0.00     0.018 A 
ATOM     10  C   UNL     1      16.822  25.155  44.884  1.00  0.00     0.019 A 
ATOM     11  C   UNL     1      16.916  26.327  45.635  1.00  0.00     0.094 A 
ATOM     12  C   UNL     1      17.704  27.383  45.159  1.00  0.00     0.336 A 
ATOM     13  O   UNL     1      17.798  28.446  45.826  1.00  0.00    -0.246 OA
ATOM     14  O   UNL     1      18.355  27.271  44.003  1.00  0.00    -0.422 OA
ENDROOT
TORSDOF 0
ENDMDL
