MODEL 1
REMARK VINA RESULT:    -3.537      0.000      0.000
REMARK INTER + INTRA:          -1.798
REMARK INTER:                  -4.777
REMARK INTRA:                   2.979
REMARK UNBOUND:                 2.979
REMARK SMILES O=c1c(-c2ccc(O)cc2)coc2c([C@@H]3O[C@H](CO)[C@H](O)[C@@H](O)[C@@H]3O)c(O)ccc12
REMARK SMILES IDX 3 1 11 2 12 3 13 4 30 5 2 6 1 7 29 8 28 9 26 10 14 11 4 12
REMARK SMILES IDX 5 13 6 14 7 15 10 16 9 17 8 18 15 20 24 21 16 22 22 23 17 24
REMARK SMILES IDX 20 25 25 26 23 28 18 30 19 31 21 33 27 35
REMARK H PARENT 8 19 25 27 23 29 19 32 21 34 27 36
REMARK Flexibility Score: inf
ROOT
ATOM      1  C   UNL     1     -33.242  11.390 -36.772  1.00  0.00     0.065 A 
ATOM      2  C   UNL     1     -34.334  11.891 -37.494  1.00  0.00     0.208 A 
ATOM      3  O   UNL     1     -34.541  11.530 -38.754  1.00  0.00    -0.463 OA
ATOM      4  C   UNL     1     -33.746  10.689 -39.412  1.00  0.00     0.147 A 
ATOM      5  C   UNL     1     -32.621  10.135 -38.758  1.00  0.00     0.066 A 
ATOM      6  C   UNL     1     -32.368  10.502 -37.424  1.00  0.00     0.200 A 
ATOM      7  O   UNL     1     -31.353  10.052 -36.823  1.00  0.00    -0.288 OA
ATOM      8  C   UNL     1     -31.794   9.235 -39.446  1.00  0.00     0.020 A 
ATOM      9  C   UNL     1     -32.085   8.875 -40.759  1.00  0.00     0.047 A 
ATOM     10  C   UNL     1     -33.199   9.414 -41.416  1.00  0.00     0.125 A 
ATOM     11  C   UNL     1     -34.030  10.347 -40.758  1.00  0.00     0.069 A 
ENDROOT
BRANCH   1  12
ATOM     12  C   UNL     1     -33.034  11.805 -35.362  1.00  0.00    -0.011 A 
ATOM     13  C   UNL     1     -33.715  12.915 -34.832  1.00  0.00     0.013 A 
ATOM     14  C   UNL     1     -33.506  13.307 -33.506  1.00  0.00     0.047 A 
ATOM     15  C   UNL     1     -32.613  12.600 -32.695  1.00  0.00     0.115 A 
ATOM     16  C   UNL     1     -32.131  11.104 -34.542  1.00  0.00     0.013 A 
ATOM     17  C   UNL     1     -31.925  11.497 -33.217  1.00  0.00     0.047 A 
BRANCH  15  18
ATOM     18  O   UNL     1     -32.416  13.002 -31.376  1.00  0.00    -0.508 OA
ATOM     19  H   UNL     1     -31.679  13.650 -31.126  1.00  0.00     0.293 HD
ENDBRANCH  15  18
ENDBRANCH   1  12
BRANCH  11  20
ATOM     20  C   UNL     1     -35.250  10.909 -41.480  1.00  0.00     0.188 C 
ATOM     21  C   UNL     1     -35.397  10.273 -42.885  1.00  0.00     0.179 C 
ATOM     22  O   UNL     1     -36.420  10.703 -40.704  1.00  0.00    -0.362 OA
ATOM     23  C   UNL     1     -36.650  10.837 -43.588  1.00  0.00     0.177 C 
ATOM     24  C   UNL     1     -37.530  11.373 -41.280  1.00  0.00     0.176 C 
ATOM     25  C   UNL     1     -37.877  10.761 -42.657  1.00  0.00     0.177 C 
BRANCH  21  26
ATOM     26  O   UNL     1     -35.514   8.875 -42.789  1.00  0.00    -0.387 OA
ATOM     27  H   UNL     1     -36.407   8.630 -43.142  1.00  0.00     0.211 HD
ENDBRANCH  21  26
BRANCH  23  28
ATOM     28  O   UNL     1     -36.434  12.175 -43.961  1.00  0.00    -0.387 OA
ATOM     29  H   UNL     1     -35.579  12.457 -43.541  1.00  0.00     0.211 HD
ENDBRANCH  23  28
BRANCH  24  30
ATOM     30  C   UNL     1     -38.724  11.281 -40.319  1.00  0.00     0.191 C 
BRANCH  30  31
ATOM     31  O   UNL     1     -39.922  11.523 -41.006  1.00  0.00    -0.394 OA
ATOM     32  H   UNL     1     -40.163  10.679 -41.470  1.00  0.00     0.210 HD
ENDBRANCH  30  31
ENDBRANCH  24  30
BRANCH  25  33
ATOM     33  O   UNL     1     -38.281   9.424 -42.498  1.00  0.00    -0.388 OA
ATOM     34  H   UNL     1     -37.764   9.057 -41.734  1.00  0.00     0.211 HD
ENDBRANCH  25  33
ENDBRANCH  11  20
BRANCH  10  35
ATOM     35  O   UNL     1     -33.481   9.016 -42.724  1.00  0.00    -0.507 OA
ATOM     36  H   UNL     1     -34.390   8.657 -42.987  1.00  0.00     0.293 HD
ENDBRANCH  10  35
TORSDOF 9
ENDMDL
MODEL 2
REMARK VINA RESULT:    -2.912      2.159      7.711
REMARK INTER + INTRA:          -0.954
REMARK INTER:                  -1.606
REMARK INTRA:                   0.652
REMARK UNBOUND:                 2.979
REMARK SMILES O=c1c(-c2ccc(O)cc2)coc2c([C@@H]3O[C@H](CO)[C@H](O)[C@@H](O)[C@@H]3O)c(O)ccc12
REMARK SMILES IDX 3 1 11 2 12 3 13 4 30 5 2 6 1 7 29 8 28 9 26 10 14 11 4 12
REMARK SMILES IDX 5 13 6 14 7 15 10 16 9 17 8 18 15 20 24 21 16 22 22 23 17 24
REMARK SMILES IDX 20 25 25 26 23 28 18 30 19 31 21 33 27 35
REMARK H PARENT 8 19 25 27 23 29 19 32 21 34 27 36
REMARK Flexibility Score: inf
ROOT
ATOM      1  C   UNL     1     -36.140   9.578 -41.351  1.00  0.00     0.065 A 
ATOM      2  C   UNL     1     -36.112   9.682 -39.954  1.00  0.00     0.208 A 
ATOM      3  O   UNL     1     -34.974   9.552 -39.283  1.00  0.00    -0.463 OA
ATOM      4  C   UNL     1     -33.803   9.318 -39.871  1.00  0.00     0.147 A 
ATOM      5  C   UNL     1     -33.740   9.201 -41.280  1.00  0.00     0.066 A 
ATOM      6  C   UNL     1     -34.929   9.325 -42.021  1.00  0.00     0.200 A 
ATOM      7  O   UNL     1     -34.913   9.192 -43.276  1.00  0.00    -0.288 OA
ATOM      8  C   UNL     1     -32.504   8.972 -41.901  1.00  0.00     0.020 A 
ATOM      9  C   UNL     1     -31.342   8.876 -41.139  1.00  0.00     0.047 A 
ATOM     10  C   UNL     1     -31.391   8.994 -39.745  1.00  0.00     0.125 A 
ATOM     11  C   UNL     1     -32.627   9.192 -39.091  1.00  0.00     0.069 A 
ENDROOT
BRANCH   1  12
ATOM     12  C   UNL     1     -37.424   9.732 -42.080  1.00  0.00    -0.011 A 
ATOM     13  C   UNL     1     -38.431  10.581 -41.588  1.00  0.00     0.013 A 
ATOM     14  C   UNL     1     -39.643  10.713 -42.273  1.00  0.00     0.047 A 
ATOM     15  C   UNL     1     -39.867   9.997 -43.453  1.00  0.00     0.115 A 
ATOM     16  C   UNL     1     -37.660   9.008 -43.262  1.00  0.00     0.013 A 
ATOM     17  C   UNL     1     -38.871   9.142 -43.946  1.00  0.00     0.047 A 
BRANCH  15  18
ATOM     18  O   UNL     1     -41.078  10.138 -44.125  1.00  0.00    -0.508 OA
ATOM     19  H   UNL     1     -41.964  10.054 -43.641  1.00  0.00     0.293 HD
ENDBRANCH  15  18
ENDBRANCH   1  12
BRANCH  11  20
ATOM     20  C   UNL     1     -32.661   9.339 -37.573  1.00  0.00     0.188 C 
ATOM     21  C   UNL     1     -32.019  10.679 -37.137  1.00  0.00     0.179 C 
ATOM     22  O   UNL     1     -33.995   9.237 -37.098  1.00  0.00    -0.362 OA
ATOM     23  C   UNL     1     -32.086  10.819 -35.602  1.00  0.00     0.177 C 
ATOM     24  C   UNL     1     -34.022   9.196 -35.681  1.00  0.00     0.176 C 
ATOM     25  C   UNL     1     -33.512  10.531 -35.091  1.00  0.00     0.177 C 
BRANCH  21  26
ATOM     26  O   UNL     1     -32.687  11.767 -37.727  1.00  0.00    -0.387 OA
ATOM     27  H   UNL     1     -33.571  11.437 -38.034  1.00  0.00     0.211 HD
ENDBRANCH  21  26
BRANCH  23  28
ATOM     28  O   UNL     1     -31.187   9.923 -34.996  1.00  0.00    -0.387 OA
ATOM     29  H   UNL     1     -31.644   9.555 -34.195  1.00  0.00     0.211 HD
ENDBRANCH  23  28
BRANCH  24  30
ATOM     30  C   UNL     1     -35.454   8.899 -35.215  1.00  0.00     0.191 C 
BRANCH  30  31
ATOM     31  O   UNL     1     -35.891   9.886 -34.320  1.00  0.00    -0.394 OA
ATOM     32  H   UNL     1     -36.629   9.486 -33.789  1.00  0.00     0.210 HD
ENDBRANCH  30  31
ENDBRANCH  24  30
BRANCH  25  33
ATOM     33  O   UNL     1     -34.377  11.577 -35.457  1.00  0.00    -0.388 OA
ATOM     34  H   UNL     1     -34.943  11.235 -36.197  1.00  0.00     0.211 HD
ENDBRANCH  25  33
ENDBRANCH  11  20
BRANCH  10  35
ATOM     35  O   UNL     1     -30.208   8.919 -39.009  1.00  0.00    -0.507 OA
ATOM     36  H   UNL     1     -29.560   9.696 -38.960  1.00  0.00     0.293 HD
ENDBRANCH  10  35
TORSDOF 9
ENDMDL
MODEL 3
REMARK VINA RESULT:    -2.646      1.223      2.292
REMARK INTER + INTRA:          -0.595
REMARK INTER:                  -0.856
REMARK INTRA:                   0.261
REMARK UNBOUND:                 2.979
REMARK SMILES O=c1c(-c2ccc(O)cc2)coc2c([C@@H]3O[C@H](CO)[C@H](O)[C@@H](O)[C@@H]3O)c(O)ccc12
REMARK SMILES IDX 3 1 11 2 12 3 13 4 30 5 2 6 1 7 29 8 28 9 26 10 14 11 4 12
REMARK SMILES IDX 5 13 6 14 7 15 10 16 9 17 8 18 15 20 24 21 16 22 22 23 17 24
REMARK SMILES IDX 20 25 25 26 23 28 18 30 19 31 21 33 27 35
REMARK H PARENT 8 19 25 27 23 29 19 32 21 34 27 36
REMARK Flexibility Score: inf
ROOT
ATOM      1  C   UNL     1     -33.070  11.440 -35.829  1.00  0.00     0.065 A 
ATOM      2  C   UNL     1     -34.294  11.565 -36.499  1.00  0.00     0.208 A 
ATOM      3  O   UNL     1     -34.443  11.110 -37.737  1.00  0.00    -0.463 OA
ATOM      4  C   UNL     1     -33.465  10.520 -38.420  1.00  0.00     0.147 A 
ATOM      5  C   UNL     1     -32.196  10.351 -37.818  1.00  0.00     0.066 A 
ATOM      6  C   UNL     1     -32.001  10.828 -36.509  1.00  0.00     0.200 A 
ATOM      7  O   UNL     1     -30.871  10.725 -35.956  1.00  0.00    -0.288 OA
ATOM      8  C   UNL     1     -31.170   9.713 -38.531  1.00  0.00     0.020 A 
ATOM      9  C   UNL     1     -31.402   9.232 -39.817  1.00  0.00     0.047 A 
ATOM     10  C   UNL     1     -32.655   9.389 -40.422  1.00  0.00     0.125 A 
ATOM     11  C   UNL     1     -33.696  10.058 -39.740  1.00  0.00     0.069 A 
ENDROOT
BRANCH   1  12
ATOM     12  C   UNL     1     -32.929  11.952 -34.442  1.00  0.00    -0.011 A 
ATOM     13  C   UNL     1     -33.807  12.932 -33.947  1.00  0.00     0.013 A 
ATOM     14  C   UNL     1     -33.662  13.418 -32.644  1.00  0.00     0.047 A 
ATOM     15  C   UNL     1     -32.639  12.936 -31.822  1.00  0.00     0.115 A 
ATOM     16  C   UNL     1     -31.896  11.478 -33.613  1.00  0.00     0.013 A 
ATOM     17  C   UNL     1     -31.755  11.965 -32.310  1.00  0.00     0.047 A 
BRANCH  15  18
ATOM     18  O   UNL     1     -32.508  13.429 -30.526  1.00  0.00    -0.508 OA
ATOM     19  H   UNL     1     -31.904  14.216 -30.318  1.00  0.00     0.293 HD
ENDBRANCH  15  18
ENDBRANCH   1  12
BRANCH  11  20
ATOM     20  C   UNL     1     -35.061  10.203 -40.404  1.00  0.00     0.188 C 
ATOM     21  C   UNL     1     -35.520  11.682 -40.398  1.00  0.00     0.179 C 
ATOM     22  O   UNL     1     -35.022   9.689 -41.727  1.00  0.00    -0.362 OA
ATOM     23  C   UNL     1     -36.890  11.809 -41.096  1.00  0.00     0.177 C 
ATOM     24  C   UNL     1     -36.322   9.657 -42.292  1.00  0.00     0.176 C 
ATOM     25  C   UNL     1     -36.875  11.091 -42.460  1.00  0.00     0.177 C 
BRANCH  21  26
ATOM     26  O   UNL     1     -34.587  12.496 -41.065  1.00  0.00    -0.387 OA
ATOM     27  H   UNL     1     -33.686  12.127 -40.873  1.00  0.00     0.211 HD
ENDBRANCH  21  26
BRANCH  23  28
ATOM     28  O   UNL     1     -37.897  11.251 -40.290  1.00  0.00    -0.387 OA
ATOM     29  H   UNL     1     -37.515  10.433 -39.875  1.00  0.00     0.211 HD
ENDBRANCH  23  28
BRANCH  24  30
ATOM     30  C   UNL     1     -36.264   8.927 -43.641  1.00  0.00     0.191 C 
BRANCH  30  31
ATOM     31  O   UNL     1     -34.948   8.899 -44.125  1.00  0.00    -0.394 OA
ATOM     32  H   UNL     1     -34.456   8.229 -43.582  1.00  0.00     0.210 HD
ENDBRANCH  30  31
ENDBRANCH  24  30
BRANCH  25  33
ATOM     33  O   UNL     1     -36.081  11.805 -43.374  1.00  0.00    -0.388 OA
ATOM     34  H   UNL     1     -35.136  11.664 -43.105  1.00  0.00     0.211 HD
ENDBRANCH  25  33
ENDBRANCH  11  20
BRANCH  10  35
ATOM     35  O   UNL     1     -32.867   8.876 -41.702  1.00  0.00    -0.507 OA
ATOM     36  H   UNL     1     -33.072   7.896 -41.856  1.00  0.00     0.293 HD
ENDBRANCH  10  35
TORSDOF 9
ENDMDL
MODEL 4
REMARK VINA RESULT:    -0.851      1.901      8.428
REMARK INTER + INTRA:           1.829
REMARK INTER:                   2.636
REMARK INTRA:                  -0.806
REMARK UNBOUND:                 2.979
REMARK SMILES O=c1c(-c2ccc(O)cc2)coc2c([C@@H]3O[C@H](CO)[C@H](O)[C@@H](O)[C@@H]3O)c(O)ccc12
REMARK SMILES IDX 3 1 11 2 12 3 13 4 30 5 2 6 1 7 29 8 28 9 26 10 14 11 4 12
REMARK SMILES IDX 5 13 6 14 7 15 10 16 9 17 8 18 15 20 24 21 16 22 22 23 17 24
REMARK SMILES IDX 20 25 25 26 23 28 18 30 19 31 21 33 27 35
REMARK H PARENT 8 19 25 27 23 29 19 32 21 34 27 36
REMARK Flexibility Score: inf
ROOT
ATOM      1  C   UNL     1     -34.379  10.516 -39.576  1.00  0.00     0.065 A 
ATOM      2  C   UNL     1     -34.812  11.327 -38.518  1.00  0.00     0.208 A 
ATOM      3  O   UNL     1     -34.051  11.511 -37.446  1.00  0.00    -0.463 OA
ATOM      4  C   UNL     1     -32.853  10.951 -37.296  1.00  0.00     0.147 A 
ATOM      5  C   UNL     1     -32.339  10.118 -38.317  1.00  0.00     0.066 A 
ATOM      6  C   UNL     1     -33.121   9.896 -39.464  1.00  0.00     0.200 A 
ATOM      7  O   UNL     1     -32.706   9.131 -40.379  1.00  0.00    -0.288 OA
ATOM      8  C   UNL     1     -31.068   9.543 -38.167  1.00  0.00     0.020 A 
ATOM      9  C   UNL     1     -30.310   9.801 -37.028  1.00  0.00     0.047 A 
ATOM     10  C   UNL     1     -30.807  10.627 -36.012  1.00  0.00     0.125 A 
ATOM     11  C   UNL     1     -32.096  11.193 -36.122  1.00  0.00     0.069 A 
ENDROOT
BRANCH   1  12
ATOM     12  C   UNL     1     -35.244  10.329 -40.768  1.00  0.00    -0.011 A 
ATOM     13  C   UNL     1     -35.560  11.416 -41.602  1.00  0.00     0.013 A 
ATOM     14  C   UNL     1     -36.385  11.236 -42.717  1.00  0.00     0.047 A 
ATOM     15  C   UNL     1     -36.907   9.973 -43.011  1.00  0.00     0.115 A 
ATOM     16  C   UNL     1     -35.780   9.063 -41.065  1.00  0.00     0.013 A 
ATOM     17  C   UNL     1     -36.603   8.885 -42.180  1.00  0.00     0.047 A 
BRANCH  15  18
ATOM     18  O   UNL     1     -37.726   9.809 -44.125  1.00  0.00    -0.508 OA
ATOM     19  H   UNL     1     -38.169  10.599 -44.577  1.00  0.00     0.293 HD
ENDBRANCH  15  18
ENDBRANCH   1  12
BRANCH  11  20
ATOM     20  C   UNL     1     -32.614  12.106 -35.017  1.00  0.00     0.188 C 
ATOM     21  C   UNL     1     -33.524  11.322 -34.038  1.00  0.00     0.179 C 
ATOM     22  O   UNL     1     -31.530  12.711 -34.328  1.00  0.00    -0.362 OA
ATOM     23  C   UNL     1     -34.017  12.258 -32.915  1.00  0.00     0.177 C 
ATOM     24  C   UNL     1     -31.998  13.692 -33.418  1.00  0.00     0.176 C 
ATOM     25  C   UNL     1     -32.838  13.036 -32.298  1.00  0.00     0.177 C 
BRANCH  21  26
ATOM     26  O   UNL     1     -32.826  10.244 -33.465  1.00  0.00    -0.387 OA
ATOM     27  H   UNL     1     -31.860  10.400 -33.627  1.00  0.00     0.211 HD
ENDBRANCH  21  26
BRANCH  23  28
ATOM     28  O   UNL     1     -34.958  13.171 -33.425  1.00  0.00    -0.387 OA
ATOM     29  H   UNL     1     -34.952  13.069 -34.413  1.00  0.00     0.211 HD
ENDBRANCH  23  28
BRANCH  24  30
ATOM     30  C   UNL     1     -30.795  14.447 -32.834  1.00  0.00     0.191 C 
BRANCH  30  31
ATOM     31  O   UNL     1     -29.749  13.557 -32.555  1.00  0.00    -0.394 OA
ATOM     32  H   UNL     1     -29.410  13.229 -33.429  1.00  0.00     0.210 HD
ENDBRANCH  30  31
ENDBRANCH  24  30
BRANCH  25  33
ATOM     33  O   UNL     1     -32.031  12.170 -31.540  1.00  0.00    -0.388 OA
ATOM     34  H   UNL     1     -32.631  11.477 -31.160  1.00  0.00     0.211 HD
ENDBRANCH  25  33
ENDBRANCH  11  20
BRANCH  10  35
ATOM     35  O   UNL     1     -30.014  10.888 -34.894  1.00  0.00    -0.507 OA
ATOM     36  H   UNL     1     -30.343  10.707 -33.953  1.00  0.00     0.293 HD
ENDBRANCH  10  35
TORSDOF 9
ENDMDL
