MODEL 1
REMARK VINA RESULT:    -2.690      0.000      0.000
REMARK INTER + INTRA:          -3.013
REMARK INTER:                  -3.004
REMARK INTRA:                  -0.009
REMARK UNBOUND:                -0.009
REMARK SMILES CCCC(=O)[O-]
REMARK SMILES IDX 3 1 4 2 5 3 6 4 2 5 1 6
REMARK H PARENT
REMARK Flexibility Score: inf
ROOT
ATOM      1  C   UNL     1     143.150 141.495 145.513  1.00  0.00     0.052 C 
ENDROOT
BRANCH   1   2
ATOM      2  C   UNL     1     144.056 141.193 144.358  1.00  0.00     0.041 C 
ATOM      3  O   UNL     1     144.513 142.126 143.649  1.00  0.00    -0.550 OA
ATOM      4  O   UNL     1     144.369 139.875 144.047  1.00  0.00    -0.550 OA
ENDBRANCH   1   2
BRANCH   1   5
ATOM      5  C   UNL     1     141.900 140.606 145.500  1.00  0.00     0.003 C 
ATOM      6  C   UNL     1     140.609 141.415 145.619  1.00  0.00     0.004 C 
ENDBRANCH   1   5
TORSDOF 2
ENDMDL
MODEL 2
REMARK VINA RESULT:    -2.595     20.178     20.715
REMARK INTER + INTRA:          -2.907
REMARK INTER:                  -2.877
REMARK INTRA:                  -0.030
REMARK UNBOUND:                -0.009
REMARK SMILES CCCC(=O)[O-]
REMARK SMILES IDX 3 1 4 2 5 3 6 4 2 5 1 6
REMARK H PARENT
REMARK Flexibility Score: inf
ROOT
ATOM      1  C   UNL     1     142.747 160.125 154.052  1.00  0.00     0.052 C 
ENDROOT
BRANCH   1   2
ATOM      2  C   UNL     1     143.754 159.432 154.918  1.00  0.00     0.041 C 
ATOM      3  O   UNL     1     144.772 160.049 155.327  1.00  0.00    -0.550 OA
ATOM      4  O   UNL     1     143.584 158.092 155.245  1.00  0.00    -0.550 OA
ENDBRANCH   1   2
BRANCH   1   5
ATOM      5  C   UNL     1     141.797 159.127 153.378  1.00  0.00     0.003 C 
ATOM      6  C   UNL     1     140.328 159.437 153.664  1.00  0.00     0.004 C 
ENDBRANCH   1   5
TORSDOF 2
ENDMDL
MODEL 3
REMARK VINA RESULT:    -2.508      3.040      3.716
REMARK INTER + INTRA:          -2.810
REMARK INTER:                  -2.803
REMARK INTRA:                  -0.007
REMARK UNBOUND:                -0.009
REMARK SMILES CCCC(=O)[O-]
REMARK SMILES IDX 3 1 4 2 5 3 6 4 2 5 1 6
REMARK H PARENT
REMARK Flexibility Score: inf
ROOT
ATOM      1  C   UNL     1     142.295 141.611 145.429  1.00  0.00     0.052 C 
ENDROOT
BRANCH   1   2
ATOM      2  C   UNL     1     140.950 141.810 146.059  1.00  0.00     0.041 C 
ATOM      3  O   UNL     1     139.903 141.524 145.423  1.00  0.00    -0.550 OA
ATOM      4  O   UNL     1     140.855 142.342 147.339  1.00  0.00    -0.550 OA
ENDBRANCH   1   2
BRANCH   1   5
ATOM      5  C   UNL     1     142.658 140.124 145.324  1.00  0.00     0.003 C 
ATOM      6  C   UNL     1     143.836 139.877 144.382  1.00  0.00     0.004 C 
ENDBRANCH   1   5
TORSDOF 2
ENDMDL
MODEL 4
REMARK VINA RESULT:    -2.439     19.630     20.235
REMARK INTER + INTRA:          -2.733
REMARK INTER:                  -2.701
REMARK INTRA:                  -0.032
REMARK UNBOUND:                -0.009
REMARK SMILES CCCC(=O)[O-]
REMARK SMILES IDX 3 1 4 2 5 3 6 4 2 5 1 6
REMARK H PARENT
REMARK Flexibility Score: inf
ROOT
ATOM      1  C   UNL     1     141.482 160.124 153.763  1.00  0.00     0.052 C 
ENDROOT
BRANCH   1   2
ATOM      2  C   UNL     1     142.835 159.489 153.872  1.00  0.00     0.041 C 
ATOM      3  O   UNL     1     143.058 158.620 154.755  1.00  0.00    -0.550 OA
ATOM      4  O   UNL     1     143.858 159.882 153.018  1.00  0.00    -0.550 OA
ENDBRANCH   1   2
BRANCH   1   5
ATOM      5  C   UNL     1     140.386 159.083 153.507  1.00  0.00     0.003 C 
ATOM      6  C   UNL     1     140.719 158.165 152.331  1.00  0.00     0.004 C 
ENDBRANCH   1   5
TORSDOF 2
ENDMDL
MODEL 5
REMARK VINA RESULT:    -2.365     16.183     16.735
REMARK INTER + INTRA:          -2.651
REMARK INTER:                  -2.644
REMARK INTRA:                  -0.007
REMARK UNBOUND:                -0.009
REMARK SMILES CCCC(=O)[O-]
REMARK SMILES IDX 3 1 4 2 5 3 6 4 2 5 1 6
REMARK H PARENT
REMARK Flexibility Score: inf
ROOT
ATOM      1  C   UNL     1     141.763 157.631 145.284  1.00  0.00     0.052 C 
ENDROOT
BRANCH   1   2
ATOM      2  C   UNL     1     141.424 156.665 144.190  1.00  0.00     0.041 C 
ATOM      3  O   UNL     1     142.312 156.284 143.383  1.00  0.00    -0.550 OA
ATOM      4  O   UNL     1     140.119 156.212 144.043  1.00  0.00    -0.550 OA
ENDBRANCH   1   2
BRANCH   1   5
ATOM      5  C   UNL     1     140.726 158.757 145.387  1.00  0.00     0.003 C 
ATOM      6  C   UNL     1     141.370 160.119 145.644  1.00  0.00     0.004 C 
ENDBRANCH   1   5
TORSDOF 2
ENDMDL
MODEL 6
REMARK VINA RESULT:    -2.359     24.325     25.063
REMARK INTER + INTRA:          -2.644
REMARK INTER:                  -2.635
REMARK INTRA:                  -0.009
REMARK UNBOUND:                -0.009
REMARK SMILES CCCC(=O)[O-]
REMARK SMILES IDX 3 1 4 2 5 3 6 4 2 5 1 6
REMARK H PARENT
REMARK Flexibility Score: inf
ROOT
ATOM      1  C   UNL     1     158.619 157.475 154.149  1.00  0.00     0.052 C 
ENDROOT
BRANCH   1   2
ATOM      2  C   UNL     1     158.404 156.669 155.394  1.00  0.00     0.041 C 
ATOM      3  O   UNL     1     157.472 156.962 156.187  1.00  0.00    -0.550 OA
ATOM      4  O   UNL     1     159.256 155.613 155.693  1.00  0.00    -0.550 OA
ENDBRANCH   1   2
BRANCH   1   5
ATOM      5  C   UNL     1     159.991 158.162 154.149  1.00  0.00     0.003 C 
ATOM      6  C   UNL     1     159.896 159.653 153.829  1.00  0.00     0.004 C 
ENDBRANCH   1   5
TORSDOF 2
ENDMDL
MODEL 7
REMARK VINA RESULT:    -2.348      2.702      2.954
REMARK INTER + INTRA:          -2.631
REMARK INTER:                  -2.571
REMARK INTRA:                  -0.061
REMARK UNBOUND:                -0.009
REMARK SMILES CCCC(=O)[O-]
REMARK SMILES IDX 3 1 4 2 5 3 6 4 2 5 1 6
REMARK H PARENT
REMARK Flexibility Score: inf
ROOT
ATOM      1  C   UNL     1     142.824 139.907 146.053  1.00  0.00     0.052 C 
ENDROOT
BRANCH   1   2
ATOM      2  C   UNL     1     143.240 140.424 147.397  1.00  0.00     0.041 C 
ATOM      3  O   UNL     1     144.104 141.336 147.487  1.00  0.00    -0.550 OA
ATOM      4  O   UNL     1     142.696 139.875 148.551  1.00  0.00    -0.550 OA
ENDBRANCH   1   2
BRANCH   1   5
ATOM      5  C   UNL     1     142.158 140.999 145.207  1.00  0.00     0.003 C 
ATOM      6  C   UNL     1     140.723 141.284 145.651  1.00  0.00     0.004 C 
ENDBRANCH   1   5
TORSDOF 2
ENDMDL
MODEL 8
REMARK VINA RESULT:    -2.199     20.674     21.233
REMARK INTER + INTRA:          -2.465
REMARK INTER:                  -2.399
REMARK INTRA:                  -0.066
REMARK UNBOUND:                -0.009
REMARK SMILES CCCC(=O)[O-]
REMARK SMILES IDX 3 1 4 2 5 3 6 4 2 5 1 6
REMARK H PARENT
REMARK Flexibility Score: inf
ROOT
ATOM      1  C   UNL     1     146.231 156.062 158.341  1.00  0.00     0.052 C 
ENDROOT
BRANCH   1   2
ATOM      2  C   UNL     1     146.449 157.420 158.935  1.00  0.00     0.041 C 
ATOM      3  O   UNL     1     145.822 157.769 159.969  1.00  0.00    -0.550 OA
ATOM      4  O   UNL     1     147.324 158.312 158.327  1.00  0.00    -0.550 OA
ENDBRANCH   1   2
BRANCH   1   5
ATOM      5  C   UNL     1     144.820 155.920 157.757  1.00  0.00     0.003 C 
ATOM      6  C   UNL     1     144.537 156.947 156.661  1.00  0.00     0.004 C 
ENDBRANCH   1   5
TORSDOF 2
ENDMDL
MODEL 9
REMARK VINA RESULT:    -2.191      2.390      3.251
REMARK INTER + INTRA:          -2.456
REMARK INTER:                  -2.386
REMARK INTRA:                  -0.070
REMARK UNBOUND:                -0.009
REMARK SMILES CCCC(=O)[O-]
REMARK SMILES IDX 3 1 4 2 5 3 6 4 2 5 1 6
REMARK H PARENT
REMARK Flexibility Score: inf
ROOT
ATOM      1  C   UNL     1     143.273 139.875 144.703  1.00  0.00     0.052 C 
ENDROOT
BRANCH   1   2
ATOM      2  C   UNL     1     142.422 140.424 145.807  1.00  0.00     0.041 C 
ATOM      3  O   UNL     1     142.811 140.357 147.002  1.00  0.00    -0.550 OA
ATOM      4  O   UNL     1     141.182 140.981 145.517  1.00  0.00    -0.550 OA
ENDBRANCH   1   2
BRANCH   1   5
ATOM      5  C   UNL     1     144.552 140.699 144.511  1.00  0.00     0.003 C 
ATOM      6  C   UNL     1     144.259 142.165 144.195  1.00  0.00     0.004 C 
ENDBRANCH   1   5
TORSDOF 2
ENDMDL
