MODEL 1
REMARK VINA RESULT:    -4.097      0.000      0.000
REMARK INTER + INTRA:          -8.666
REMARK INTER:                  -7.449
REMARK INTRA:                  -1.216
REMARK UNBOUND:                -1.216
REMARK SMILES CCCCCCCCCCCCCCCC(=O)[O-]
REMARK SMILES IDX 9 1 10 2 11 3 12 4 13 5 14 6 15 7 16 8 17 9 18 10 8 11 7 12
REMARK SMILES IDX 6 13 5 14 4 15 3 16 2 17 1 18
REMARK H PARENT
REMARK Flexibility Score: inf
ROOT
ATOM      1  C   UNL     1       1.894  -8.199   4.342  1.00  0.00     0.000 C 
ENDROOT
BRANCH   1   2
ATOM      2  C   UNL     1       2.189  -6.884   5.081  1.00  0.00     0.000 C 
BRANCH   2   3
ATOM      3  C   UNL     1       0.906  -6.142   5.496  1.00  0.00     0.000 C 
BRANCH   3   4
ATOM      4  C   UNL     1       1.185  -4.927   6.399  1.00  0.00     0.000 C 
BRANCH   4   5
ATOM      5  C   UNL     1       1.919  -3.756   5.714  1.00  0.00     0.000 C 
BRANCH   5   6
ATOM      6  C   UNL     1       3.198  -3.276   6.429  1.00  0.00     0.006 C 
BRANCH   6   7
ATOM      7  C   UNL     1       4.443  -3.220   5.530  1.00  0.00     0.053 C 
BRANCH   7   8
ATOM      8  C   UNL     1       4.634  -1.864   4.920  1.00  0.00     0.041 C 
ATOM      9  O   UNL     1       5.234  -1.744   3.821  1.00  0.00    -0.550 OA
ATOM     10  O   UNL     1       4.116  -0.740   5.550  1.00  0.00    -0.550 OA
ENDBRANCH   7   8
ENDBRANCH   6   7
ENDBRANCH   5   6
ENDBRANCH   4   5
ENDBRANCH   3   4
ENDBRANCH   2   3
ENDBRANCH   1   2
BRANCH   1  11
ATOM     11  C   UNL     1       3.014  -9.239   4.523  1.00  0.00     0.000 C 
BRANCH  11  12
ATOM     12  C   UNL     1       3.687  -9.628   3.196  1.00  0.00    -0.000 C 
BRANCH  12  13
ATOM     13  C   UNL     1       5.146  -9.139   3.076  1.00  0.00    -0.000 C 
BRANCH  13  14
ATOM     14  C   UNL     1       5.666  -8.534   4.392  1.00  0.00    -0.000 C 
BRANCH  14  15
ATOM     15  C   UNL     1       6.053  -7.053   4.254  1.00  0.00    -0.000 C 
BRANCH  15  16
ATOM     16  C   UNL     1       7.450  -6.752   4.815  1.00  0.00    -0.000 C 
BRANCH  16  17
ATOM     17  C   UNL     1       8.301  -5.994   3.788  1.00  0.00    -0.003 C 
ATOM     18  C   UNL     1       7.606  -5.932   2.432  1.00  0.00     0.004 C 
ENDBRANCH  16  17
ENDBRANCH  15  16
ENDBRANCH  14  15
ENDBRANCH  13  14
ENDBRANCH  12  13
ENDBRANCH  11  12
ENDBRANCH   1  11
TORSDOF 14
ENDMDL
MODEL 2
REMARK VINA RESULT:    -4.015      3.426      6.203
REMARK INTER + INTRA:          -8.518
REMARK INTER:                  -7.190
REMARK INTRA:                  -1.327
REMARK UNBOUND:                -1.216
REMARK SMILES CCCCCCCCCCCCCCCC(=O)[O-]
REMARK SMILES IDX 9 1 10 2 11 3 12 4 13 5 14 6 15 7 16 8 17 9 18 10 8 11 7 12
REMARK SMILES IDX 6 13 5 14 4 15 3 16 2 17 1 18
REMARK H PARENT
REMARK Flexibility Score: inf
ROOT
ATOM      1  C   UNL     1       6.422  -7.169   5.148  1.00  0.00     0.000 C 
ENDROOT
BRANCH   1   2
ATOM      2  C   UNL     1       5.092  -7.333   4.394  1.00  0.00     0.000 C 
BRANCH   2   3
ATOM      3  C   UNL     1       5.030  -8.642   3.588  1.00  0.00     0.000 C 
BRANCH   3   4
ATOM      4  C   UNL     1       3.618  -9.256   3.556  1.00  0.00     0.000 C 
BRANCH   4   5
ATOM      5  C   UNL     1       2.606  -8.623   4.532  1.00  0.00     0.000 C 
BRANCH   5   6
ATOM      6  C   UNL     1       1.132  -8.695   4.086  1.00  0.00     0.006 C 
BRANCH   6   7
ATOM      7  C   UNL     1       0.238  -7.590   4.671  1.00  0.00     0.053 C 
BRANCH   7   8
ATOM      8  C   UNL     1      -1.218  -7.912   4.525  1.00  0.00     0.041 C 
ATOM      9  O   UNL     1      -1.772  -7.842   3.397  1.00  0.00    -0.550 OA
ATOM     10  O   UNL     1      -1.953  -8.324   5.629  1.00  0.00    -0.550 OA
ENDBRANCH   7   8
ENDBRANCH   6   7
ENDBRANCH   5   6
ENDBRANCH   4   5
ENDBRANCH   3   4
ENDBRANCH   2   3
ENDBRANCH   1   2
BRANCH   1  11
ATOM     11  C   UNL     1       7.536  -6.592   4.258  1.00  0.00     0.000 C 
BRANCH  11  12
ATOM     12  C   UNL     1       7.162  -5.234   3.639  1.00  0.00    -0.000 C 
BRANCH  12  13
ATOM     13  C   UNL     1       7.297  -4.049   4.618  1.00  0.00    -0.000 C 
BRANCH  13  14
ATOM     14  C   UNL     1       6.015  -3.199   4.680  1.00  0.00    -0.000 C 
BRANCH  14  15
ATOM     15  C   UNL     1       4.890  -3.877   5.476  1.00  0.00    -0.000 C 
BRANCH  15  16
ATOM     16  C   UNL     1       3.722  -2.926   5.776  1.00  0.00    -0.000 C 
BRANCH  16  17
ATOM     17  C   UNL     1       2.387  -3.682   5.784  1.00  0.00    -0.003 C 
ATOM     18  C   UNL     1       2.576  -5.130   6.225  1.00  0.00     0.004 C 
ENDBRANCH  16  17
ENDBRANCH  15  16
ENDBRANCH  14  15
ENDBRANCH  13  14
ENDBRANCH  12  13
ENDBRANCH  11  12
ENDBRANCH   1  11
TORSDOF 14
ENDMDL
MODEL 3
REMARK VINA RESULT:    -3.917      1.392      4.989
REMARK INTER + INTRA:          -8.339
REMARK INTER:                  -7.143
REMARK INTRA:                  -1.196
REMARK UNBOUND:                -1.216
REMARK SMILES CCCCCCCCCCCCCCCC(=O)[O-]
REMARK SMILES IDX 9 1 10 2 11 3 12 4 13 5 14 6 15 7 16 8 17 9 18 10 8 11 7 12
REMARK SMILES IDX 6 13 5 14 4 15 3 16 2 17 1 18
REMARK H PARENT
REMARK Flexibility Score: inf
ROOT
ATOM      1  C   UNL     1       6.936  -6.412   3.067  1.00  0.00     0.000 C 
ENDROOT
BRANCH   1   2
ATOM      2  C   UNL     1       8.291  -5.788   3.438  1.00  0.00     0.000 C 
BRANCH   2   3
ATOM      3  C   UNL     1       8.146  -4.368   4.013  1.00  0.00     0.000 C 
BRANCH   3   4
ATOM      4  C   UNL     1       7.880  -4.364   5.529  1.00  0.00     0.000 C 
BRANCH   4   5
ATOM      5  C   UNL     1       6.664  -3.528   5.979  1.00  0.00     0.000 C 
BRANCH   5   6
ATOM      6  C   UNL     1       5.300  -4.024   5.459  1.00  0.00     0.006 C 
BRANCH   6   7
ATOM      7  C   UNL     1       4.171  -2.985   5.552  1.00  0.00     0.053 C 
BRANCH   7   8
ATOM      8  C   UNL     1       4.510  -1.722   4.820  1.00  0.00     0.041 C 
ATOM      9  O   UNL     1       5.067  -1.775   3.692  1.00  0.00    -0.550 OA
ATOM     10  O   UNL     1       4.178  -0.490   5.367  1.00  0.00    -0.550 OA
ENDBRANCH   7   8
ENDBRANCH   6   7
ENDBRANCH   5   6
ENDBRANCH   4   5
ENDBRANCH   3   4
ENDBRANCH   2   3
ENDBRANCH   1   2
BRANCH   1  11
ATOM     11  C   UNL     1       6.403  -7.356   4.159  1.00  0.00     0.000 C 
BRANCH  11  12
ATOM     12  C   UNL     1       5.620  -8.550   3.586  1.00  0.00    -0.000 C 
BRANCH  12  13
ATOM     13  C   UNL     1       4.161  -8.628   4.083  1.00  0.00    -0.000 C 
BRANCH  13  14
ATOM     14  C   UNL     1       3.743  -7.365   4.857  1.00  0.00    -0.000 C 
BRANCH  14  15
ATOM     15  C   UNL     1       2.219  -7.174   4.901  1.00  0.00    -0.000 C 
BRANCH  15  16
ATOM     16  C   UNL     1       1.457  -8.342   4.259  1.00  0.00    -0.000 C 
BRANCH  16  17
ATOM     17  C   UNL     1      -0.053  -8.207   4.493  1.00  0.00    -0.003 C 
ATOM     18  C   UNL     1      -0.587  -9.363   5.332  1.00  0.00     0.004 C 
ENDBRANCH  16  17
ENDBRANCH  15  16
ENDBRANCH  14  15
ENDBRANCH  13  14
ENDBRANCH  12  13
ENDBRANCH  11  12
ENDBRANCH   1  11
TORSDOF 14
ENDMDL
MODEL 4
REMARK VINA RESULT:    -3.899      3.267      5.414
REMARK INTER + INTRA:          -8.306
REMARK INTER:                  -6.313
REMARK INTRA:                  -1.993
REMARK UNBOUND:                -1.216
REMARK SMILES CCCCCCCCCCCCCCCC(=O)[O-]
REMARK SMILES IDX 9 1 10 2 11 3 12 4 13 5 14 6 15 7 16 8 17 9 18 10 8 11 7 12
REMARK SMILES IDX 6 13 5 14 4 15 3 16 2 17 1 18
REMARK H PARENT
REMARK Flexibility Score: inf
ROOT
ATOM      1  C   UNL     1       6.009  -8.360   5.094  1.00  0.00     0.000 C 
ENDROOT
BRANCH   1   2
ATOM      2  C   UNL     1       5.567  -8.132   3.640  1.00  0.00     0.000 C 
BRANCH   2   3
ATOM      3  C   UNL     1       4.876  -9.366   3.035  1.00  0.00     0.000 C 
BRANCH   3   4
ATOM      4  C   UNL     1       3.773  -9.937   3.944  1.00  0.00     0.000 C 
BRANCH   4   5
ATOM      5  C   UNL     1       2.337  -9.504   3.585  1.00  0.00     0.000 C 
BRANCH   5   6
ATOM      6  C   UNL     1       1.467  -9.065   4.780  1.00  0.00     0.006 C 
BRANCH   6   7
ATOM      7  C   UNL     1       0.903  -7.640   4.664  1.00  0.00     0.053 C 
BRANCH   7   8
ATOM      8  C   UNL     1      -0.594  -7.624   4.709  1.00  0.00     0.041 C 
ATOM      9  O   UNL     1      -1.192  -7.258   5.755  1.00  0.00    -0.550 OA
ATOM     10  O   UNL     1      -1.328  -7.980   3.585  1.00  0.00    -0.550 OA
ENDBRANCH   7   8
ENDBRANCH   6   7
ENDBRANCH   5   6
ENDBRANCH   4   5
ENDBRANCH   3   4
ENDBRANCH   2   3
ENDBRANCH   1   2
BRANCH   1  11
ATOM     11  C   UNL     1       5.560  -7.226   6.031  1.00  0.00     0.000 C 
BRANCH  11  12
ATOM     12  C   UNL     1       4.181  -6.655   5.659  1.00  0.00    -0.000 C 
BRANCH  12  13
ATOM     13  C   UNL     1       4.159  -5.117   5.541  1.00  0.00    -0.000 C 
BRANCH  13  14
ATOM     14  C   UNL     1       5.542  -4.494   5.807  1.00  0.00    -0.000 C 
BRANCH  14  15
ATOM     15  C   UNL     1       6.076  -3.699   4.605  1.00  0.00    -0.000 C 
BRANCH  15  16
ATOM     16  C   UNL     1       7.554  -3.998   4.309  1.00  0.00    -0.000 C 
BRANCH  16  17
ATOM     17  C   UNL     1       7.693  -5.208   3.377  1.00  0.00    -0.003 C 
ATOM     18  C   UNL     1       8.797  -6.147   3.853  1.00  0.00     0.004 C 
ENDBRANCH  16  17
ENDBRANCH  15  16
ENDBRANCH  14  15
ENDBRANCH  13  14
ENDBRANCH  12  13
ENDBRANCH  11  12
ENDBRANCH   1  11
TORSDOF 14
ENDMDL
MODEL 5
REMARK VINA RESULT:    -3.876      1.356      4.685
REMARK INTER + INTRA:          -8.264
REMARK INTER:                  -6.771
REMARK INTRA:                  -1.493
REMARK UNBOUND:                -1.216
REMARK SMILES CCCCCCCCCCCCCCCC(=O)[O-]
REMARK SMILES IDX 9 1 10 2 11 3 12 4 13 5 14 6 15 7 16 8 17 9 18 10 8 11 7 12
REMARK SMILES IDX 6 13 5 14 4 15 3 16 2 17 1 18
REMARK H PARENT
REMARK Flexibility Score: inf
ROOT
ATOM      1  C   UNL     1       3.761  -7.542   4.660  1.00  0.00     0.000 C 
ENDROOT
BRANCH   1   2
ATOM      2  C   UNL     1       5.237  -7.397   5.065  1.00  0.00     0.000 C 
BRANCH   2   3
ATOM      3  C   UNL     1       6.191  -7.519   3.864  1.00  0.00     0.000 C 
BRANCH   3   4
ATOM      4  C   UNL     1       7.087  -6.280   3.687  1.00  0.00     0.000 C 
BRANCH   4   5
ATOM      5  C   UNL     1       7.049  -5.271   4.852  1.00  0.00     0.000 C 
BRANCH   5   6
ATOM      6  C   UNL     1       6.711  -3.821   4.452  1.00  0.00     0.006 C 
BRANCH   6   7
ATOM      7  C   UNL     1       5.387  -3.296   5.029  1.00  0.00     0.053 C 
BRANCH   7   8
ATOM      8  C   UNL     1       5.083  -1.905   4.560  1.00  0.00     0.041 C 
ATOM      9  O   UNL     1       6.000  -1.045   4.495  1.00  0.00    -0.550 OA
ATOM     10  O   UNL     1       3.796  -1.572   4.160  1.00  0.00    -0.550 OA
ENDBRANCH   7   8
ENDBRANCH   6   7
ENDBRANCH   5   6
ENDBRANCH   4   5
ENDBRANCH   3   4
ENDBRANCH   2   3
ENDBRANCH   1   2
BRANCH   1  11
ATOM     11  C   UNL     1       3.481  -8.857   3.912  1.00  0.00     0.000 C 
BRANCH  11  12
ATOM     12  C   UNL     1       2.030  -9.339   4.074  1.00  0.00    -0.000 C 
BRANCH  12  13
ATOM     13  C   UNL     1       1.019  -8.194   4.297  1.00  0.00    -0.000 C 
BRANCH  13  14
ATOM     14  C   UNL     1       0.064  -8.482   5.470  1.00  0.00    -0.000 C 
BRANCH  14  15
ATOM     15  C   UNL     1       0.233  -7.489   6.630  1.00  0.00    -0.000 C 
BRANCH  15  16
ATOM     16  C   UNL     1       0.242  -6.027   6.161  1.00  0.00    -0.000 C 
BRANCH  16  17
ATOM     17  C   UNL     1       1.408  -5.256   6.792  1.00  0.00    -0.003 C 
ATOM     18  C   UNL     1       1.983  -4.231   5.819  1.00  0.00     0.004 C 
ENDBRANCH  16  17
ENDBRANCH  15  16
ENDBRANCH  14  15
ENDBRANCH  13  14
ENDBRANCH  12  13
ENDBRANCH  11  12
ENDBRANCH   1  11
TORSDOF 14
ENDMDL
MODEL 6
REMARK VINA RESULT:    -3.857      3.372      5.646
REMARK INTER + INTRA:          -8.230
REMARK INTER:                  -6.698
REMARK INTRA:                  -1.532
REMARK UNBOUND:                -1.216
REMARK SMILES CCCCCCCCCCCCCCCC(=O)[O-]
REMARK SMILES IDX 9 1 10 2 11 3 12 4 13 5 14 6 15 7 16 8 17 9 18 10 8 11 7 12
REMARK SMILES IDX 6 13 5 14 4 15 3 16 2 17 1 18
REMARK H PARENT
REMARK Flexibility Score: inf
ROOT
ATOM      1  C   UNL     1       4.756  -3.336   5.898  1.00  0.00     0.000 C 
ENDROOT
BRANCH   1   2
ATOM      2  C   UNL     1       4.681  -4.796   6.372  1.00  0.00     0.000 C 
BRANCH   2   3
ATOM      3  C   UNL     1       3.653  -5.620   5.577  1.00  0.00     0.000 C 
BRANCH   3   4
ATOM      4  C   UNL     1       3.146  -6.849   6.353  1.00  0.00     0.000 C 
BRANCH   4   5
ATOM      5  C   UNL     1       1.660  -7.196   6.133  1.00  0.00     0.000 C 
BRANCH   5   6
ATOM      6  C   UNL     1       1.258  -7.458   4.668  1.00  0.00     0.006 C 
BRANCH   6   7
ATOM      7  C   UNL     1       0.157  -8.516   4.492  1.00  0.00     0.053 C 
BRANCH   7   8
ATOM      8  C   UNL     1      -1.210  -7.904   4.465  1.00  0.00     0.041 C 
ATOM      9  O   UNL     1      -1.708  -7.422   5.515  1.00  0.00    -0.550 OA
ATOM     10  O   UNL     1      -1.918  -7.834   3.272  1.00  0.00    -0.550 OA
ENDBRANCH   7   8
ENDBRANCH   6   7
ENDBRANCH   5   6
ENDBRANCH   4   5
ENDBRANCH   3   4
ENDBRANCH   2   3
ENDBRANCH   1   2
BRANCH   1  11
ATOM     11  C   UNL     1       5.762  -3.141   4.751  1.00  0.00     0.000 C 
BRANCH  11  12
ATOM     12  C   UNL     1       7.102  -3.851   5.004  1.00  0.00    -0.000 C 
BRANCH  12  13
ATOM     13  C   UNL     1       7.493  -4.850   3.894  1.00  0.00    -0.000 C 
BRANCH  13  14
ATOM     14  C   UNL     1       7.330  -6.312   4.346  1.00  0.00    -0.000 C 
BRANCH  14  15
ATOM     15  C   UNL     1       6.375  -7.109   3.444  1.00  0.00    -0.000 C 
BRANCH  15  16
ATOM     16  C   UNL     1       5.744  -8.309   4.166  1.00  0.00    -0.000 C 
BRANCH  16  17
ATOM     17  C   UNL     1       5.226  -9.344   3.159  1.00  0.00    -0.003 C 
ATOM     18  C   UNL     1       3.723  -9.556   3.310  1.00  0.00     0.004 C 
ENDBRANCH  16  17
ENDBRANCH  15  16
ENDBRANCH  14  15
ENDBRANCH  13  14
ENDBRANCH  12  13
ENDBRANCH  11  12
ENDBRANCH   1  11
TORSDOF 14
ENDMDL
MODEL 7
REMARK VINA RESULT:    -3.842      3.532      5.525
REMARK INTER + INTRA:          -8.203
REMARK INTER:                  -6.959
REMARK INTRA:                  -1.244
REMARK UNBOUND:                -1.216
REMARK SMILES CCCCCCCCCCCCCCCC(=O)[O-]
REMARK SMILES IDX 9 1 10 2 11 3 12 4 13 5 14 6 15 7 16 8 17 9 18 10 8 11 7 12
REMARK SMILES IDX 6 13 5 14 4 15 3 16 2 17 1 18
REMARK H PARENT
REMARK Flexibility Score: inf
ROOT
ATOM      1  C   UNL     1       5.231  -9.042   3.233  1.00  0.00     0.000 C 
ENDROOT
BRANCH   1   2
ATOM      2  C   UNL     1       4.065 -10.006   2.961  1.00  0.00     0.000 C 
BRANCH   2   3
ATOM      3  C   UNL     1       3.034 -10.019   4.102  1.00  0.00     0.000 C 
BRANCH   3   4
ATOM      4  C   UNL     1       1.904  -8.993   3.897  1.00  0.00     0.000 C 
BRANCH   4   5
ATOM      5  C   UNL     1       2.009  -7.721   4.761  1.00  0.00     0.000 C 
BRANCH   5   6
ATOM      6  C   UNL     1       0.690  -6.944   4.947  1.00  0.00     0.006 C 
BRANCH   6   7
ATOM      7  C   UNL     1      -0.364  -7.678   5.791  1.00  0.00     0.053 C 
BRANCH   7   8
ATOM      8  C   UNL     1      -1.464  -8.244   4.945  1.00  0.00     0.041 C 
ATOM      9  O   UNL     1      -2.286  -9.060   5.439  1.00  0.00    -0.550 OA
ATOM     10  O   UNL     1      -1.602  -7.842   3.623  1.00  0.00    -0.550 OA
ENDBRANCH   7   8
ENDBRANCH   6   7
ENDBRANCH   5   6
ENDBRANCH   4   5
ENDBRANCH   3   4
ENDBRANCH   2   3
ENDBRANCH   1   2
BRANCH   1  11
ATOM     11  C   UNL     1       5.779  -9.170   4.664  1.00  0.00     0.000 C 
BRANCH  11  12
ATOM     12  C   UNL     1       5.930  -7.812   5.370  1.00  0.00    -0.000 C 
BRANCH  12  13
ATOM     13  C   UNL     1       5.621  -6.604   4.460  1.00  0.00    -0.000 C 
BRANCH  13  14
ATOM     14  C   UNL     1       6.897  -5.859   4.030  1.00  0.00    -0.000 C 
BRANCH  14  15
ATOM     15  C   UNL     1       6.978  -4.438   4.610  1.00  0.00    -0.000 C 
BRANCH  15  16
ATOM     16  C   UNL     1       5.624  -3.932   5.127  1.00  0.00    -0.000 C 
BRANCH  16  17
ATOM     17  C   UNL     1       5.263  -2.584   4.491  1.00  0.00    -0.003 C 
ATOM     18  C   UNL     1       4.111  -1.914   5.233  1.00  0.00     0.004 C 
ENDBRANCH  16  17
ENDBRANCH  15  16
ENDBRANCH  14  15
ENDBRANCH  13  14
ENDBRANCH  12  13
ENDBRANCH  11  12
ENDBRANCH   1  11
TORSDOF 14
ENDMDL
MODEL 8
REMARK VINA RESULT:    -3.838      1.366      4.203
REMARK INTER + INTRA:          -8.196
REMARK INTER:                  -6.789
REMARK INTRA:                  -1.408
REMARK UNBOUND:                -1.216
REMARK SMILES CCCCCCCCCCCCCCCC(=O)[O-]
REMARK SMILES IDX 9 1 10 2 11 3 12 4 13 5 14 6 15 7 16 8 17 9 18 10 8 11 7 12
REMARK SMILES IDX 6 13 5 14 4 15 3 16 2 17 1 18
REMARK H PARENT
REMARK Flexibility Score: inf
ROOT
ATOM      1  C   UNL     1       6.355  -7.263   3.902  1.00  0.00     0.000 C 
ENDROOT
BRANCH   1   2
ATOM      2  C   UNL     1       6.000  -6.027   4.743  1.00  0.00     0.000 C 
BRANCH   2   3
ATOM      3  C   UNL     1       4.609  -6.136   5.392  1.00  0.00     0.000 C 
BRANCH   3   4
ATOM      4  C   UNL     1       4.335  -5.011   6.406  1.00  0.00     0.000 C 
BRANCH   4   5
ATOM      5  C   UNL     1       3.207  -4.036   6.014  1.00  0.00     0.000 C 
BRANCH   5   6
ATOM      6  C   UNL     1       3.600  -2.545   6.015  1.00  0.00     0.006 C 
BRANCH   6   7
ATOM      7  C   UNL     1       4.122  -2.027   4.665  1.00  0.00     0.053 C 
BRANCH   7   8
ATOM      8  C   UNL     1       5.596  -1.756   4.701  1.00  0.00     0.041 C 
ATOM      9  O   UNL     1       6.415  -2.709   4.628  1.00  0.00    -0.550 OA
ATOM     10  O   UNL     1       6.061  -0.451   4.779  1.00  0.00    -0.550 OA
ENDBRANCH   7   8
ENDBRANCH   6   7
ENDBRANCH   5   6
ENDBRANCH   4   5
ENDBRANCH   3   4
ENDBRANCH   2   3
ENDBRANCH   1   2
BRANCH   1  11
ATOM     11  C   UNL     1       5.501  -8.489   4.268  1.00  0.00     0.000 C 
BRANCH  11  12
ATOM     12  C   UNL     1       4.981  -9.244   3.033  1.00  0.00    -0.000 C 
BRANCH  12  13
ATOM     13  C   UNL     1       3.569  -9.838   3.220  1.00  0.00    -0.000 C 
BRANCH  13  14
ATOM     14  C   UNL     1       2.846  -9.243   4.443  1.00  0.00    -0.000 C 
BRANCH  14  15
ATOM     15  C   UNL     1       1.553  -8.504   4.067  1.00  0.00    -0.000 C 
BRANCH  15  16
ATOM     16  C   UNL     1       1.239  -7.341   5.020  1.00  0.00    -0.000 C 
BRANCH  16  17
ATOM     17  C   UNL     1       0.206  -7.759   6.074  1.00  0.00    -0.003 C 
ATOM     18  C   UNL     1      -0.985  -8.462   5.431  1.00  0.00     0.004 C 
ENDBRANCH  16  17
ENDBRANCH  15  16
ENDBRANCH  14  15
ENDBRANCH  13  14
ENDBRANCH  12  13
ENDBRANCH  11  12
ENDBRANCH   1  11
TORSDOF 14
ENDMDL
MODEL 9
REMARK VINA RESULT:    -3.795      1.824      4.779
REMARK INTER + INTRA:          -8.118
REMARK INTER:                  -6.299
REMARK INTRA:                  -1.819
REMARK UNBOUND:                -1.216
REMARK SMILES CCCCCCCCCCCCCCCC(=O)[O-]
REMARK SMILES IDX 9 1 10 2 11 3 12 4 13 5 14 6 15 7 16 8 17 9 18 10 8 11 7 12
REMARK SMILES IDX 6 13 5 14 4 15 3 16 2 17 1 18
REMARK H PARENT
REMARK Flexibility Score: inf
ROOT
ATOM      1  C   UNL     1       3.098  -9.090   4.578  1.00  0.00     0.000 C 
ENDROOT
BRANCH   1   2
ATOM      2  C   UNL     1       3.896  -9.390   3.299  1.00  0.00     0.000 C 
BRANCH   2   3
ATOM      3  C   UNL     1       5.281  -8.719   3.299  1.00  0.00     0.000 C 
BRANCH   3   4
ATOM      4  C   UNL     1       5.791  -8.406   4.717  1.00  0.00     0.000 C 
BRANCH   4   5
ATOM      5  C   UNL     1       6.656  -7.135   4.837  1.00  0.00     0.000 C 
BRANCH   5   6
ATOM      6  C   UNL     1       6.617  -6.198   3.613  1.00  0.00     0.006 C 
BRANCH   6   7
ATOM      7  C   UNL     1       7.987  -5.949   2.962  1.00  0.00     0.053 C 
BRANCH   7   8
ATOM      8  C   UNL     1       8.739  -4.845   3.643  1.00  0.00     0.041 C 
ATOM      9  O   UNL     1       8.233  -3.696   3.730  1.00  0.00    -0.550 OA
ATOM     10  O   UNL     1       9.980  -5.097   4.211  1.00  0.00    -0.550 OA
ENDBRANCH   7   8
ENDBRANCH   6   7
ENDBRANCH   5   6
ENDBRANCH   4   5
ENDBRANCH   3   4
ENDBRANCH   2   3
ENDBRANCH   1   2
BRANCH   1  11
ATOM     11  C   UNL     1       1.740  -8.431   4.284  1.00  0.00     0.000 C 
BRANCH  11  12
ATOM     12  C   UNL     1       1.550  -7.098   5.027  1.00  0.00    -0.000 C 
BRANCH  12  13
ATOM     13  C   UNL     1       2.741  -6.719   5.933  1.00  0.00    -0.000 C 
BRANCH  13  14
ATOM     14  C   UNL     1       3.390  -5.388   5.512  1.00  0.00    -0.000 C 
BRANCH  14  15
ATOM     15  C   UNL     1       3.064  -4.237   6.476  1.00  0.00    -0.000 C 
BRANCH  15  16
ATOM     16  C   UNL     1       4.164  -3.166   6.512  1.00  0.00    -0.000 C 
BRANCH  16  17
ATOM     17  C   UNL     1       5.136  -3.339   5.338  1.00  0.00    -0.003 C 
ATOM     18  C   UNL     1       5.014  -2.187   4.346  1.00  0.00     0.004 C 
ENDBRANCH  16  17
ENDBRANCH  15  16
ENDBRANCH  14  15
ENDBRANCH  13  14
ENDBRANCH  12  13
ENDBRANCH  11  12
ENDBRANCH   1  11
TORSDOF 14
ENDMDL
