MODEL 1
REMARK VINA RESULT:    -2.945      0.000      0.000
REMARK INTER + INTRA:          -3.208
REMARK INTER:                  -3.290
REMARK INTRA:                   0.082
REMARK UNBOUND:                 0.082
REMARK SMILES O=C([O-])c1ccccc1C(=O)[O-]
REMARK SMILES IDX 4 1 9 2 5 3 8 4 6 5 7 6 2 7 1 8 3 9 10 10 11 11 12 12
REMARK H PARENT
REMARK Flexibility Score: inf
ROOT
ATOM      1  C   UNL     1      35.196  -1.882  23.356  1.00  0.00     0.006 A 
ATOM      2  C   UNL     1      33.920  -1.530  23.877  1.00  0.00     0.006 A 
ATOM      3  C   UNL     1      36.287  -2.000  24.237  1.00  0.00     0.010 A 
ATOM      4  C   UNL     1      33.768  -1.374  25.267  1.00  0.00     0.010 A 
ATOM      5  C   UNL     1      36.117  -1.818  25.610  1.00  0.00     0.001 A 
ATOM      6  C   UNL     1      34.859  -1.518  26.125  1.00  0.00     0.001 A 
ENDROOT
BRANCH   1   7
ATOM      7  C   UNL     1      35.416  -2.201  21.926  1.00  0.00     0.072 C 
ATOM      8  O   UNL     1      35.816  -1.309  21.131  1.00  0.00    -0.545 OA
ATOM      9  O   UNL     1      35.250  -3.499  21.456  1.00  0.00    -0.545 OA
ENDBRANCH   1   7
BRANCH   2  10
ATOM     10  C   UNL     1      32.747  -1.250  23.017  1.00  0.00     0.072 C 
ATOM     11  O   UNL     1      32.851  -0.501  22.009  1.00  0.00    -0.545 OA
ATOM     12  O   UNL     1      31.498  -1.759  23.353  1.00  0.00    -0.545 OA
ENDBRANCH   2  10
TORSDOF 2
ENDMDL
MODEL 2
REMARK VINA RESULT:    -2.826      0.147      3.048
REMARK INTER + INTRA:          -3.075
REMARK INTER:                  -3.180
REMARK INTRA:                   0.105
REMARK UNBOUND:                 0.082
REMARK SMILES O=C([O-])c1ccccc1C(=O)[O-]
REMARK SMILES IDX 4 1 9 2 5 3 8 4 6 5 7 6 2 7 1 8 3 9 10 10 11 11 12 12
REMARK H PARENT
REMARK Flexibility Score: inf
ROOT
ATOM      1  C   UNL     1      33.973  -1.484  23.941  1.00  0.00     0.006 A 
ATOM      2  C   UNL     1      35.216  -1.856  23.357  1.00  0.00     0.006 A 
ATOM      3  C   UNL     1      33.905  -1.268  25.330  1.00  0.00     0.010 A 
ATOM      4  C   UNL     1      36.359  -1.936  24.175  1.00  0.00     0.010 A 
ATOM      5  C   UNL     1      35.048  -1.375  26.124  1.00  0.00     0.001 A 
ATOM      6  C   UNL     1      36.273  -1.696  25.547  1.00  0.00     0.001 A 
ENDROOT
BRANCH   1   7
ATOM      7  C   UNL     1      32.753  -1.241  23.137  1.00  0.00     0.072 C 
ATOM      8  O   UNL     1      32.816  -0.570  22.073  1.00  0.00    -0.545 OA
ATOM      9  O   UNL     1      31.536  -1.804  23.509  1.00  0.00    -0.545 OA
ENDBRANCH   1   7
BRANCH   2  10
ATOM     10  C   UNL     1      35.357  -2.236  21.933  1.00  0.00     0.072 C 
ATOM     11  O   UNL     1      35.180  -3.427  21.563  1.00  0.00    -0.545 OA
ATOM     12  O   UNL     1      35.752  -1.289  20.995  1.00  0.00    -0.545 OA
ENDBRANCH   2  10
TORSDOF 2
ENDMDL
MODEL 3
REMARK VINA RESULT:    -2.167      1.965      3.113
REMARK INTER + INTRA:          -2.339
REMARK INTER:                  -2.880
REMARK INTRA:                   0.541
REMARK UNBOUND:                 0.082
REMARK SMILES O=C([O-])c1ccccc1C(=O)[O-]
REMARK SMILES IDX 4 1 9 2 5 3 8 4 6 5 7 6 2 7 1 8 3 9 10 10 11 11 12 12
REMARK H PARENT
REMARK Flexibility Score: inf
ROOT
ATOM      1  C   UNL     1      34.553  -1.763  24.162  1.00  0.00     0.006 A 
ATOM      2  C   UNL     1      33.787  -1.548  22.983  1.00  0.00     0.006 A 
ATOM      3  C   UNL     1      35.934  -2.009  24.047  1.00  0.00     0.010 A 
ATOM      4  C   UNL     1      34.441  -1.521  21.738  1.00  0.00     0.010 A 
ATOM      5  C   UNL     1      36.558  -2.000  22.799  1.00  0.00     0.001 A 
ATOM      6  C   UNL     1      35.816  -1.745  21.649  1.00  0.00     0.001 A 
ENDROOT
BRANCH   1   7
ATOM      7  C   UNL     1      33.973  -1.670  25.522  1.00  0.00     0.072 C 
ATOM      8  O   UNL     1      33.940  -0.564  26.124  1.00  0.00    -0.545 OA
ATOM      9  O   UNL     1      33.399  -2.784  26.125  1.00  0.00    -0.545 OA
ENDBRANCH   1   7
BRANCH   2  10
ATOM     10  C   UNL     1      32.313  -1.417  22.993  1.00  0.00     0.072 C 
ATOM     11  O   UNL     1      31.715  -0.796  22.073  1.00  0.00    -0.545 OA
ATOM     12  O   UNL     1      31.574  -1.923  24.056  1.00  0.00    -0.545 OA
ENDBRANCH   2  10
TORSDOF 2
ENDMDL
MODEL 4
REMARK VINA RESULT:    -2.153      1.923      3.486
REMARK INTER + INTRA:          -2.323
REMARK INTER:                  -2.871
REMARK INTRA:                   0.548
REMARK UNBOUND:                 0.082
REMARK SMILES O=C([O-])c1ccccc1C(=O)[O-]
REMARK SMILES IDX 4 1 9 2 5 3 8 4 6 5 7 6 2 7 1 8 3 9 10 10 11 11 12 12
REMARK H PARENT
REMARK Flexibility Score: inf
ROOT
ATOM      1  C   UNL     1      33.845  -1.501  22.977  1.00  0.00     0.006 A 
ATOM      2  C   UNL     1      34.605  -1.663  24.169  1.00  0.00     0.006 A 
ATOM      3  C   UNL     1      34.495  -1.600  21.732  1.00  0.00     0.010 A 
ATOM      4  C   UNL     1      35.972  -1.983  24.071  1.00  0.00     0.010 A 
ATOM      5  C   UNL     1      35.856  -1.896  21.659  1.00  0.00     0.001 A 
ATOM      6  C   UNL     1      36.590  -2.098  22.825  1.00  0.00     0.001 A 
ENDROOT
BRANCH   1   7
ATOM      7  C   UNL     1      32.378  -1.301  22.984  1.00  0.00     0.072 C 
ATOM      8  O   UNL     1      31.808  -0.744  22.008  1.00  0.00    -0.545 OA
ATOM      9  O   UNL     1      31.602  -1.783  24.033  1.00  0.00    -0.545 OA
ENDBRANCH   1   7
BRANCH   2  10
ATOM     10  C   UNL     1      34.042  -1.443  25.520  1.00  0.00     0.072 C 
ATOM     11  O   UNL     1      33.437  -2.368  26.125  1.00  0.00    -0.545 OA
ATOM     12  O   UNL     1      34.117  -0.187  26.111  1.00  0.00    -0.545 OA
ENDBRANCH   2  10
TORSDOF 2
ENDMDL
MODEL 5
REMARK VINA RESULT:    -1.242      2.281      3.990
REMARK INTER + INTRA:          -1.306
REMARK INTER:                  -1.520
REMARK INTRA:                   0.214
REMARK UNBOUND:                 0.082
REMARK SMILES O=C([O-])c1ccccc1C(=O)[O-]
REMARK SMILES IDX 4 1 9 2 5 3 8 4 6 5 7 6 2 7 1 8 3 9 10 10 11 11 12 12
REMARK H PARENT
REMARK Flexibility Score: inf
ROOT
ATOM      1  C   UNL     1      33.781  -2.247  24.630  1.00  0.00     0.006 A 
ATOM      2  C   UNL     1      34.191  -1.930  23.305  1.00  0.00     0.006 A 
ATOM      3  C   UNL     1      32.443  -2.022  25.005  1.00  0.00     0.010 A 
ATOM      4  C   UNL     1      33.234  -1.464  22.386  1.00  0.00     0.010 A 
ATOM      5  C   UNL     1      31.516  -1.537  24.082  1.00  0.00     0.001 A 
ATOM      6  C   UNL     1      31.907  -1.270  22.773  1.00  0.00     0.001 A 
ENDROOT
BRANCH   1   7
ATOM      7  C   UNL     1      34.688  -2.872  25.621  1.00  0.00     0.072 C 
ATOM      8  O   UNL     1      34.514  -4.069  25.973  1.00  0.00    -0.545 OA
ATOM      9  O   UNL     1      35.778  -2.171  26.125  1.00  0.00    -0.545 OA
ENDBRANCH   1   7
BRANCH   2  10
ATOM     10  C   UNL     1      35.601  -2.002  22.859  1.00  0.00     0.072 C 
ATOM     11  O   UNL     1      36.488  -1.297  23.409  1.00  0.00    -0.545 OA
ATOM     12  O   UNL     1      35.950  -2.805  21.778  1.00  0.00    -0.545 OA
ENDBRANCH   2  10
TORSDOF 2
ENDMDL
MODEL 6
REMARK VINA RESULT:    -1.165     16.126     16.981
REMARK INTER + INTRA:          -1.220
REMARK INTER:                  -1.037
REMARK INTRA:                  -0.182
REMARK UNBOUND:                 0.082
REMARK SMILES O=C([O-])c1ccccc1C(=O)[O-]
REMARK SMILES IDX 4 1 9 2 5 3 8 4 6 5 7 6 2 7 1 8 3 9 10 10 11 11 12 12
REMARK H PARENT
REMARK Flexibility Score: inf
ROOT
ATOM      1  C   UNL     1      19.695   4.429  18.792  1.00  0.00     0.006 A 
ATOM      2  C   UNL     1      20.370   5.002  17.679  1.00  0.00     0.006 A 
ATOM      3  C   UNL     1      19.925   4.955  20.078  1.00  0.00     0.010 A 
ATOM      4  C   UNL     1      21.199   6.121  17.883  1.00  0.00     0.010 A 
ATOM      5  C   UNL     1      20.769   6.051  20.259  1.00  0.00     0.001 A 
ATOM      6  C   UNL     1      21.395   6.640  19.163  1.00  0.00     0.001 A 
ENDROOT
BRANCH   1   7
ATOM      7  C   UNL     1      18.699   3.342  18.652  1.00  0.00     0.072 C 
ATOM      8  O   UNL     1      19.078   2.145  18.538  1.00  0.00    -0.545 OA
ATOM      9  O   UNL     1      17.337   3.616  18.710  1.00  0.00    -0.545 OA
ENDBRANCH   1   7
BRANCH   2  10
ATOM     10  C   UNL     1      20.299   4.434  16.313  1.00  0.00     0.072 C 
ATOM     11  O   UNL     1      19.510   4.915  15.456  1.00  0.00    -0.545 OA
ATOM     12  O   UNL     1      21.057   3.317  15.981  1.00  0.00    -0.545 OA
ENDBRANCH   2  10
TORSDOF 2
ENDMDL
MODEL 7
REMARK VINA RESULT:    -1.144     16.117     16.785
REMARK INTER + INTRA:          -1.196
REMARK INTER:                  -0.993
REMARK INTRA:                  -0.202
REMARK UNBOUND:                 0.082
REMARK SMILES O=C([O-])c1ccccc1C(=O)[O-]
REMARK SMILES IDX 4 1 9 2 5 3 8 4 6 5 7 6 2 7 1 8 3 9 10 10 11 11 12 12
REMARK H PARENT
REMARK Flexibility Score: inf
ROOT
ATOM      1  C   UNL     1      20.362   4.981  17.686  1.00  0.00     0.006 A 
ATOM      2  C   UNL     1      19.706   4.402  18.807  1.00  0.00     0.006 A 
ATOM      3  C   UNL     1      21.179   6.111  17.879  1.00  0.00     0.010 A 
ATOM      4  C   UNL     1      19.942   4.934  20.089  1.00  0.00     0.010 A 
ATOM      5  C   UNL     1      21.382   6.635  19.156  1.00  0.00     0.001 A 
ATOM      6  C   UNL     1      20.775   6.041  20.259  1.00  0.00     0.001 A 
ENDROOT
BRANCH   1   7
ATOM      7  C   UNL     1      20.281   4.404  16.325  1.00  0.00     0.072 C 
ATOM      8  O   UNL     1      19.518   4.915  15.462  1.00  0.00    -0.545 OA
ATOM      9  O   UNL     1      21.091   3.334  15.960  1.00  0.00    -0.545 OA
ENDBRANCH   1   7
BRANCH   2  10
ATOM     10  C   UNL     1      18.723   3.302  18.686  1.00  0.00     0.072 C 
ATOM     11  O   UNL     1      17.486   3.531  18.764  1.00  0.00    -0.545 OA
ATOM     12  O   UNL     1      19.159   1.989  18.552  1.00  0.00    -0.545 OA
ENDBRANCH   2  10
TORSDOF 2
ENDMDL
MODEL 8
REMARK VINA RESULT:    -0.691      2.793      3.901
REMARK INTER + INTRA:          -0.689
REMARK INTER:                  -0.924
REMARK INTRA:                   0.235
REMARK UNBOUND:                 0.082
REMARK SMILES O=C([O-])c1ccccc1C(=O)[O-]
REMARK SMILES IDX 4 1 9 2 5 3 8 4 6 5 7 6 2 7 1 8 3 9 10 10 11 11 12 12
REMARK H PARENT
REMARK Flexibility Score: inf
ROOT
ATOM      1  C   UNL     1      33.562  -1.734  24.317  1.00  0.00     0.006 A 
ATOM      2  C   UNL     1      32.143  -1.821  24.367  1.00  0.00     0.006 A 
ATOM      3  C   UNL     1      34.180  -1.307  23.126  1.00  0.00     0.010 A 
ATOM      4  C   UNL     1      31.392  -1.415  23.248  1.00  0.00     0.010 A 
ATOM      5  C   UNL     1      33.416  -0.931  22.021  1.00  0.00     0.001 A 
ATOM      6  C   UNL     1      32.026  -0.973  22.085  1.00  0.00     0.001 A 
ENDROOT
BRANCH   1   7
ATOM      7  C   UNL     1      34.422  -2.008  25.490  1.00  0.00     0.072 C 
ATOM      8  O   UNL     1      34.593  -3.190  25.890  1.00  0.00    -0.545 OA
ATOM      9  O   UNL     1      35.104  -0.975  26.125  1.00  0.00    -0.545 OA
ENDBRANCH   1   7
BRANCH   2  10
ATOM     10  C   UNL     1      31.410  -2.386  25.522  1.00  0.00     0.072 C 
ATOM     11  O   UNL     1      31.658  -3.551  25.936  1.00  0.00    -0.545 OA
ATOM     12  O   UNL     1      30.390  -1.659  26.125  1.00  0.00    -0.545 OA
ENDBRANCH   2  10
TORSDOF 2
ENDMDL
