MODEL 1
REMARK VINA RESULT:    -3.985      0.000      0.000
REMARK INTER + INTRA:          -6.973
REMARK INTER:                  -6.081
REMARK INTRA:                  -0.892
REMARK UNBOUND:                -0.892
REMARK SMILES CCCCCCCCCCC(=O)[O-]
REMARK SMILES IDX 7 1 8 2 9 3 10 4 11 5 12 6 13 7 6 8 5 9 4 10 3 11 2 12 1 13
REMARK H PARENT
REMARK Flexibility Score: inf
ROOT
ATOM      1  C   UNL     1     163.622 162.139 182.896  1.00  0.00     0.000 C 
ENDROOT
BRANCH   1   2
ATOM      2  C   UNL     1     163.555 160.619 183.118  1.00  0.00     0.000 C 
BRANCH   2   3
ATOM      3  C   UNL     1     164.903 159.879 183.015  1.00  0.00     0.006 C 
BRANCH   3   4
ATOM      4  C   UNL     1     166.118 160.810 182.839  1.00  0.00     0.053 C 
BRANCH   4   5
ATOM      5  C   UNL     1     167.293 160.380 183.664  1.00  0.00     0.041 C 
ATOM      6  O   UNL     1     167.162 160.178 184.900  1.00  0.00    -0.550 OA
ATOM      7  O   UNL     1     168.545 160.240 183.078  1.00  0.00    -0.550 OA
ENDBRANCH   4   5
ENDBRANCH   3   4
ENDBRANCH   2   3
ENDBRANCH   1   2
BRANCH   1   8
ATOM      8  C   UNL     1     162.278 162.841 183.138  1.00  0.00     0.000 C 
BRANCH   8   9
ATOM      9  C   UNL     1     161.196 161.831 183.537  1.00  0.00    -0.000 C 
BRANCH   9  10
ATOM     10  C   UNL     1     160.094 161.755 182.468  1.00  0.00    -0.000 C 
BRANCH  10  11
ATOM     11  C   UNL     1     160.135 160.444 181.668  1.00  0.00    -0.000 C 
BRANCH  11  12
ATOM     12  C   UNL     1     160.408 160.672 180.174  1.00  0.00    -0.003 C 
ATOM     13  C   UNL     1     161.888 160.487 179.852  1.00  0.00     0.004 C 
ENDBRANCH  11  12
ENDBRANCH  10  11
ENDBRANCH   9  10
ENDBRANCH   8   9
ENDBRANCH   1   8
TORSDOF 9
ENDMDL
MODEL 2
REMARK VINA RESULT:    -3.969      1.347      1.711
REMARK INTER + INTRA:          -6.949
REMARK INTER:                  -5.990
REMARK INTRA:                  -0.959
REMARK UNBOUND:                -0.892
REMARK SMILES CCCCCCCCCCC(=O)[O-]
REMARK SMILES IDX 7 1 8 2 9 3 10 4 11 5 12 6 13 7 6 8 5 9 4 10 3 11 2 12 1 13
REMARK H PARENT
REMARK Flexibility Score: inf
ROOT
ATOM      1  C   UNL     1     163.353 162.971 183.254  1.00  0.00     0.000 C 
ENDROOT
BRANCH   1   2
ATOM      2  C   UNL     1     164.082 161.985 182.325  1.00  0.00     0.000 C 
BRANCH   2   3
ATOM      3  C   UNL     1     164.079 160.517 182.794  1.00  0.00     0.006 C 
BRANCH   3   4
ATOM      4  C   UNL     1     165.478 159.876 182.863  1.00  0.00     0.053 C 
BRANCH   4   5
ATOM      5  C   UNL     1     166.296 160.157 181.638  1.00  0.00     0.041 C 
ATOM      6  O   UNL     1     165.847 159.875 180.496  1.00  0.00    -0.550 OA
ATOM      7  O   UNL     1     167.573 160.692 181.759  1.00  0.00    -0.550 OA
ENDBRANCH   4   5
ENDBRANCH   3   4
ENDBRANCH   2   3
ENDBRANCH   1   2
BRANCH   1   8
ATOM      8  C   UNL     1     161.872 163.156 182.888  1.00  0.00     0.000 C 
BRANCH   8   9
ATOM      9  C   UNL     1     160.977 162.275 183.766  1.00  0.00    -0.000 C 
BRANCH   9  10
ATOM     10  C   UNL     1     160.361 161.129 182.948  1.00  0.00    -0.000 C 
BRANCH  10  11
ATOM     11  C   UNL     1     160.086 161.525 181.489  1.00  0.00    -0.000 C 
BRANCH  11  12
ATOM     12  C   UNL     1     160.388 160.389 180.501  1.00  0.00    -0.003 C 
ATOM     13  C   UNL     1     161.774 160.551 179.884  1.00  0.00     0.004 C 
ENDBRANCH  11  12
ENDBRANCH  10  11
ENDBRANCH   9  10
ENDBRANCH   8   9
ENDBRANCH   1   8
TORSDOF 9
ENDMDL
MODEL 3
REMARK VINA RESULT:    -3.946      2.812      5.232
REMARK INTER + INTRA:          -6.914
REMARK INTER:                  -6.017
REMARK INTRA:                  -0.897
REMARK UNBOUND:                -0.892
REMARK SMILES CCCCCCCCCCC(=O)[O-]
REMARK SMILES IDX 7 1 8 2 9 3 10 4 11 5 12 6 13 7 6 8 5 9 4 10 3 11 2 12 1 13
REMARK H PARENT
REMARK Flexibility Score: inf
ROOT
ATOM      1  C   UNL     1     161.107 161.713 183.629  1.00  0.00     0.000 C 
ENDROOT
BRANCH   1   2
ATOM      2  C   UNL     1     160.112 161.031 182.675  1.00  0.00     0.000 C 
BRANCH   2   3
ATOM      3  C   UNL     1     160.240 161.434 181.193  1.00  0.00     0.006 C 
BRANCH   3   4
ATOM      4  C   UNL     1     160.910 160.367 180.307  1.00  0.00     0.053 C 
BRANCH   4   5
ATOM      5  C   UNL     1     162.171 160.865 179.667  1.00  0.00     0.041 C 
ATOM      6  O   UNL     1     163.166 160.102 179.546  1.00  0.00    -0.550 OA
ATOM      7  O   UNL     1     162.265 162.183 179.239  1.00  0.00    -0.550 OA
ENDBRANCH   4   5
ENDBRANCH   3   4
ENDBRANCH   2   3
ENDBRANCH   1   2
BRANCH   1   8
ATOM      8  C   UNL     1     162.060 162.681 182.910  1.00  0.00     0.000 C 
BRANCH   8   9
ATOM      9  C   UNL     1     163.513 162.209 183.029  1.00  0.00    -0.000 C 
BRANCH   9  10
ATOM     10  C   UNL     1     163.589 160.676 183.102  1.00  0.00    -0.000 C 
BRANCH  10  11
ATOM     11  C   UNL     1     164.958 160.129 182.666  1.00  0.00    -0.000 C 
BRANCH  11  12
ATOM     12  C   UNL     1     166.124 161.003 183.149  1.00  0.00    -0.003 C 
ATOM     13  C   UNL     1     166.916 160.304 184.250  1.00  0.00     0.004 C 
ENDBRANCH  11  12
ENDBRANCH  10  11
ENDBRANCH   9  10
ENDBRANCH   8   9
ENDBRANCH   1   8
TORSDOF 9
ENDMDL
MODEL 4
REMARK VINA RESULT:    -3.845      3.446      6.208
REMARK INTER + INTRA:          -6.760
REMARK INTER:                  -5.992
REMARK INTRA:                  -0.768
REMARK UNBOUND:                -0.892
REMARK SMILES CCCCCCCCCCC(=O)[O-]
REMARK SMILES IDX 7 1 8 2 9 3 10 4 11 5 12 6 13 7 6 8 5 9 4 10 3 11 2 12 1 13
REMARK H PARENT
REMARK Flexibility Score: inf
ROOT
ATOM      1  C   UNL     1     163.281 160.708 183.035  1.00  0.00     0.000 C 
ENDROOT
BRANCH   1   2
ATOM      2  C   UNL     1     162.565 162.062 183.176  1.00  0.00     0.000 C 
BRANCH   2   3
ATOM      3  C   UNL     1     161.061 161.980 183.498  1.00  0.00     0.006 C 
BRANCH   3   4
ATOM      4  C   UNL     1     160.313 160.876 182.727  1.00  0.00     0.053 C 
BRANCH   4   5
ATOM      5  C   UNL     1     160.285 161.128 181.249  1.00  0.00     0.041 C 
ATOM      6  O   UNL     1     159.935 162.252 180.803  1.00  0.00    -0.550 OA
ATOM      7  O   UNL     1     160.607 160.110 180.360  1.00  0.00    -0.550 OA
ENDBRANCH   4   5
ENDBRANCH   3   4
ENDBRANCH   2   3
ENDBRANCH   1   2
BRANCH   1   8
ATOM      8  C   UNL     1     164.213 160.646 181.815  1.00  0.00     0.000 C 
BRANCH   8   9
ATOM      9  C   UNL     1     165.547 159.984 182.178  1.00  0.00    -0.000 C 
BRANCH   9  10
ATOM     10  C   UNL     1     165.886 160.207 183.660  1.00  0.00    -0.000 C 
BRANCH  10  11
ATOM     11  C   UNL     1     167.312 160.740 183.869  1.00  0.00    -0.000 C 
BRANCH  11  12
ATOM     12  C   UNL     1     167.344 162.035 184.693  1.00  0.00    -0.003 C 
ATOM     13  C   UNL     1     166.287 163.023 184.207  1.00  0.00     0.004 C 
ENDBRANCH  11  12
ENDBRANCH  10  11
ENDBRANCH   9  10
ENDBRANCH   8   9
ENDBRANCH   1   8
TORSDOF 9
ENDMDL
MODEL 5
REMARK VINA RESULT:    -3.835      2.778      4.719
REMARK INTER + INTRA:          -6.745
REMARK INTER:                  -5.508
REMARK INTRA:                  -1.237
REMARK UNBOUND:                -0.892
REMARK SMILES CCCCCCCCCCC(=O)[O-]
REMARK SMILES IDX 7 1 8 2 9 3 10 4 11 5 12 6 13 7 6 8 5 9 4 10 3 11 2 12 1 13
REMARK H PARENT
REMARK Flexibility Score: inf
ROOT
ATOM      1  C   UNL     1     160.164 161.746 181.440  1.00  0.00     0.000 C 
ENDROOT
BRANCH   1   2
ATOM      2  C   UNL     1     160.337 160.558 180.478  1.00  0.00     0.000 C 
BRANCH   2   3
ATOM      3  C   UNL     1     161.779 160.307 179.997  1.00  0.00     0.006 C 
BRANCH   3   4
ATOM      4  C   UNL     1     162.390 161.478 179.204  1.00  0.00     0.053 C 
BRANCH   4   5
ATOM      5  C   UNL     1     163.636 161.083 178.469  1.00  0.00     0.041 C 
ATOM      6  O   UNL     1     163.902 161.594 177.349  1.00  0.00    -0.550 OA
ATOM      7  O   UNL     1     164.485 160.120 179.000  1.00  0.00    -0.550 OA
ENDBRANCH   4   5
ENDBRANCH   3   4
ENDBRANCH   2   3
ENDBRANCH   1   2
BRANCH   1   8
ATOM      8  C   UNL     1     160.253 161.339 182.918  1.00  0.00     0.000 C 
BRANCH   8   9
ATOM      9  C   UNL     1     160.978 162.411 183.739  1.00  0.00    -0.000 C 
BRANCH   9  10
ATOM     10  C   UNL     1     162.064 163.105 182.901  1.00  0.00    -0.000 C 
BRANCH  10  11
ATOM     11  C   UNL     1     163.485 162.770 183.378  1.00  0.00    -0.000 C 
BRANCH  11  12
ATOM     12  C   UNL     1     164.223 161.826 182.418  1.00  0.00    -0.003 C 
ATOM     13  C   UNL     1     164.163 160.383 182.909  1.00  0.00     0.004 C 
ENDBRANCH  11  12
ENDBRANCH  10  11
ENDBRANCH   9  10
ENDBRANCH   8   9
ENDBRANCH   1   8
TORSDOF 9
ENDMDL
MODEL 6
REMARK VINA RESULT:    -3.810      0.906      1.314
REMARK INTER + INTRA:          -6.707
REMARK INTER:                  -5.913
REMARK INTRA:                  -0.793
REMARK UNBOUND:                -0.892
REMARK SMILES CCCCCCCCCCC(=O)[O-]
REMARK SMILES IDX 7 1 8 2 9 3 10 4 11 5 12 6 13 7 6 8 5 9 4 10 3 11 2 12 1 13
REMARK H PARENT
REMARK Flexibility Score: inf
ROOT
ATOM      1  C   UNL     1     162.802 162.083 183.140  1.00  0.00     0.000 C 
ENDROOT
BRANCH   1   2
ATOM      2  C   UNL     1     163.256 160.614 183.180  1.00  0.00     0.000 C 
BRANCH   2   3
ATOM      3  C   UNL     1     164.579 160.315 182.448  1.00  0.00     0.006 C 
BRANCH   3   4
ATOM      4  C   UNL     1     165.839 160.612 183.282  1.00  0.00     0.053 C 
BRANCH   4   5
ATOM      5  C   UNL     1     167.104 160.297 182.541  1.00  0.00     0.041 C 
ATOM      6  O   UNL     1     167.057 159.875 181.355  1.00  0.00    -0.550 OA
ATOM      7  O   UNL     1     168.335 160.431 183.171  1.00  0.00    -0.550 OA
ENDBRANCH   4   5
ENDBRANCH   3   4
ENDBRANCH   2   3
ENDBRANCH   1   2
BRANCH   1   8
ATOM      8  C   UNL     1     161.326 162.266 183.522  1.00  0.00     0.000 C 
BRANCH   8   9
ATOM      9  C   UNL     1     160.421 162.132 182.292  1.00  0.00    -0.000 C 
BRANCH   9  10
ATOM     10  C   UNL     1     159.906 160.692 182.142  1.00  0.00    -0.000 C 
BRANCH  10  11
ATOM     11  C   UNL     1     159.961 160.191 180.691  1.00  0.00    -0.000 C 
BRANCH  11  12
ATOM     12  C   UNL     1     160.782 161.113 179.778  1.00  0.00    -0.003 C 
ATOM     13  C   UNL     1     162.192 160.567 179.569  1.00  0.00     0.004 C 
ENDBRANCH  11  12
ENDBRANCH  10  11
ENDBRANCH   9  10
ENDBRANCH   8   9
ENDBRANCH   1   8
TORSDOF 9
ENDMDL
MODEL 7
REMARK VINA RESULT:    -3.780      1.266      2.789
REMARK INTER + INTRA:          -6.661
REMARK INTER:                  -5.552
REMARK INTRA:                  -1.109
REMARK UNBOUND:                -0.892
REMARK SMILES CCCCCCCCCCC(=O)[O-]
REMARK SMILES IDX 7 1 8 2 9 3 10 4 11 5 12 6 13 7 6 8 5 9 4 10 3 11 2 12 1 13
REMARK H PARENT
REMARK Flexibility Score: inf
ROOT
ATOM      1  C   UNL     1     162.398 161.247 180.122  1.00  0.00     0.000 C 
ENDROOT
BRANCH   1   2
ATOM      2  C   UNL     1     163.726 160.678 180.650  1.00  0.00     0.000 C 
BRANCH   2   3
ATOM      3  C   UNL     1     163.990 160.911 182.151  1.00  0.00     0.006 C 
BRANCH   3   4
ATOM      4  C   UNL     1     165.092 160.012 182.741  1.00  0.00     0.053 C 
BRANCH   4   5
ATOM      5  C   UNL     1     166.469 160.473 182.367  1.00  0.00     0.041 C 
ATOM      6  O   UNL     1     167.116 159.875 181.467  1.00  0.00    -0.550 OA
ATOM      7  O   UNL     1     167.056 161.537 183.040  1.00  0.00    -0.550 OA
ENDBRANCH   4   5
ENDBRANCH   3   4
ENDBRANCH   2   3
ENDBRANCH   1   2
BRANCH   1   8
ATOM      8  C   UNL     1     161.224 160.269 180.273  1.00  0.00     0.000 C 
BRANCH   8   9
ATOM      9  C   UNL     1     160.088 160.897 181.088  1.00  0.00    -0.000 C 
BRANCH   9  10
ATOM     10  C   UNL     1     160.158 160.458 182.559  1.00  0.00    -0.000 C 
BRANCH  10  11
ATOM     11  C   UNL     1     160.605 161.592 183.495  1.00  0.00    -0.000 C 
BRANCH  11  12
ATOM     12  C   UNL     1     160.413 162.982 182.872  1.00  0.00    -0.003 C 
ATOM     13  C   UNL     1     161.735 163.740 182.799  1.00  0.00     0.004 C 
ENDBRANCH  11  12
ENDBRANCH  10  11
ENDBRANCH   9  10
ENDBRANCH   8   9
ENDBRANCH   1   8
TORSDOF 9
ENDMDL
MODEL 8
REMARK VINA RESULT:    -3.744      2.383      3.710
REMARK INTER + INTRA:          -6.606
REMARK INTER:                  -5.278
REMARK INTRA:                  -1.328
REMARK UNBOUND:                -0.892
REMARK SMILES CCCCCCCCCCC(=O)[O-]
REMARK SMILES IDX 7 1 8 2 9 3 10 4 11 5 12 6 13 7 6 8 5 9 4 10 3 11 2 12 1 13
REMARK H PARENT
REMARK Flexibility Score: inf
ROOT
ATOM      1  C   UNL     1     160.343 160.598 182.583  1.00  0.00     0.000 C 
ENDROOT
BRANCH   1   2
ATOM      2  C   UNL     1     160.817 161.823 183.384  1.00  0.00     0.000 C 
BRANCH   2   3
ATOM      3  C   UNL     1     162.316 162.157 183.246  1.00  0.00     0.006 C 
BRANCH   3   4
ATOM      4  C   UNL     1     163.225 160.921 183.109  1.00  0.00     0.053 C 
BRANCH   4   5
ATOM      5  C   UNL     1     164.256 161.085 182.034  1.00  0.00     0.041 C 
ATOM      6  O   UNL     1     164.646 162.234 181.697  1.00  0.00    -0.550 OA
ATOM      7  O   UNL     1     164.760 159.971 181.372  1.00  0.00    -0.550 OA
ENDBRANCH   4   5
ENDBRANCH   3   4
ENDBRANCH   2   3
ENDBRANCH   1   2
BRANCH   1   8
ATOM      8  C   UNL     1     159.902 160.949 181.154  1.00  0.00     0.000 C 
BRANCH   8   9
ATOM      9  C   UNL     1     161.008 160.622 180.144  1.00  0.00    -0.000 C 
BRANCH   9  10
ATOM     10  C   UNL     1     161.669 161.905 179.617  1.00  0.00    -0.000 C 
BRANCH  10  11
ATOM     11  C   UNL     1     160.676 163.071 179.484  1.00  0.00    -0.000 C 
BRANCH  11  12
ATOM     12  C   UNL     1     161.187 164.359 180.145  1.00  0.00    -0.003 C 
ATOM     13  C   UNL     1     160.323 164.743 181.343  1.00  0.00     0.004 C 
ENDBRANCH  11  12
ENDBRANCH  10  11
ENDBRANCH   9  10
ENDBRANCH   8   9
ENDBRANCH   1   8
TORSDOF 9
ENDMDL
MODEL 9
REMARK VINA RESULT:    -3.735      1.873      2.990
REMARK INTER + INTRA:          -6.592
REMARK INTER:                  -5.245
REMARK INTRA:                  -1.346
REMARK UNBOUND:                -0.892
REMARK SMILES CCCCCCCCCCC(=O)[O-]
REMARK SMILES IDX 7 1 8 2 9 3 10 4 11 5 12 6 13 7 6 8 5 9 4 10 3 11 2 12 1 13
REMARK H PARENT
REMARK Flexibility Score: inf
ROOT
ATOM      1  C   UNL     1     163.460 161.936 180.489  1.00  0.00     0.000 C 
ENDROOT
BRANCH   1   2
ATOM      2  C   UNL     1     163.804 160.735 181.387  1.00  0.00     0.000 C 
BRANCH   2   3
ATOM      3  C   UNL     1     164.037 161.071 182.872  1.00  0.00     0.006 C 
BRANCH   3   4
ATOM      4  C   UNL     1     164.091 162.580 183.174  1.00  0.00     0.053 C 
BRANCH   4   5
ATOM      5  C   UNL     1     165.462 163.036 183.574  1.00  0.00     0.041 C 
ATOM      6  O   UNL     1     165.750 164.262 183.573  1.00  0.00    -0.550 OA
ATOM      7  O   UNL     1     166.438 162.105 183.908  1.00  0.00    -0.550 OA
ENDBRANCH   4   5
ENDBRANCH   3   4
ENDBRANCH   2   3
ENDBRANCH   1   2
BRANCH   1   8
ATOM      8  C   UNL     1     162.152 161.745 179.707  1.00  0.00     0.000 C 
BRANCH   8   9
ATOM      9  C   UNL     1     161.349 160.563 180.262  1.00  0.00    -0.000 C 
BRANCH   9  10
ATOM     10  C   UNL     1     160.140 161.052 181.074  1.00  0.00    -0.000 C 
BRANCH  10  11
ATOM     11  C   UNL     1     160.202 160.621 182.547  1.00  0.00    -0.000 C 
BRANCH  11  12
ATOM     12  C   UNL     1     160.494 161.793 183.494  1.00  0.00    -0.003 C 
ATOM     13  C   UNL     1     160.453 163.125 182.750  1.00  0.00     0.004 C 
ENDBRANCH  11  12
ENDBRANCH  10  11
ENDBRANCH   9  10
ENDBRANCH   8   9
ENDBRANCH   1   8
TORSDOF 9
ENDMDL
