MODEL 1
REMARK VINA RESULT:    -4.924      0.000      0.000
REMARK INTER + INTRA:          -5.308
REMARK INTER:                  -5.212
REMARK INTRA:                  -0.096
REMARK UNBOUND:                -0.096
REMARK SMILES C=C(C)[C@@H]1CC=C(C)C(=O)C1
REMARK SMILES IDX 8 1 7 2 6 3 5 4 4 5 11 6 9 7 10 8 2 9 1 10 3 11
REMARK H PARENT
REMARK Flexibility Score: inf
ROOT
ATOM      1  C   UNL     1     -22.741  13.589 -30.385  1.00  0.00     0.048 C 
ATOM      2  C   UNL     1     -24.208  13.270 -30.292  1.00  0.00    -0.012 C 
ATOM      3  C   UNL     1     -25.117  14.189 -30.662  1.00  0.00    -0.019 C 
ATOM      4  C   UNL     1     -26.597  13.916 -30.608  1.00  0.00     0.036 C 
ATOM      5  C   UNL     1     -26.943  12.969 -29.444  1.00  0.00     0.025 C 
ATOM      6  C   UNL     1     -26.114  11.674 -29.543  1.00  0.00     0.089 C 
ATOM      7  C   UNL     1     -24.650  11.993 -29.680  1.00  0.00     0.158 C 
ATOM      8  O   UNL     1     -23.800  11.144 -29.299  1.00  0.00    -0.295 OA
ENDROOT
BRANCH   5   9
ATOM      9  C   UNL     1     -28.435  12.670 -29.392  1.00  0.00    -0.077 C 
ATOM     10  C   UNL     1     -28.919  11.820 -28.473  1.00  0.00     0.008 C 
ATOM     11  C   UNL     1     -29.399  13.312 -30.358  1.00  0.00     0.039 C 
ENDBRANCH   5   9
TORSDOF 1
ENDMDL
MODEL 2
REMARK VINA RESULT:    -4.854      2.439      4.241
REMARK INTER + INTRA:          -5.234
REMARK INTER:                  -5.135
REMARK INTRA:                  -0.098
REMARK UNBOUND:                -0.096
REMARK SMILES C=C(C)[C@@H]1CC=C(C)C(=O)C1
REMARK SMILES IDX 8 1 7 2 6 3 5 4 4 5 11 6 9 7 10 8 2 9 1 10 3 11
REMARK H PARENT
REMARK Flexibility Score: inf
ROOT
ATOM      1  C   UNL     1     -29.775  14.374 -31.125  1.00  0.00     0.048 C 
ATOM      2  C   UNL     1     -28.931  13.332 -30.443  1.00  0.00    -0.012 C 
ATOM      3  C   UNL     1     -29.375  12.741 -29.320  1.00  0.00    -0.019 C 
ATOM      4  C   UNL     1     -28.579  11.679 -28.609  1.00  0.00     0.036 C 
ATOM      5  C   UNL     1     -27.067  11.927 -28.759  1.00  0.00     0.025 C 
ATOM      6  C   UNL     1     -26.688  12.040 -30.247  1.00  0.00     0.089 C 
ATOM      7  C   UNL     1     -27.561  13.049 -30.940  1.00  0.00     0.158 C 
ATOM      8  O   UNL     1     -27.129  13.629 -31.972  1.00  0.00    -0.295 OA
ENDROOT
BRANCH   5   9
ATOM      9  C   UNL     1     -26.253  10.847 -28.058  1.00  0.00    -0.077 C 
ATOM     10  C   UNL     1     -26.874   9.875 -27.372  1.00  0.00     0.008 C 
ATOM     11  C   UNL     1     -24.745  10.839 -28.113  1.00  0.00     0.039 C 
ENDBRANCH   5   9
TORSDOF 1
ENDMDL
MODEL 3
REMARK VINA RESULT:    -4.800      7.825     11.067
REMARK INTER + INTRA:          -5.176
REMARK INTER:                  -5.078
REMARK INTRA:                  -0.098
REMARK UNBOUND:                -0.096
REMARK SMILES C=C(C)[C@@H]1CC=C(C)C(=O)C1
REMARK SMILES IDX 8 1 7 2 6 3 5 4 4 5 11 6 9 7 10 8 2 9 1 10 3 11
REMARK H PARENT
REMARK Flexibility Score: inf
ROOT
ATOM      1  C   UNL     1     -18.870  11.748 -29.817  1.00  0.00     0.048 C 
ATOM      2  C   UNL     1     -17.700  12.599 -30.225  1.00  0.00    -0.012 C 
ATOM      3  C   UNL     1     -17.442  12.803 -31.528  1.00  0.00    -0.019 C 
ATOM      4  C   UNL     1     -16.295  13.661 -31.991  1.00  0.00     0.036 C 
ATOM      5  C   UNL     1     -15.108  13.573 -31.014  1.00  0.00     0.025 C 
ATOM      6  C   UNL     1     -15.563  13.928 -29.587  1.00  0.00     0.089 C 
ATOM      7  C   UNL     1     -16.761  13.109 -29.194  1.00  0.00     0.158 C 
ATOM      8  O   UNL     1     -16.981  12.888 -27.973  1.00  0.00    -0.295 OA
ENDROOT
BRANCH   5   9
ATOM      9  C   UNL     1     -13.949  14.453 -31.464  1.00  0.00    -0.077 C 
ATOM     10  C   UNL     1     -13.727  15.632 -30.861  1.00  0.00     0.008 C 
ATOM     11  C   UNL     1     -13.031  14.032 -32.584  1.00  0.00     0.039 C 
ENDBRANCH   5   9
TORSDOF 1
ENDMDL
MODEL 4
REMARK VINA RESULT:    -4.741      1.491      2.762
REMARK INTER + INTRA:          -5.114
REMARK INTER:                  -5.019
REMARK INTRA:                  -0.096
REMARK UNBOUND:                -0.096
REMARK SMILES C=C(C)[C@@H]1CC=C(C)C(=O)C1
REMARK SMILES IDX 8 1 7 2 6 3 5 4 4 5 11 6 9 7 10 8 2 9 1 10 3 11
REMARK H PARENT
REMARK Flexibility Score: inf
ROOT
ATOM      1  C   UNL     1     -24.679   9.988 -27.451  1.00  0.00     0.048 C 
ATOM      2  C   UNL     1     -25.591  10.975 -28.125  1.00  0.00    -0.012 C 
ATOM      3  C   UNL     1     -26.891  11.025 -27.786  1.00  0.00    -0.019 C 
ATOM      4  C   UNL     1     -27.844  12.006 -28.416  1.00  0.00     0.036 C 
ATOM      5  C   UNL     1     -27.455  12.293 -29.879  1.00  0.00     0.025 C 
ATOM      6  C   UNL     1     -25.992  12.767 -29.960  1.00  0.00     0.089 C 
ATOM      7  C   UNL     1     -25.084  11.803 -29.247  1.00  0.00     0.158 C 
ATOM      8  O   UNL     1     -23.874  11.732 -29.591  1.00  0.00    -0.295 OA
ENDROOT
BRANCH   5   9
ATOM      9  C   UNL     1     -28.402  13.300 -30.520  1.00  0.00    -0.077 C 
ATOM     10  C   UNL     1     -29.719  13.242 -30.264  1.00  0.00     0.008 C 
ATOM     11  C   UNL     1     -27.895  14.375 -31.448  1.00  0.00     0.039 C 
ENDBRANCH   5   9
TORSDOF 1
ENDMDL
MODEL 5
REMARK VINA RESULT:    -4.678      1.836      2.600
REMARK INTER + INTRA:          -5.048
REMARK INTER:                  -4.949
REMARK INTRA:                  -0.098
REMARK UNBOUND:                -0.096
REMARK SMILES C=C(C)[C@@H]1CC=C(C)C(=O)C1
REMARK SMILES IDX 8 1 7 2 6 3 5 4 4 5 11 6 9 7 10 8 2 9 1 10 3 11
REMARK H PARENT
REMARK Flexibility Score: inf
ROOT
ATOM      1  C   UNL     1     -23.734  10.247 -27.626  1.00  0.00     0.048 C 
ATOM      2  C   UNL     1     -24.870  10.856 -28.402  1.00  0.00    -0.012 C 
ATOM      3  C   UNL     1     -24.612  11.692 -29.422  1.00  0.00    -0.019 C 
ATOM      4  C   UNL     1     -25.709  12.314 -30.243  1.00  0.00     0.036 C 
ATOM      5  C   UNL     1     -26.965  12.566 -29.388  1.00  0.00     0.025 C 
ATOM      6  C   UNL     1     -27.416  11.263 -28.702  1.00  0.00     0.089 C 
ATOM      7  C   UNL     1     -26.270  10.631 -27.963  1.00  0.00     0.158 C 
ATOM      8  O   UNL     1     -26.513   9.875 -26.983  1.00  0.00    -0.295 OA
ENDROOT
BRANCH   5   9
ATOM      9  C   UNL     1     -28.089  13.178 -30.214  1.00  0.00    -0.077 C 
ATOM     10  C   UNL     1     -29.369  12.899 -29.919  1.00  0.00     0.008 C 
ATOM     11  C   UNL     1     -27.801  14.101 -31.372  1.00  0.00     0.039 C 
ENDBRANCH   5   9
TORSDOF 1
ENDMDL
MODEL 6
REMARK VINA RESULT:    -4.637      9.839     12.212
REMARK INTER + INTRA:          -5.004
REMARK INTER:                  -4.905
REMARK INTRA:                  -0.099
REMARK UNBOUND:                -0.096
REMARK SMILES C=C(C)[C@@H]1CC=C(C)C(=O)C1
REMARK SMILES IDX 8 1 7 2 6 3 5 4 4 5 11 6 9 7 10 8 2 9 1 10 3 11
REMARK H PARENT
REMARK Flexibility Score: inf
ROOT
ATOM      1  C   UNL     1     -10.953  14.755 -32.612  1.00  0.00     0.048 C 
ATOM      2  C   UNL     1     -12.377  14.517 -32.191  1.00  0.00    -0.012 C 
ATOM      3  C   UNL     1     -12.876  15.165 -31.124  1.00  0.00    -0.019 C 
ATOM      4  C   UNL     1     -14.299  14.978 -30.670  1.00  0.00     0.036 C 
ATOM      5  C   UNL     1     -14.787  13.544 -30.952  1.00  0.00     0.025 C 
ATOM      6  C   UNL     1     -14.599  13.199 -32.441  1.00  0.00     0.089 C 
ATOM      7  C   UNL     1     -13.187  13.478 -32.875  1.00  0.00     0.158 C 
ATOM      8  O   UNL     1     -12.708  12.843 -33.853  1.00  0.00    -0.295 OA
ENDROOT
BRANCH   5   9
ATOM      9  C   UNL     1     -16.232  13.350 -30.514  1.00  0.00    -0.077 C 
ATOM     10  C   UNL     1     -17.138  12.866 -31.379  1.00  0.00     0.008 C 
ATOM     11  C   UNL     1     -16.683  13.692 -29.116  1.00  0.00     0.039 C 
ENDBRANCH   5   9
TORSDOF 1
ENDMDL
MODEL 7
REMARK VINA RESULT:    -4.616     10.299     13.590
REMARK INTER + INTRA:          -4.981
REMARK INTER:                  -4.883
REMARK INTRA:                  -0.098
REMARK UNBOUND:                -0.096
REMARK SMILES C=C(C)[C@@H]1CC=C(C)C(=O)C1
REMARK SMILES IDX 8 1 7 2 6 3 5 4 4 5 11 6 9 7 10 8 2 9 1 10 3 11
REMARK H PARENT
REMARK Flexibility Score: inf
ROOT
ATOM      1  C   UNL     1     -16.205  14.016 -29.663  1.00  0.00     0.048 C 
ATOM      2  C   UNL     1     -14.883  13.932 -30.375  1.00  0.00    -0.012 C 
ATOM      3  C   UNL     1     -14.220  15.058 -30.690  1.00  0.00    -0.019 C 
ATOM      4  C   UNL     1     -12.885  15.032 -31.385  1.00  0.00     0.036 C 
ATOM      5  C   UNL     1     -12.783  13.829 -32.342  1.00  0.00     0.025 C 
ATOM      6  C   UNL     1     -13.073  12.519 -31.586  1.00  0.00     0.089 C 
ATOM      7  C   UNL     1     -14.374  12.617 -30.838  1.00  0.00     0.158 C 
ATOM      8  O   UNL     1     -15.012  11.562 -30.575  1.00  0.00    -0.295 OA
ENDROOT
BRANCH   5   9
ATOM      9  C   UNL     1     -11.429  13.782 -33.037  1.00  0.00    -0.077 C 
ATOM     10  C   UNL     1     -10.620  14.853 -33.007  1.00  0.00     0.008 C 
ATOM     11  C   UNL     1     -10.963  12.548 -33.768  1.00  0.00     0.039 C 
ENDBRANCH   5   9
TORSDOF 1
ENDMDL
MODEL 8
REMARK VINA RESULT:    -4.608      8.817     11.354
REMARK INTER + INTRA:          -4.973
REMARK INTER:                  -4.886
REMARK INTRA:                  -0.087
REMARK UNBOUND:                -0.096
REMARK SMILES C=C(C)[C@@H]1CC=C(C)C(=O)C1
REMARK SMILES IDX 8 1 7 2 6 3 5 4 4 5 11 6 9 7 10 8 2 9 1 10 3 11
REMARK H PARENT
REMARK Flexibility Score: inf
ROOT
ATOM      1  C   UNL     1     -12.123  14.750 -32.317  1.00  0.00     0.048 C 
ATOM      2  C   UNL     1     -13.299  14.163 -31.586  1.00  0.00    -0.012 C 
ATOM      3  C   UNL     1     -13.585  12.856 -31.719  1.00  0.00    -0.019 C 
ATOM      4  C   UNL     1     -14.738  12.213 -30.996  1.00  0.00     0.036 C 
ATOM      5  C   UNL     1     -15.903  13.204 -30.820  1.00  0.00     0.025 C 
ATOM      6  C   UNL     1     -15.415  14.485 -30.117  1.00  0.00     0.089 C 
ATOM      7  C   UNL     1     -14.212  15.049 -30.821  1.00  0.00     0.158 C 
ATOM      8  O   UNL     1     -13.967  16.281 -30.726  1.00  0.00    -0.295 OA
ENDROOT
BRANCH   5   9
ATOM      9  C   UNL     1     -17.068  12.569 -30.072  1.00  0.00    -0.077 C 
ATOM     10  C   UNL     1     -18.170  12.191 -30.740  1.00  0.00     0.008 C 
ATOM     11  C   UNL     1     -17.019  12.351 -28.580  1.00  0.00     0.039 C 
ENDBRANCH   5   9
TORSDOF 1
ENDMDL
MODEL 9
REMARK VINA RESULT:    -4.556      2.301      4.304
REMARK INTER + INTRA:          -4.918
REMARK INTER:                  -4.819
REMARK INTRA:                  -0.099
REMARK UNBOUND:                -0.096
REMARK SMILES C=C(C)[C@@H]1CC=C(C)C(=O)C1
REMARK SMILES IDX 8 1 7 2 6 3 5 4 4 5 11 6 9 7 10 8 2 9 1 10 3 11
REMARK H PARENT
REMARK Flexibility Score: inf
ROOT
ATOM      1  C   UNL     1     -29.100  13.617 -30.726  1.00  0.00     0.048 C 
ATOM      2  C   UNL     1     -27.967  12.935 -30.012  1.00  0.00    -0.012 C 
ATOM      3  C   UNL     1     -26.706  13.097 -30.448  1.00  0.00    -0.019 C 
ATOM      4  C   UNL     1     -25.533  12.452 -29.760  1.00  0.00     0.036 C 
ATOM      5  C   UNL     1     -25.928  11.096 -29.146  1.00  0.00     0.025 C 
ATOM      6  C   UNL     1     -27.135  11.266 -28.205  1.00  0.00     0.089 C 
ATOM      7  C   UNL     1     -28.254  11.988 -28.905  1.00  0.00     0.158 C 
ATOM      8  O   UNL     1     -29.439  11.806 -28.517  1.00  0.00    -0.295 OA
ENDROOT
BRANCH   5   9
ATOM      9  C   UNL     1     -24.753  10.444 -28.430  1.00  0.00    -0.077 C 
ATOM     10  C   UNL     1     -24.929   9.877 -27.226  1.00  0.00     0.008 C 
ATOM     11  C   UNL     1     -23.375  10.416 -29.044  1.00  0.00     0.039 C 
ENDBRANCH   5   9
TORSDOF 1
ENDMDL
