MODEL 1
REMARK VINA RESULT:    -5.144      0.000      0.000
REMARK INTER + INTRA:          -5.966
REMARK INTER:                  -5.746
REMARK INTRA:                  -0.220
REMARK UNBOUND:                -0.220
REMARK SMILES CC(C)c1ccc(C(=O)[O-])cc1
REMARK SMILES IDX 7 1 6 2 11 3 5 4 12 5 4 6 8 7 9 8 10 9 2 10 1 11 3 12
REMARK H PARENT
REMARK Flexibility Score: inf
ROOT
ATOM      1  C   UNL     1     -15.651  80.873  75.892  1.00  0.00    -0.003 A 
ATOM      2  C   UNL     1     -14.747  81.242  76.904  1.00  0.00     0.010 A 
ATOM      3  C   UNL     1     -15.984  81.812  74.902  1.00  0.00     0.010 A 
ATOM      4  C   UNL     1     -14.190  82.524  76.924  1.00  0.00     0.004 A 
ATOM      5  C   UNL     1     -15.427  83.093  74.922  1.00  0.00     0.004 A 
ATOM      6  C   UNL     1     -14.522  83.464  75.934  1.00  0.00    -0.045 A 
ENDROOT
BRANCH   1   7
ATOM      7  C   UNL     1     -16.244  79.518  75.867  1.00  0.00     0.071 C 
ATOM      8  O   UNL     1     -16.242  78.799  76.901  1.00  0.00    -0.545 OA
ATOM      9  O   UNL     1     -16.811  79.019  74.700  1.00  0.00    -0.545 OA
ENDBRANCH   1   7
BRANCH   6  10
ATOM     10  C   UNL     1     -13.909  84.852  75.969  1.00  0.00     0.013 C 
ATOM     11  C   UNL     1     -14.941  85.921  75.593  1.00  0.00     0.012 C 
ATOM     12  C   UNL     1     -13.284  85.145  77.338  1.00  0.00     0.012 C 
ENDBRANCH   6  10
TORSDOF 2
ENDMDL
MODEL 2
REMARK VINA RESULT:    -5.110     11.931     14.096
REMARK INTER + INTRA:          -5.928
REMARK INTER:                  -5.708
REMARK INTRA:                  -0.220
REMARK UNBOUND:                -0.220
REMARK SMILES CC(C)c1ccc(C(=O)[O-])cc1
REMARK SMILES IDX 7 1 6 2 11 3 5 4 12 5 4 6 8 7 9 8 10 9 2 10 1 11 3 12
REMARK H PARENT
REMARK Flexibility Score: inf
ROOT
ATOM      1  C   UNL     1     -15.345  92.629  85.701  1.00  0.00    -0.003 A 
ATOM      2  C   UNL     1     -15.710  91.690  86.682  1.00  0.00     0.010 A 
ATOM      3  C   UNL     1     -14.467  92.237  84.676  1.00  0.00     0.010 A 
ATOM      4  C   UNL     1     -15.205  90.388  86.638  1.00  0.00     0.004 A 
ATOM      5  C   UNL     1     -13.965  90.935  84.634  1.00  0.00     0.004 A 
ATOM      6  C   UNL     1     -14.328  89.994  85.614  1.00  0.00    -0.045 A 
ENDROOT
BRANCH   1   7
ATOM      7  C   UNL     1     -15.876  94.009  85.743  1.00  0.00     0.071 C 
ATOM      8  O   UNL     1     -15.883  94.726  84.707  1.00  0.00    -0.545 OA
ATOM      9  O   UNL     1     -16.377  94.535  86.929  1.00  0.00    -0.545 OA
ENDBRANCH   1   7
BRANCH   6  10
ATOM     10  C   UNL     1     -13.789  88.576  85.580  1.00  0.00     0.013 C 
ATOM     11  C   UNL     1     -14.875  87.563  85.959  1.00  0.00     0.012 C 
ATOM     12  C   UNL     1     -13.183  88.248  84.209  1.00  0.00     0.012 C 
ENDBRANCH   6  10
TORSDOF 2
ENDMDL
MODEL 3
REMARK VINA RESULT:    -4.770     16.809     17.528
REMARK INTER + INTRA:          -5.548
REMARK INTER:                  -5.332
REMARK INTRA:                  -0.216
REMARK UNBOUND:                -0.220
REMARK SMILES CC(C)c1ccc(C(=O)[O-])cc1
REMARK SMILES IDX 7 1 6 2 11 3 5 4 12 5 4 6 8 7 9 8 10 9 2 10 1 11 3 12
REMARK H PARENT
REMARK Flexibility Score: inf
ROOT
ATOM      1  C   UNL     1     -26.983  90.023  86.595  1.00  0.00    -0.003 A 
ATOM      2  C   UNL     1     -26.055  89.080  87.070  1.00  0.00     0.010 A 
ATOM      3  C   UNL     1     -27.937  89.620  85.646  1.00  0.00     0.010 A 
ATOM      4  C   UNL     1     -26.082  87.763  86.604  1.00  0.00     0.004 A 
ATOM      5  C   UNL     1     -27.963  88.303  85.181  1.00  0.00     0.004 A 
ATOM      6  C   UNL     1     -27.035  87.358  85.655  1.00  0.00    -0.045 A 
ENDROOT
BRANCH   1   7
ATOM      7  C   UNL     1     -26.959  91.419  87.086  1.00  0.00     0.071 C 
ATOM      8  O   UNL     1     -26.044  91.811  87.857  1.00  0.00    -0.545 OA
ATOM      9  O   UNL     1     -27.946  92.318  86.700  1.00  0.00    -0.545 OA
ENDBRANCH   1   7
BRANCH   6  10
ATOM     10  C   UNL     1     -27.052  85.924  85.159  1.00  0.00     0.013 C 
ATOM     11  C   UNL     1     -28.269  85.664  84.264  1.00  0.00     0.012 C 
ATOM     12  C   UNL     1     -25.748  85.577  84.430  1.00  0.00     0.012 C 
ENDBRANCH   6  10
TORSDOF 2
ENDMDL
MODEL 4
REMARK VINA RESULT:    -4.749     16.768     17.559
REMARK INTER + INTRA:          -5.525
REMARK INTER:                  -5.308
REMARK INTRA:                  -0.217
REMARK UNBOUND:                -0.220
REMARK SMILES CC(C)c1ccc(C(=O)[O-])cc1
REMARK SMILES IDX 7 1 6 2 11 3 5 4 12 5 4 6 8 7 9 8 10 9 2 10 1 11 3 12
REMARK H PARENT
REMARK Flexibility Score: inf
ROOT
ATOM      1  C   UNL     1     -26.978  90.028  86.555  1.00  0.00    -0.003 A 
ATOM      2  C   UNL     1     -27.920  89.598  85.604  1.00  0.00     0.010 A 
ATOM      3  C   UNL     1     -26.035  89.107  87.043  1.00  0.00     0.010 A 
ATOM      4  C   UNL     1     -27.919  88.275  85.153  1.00  0.00     0.004 A 
ATOM      5  C   UNL     1     -26.035  87.786  86.591  1.00  0.00     0.004 A 
ATOM      6  C   UNL     1     -26.977  87.354  85.639  1.00  0.00    -0.045 A 
ENDROOT
BRANCH   1   7
ATOM      7  C   UNL     1     -26.976  91.427  87.036  1.00  0.00     0.071 C 
ATOM      8  O   UNL     1     -27.805  92.261  86.585  1.00  0.00    -0.545 OA
ATOM      9  O   UNL     1     -26.057  91.840  87.995  1.00  0.00    -0.545 OA
ENDBRANCH   1   7
BRANCH   6  10
ATOM     10  C   UNL     1     -26.987  85.921  85.140  1.00  0.00     0.013 C 
ATOM     11  C   UNL     1     -28.224  85.647  84.276  1.00  0.00     0.012 C 
ATOM     12  C   UNL     1     -25.698  85.593  84.377  1.00  0.00     0.012 C 
ENDBRANCH   6  10
TORSDOF 2
ENDMDL
MODEL 5
REMARK VINA RESULT:    -4.748     11.688     12.412
REMARK INTER + INTRA:          -5.524
REMARK INTER:                  -5.308
REMARK INTRA:                  -0.216
REMARK UNBOUND:                -0.220
REMARK SMILES CC(C)c1ccc(C(=O)[O-])cc1
REMARK SMILES IDX 7 1 6 2 11 3 5 4 12 5 4 6 8 7 9 8 10 9 2 10 1 11 3 12
REMARK H PARENT
REMARK Flexibility Score: inf
ROOT
ATOM      1  C   UNL     1     -27.025  84.117  75.040  1.00  0.00    -0.003 A 
ATOM      2  C   UNL     1     -28.015  84.616  75.906  1.00  0.00     0.010 A 
ATOM      3  C   UNL     1     -26.013  84.984  74.593  1.00  0.00     0.010 A 
ATOM      4  C   UNL     1     -27.991  85.952  76.315  1.00  0.00     0.004 A 
ATOM      5  C   UNL     1     -25.990  86.319  75.004  1.00  0.00     0.004 A 
ATOM      6  C   UNL     1     -26.979  86.819  75.870  1.00  0.00    -0.045 A 
ENDROOT
BRANCH   1   7
ATOM      7  C   UNL     1     -27.046  82.704  74.603  1.00  0.00     0.071 C 
ATOM      8  O   UNL     1     -26.343  82.323  73.630  1.00  0.00    -0.545 OA
ATOM      9  O   UNL     1     -27.843  81.775  75.263  1.00  0.00    -0.545 OA
ENDBRANCH   1   7
BRANCH   6  10
ATOM     10  C   UNL     1     -26.967  88.267  76.323  1.00  0.00     0.013 C 
ATOM     11  C   UNL     1     -28.238  88.611  77.108  1.00  0.00     0.012 C 
ATOM     12  C   UNL     1     -25.710  88.577  77.146  1.00  0.00     0.012 C 
ENDBRANCH   6  10
TORSDOF 2
ENDMDL
MODEL 6
REMARK VINA RESULT:    -4.706     15.581     16.223
REMARK INTER + INTRA:          -5.477
REMARK INTER:                  -5.259
REMARK INTRA:                  -0.217
REMARK UNBOUND:                -0.220
REMARK SMILES CC(C)c1ccc(C(=O)[O-])cc1
REMARK SMILES IDX 7 1 6 2 11 3 5 4 12 5 4 6 8 7 9 8 10 9 2 10 1 11 3 12
REMARK H PARENT
REMARK Flexibility Score: inf
ROOT
ATOM      1  C   UNL     1     -25.823  87.183  85.591  1.00  0.00    -0.003 A 
ATOM      2  C   UNL     1     -27.121  87.687  85.788  1.00  0.00     0.010 A 
ATOM      3  C   UNL     1     -25.655  86.013  84.830  1.00  0.00     0.010 A 
ATOM      4  C   UNL     1     -28.226  87.033  85.236  1.00  0.00     0.004 A 
ATOM      5  C   UNL     1     -26.761  85.362  84.279  1.00  0.00     0.004 A 
ATOM      6  C   UNL     1     -28.060  85.864  84.475  1.00  0.00    -0.045 A 
ENDROOT
BRANCH   1   7
ATOM      7  C   UNL     1     -24.650  87.871  86.173  1.00  0.00     0.071 C 
ATOM      8  O   UNL     1     -23.539  87.283  86.258  1.00  0.00    -0.545 OA
ATOM      9  O   UNL     1     -24.757  89.178  86.634  1.00  0.00    -0.545 OA
ENDBRANCH   1   7
BRANCH   6  10
ATOM     10  C   UNL     1     -29.270  85.166  83.882  1.00  0.00     0.013 C 
ATOM     11  C   UNL     1     -28.855  83.931  83.075  1.00  0.00     0.012 C 
ATOM     12  C   UNL     1     -30.284  84.798  84.972  1.00  0.00     0.012 C 
ENDBRANCH   6  10
TORSDOF 2
ENDMDL
MODEL 7
REMARK VINA RESULT:    -4.697     15.564     16.199
REMARK INTER + INTRA:          -5.467
REMARK INTER:                  -5.250
REMARK INTRA:                  -0.217
REMARK UNBOUND:                -0.220
REMARK SMILES CC(C)c1ccc(C(=O)[O-])cc1
REMARK SMILES IDX 7 1 6 2 11 3 5 4 12 5 4 6 8 7 9 8 10 9 2 10 1 11 3 12
REMARK H PARENT
REMARK Flexibility Score: inf
ROOT
ATOM      1  C   UNL     1     -25.812  87.181  85.583  1.00  0.00    -0.003 A 
ATOM      2  C   UNL     1     -25.650  86.007  84.825  1.00  0.00     0.010 A 
ATOM      3  C   UNL     1     -27.106  87.690  85.780  1.00  0.00     0.010 A 
ATOM      4  C   UNL     1     -26.760  85.359  84.277  1.00  0.00     0.004 A 
ATOM      5  C   UNL     1     -28.215  87.041  85.231  1.00  0.00     0.004 A 
ATOM      6  C   UNL     1     -28.055  85.866  84.473  1.00  0.00    -0.045 A 
ENDROOT
BRANCH   1   7
ATOM      7  C   UNL     1     -24.640  87.871  86.165  1.00  0.00     0.071 C 
ATOM      8  O   UNL     1     -23.529  87.284  86.253  1.00  0.00    -0.545 OA
ATOM      9  O   UNL     1     -24.748  89.179  86.623  1.00  0.00    -0.545 OA
ENDBRANCH   1   7
BRANCH   6  10
ATOM     10  C   UNL     1     -29.250  85.151  83.872  1.00  0.00     0.013 C 
ATOM     11  C   UNL     1     -28.811  83.928  83.060  1.00  0.00     0.012 C 
ATOM     12  C   UNL     1     -30.262  84.759  84.956  1.00  0.00     0.012 C 
ENDBRANCH   6  10
TORSDOF 2
ENDMDL
MODEL 8
REMARK VINA RESULT:    -4.680     12.459     13.382
REMARK INTER + INTRA:          -5.447
REMARK INTER:                  -5.235
REMARK INTRA:                  -0.213
REMARK UNBOUND:                -0.220
REMARK SMILES CC(C)c1ccc(C(=O)[O-])cc1
REMARK SMILES IDX 7 1 6 2 11 3 5 4 12 5 4 6 8 7 9 8 10 9 2 10 1 11 3 12
REMARK H PARENT
REMARK Flexibility Score: inf
ROOT
ATOM      1  C   UNL     1     -25.717  86.934  76.210  1.00  0.00    -0.003 A 
ATOM      2  C   UNL     1     -27.003  86.401  76.007  1.00  0.00     0.010 A 
ATOM      3  C   UNL     1     -25.588  88.163  76.879  1.00  0.00     0.010 A 
ATOM      4  C   UNL     1     -28.133  87.085  76.463  1.00  0.00     0.004 A 
ATOM      5  C   UNL     1     -26.719  88.845  77.334  1.00  0.00     0.004 A 
ATOM      6  C   UNL     1     -28.005  88.313  77.132  1.00  0.00    -0.045 A 
ENDROOT
BRANCH   1   7
ATOM      7  C   UNL     1     -24.517  86.214  75.729  1.00  0.00     0.071 C 
ATOM      8  O   UNL     1     -23.554  86.844  75.218  1.00  0.00    -0.545 OA
ATOM      9  O   UNL     1     -24.436  84.830  75.836  1.00  0.00    -0.545 OA
ENDBRANCH   1   7
BRANCH   6  10
ATOM     10  C   UNL     1     -29.242  89.044  77.621  1.00  0.00     0.013 C 
ATOM     11  C   UNL     1     -28.864  90.291  78.427  1.00  0.00     0.012 C 
ATOM     12  C   UNL     1     -30.170  89.401  76.454  1.00  0.00     0.012 C 
ENDBRANCH   6  10
TORSDOF 2
ENDMDL
MODEL 9
REMARK VINA RESULT:    -4.660     14.898     15.584
REMARK INTER + INTRA:          -5.426
REMARK INTER:                  -5.205
REMARK INTRA:                  -0.220
REMARK UNBOUND:                -0.220
REMARK SMILES CC(C)c1ccc(C(=O)[O-])cc1
REMARK SMILES IDX 7 1 6 2 11 3 5 4 12 5 4 6 8 7 9 8 10 9 2 10 1 11 3 12
REMARK H PARENT
REMARK Flexibility Score: inf
ROOT
ATOM      1  C   UNL     1     -26.728  86.673  85.271  1.00  0.00    -0.003 A 
ATOM      2  C   UNL     1     -27.990  86.356  84.738  1.00  0.00     0.010 A 
ATOM      3  C   UNL     1     -25.599  85.977  84.804  1.00  0.00     0.010 A 
ATOM      4  C   UNL     1     -28.120  85.365  83.762  1.00  0.00     0.004 A 
ATOM      5  C   UNL     1     -25.730  84.988  83.827  1.00  0.00     0.004 A 
ATOM      6  C   UNL     1     -26.992  84.670  83.293  1.00  0.00    -0.045 A 
ENDROOT
BRANCH   1   7
ATOM      7  C   UNL     1     -26.586  87.720  86.305  1.00  0.00     0.071 C 
ATOM      8  O   UNL     1     -25.509  87.846  86.947  1.00  0.00    -0.545 OA
ATOM      9  O   UNL     1     -27.640  88.583  86.583  1.00  0.00    -0.545 OA
ENDBRANCH   1   7
BRANCH   6  10
ATOM     10  C   UNL     1     -27.149  83.597  82.232  1.00  0.00     0.013 C 
ATOM     11  C   UNL     1     -25.874  82.755  82.106  1.00  0.00     0.012 C 
ATOM     12  C   UNL     1     -28.368  82.712  82.517  1.00  0.00     0.012 C 
ENDBRANCH   6  10
TORSDOF 2
ENDMDL
