MODEL 1
REMARK VINA RESULT:    -4.796      0.000      0.000
REMARK INTER + INTRA:          -8.857
REMARK INTER:                  -7.459
REMARK INTRA:                  -1.398
REMARK UNBOUND:                -1.398
REMARK SMILES COc1cc(CNC(=O)CCCCC=CC(C)C)ccc1O
REMARK SMILES IDX 11 1 12 2 13 3 14 4 15 5 16 6 17 7 18 8 10 9 8 10 9 11 7 12
REMARK SMILES IDX 6 14 5 15 4 16 19 17 3 18 20 19 21 20 2 21 1 22 22 23
REMARK H PARENT 7 13 22 24
REMARK Flexibility Score: inf
ROOT
ATOM      1  C   UNL     1      -5.901   0.834 -30.090  1.00  0.00     0.010 C 
ENDROOT
BRANCH   1   2
ATOM      2  C   UNL     1      -6.103   0.042 -28.790  1.00  0.00     0.005 C 
BRANCH   2   3
ATOM      3  C   UNL     1      -4.824  -0.682 -28.344  1.00  0.00     0.027 C 
BRANCH   3   4
ATOM      4  C   UNL     1      -4.741  -0.783 -26.839  1.00  0.00    -0.031 C 
ATOM      5  C   UNL     1      -4.122  -1.765 -26.150  1.00  0.00    -0.028 C 
BRANCH   5   6
ATOM      6  C   UNL     1      -3.440  -2.972 -26.769  1.00  0.00     0.005 C 
ATOM      7  C   UNL     1      -4.470  -4.066 -27.054  1.00  0.00     0.012 C 
ATOM      8  C   UNL     1      -2.349  -3.519 -25.845  1.00  0.00     0.012 C 
ENDBRANCH   5   6
ENDBRANCH   3   4
ENDBRANCH   2   3
ENDBRANCH   1   2
BRANCH   1   9
ATOM      9  C   UNL     1      -4.968   2.029 -29.863  1.00  0.00     0.100 C 
BRANCH   9  10
ATOM     10  C   UNL     1      -3.753   1.912 -30.733  1.00  0.00     0.220 C 
ATOM     11  O   UNL     1      -3.879   1.988 -31.984  1.00  0.00    -0.275 OA
ATOM     12  N   UNL     1      -2.465   1.670 -30.148  1.00  0.00    -0.352 N 
ATOM     13  H   UNL     1      -2.379   1.641 -29.108  1.00  0.00     0.163 HD
BRANCH  12  14
ATOM     14  C   UNL     1      -1.315   1.261 -30.946  1.00  0.00     0.151 C 
BRANCH  14  15
ATOM     15  C   UNL     1      -0.782  -0.047 -30.434  1.00  0.00    -0.025 A 
ATOM     16  C   UNL     1       0.591  -0.193 -30.190  1.00  0.00     0.056 A 
ATOM     17  C   UNL     1      -1.652  -1.107 -30.141  1.00  0.00     0.009 A 
ATOM     18  C   UNL     1       1.099  -1.396 -29.670  1.00  0.00     0.160 A 
ATOM     19  C   UNL     1      -1.154  -2.305 -29.632  1.00  0.00     0.050 A 
ATOM     20  C   UNL     1       0.219  -2.453 -29.399  1.00  0.00     0.157 A 
BRANCH  18  21
ATOM     21  O   UNL     1       2.465  -1.579 -29.409  1.00  0.00    -0.493 OA
ATOM     22  C   UNL     1       3.438  -1.908 -30.396  1.00  0.00     0.278 C 
ENDBRANCH  18  21
BRANCH  20  23
ATOM     23  O   UNL     1       0.718  -3.650 -28.890  1.00  0.00    -0.504 OA
ATOM     24  H   UNL     1       0.461  -4.546 -29.292  1.00  0.00     0.293 HD
ENDBRANCH  20  23
ENDBRANCH  14  15
ENDBRANCH  12  14
ENDBRANCH   9  10
ENDBRANCH   1   9
TORSDOF 10
ENDMDL
MODEL 2
REMARK VINA RESULT:    -4.789     14.994     17.152
REMARK INTER + INTRA:          -8.847
REMARK INTER:                  -7.667
REMARK INTRA:                  -1.180
REMARK UNBOUND:                -1.398
REMARK SMILES COc1cc(CNC(=O)CCCCC=CC(C)C)ccc1O
REMARK SMILES IDX 11 1 12 2 13 3 14 4 15 5 16 6 17 7 18 8 10 9 8 10 9 11 7 12
REMARK SMILES IDX 6 14 5 15 4 16 19 17 3 18 20 19 21 20 2 21 1 22 22 23
REMARK H PARENT 7 13 22 24
REMARK Flexibility Score: inf
ROOT
ATOM      1  C   UNL     1       9.119  -0.551 -15.587  1.00  0.00     0.010 C 
ENDROOT
BRANCH   1   2
ATOM      2  C   UNL     1       9.604  -2.008 -15.620  1.00  0.00     0.005 C 
BRANCH   2   3
ATOM      3  C   UNL     1       8.447  -3.010 -15.487  1.00  0.00     0.027 C 
BRANCH   3   4
ATOM      4  C   UNL     1       7.753  -2.879 -14.151  1.00  0.00    -0.031 C 
ATOM      5  C   UNL     1       6.489  -2.443 -13.961  1.00  0.00    -0.028 C 
BRANCH   5   6
ATOM      6  C   UNL     1       5.557  -1.958 -15.056  1.00  0.00     0.005 C 
ATOM      7  C   UNL     1       5.405  -0.438 -14.977  1.00  0.00     0.012 C 
ATOM      8  C   UNL     1       4.182  -2.621 -14.940  1.00  0.00     0.012 C 
ENDBRANCH   5   6
ENDBRANCH   3   4
ENDBRANCH   2   3
ENDBRANCH   1   2
BRANCH   1   9
ATOM      9  C   UNL     1       9.863   0.248 -14.511  1.00  0.00     0.100 C 
BRANCH   9  10
ATOM     10  C   UNL     1       9.926   1.697 -14.891  1.00  0.00     0.220 C 
ATOM     11  O   UNL     1      10.772   2.446 -14.334  1.00  0.00    -0.275 OA
ATOM     12  N   UNL     1       9.001   2.234 -15.848  1.00  0.00    -0.352 N 
ATOM     13  H   UNL     1       8.329   1.590 -16.320  1.00  0.00     0.163 HD
BRANCH  12  14
ATOM     14  C   UNL     1       8.826   3.671 -16.034  1.00  0.00     0.151 C 
BRANCH  14  15
ATOM     15  C   UNL     1       7.453   3.947 -16.579  1.00  0.00    -0.025 A 
ATOM     16  C   UNL     1       7.304   4.385 -17.903  1.00  0.00     0.056 A 
ATOM     17  C   UNL     1       6.314   3.715 -15.796  1.00  0.00     0.009 A 
ATOM     18  C   UNL     1       6.024   4.606 -18.441  1.00  0.00     0.160 A 
ATOM     19  C   UNL     1       5.043   3.940 -16.321  1.00  0.00     0.050 A 
ATOM     20  C   UNL     1       4.894   4.387 -17.640  1.00  0.00     0.157 A 
BRANCH  18  21
ATOM     21  O   UNL     1       5.834   5.040 -19.761  1.00  0.00    -0.493 OA
ATOM     22  C   UNL     1       6.258   6.304 -20.263  1.00  0.00     0.278 C 
ENDBRANCH  18  21
BRANCH  20  23
ATOM     23  O   UNL     1       3.624   4.611 -18.165  1.00  0.00    -0.504 OA
ATOM     24  H   UNL     1       3.395   5.471 -18.652  1.00  0.00     0.293 HD
ENDBRANCH  20  23
ENDBRANCH  14  15
ENDBRANCH  12  14
ENDBRANCH   9  10
ENDBRANCH   1   9
TORSDOF 10
ENDMDL
MODEL 3
REMARK VINA RESULT:    -4.786     12.424     13.800
REMARK INTER + INTRA:          -8.842
REMARK INTER:                  -7.875
REMARK INTRA:                  -0.967
REMARK UNBOUND:                -1.398
REMARK SMILES COc1cc(CNC(=O)CCCCC=CC(C)C)ccc1O
REMARK SMILES IDX 11 1 12 2 13 3 14 4 15 5 16 6 17 7 18 8 10 9 8 10 9 11 7 12
REMARK SMILES IDX 6 14 5 15 4 16 19 17 3 18 20 19 21 20 2 21 1 22 22 23
REMARK H PARENT 7 13 22 24
REMARK Flexibility Score: inf
ROOT
ATOM      1  C   UNL     1       5.926   6.420 -20.428  1.00  0.00     0.010 C 
ENDROOT
BRANCH   1   2
ATOM      2  C   UNL     1       5.580   5.012 -19.922  1.00  0.00     0.005 C 
BRANCH   2   3
ATOM      3  C   UNL     1       4.921   5.038 -18.535  1.00  0.00     0.027 C 
BRANCH   3   4
ATOM      4  C   UNL     1       3.470   5.451 -18.619  1.00  0.00    -0.031 C 
ATOM      5  C   UNL     1       2.441   4.843 -17.991  1.00  0.00    -0.028 C 
BRANCH   5   6
ATOM      6  C   UNL     1       2.556   3.601 -17.126  1.00  0.00     0.005 C 
ATOM      7  C   UNL     1       2.511   2.348 -18.002  1.00  0.00     0.012 C 
ATOM      8  C   UNL     1       1.430   3.548 -16.091  1.00  0.00     0.012 C 
ENDBRANCH   5   6
ENDBRANCH   3   4
ENDBRANCH   2   3
ENDBRANCH   1   2
BRANCH   1   9
ATOM      9  C   UNL     1       5.535   6.582 -21.901  1.00  0.00     0.100 C 
BRANCH   9  10
ATOM     10  C   UNL     1       4.581   7.728 -22.061  1.00  0.00     0.220 C 
ATOM     11  O   UNL     1       4.176   8.039 -23.213  1.00  0.00    -0.275 OA
ATOM     12  N   UNL     1       4.169   8.491 -20.918  1.00  0.00    -0.352 N 
ATOM     13  H   UNL     1       4.492   8.197 -19.970  1.00  0.00     0.163 HD
BRANCH  12  14
ATOM     14  C   UNL     1       3.488   9.775 -21.047  1.00  0.00     0.151 C 
BRANCH  14  15
ATOM     15  C   UNL     1       2.048   9.550 -21.416  1.00  0.00    -0.025 A 
ATOM     16  C   UNL     1       1.272   8.651 -20.672  1.00  0.00     0.056 A 
ATOM     17  C   UNL     1       1.457  10.274 -22.460  1.00  0.00     0.009 A 
ATOM     18  C   UNL     1      -0.088   8.461 -20.977  1.00  0.00     0.160 A 
ATOM     19  C   UNL     1       0.112  10.084 -22.773  1.00  0.00     0.050 A 
ATOM     20  C   UNL     1      -0.661   9.179 -22.036  1.00  0.00     0.157 A 
BRANCH  18  21
ATOM     21  O   UNL     1      -0.898   7.574 -20.254  1.00  0.00    -0.493 OA
ATOM     22  C   UNL     1      -0.407   6.523 -19.428  1.00  0.00     0.278 C 
ENDBRANCH  18  21
BRANCH  20  23
ATOM     23  O   UNL     1      -2.005   8.990 -22.347  1.00  0.00    -0.504 OA
ATOM     24  H   UNL     1      -2.393   9.293 -23.235  1.00  0.00     0.293 HD
ENDBRANCH  20  23
ENDBRANCH  14  15
ENDBRANCH  12  14
ENDBRANCH   9  10
ENDBRANCH   1   9
TORSDOF 10
ENDMDL
MODEL 4
REMARK VINA RESULT:    -4.776     15.740     17.981
REMARK INTER + INTRA:          -8.826
REMARK INTER:                  -7.047
REMARK INTRA:                  -1.780
REMARK UNBOUND:                -1.398
REMARK SMILES COc1cc(CNC(=O)CCCCC=CC(C)C)ccc1O
REMARK SMILES IDX 11 1 12 2 13 3 14 4 15 5 16 6 17 7 18 8 10 9 8 10 9 11 7 12
REMARK SMILES IDX 6 14 5 15 4 16 19 17 3 18 20 19 21 20 2 21 1 22 22 23
REMARK H PARENT 7 13 22 24
REMARK Flexibility Score: inf
ROOT
ATOM      1  C   UNL     1       2.769  -2.989 -13.995  1.00  0.00     0.010 C 
ENDROOT
BRANCH   1   2
ATOM      2  C   UNL     1       1.807  -4.176 -14.148  1.00  0.00     0.005 C 
BRANCH   2   3
ATOM      3  C   UNL     1       2.101  -5.005 -15.407  1.00  0.00     0.027 C 
BRANCH   3   4
ATOM      4  C   UNL     1       1.839  -6.475 -15.176  1.00  0.00    -0.031 C 
ATOM      5  C   UNL     1       2.703  -7.350 -14.618  1.00  0.00    -0.028 C 
BRANCH   5   6
ATOM      6  C   UNL     1       4.115  -7.019 -14.169  1.00  0.00     0.005 C 
ATOM      7  C   UNL     1       5.082  -8.105 -14.644  1.00  0.00     0.012 C 
ATOM      8  C   UNL     1       4.190  -6.890 -12.646  1.00  0.00     0.012 C 
ENDBRANCH   5   6
ENDBRANCH   3   4
ENDBRANCH   2   3
ENDBRANCH   1   2
BRANCH   1   9
ATOM      9  C   UNL     1       3.924  -3.090 -14.997  1.00  0.00     0.100 C 
BRANCH   9  10
ATOM     10  C   UNL     1       5.231  -2.826 -14.310  1.00  0.00     0.220 C 
ATOM     11  O   UNL     1       5.974  -1.900 -14.730  1.00  0.00    -0.275 OA
ATOM     12  N   UNL     1       5.651  -3.651 -13.214  1.00  0.00    -0.352 N 
ATOM     13  H   UNL     1       5.007  -4.394 -12.863  1.00  0.00     0.163 HD
BRANCH  12  14
ATOM     14  C   UNL     1       7.020  -3.630 -12.708  1.00  0.00     0.151 C 
BRANCH  14  15
ATOM     15  C   UNL     1       7.827  -4.701 -13.386  1.00  0.00    -0.025 A 
ATOM     16  C   UNL     1       7.791  -6.015 -12.898  1.00  0.00     0.056 A 
ATOM     17  C   UNL     1       8.573  -4.412 -14.537  1.00  0.00     0.009 A 
ATOM     18  C   UNL     1       8.507  -7.036 -13.546  1.00  0.00     0.160 A 
ATOM     19  C   UNL     1       9.291  -5.418 -15.180  1.00  0.00     0.050 A 
ATOM     20  C   UNL     1       9.262  -6.729 -14.687  1.00  0.00     0.157 A 
BRANCH  18  21
ATOM     21  O   UNL     1       8.492  -8.363 -13.092  1.00  0.00    -0.493 OA
ATOM     22  C   UNL     1       9.375  -8.887 -12.105  1.00  0.00     0.278 C 
ENDBRANCH  18  21
BRANCH  20  23
ATOM     23  O   UNL     1       9.979  -7.735 -15.330  1.00  0.00    -0.504 OA
ATOM     24  H   UNL     1       9.899  -8.707 -15.048  1.00  0.00     0.293 HD
ENDBRANCH  20  23
ENDBRANCH  14  15
ENDBRANCH  12  14
ENDBRANCH   9  10
ENDBRANCH   1   9
TORSDOF 10
ENDMDL
MODEL 5
REMARK VINA RESULT:    -4.711     15.396     17.487
REMARK INTER + INTRA:          -8.726
REMARK INTER:                  -7.970
REMARK INTRA:                  -0.756
REMARK UNBOUND:                -1.398
REMARK SMILES COc1cc(CNC(=O)CCCCC=CC(C)C)ccc1O
REMARK SMILES IDX 11 1 12 2 13 3 14 4 15 5 16 6 17 7 18 8 10 9 8 10 9 11 7 12
REMARK SMILES IDX 6 14 5 15 4 16 19 17 3 18 20 19 21 20 2 21 1 22 22 23
REMARK H PARENT 7 13 22 24
REMARK Flexibility Score: inf
ROOT
ATOM      1  C   UNL     1       5.803  -1.831 -13.800  1.00  0.00     0.010 C 
ENDROOT
BRANCH   1   2
ATOM      2  C   UNL     1       4.742  -1.632 -14.893  1.00  0.00     0.005 C 
BRANCH   2   3
ATOM      3  C   UNL     1       4.007  -2.937 -15.235  1.00  0.00     0.027 C 
BRANCH   3   4
ATOM      4  C   UNL     1       2.883  -3.211 -14.263  1.00  0.00    -0.031 C 
ATOM      5  C   UNL     1       2.034  -4.259 -14.319  1.00  0.00    -0.028 C 
BRANCH   5   6
ATOM      6  C   UNL     1       2.027  -5.324 -15.401  1.00  0.00     0.005 C 
ATOM      7  C   UNL     1       0.606  -5.849 -15.609  1.00  0.00     0.012 C 
ATOM      8  C   UNL     1       2.958  -6.483 -15.035  1.00  0.00     0.012 C 
ENDBRANCH   5   6
ENDBRANCH   3   4
ENDBRANCH   2   3
ENDBRANCH   1   2
BRANCH   1   9
ATOM      9  C   UNL     1       6.733  -2.998 -14.148  1.00  0.00     0.100 C 
BRANCH   9  10
ATOM     10  C   UNL     1       7.915  -2.505 -14.928  1.00  0.00     0.220 C 
ATOM     11  O   UNL     1       8.566  -3.313 -15.642  1.00  0.00    -0.275 OA
ATOM     12  N   UNL     1       8.328  -1.135 -14.825  1.00  0.00    -0.352 N 
ATOM     13  H   UNL     1       7.757  -0.475 -14.252  1.00  0.00     0.163 HD
BRANCH  12  14
ATOM     14  C   UNL     1       9.622  -0.675 -15.319  1.00  0.00     0.151 C 
BRANCH  14  15
ATOM     15  C   UNL     1       9.724   0.816 -15.163  1.00  0.00    -0.025 A 
ATOM     16  C   UNL     1       8.976   1.656 -16.001  1.00  0.00     0.056 A 
ATOM     17  C   UNL     1      10.514   1.376 -14.150  1.00  0.00     0.009 A 
ATOM     18  C   UNL     1       9.027   3.052 -15.840  1.00  0.00     0.160 A 
ATOM     19  C   UNL     1      10.575   2.759 -13.990  1.00  0.00     0.050 A 
ATOM     20  C   UNL     1       9.836   3.598 -14.833  1.00  0.00     0.157 A 
BRANCH  18  21
ATOM     21  O   UNL     1       8.292   3.925 -16.654  1.00  0.00    -0.493 OA
ATOM     22  C   UNL     1       6.869   3.971 -16.708  1.00  0.00     0.278 C 
ENDBRANCH  18  21
BRANCH  20  23
ATOM     23  O   UNL     1       9.896   4.980 -14.673  1.00  0.00    -0.504 OA
ATOM     24  H   UNL     1       9.923   5.607 -15.471  1.00  0.00     0.293 HD
ENDBRANCH  20  23
ENDBRANCH  14  15
ENDBRANCH  12  14
ENDBRANCH   9  10
ENDBRANCH   1   9
TORSDOF 10
ENDMDL
MODEL 6
REMARK VINA RESULT:    -4.695     15.365     17.745
REMARK INTER + INTRA:          -8.700
REMARK INTER:                  -7.875
REMARK INTRA:                  -0.825
REMARK UNBOUND:                -1.398
REMARK SMILES COc1cc(CNC(=O)CCCCC=CC(C)C)ccc1O
REMARK SMILES IDX 11 1 12 2 13 3 14 4 15 5 16 6 17 7 18 8 10 9 8 10 9 11 7 12
REMARK SMILES IDX 6 14 5 15 4 16 19 17 3 18 20 19 21 20 2 21 1 22 22 23
REMARK H PARENT 7 13 22 24
REMARK Flexibility Score: inf
ROOT
ATOM      1  C   UNL     1       4.599  -1.902 -14.612  1.00  0.00     0.010 C 
ENDROOT
BRANCH   1   2
ATOM      2  C   UNL     1       3.723  -2.476 -13.488  1.00  0.00     0.005 C 
BRANCH   2   3
ATOM      3  C   UNL     1       2.525  -3.269 -14.031  1.00  0.00     0.027 C 
BRANCH   3   4
ATOM      4  C   UNL     1       2.924  -4.147 -15.195  1.00  0.00    -0.031 C 
ATOM      5  C   UNL     1       2.278  -5.263 -15.595  1.00  0.00    -0.028 C 
BRANCH   5   6
ATOM      6  C   UNL     1       1.061  -5.861 -14.914  1.00  0.00     0.005 C 
ATOM      7  C   UNL     1       1.443  -7.165 -14.212  1.00  0.00     0.012 C 
ATOM      8  C   UNL     1      -0.058  -6.128 -15.924  1.00  0.00     0.012 C 
ENDBRANCH   5   6
ENDBRANCH   3   4
ENDBRANCH   2   3
ENDBRANCH   1   2
BRANCH   1   9
ATOM      9  C   UNL     1       5.725  -1.035 -14.039  1.00  0.00     0.100 C 
BRANCH   9  10
ATOM     10  C   UNL     1       7.060  -1.626 -14.379  1.00  0.00     0.220 C 
ATOM     11  O   UNL     1       8.045  -0.863 -14.564  1.00  0.00    -0.275 OA
ATOM     12  N   UNL     1       7.203  -3.045 -14.536  1.00  0.00    -0.352 N 
ATOM     13  H   UNL     1       6.382  -3.661 -14.349  1.00  0.00     0.163 HD
BRANCH  12  14
ATOM     14  C   UNL     1       8.388  -3.642 -15.145  1.00  0.00     0.151 C 
BRANCH  14  15
ATOM     15  C   UNL     1       8.599  -5.024 -14.593  1.00  0.00    -0.025 A 
ATOM     16  C   UNL     1       9.719  -5.768 -14.987  1.00  0.00     0.056 A 
ATOM     17  C   UNL     1       7.716  -5.555 -13.642  1.00  0.00     0.009 A 
ATOM     18  C   UNL     1       9.953  -7.045 -14.448  1.00  0.00     0.160 A 
ATOM     19  C   UNL     1       7.938  -6.823 -13.109  1.00  0.00     0.050 A 
ATOM     20  C   UNL     1       9.052  -7.571 -13.510  1.00  0.00     0.157 A 
BRANCH  18  21
ATOM     21  O   UNL     1      11.065  -7.818 -14.814  1.00  0.00    -0.493 OA
ATOM     22  C   UNL     1      11.123  -8.651 -15.967  1.00  0.00     0.278 C 
ENDBRANCH  18  21
BRANCH  20  23
ATOM     23  O   UNL     1       9.275  -8.837 -12.977  1.00  0.00    -0.504 OA
ATOM     24  H   UNL     1      10.192  -9.121 -12.647  1.00  0.00     0.293 HD
ENDBRANCH  20  23
ENDBRANCH  14  15
ENDBRANCH  12  14
ENDBRANCH   9  10
ENDBRANCH   1   9
TORSDOF 10
ENDMDL
MODEL 7
REMARK VINA RESULT:    -4.694     16.333     18.256
REMARK INTER + INTRA:          -8.699
REMARK INTER:                  -6.529
REMARK INTRA:                  -2.170
REMARK UNBOUND:                -1.398
REMARK SMILES COc1cc(CNC(=O)CCCCC=CC(C)C)ccc1O
REMARK SMILES IDX 11 1 12 2 13 3 14 4 15 5 16 6 17 7 18 8 10 9 8 10 9 11 7 12
REMARK SMILES IDX 6 14 5 15 4 16 19 17 3 18 20 19 21 20 2 21 1 22 22 23
REMARK H PARENT 7 13 22 24
REMARK Flexibility Score: inf
ROOT
ATOM      1  C   UNL     1       6.393  -2.744 -13.480  1.00  0.00     0.010 C 
ENDROOT
BRANCH   1   2
ATOM      2  C   UNL     1       5.131  -2.710 -14.355  1.00  0.00     0.005 C 
BRANCH   2   3
ATOM      3  C   UNL     1       4.465  -1.326 -14.362  1.00  0.00     0.027 C 
BRANCH   3   4
ATOM      4  C   UNL     1       5.232  -0.347 -15.220  1.00  0.00    -0.031 C 
ATOM      5  C   UNL     1       5.819   0.788 -14.785  1.00  0.00    -0.028 C 
BRANCH   5   6
ATOM      6  C   UNL     1       5.769   1.308 -13.359  1.00  0.00     0.005 C 
ATOM      7  C   UNL     1       5.878   2.833 -13.354  1.00  0.00     0.012 C 
ATOM      8  C   UNL     1       6.898   0.707 -12.517  1.00  0.00     0.012 C 
ENDBRANCH   5   6
ENDBRANCH   3   4
ENDBRANCH   2   3
ENDBRANCH   1   2
BRANCH   1   9
ATOM      9  C   UNL     1       7.446  -3.684 -14.076  1.00  0.00     0.100 C 
BRANCH   9  10
ATOM     10  C   UNL     1       8.324  -2.939 -15.036  1.00  0.00     0.220 C 
ATOM     11  O   UNL     1       8.849  -3.556 -16.001  1.00  0.00    -0.275 OA
ATOM     12  N   UNL     1       8.601  -1.546 -14.830  1.00  0.00    -0.352 N 
ATOM     13  H   UNL     1       8.132  -1.048 -14.042  1.00  0.00     0.163 HD
BRANCH  12  14
ATOM     14  C   UNL     1       9.665  -0.852 -15.549  1.00  0.00     0.151 C 
BRANCH  14  15
ATOM     15  C   UNL     1       9.639   0.610 -15.204  1.00  0.00    -0.025 A 
ATOM     16  C   UNL     1       9.022   1.520 -16.073  1.00  0.00     0.056 A 
ATOM     17  C   UNL     1      10.176   1.067 -13.992  1.00  0.00     0.009 A 
ATOM     18  C   UNL     1       8.952   2.886 -15.744  1.00  0.00     0.160 A 
ATOM     19  C   UNL     1      10.116   2.420 -13.663  1.00  0.00     0.050 A 
ATOM     20  C   UNL     1       9.509   3.331 -14.537  1.00  0.00     0.157 A 
BRANCH  18  21
ATOM     21  O   UNL     1       8.339   3.826 -16.585  1.00  0.00    -0.493 OA
ATOM     22  C   UNL     1       6.932   4.019 -16.689  1.00  0.00     0.278 C 
ENDBRANCH  18  21
BRANCH  20  23
ATOM     23  O   UNL     1       9.448   4.683 -14.208  1.00  0.00    -0.504 OA
ATOM     24  H   UNL     1       9.709   5.403 -14.874  1.00  0.00     0.293 HD
ENDBRANCH  20  23
ENDBRANCH  14  15
ENDBRANCH  12  14
ENDBRANCH   9  10
ENDBRANCH   1   9
TORSDOF 10
ENDMDL
MODEL 8
REMARK VINA RESULT:    -4.658     14.635     16.840
REMARK INTER + INTRA:          -8.643
REMARK INTER:                  -7.464
REMARK INTRA:                  -1.179
REMARK UNBOUND:                -1.398
REMARK SMILES COc1cc(CNC(=O)CCCCC=CC(C)C)ccc1O
REMARK SMILES IDX 11 1 12 2 13 3 14 4 15 5 16 6 17 7 18 8 10 9 8 10 9 11 7 12
REMARK SMILES IDX 6 14 5 15 4 16 19 17 3 18 20 19 21 20 2 21 1 22 22 23
REMARK H PARENT 7 13 22 24
REMARK Flexibility Score: inf
ROOT
ATOM      1  C   UNL     1       9.531  -0.535 -14.841  1.00  0.00     0.010 C 
ENDROOT
BRANCH   1   2
ATOM      2  C   UNL     1       9.487  -1.836 -15.657  1.00  0.00     0.005 C 
BRANCH   2   3
ATOM      3  C   UNL     1       8.329  -2.751 -15.232  1.00  0.00     0.027 C 
BRANCH   3   4
ATOM      4  C   UNL     1       7.669  -2.256 -13.966  1.00  0.00    -0.031 C 
ATOM      5  C   UNL     1       6.386  -1.850 -13.855  1.00  0.00    -0.028 C 
BRANCH   5   6
ATOM      6  C   UNL     1       5.391  -1.773 -14.998  1.00  0.00     0.005 C 
ATOM      7  C   UNL     1       5.047  -0.312 -15.295  1.00  0.00     0.012 C 
ATOM      8  C   UNL     1       4.112  -2.547 -14.666  1.00  0.00     0.012 C 
ENDBRANCH   5   6
ENDBRANCH   3   4
ENDBRANCH   2   3
ENDBRANCH   1   2
BRANCH   1   9
ATOM      9  C   UNL     1       9.338   0.685 -15.748  1.00  0.00     0.100 C 
BRANCH   9  10
ATOM     10  C   UNL     1       8.313   1.610 -15.164  1.00  0.00     0.220 C 
ATOM     11  O   UNL     1       7.840   1.367 -14.022  1.00  0.00    -0.275 OA
ATOM     12  N   UNL     1       7.840   2.735 -15.919  1.00  0.00    -0.352 N 
ATOM     13  H   UNL     1       8.267   2.935 -16.851  1.00  0.00     0.163 HD
BRANCH  12  14
ATOM     14  C   UNL     1       6.651   3.486 -15.531  1.00  0.00     0.151 C 
BRANCH  14  15
ATOM     15  C   UNL     1       6.067   4.169 -16.735  1.00  0.00    -0.025 A 
ATOM     16  C   UNL     1       4.728   4.582 -16.721  1.00  0.00     0.056 A 
ATOM     17  C   UNL     1       6.865   4.450 -17.853  1.00  0.00     0.009 A 
ATOM     18  C   UNL     1       4.179   5.260 -17.823  1.00  0.00     0.160 A 
ATOM     19  C   UNL     1       6.325   5.115 -18.952  1.00  0.00     0.050 A 
ATOM     20  C   UNL     1       4.984   5.519 -18.942  1.00  0.00     0.157 A 
BRANCH  18  21
ATOM     21  O   UNL     1       2.845   5.693 -17.845  1.00  0.00    -0.493 OA
ATOM     22  C   UNL     1       1.735   4.868 -18.188  1.00  0.00     0.278 C 
ENDBRANCH  18  21
BRANCH  20  23
ATOM     23  O   UNL     1       4.444   6.184 -20.039  1.00  0.00    -0.504 OA
ATOM     24  H   UNL     1       3.580   6.712 -19.968  1.00  0.00     0.293 HD
ENDBRANCH  20  23
ENDBRANCH  14  15
ENDBRANCH  12  14
ENDBRANCH   9  10
ENDBRANCH   1   9
TORSDOF 10
ENDMDL
MODEL 9
REMARK VINA RESULT:    -4.652     14.588     16.885
REMARK INTER + INTRA:          -8.633
REMARK INTER:                  -7.172
REMARK INTRA:                  -1.462
REMARK UNBOUND:                -1.398
REMARK SMILES COc1cc(CNC(=O)CCCCC=CC(C)C)ccc1O
REMARK SMILES IDX 11 1 12 2 13 3 14 4 15 5 16 6 17 7 18 8 10 9 8 10 9 11 7 12
REMARK SMILES IDX 6 14 5 15 4 16 19 17 3 18 20 19 21 20 2 21 1 22 22 23
REMARK H PARENT 7 13 22 24
REMARK Flexibility Score: inf
ROOT
ATOM      1  C   UNL     1       9.495  -0.507 -14.729  1.00  0.00     0.010 C 
ENDROOT
BRANCH   1   2
ATOM      2  C   UNL     1       9.575  -1.728 -15.657  1.00  0.00     0.005 C 
BRANCH   2   3
ATOM      3  C   UNL     1       8.408  -2.703 -15.439  1.00  0.00     0.027 C 
BRANCH   3   4
ATOM      4  C   UNL     1       7.735  -2.470 -14.106  1.00  0.00    -0.031 C 
ATOM      5  C   UNL     1       6.423  -2.211 -13.922  1.00  0.00    -0.028 C 
BRANCH   5   6
ATOM      6  C   UNL     1       5.398  -2.057 -15.031  1.00  0.00     0.005 C 
ATOM      7  C   UNL     1       5.044  -0.580 -15.215  1.00  0.00     0.012 C 
ATOM      8  C   UNL     1       4.131  -2.857 -14.721  1.00  0.00     0.012 C 
ENDBRANCH   5   6
ENDBRANCH   3   4
ENDBRANCH   2   3
ENDBRANCH   1   2
BRANCH   1   9
ATOM      9  C   UNL     1       8.933   0.709 -15.474  1.00  0.00     0.100 C 
BRANCH   9  10
ATOM     10  C   UNL     1       7.983   1.463 -14.593  1.00  0.00     0.220 C 
ATOM     11  O   UNL     1       7.760   1.048 -13.425  1.00  0.00    -0.275 OA
ATOM     12  N   UNL     1       7.299   2.622 -15.092  1.00  0.00    -0.352 N 
ATOM     13  H   UNL     1       7.521   2.966 -16.052  1.00  0.00     0.163 HD
BRANCH  12  14
ATOM     14  C   UNL     1       6.162   3.213 -14.393  1.00  0.00     0.151 C 
BRANCH  14  15
ATOM     15  C   UNL     1       5.019   3.396 -15.352  1.00  0.00    -0.025 A 
ATOM     16  C   UNL     1       5.235   4.036 -16.580  1.00  0.00     0.056 A 
ATOM     17  C   UNL     1       3.749   2.882 -15.055  1.00  0.00     0.009 A 
ATOM     18  C   UNL     1       4.186   4.178 -17.505  1.00  0.00     0.160 A 
ATOM     19  C   UNL     1       2.702   3.026 -15.964  1.00  0.00     0.050 A 
ATOM     20  C   UNL     1       2.917   3.675 -17.187  1.00  0.00     0.157 A 
BRANCH  18  21
ATOM     21  O   UNL     1       4.364   4.808 -18.745  1.00  0.00    -0.493 OA
ATOM     22  C   UNL     1       5.602   4.872 -19.447  1.00  0.00     0.278 C 
ENDBRANCH  18  21
BRANCH  20  23
ATOM     23  O   UNL     1       1.872   3.818 -18.096  1.00  0.00    -0.504 OA
ATOM     24  H   UNL     1       1.591   3.057 -18.706  1.00  0.00     0.293 HD
ENDBRANCH  20  23
ENDBRANCH  14  15
ENDBRANCH  12  14
ENDBRANCH   9  10
ENDBRANCH   1   9
TORSDOF 10
ENDMDL
