MODEL 1
REMARK VINA RESULT:    -6.284      0.000      0.000
REMARK INTER + INTRA:         -16.863
REMARK INTER:                 -14.365
REMARK INTRA:                  -2.497
REMARK UNBOUND:                -2.497
REMARK SMILES CCCCCCCCCCCCCCCCCCCCCCCC(=O)[O-]
REMARK SMILES IDX 13 1 14 2 15 3 16 4 17 5 18 6 19 7 20 8 21 9 22 10 23 11
REMARK SMILES IDX 24 12 25 13 26 14 12 15 11 16 10 17 9 18 8 19 7 20 6 21 5 22
REMARK SMILES IDX 4 23 3 24 2 25 1 26
REMARK H PARENT
REMARK Flexibility Score: inf
ROOT
ATOM      1  C   UNL     1      16.099  -3.085  17.149  1.00  0.00     0.000 C 
ENDROOT
BRANCH   1   2
ATOM      2  C   UNL     1      15.056  -2.489  18.101  1.00  0.00     0.000 C 
BRANCH   2   3
ATOM      3  C   UNL     1      15.706  -2.012  19.405  1.00  0.00     0.000 C 
BRANCH   3   4
ATOM      4  C   UNL     1      14.657  -1.440  20.367  1.00  0.00     0.000 C 
BRANCH   4   5
ATOM      5  C   UNL     1      13.652  -0.551  19.620  1.00  0.00     0.000 C 
BRANCH   5   6
ATOM      6  C   UNL     1      14.088   0.922  19.573  1.00  0.00     0.000 C 
BRANCH   6   7
ATOM      7  C   UNL     1      13.419   1.700  18.426  1.00  0.00     0.000 C 
BRANCH   7   8
ATOM      8  C   UNL     1      14.438   2.417  17.525  1.00  0.00     0.000 C 
BRANCH   8   9
ATOM      9  C   UNL     1      15.549   1.476  17.027  1.00  0.00     0.000 C 
BRANCH   9  10
ATOM     10  C   UNL     1      15.067   0.520  15.921  1.00  0.00     0.006 C 
BRANCH  10  11
ATOM     11  C   UNL     1      14.107   1.158  14.903  1.00  0.00     0.053 C 
BRANCH  11  12
ATOM     12  C   UNL     1      14.665   1.138  13.513  1.00  0.00     0.041 C 
ATOM     13  O   UNL     1      15.355   2.104  13.093  1.00  0.00    -0.550 OA
ATOM     14  O   UNL     1      14.451   0.037  12.693  1.00  0.00    -0.550 OA
ENDBRANCH  11  12
ENDBRANCH  10  11
ENDBRANCH   9  10
ENDBRANCH   8   9
ENDBRANCH   7   8
ENDBRANCH   6   7
ENDBRANCH   5   6
ENDBRANCH   4   5
ENDBRANCH   3   4
ENDBRANCH   2   3
ENDBRANCH   1   2
BRANCH   1  15
ATOM     15  C   UNL     1      17.520  -2.694  17.580  1.00  0.00     0.000 C 
BRANCH  15  16
ATOM     16  C   UNL     1      18.311  -1.995  16.463  1.00  0.00     0.000 C 
BRANCH  16  17
ATOM     17  C   UNL     1      18.909  -2.989  15.451  1.00  0.00     0.000 C 
BRANCH  17  18
ATOM     18  C   UNL     1      18.845  -2.475  14.002  1.00  0.00    -0.000 C 
BRANCH  18  19
ATOM     19  C   UNL     1      17.561  -1.701  13.641  1.00  0.00    -0.000 C 
BRANCH  19  20
ATOM     20  C   UNL     1      17.748  -0.680  12.499  1.00  0.00    -0.000 C 
BRANCH  20  21
ATOM     21  C   UNL     1      17.275  -1.232  11.142  1.00  0.00    -0.000 C 
BRANCH  21  22
ATOM     22  C   UNL     1      17.719  -0.359   9.957  1.00  0.00    -0.000 C 
BRANCH  22  23
ATOM     23  C   UNL     1      17.822  -1.155   8.644  1.00  0.00    -0.000 C 
BRANCH  23  24
ATOM     24  C   UNL     1      19.078  -0.796   7.833  1.00  0.00    -0.000 C 
BRANCH  24  25
ATOM     25  C   UNL     1      18.814   0.287   6.776  1.00  0.00    -0.003 C 
ATOM     26  C   UNL     1      20.072   1.108   6.507  1.00  0.00     0.004 C 
ENDBRANCH  24  25
ENDBRANCH  23  24
ENDBRANCH  22  23
ENDBRANCH  21  22
ENDBRANCH  20  21
ENDBRANCH  19  20
ENDBRANCH  18  19
ENDBRANCH  17  18
ENDBRANCH  16  17
ENDBRANCH  15  16
ENDBRANCH   1  15
TORSDOF 22
ENDMDL
MODEL 2
REMARK VINA RESULT:    -6.272      2.514      7.310
REMARK INTER + INTRA:         -16.835
REMARK INTER:                 -14.348
REMARK INTRA:                  -2.487
REMARK UNBOUND:                -2.497
REMARK SMILES CCCCCCCCCCCCCCCCCCCCCCCC(=O)[O-]
REMARK SMILES IDX 13 1 14 2 15 3 16 4 17 5 18 6 19 7 20 8 21 9 22 10 23 11
REMARK SMILES IDX 24 12 25 13 26 14 12 15 11 16 10 17 9 18 8 19 7 20 6 21 5 22
REMARK SMILES IDX 4 23 3 24 2 25 1 26
REMARK H PARENT
REMARK Flexibility Score: inf
ROOT
ATOM      1  C   UNL     1      13.566   2.462  17.227  1.00  0.00     0.000 C 
ENDROOT
BRANCH   1   2
ATOM      2  C   UNL     1      13.655   1.388  16.136  1.00  0.00     0.000 C 
BRANCH   2   3
ATOM      3  C   UNL     1      14.828   1.659  15.188  1.00  0.00     0.000 C 
BRANCH   3   4
ATOM      4  C   UNL     1      14.598   0.999  13.823  1.00  0.00     0.000 C 
BRANCH   4   5
ATOM      5  C   UNL     1      15.044   1.924  12.680  1.00  0.00     0.000 C 
BRANCH   5   6
ATOM      6  C   UNL     1      15.774   1.167  11.559  1.00  0.00     0.000 C 
BRANCH   6   7
ATOM      7  C   UNL     1      16.424  -0.138  12.054  1.00  0.00     0.000 C 
BRANCH   7   8
ATOM      8  C   UNL     1      16.890  -1.041  10.900  1.00  0.00     0.000 C 
BRANCH   8   9
ATOM      9  C   UNL     1      17.815  -0.306   9.914  1.00  0.00     0.000 C 
BRANCH   9  10
ATOM     10  C   UNL     1      18.011  -1.075   8.596  1.00  0.00     0.006 C 
BRANCH  10  11
ATOM     11  C   UNL     1      18.200  -0.181   7.360  1.00  0.00     0.053 C 
BRANCH  11  12
ATOM     12  C   UNL     1      19.637  -0.082   6.950  1.00  0.00     0.041 C 
ATOM     13  O   UNL     1      20.149   1.040   6.699  1.00  0.00    -0.550 OA
ATOM     14  O   UNL     1      20.419  -1.228   6.877  1.00  0.00    -0.550 OA
ENDBRANCH  11  12
ENDBRANCH  10  11
ENDBRANCH   9  10
ENDBRANCH   8   9
ENDBRANCH   7   8
ENDBRANCH   6   7
ENDBRANCH   5   6
ENDBRANCH   4   5
ENDBRANCH   3   4
ENDBRANCH   2   3
ENDBRANCH   1   2
BRANCH   1  15
ATOM     15  C   UNL     1      13.366   1.822  18.609  1.00  0.00     0.000 C 
BRANCH  15  16
ATOM     16  C   UNL     1      13.828   0.357  18.660  1.00  0.00     0.000 C 
BRANCH  16  17
ATOM     17  C   UNL     1      15.107   0.170  19.495  1.00  0.00     0.000 C 
BRANCH  17  18
ATOM     18  C   UNL     1      15.217  -1.238  20.107  1.00  0.00    -0.000 C 
BRANCH  18  19
ATOM     19  C   UNL     1      14.869  -2.395  19.149  1.00  0.00    -0.000 C 
BRANCH  19  20
ATOM     20  C   UNL     1      16.102  -3.092  18.537  1.00  0.00    -0.000 C 
BRANCH  20  21
ATOM     21  C   UNL     1      16.009  -3.200  17.005  1.00  0.00    -0.000 C 
BRANCH  21  22
ATOM     22  C   UNL     1      15.739  -1.845  16.329  1.00  0.00    -0.000 C 
BRANCH  22  23
ATOM     23  C   UNL     1      17.025  -1.178  15.810  1.00  0.00    -0.000 C 
BRANCH  23  24
ATOM     24  C   UNL     1      17.589  -1.875  14.560  1.00  0.00    -0.000 C 
BRANCH  24  25
ATOM     25  C   UNL     1      19.061  -2.287  14.722  1.00  0.00    -0.003 C 
ATOM     26  C   UNL     1      19.473  -2.278  16.192  1.00  0.00     0.004 C 
ENDBRANCH  24  25
ENDBRANCH  23  24
ENDBRANCH  22  23
ENDBRANCH  21  22
ENDBRANCH  20  21
ENDBRANCH  19  20
ENDBRANCH  18  19
ENDBRANCH  17  18
ENDBRANCH  16  17
ENDBRANCH  15  16
ENDBRANCH   1  15
TORSDOF 22
ENDMDL
MODEL 3
REMARK VINA RESULT:    -6.219      2.436      7.455
REMARK INTER + INTRA:         -16.716
REMARK INTER:                 -14.259
REMARK INTRA:                  -2.457
REMARK UNBOUND:                -2.497
REMARK SMILES CCCCCCCCCCCCCCCCCCCCCCCC(=O)[O-]
REMARK SMILES IDX 13 1 14 2 15 3 16 4 17 5 18 6 19 7 20 8 21 9 22 10 23 11
REMARK SMILES IDX 24 12 25 13 26 14 12 15 11 16 10 17 9 18 8 19 7 20 6 21 5 22
REMARK SMILES IDX 4 23 3 24 2 25 1 26
REMARK H PARENT
REMARK Flexibility Score: inf
ROOT
ATOM      1  C   UNL     1      16.901  -3.537  17.488  1.00  0.00     0.000 C 
ENDROOT
BRANCH   1   2
ATOM      2  C   UNL     1      17.093  -2.373  16.509  1.00  0.00     0.000 C 
BRANCH   2   3
ATOM      3  C   UNL     1      18.560  -2.248  16.081  1.00  0.00     0.000 C 
BRANCH   3   4
ATOM      4  C   UNL     1      18.682  -1.508  14.743  1.00  0.00     0.000 C 
BRANCH   4   5
ATOM      5  C   UNL     1      17.435  -1.729  13.875  1.00  0.00     0.000 C 
BRANCH   5   6
ATOM      6  C   UNL     1      17.722  -1.560  12.375  1.00  0.00     0.000 C 
BRANCH   6   7
ATOM      7  C   UNL     1      17.487  -0.118  11.888  1.00  0.00     0.000 C 
BRANCH   7   8
ATOM      8  C   UNL     1      17.258  -0.037  10.369  1.00  0.00     0.000 C 
BRANCH   8   9
ATOM      9  C   UNL     1      17.270  -1.422   9.698  1.00  0.00     0.000 C 
BRANCH   9  10
ATOM     10  C   UNL     1      18.055  -1.433   8.374  1.00  0.00     0.006 C 
BRANCH  10  11
ATOM     11  C   UNL     1      18.381  -0.038   7.816  1.00  0.00     0.053 C 
BRANCH  11  12
ATOM     12  C   UNL     1      19.639  -0.036   7.003  1.00  0.00     0.041 C 
ATOM     13  O   UNL     1      20.265  -1.110   6.801  1.00  0.00    -0.550 OA
ATOM     14  O   UNL     1      20.103   1.147   6.443  1.00  0.00    -0.550 OA
ENDBRANCH  11  12
ENDBRANCH  10  11
ENDBRANCH   9  10
ENDBRANCH   8   9
ENDBRANCH   7   8
ENDBRANCH   6   7
ENDBRANCH   5   6
ENDBRANCH   4   5
ENDBRANCH   3   4
ENDBRANCH   2   3
ENDBRANCH   1   2
BRANCH   1  15
ATOM     15  C   UNL     1      15.825  -3.202  18.532  1.00  0.00     0.000 C 
BRANCH  15  16
ATOM     16  C   UNL     1      15.947  -1.769  19.073  1.00  0.00     0.000 C 
BRANCH  16  17
ATOM     17  C   UNL     1      15.166  -1.564  20.384  1.00  0.00     0.000 C 
BRANCH  17  18
ATOM     18  C   UNL     1      13.678  -1.245  20.147  1.00  0.00    -0.000 C 
BRANCH  18  19
ATOM     19  C   UNL     1      13.394  -0.308  18.956  1.00  0.00    -0.000 C 
BRANCH  19  20
ATOM     20  C   UNL     1      13.862   1.146  19.180  1.00  0.00    -0.000 C 
BRANCH  20  21
ATOM     21  C   UNL     1      13.280   2.112  18.133  1.00  0.00    -0.000 C 
BRANCH  21  22
ATOM     22  C   UNL     1      14.341   2.636  17.152  1.00  0.00    -0.000 C 
BRANCH  22  23
ATOM     23  C   UNL     1      15.495   1.639  16.943  1.00  0.00    -0.000 C 
BRANCH  23  24
ATOM     24  C   UNL     1      15.196   0.613  15.838  1.00  0.00    -0.000 C 
BRANCH  24  25
ATOM     25  C   UNL     1      14.889   1.269  14.484  1.00  0.00    -0.003 C 
ATOM     26  C   UNL     1      14.334   0.249  13.494  1.00  0.00     0.004 C 
ENDBRANCH  24  25
ENDBRANCH  23  24
ENDBRANCH  22  23
ENDBRANCH  21  22
ENDBRANCH  20  21
ENDBRANCH  19  20
ENDBRANCH  18  19
ENDBRANCH  17  18
ENDBRANCH  16  17
ENDBRANCH  15  16
ENDBRANCH   1  15
TORSDOF 22
ENDMDL
MODEL 4
REMARK VINA RESULT:    -6.211      1.724      3.352
REMARK INTER + INTRA:         -16.695
REMARK INTER:                 -13.734
REMARK INTRA:                  -2.962
REMARK UNBOUND:                -2.497
REMARK SMILES CCCCCCCCCCCCCCCCCCCCCCCC(=O)[O-]
REMARK SMILES IDX 13 1 14 2 15 3 16 4 17 5 18 6 19 7 20 8 21 9 22 10 23 11
REMARK SMILES IDX 24 12 25 13 26 14 12 15 11 16 10 17 9 18 8 19 7 20 6 21 5 22
REMARK SMILES IDX 4 23 3 24 2 25 1 26
REMARK H PARENT
REMARK Flexibility Score: inf
ROOT
ATOM      1  C   UNL     1      19.593  -1.454  15.487  1.00  0.00     0.000 C 
ENDROOT
BRANCH   1   2
ATOM      2  C   UNL     1      19.032  -0.629  16.651  1.00  0.00     0.000 C 
BRANCH   2   3
ATOM      3  C   UNL     1      18.066  -1.461  17.503  1.00  0.00     0.000 C 
BRANCH   3   4
ATOM      4  C   UNL     1      16.836  -0.636  17.904  1.00  0.00     0.000 C 
BRANCH   4   5
ATOM      5  C   UNL     1      16.629  -0.662  19.426  1.00  0.00     0.000 C 
BRANCH   5   6
ATOM      6  C   UNL     1      15.655  -1.765  19.870  1.00  0.00     0.000 C 
BRANCH   6   7
ATOM      7  C   UNL     1      14.525  -1.228  20.768  1.00  0.00     0.000 C 
BRANCH   7   8
ATOM      8  C   UNL     1      13.166  -1.192  20.050  1.00  0.00     0.000 C 
BRANCH   8   9
ATOM      9  C   UNL     1      13.231  -1.796  18.636  1.00  0.00     0.000 C 
BRANCH   9  10
ATOM     10  C   UNL     1      13.233  -0.725  17.532  1.00  0.00     0.006 C 
BRANCH  10  11
ATOM     11  C   UNL     1      13.323   0.720  18.048  1.00  0.00     0.053 C 
BRANCH  11  12
ATOM     12  C   UNL     1      13.701   1.683  16.964  1.00  0.00     0.041 C 
ATOM     13  O   UNL     1      12.922   1.885  15.996  1.00  0.00    -0.550 OA
ATOM     14  O   UNL     1      14.899   2.383  17.042  1.00  0.00    -0.550 OA
ENDBRANCH  11  12
ENDBRANCH  10  11
ENDBRANCH   9  10
ENDBRANCH   8   9
ENDBRANCH   7   8
ENDBRANCH   6   7
ENDBRANCH   5   6
ENDBRANCH   4   5
ENDBRANCH   3   4
ENDBRANCH   2   3
ENDBRANCH   1   2
BRANCH   1  15
ATOM     15  C   UNL     1      18.506  -2.356  14.883  1.00  0.00     0.000 C 
BRANCH  15  16
ATOM     16  C   UNL     1      17.475  -1.574  14.054  1.00  0.00     0.000 C 
BRANCH  16  17
ATOM     17  C   UNL     1      16.038  -1.756  14.574  1.00  0.00     0.000 C 
BRANCH  17  18
ATOM     18  C   UNL     1      15.129  -0.560  14.241  1.00  0.00    -0.000 C 
BRANCH  18  19
ATOM     19  C   UNL     1      15.871   0.746  13.890  1.00  0.00    -0.000 C 
BRANCH  19  20
ATOM     20  C   UNL     1      15.303   1.473  12.653  1.00  0.00    -0.000 C 
BRANCH  20  21
ATOM     21  C   UNL     1      15.480   0.652  11.364  1.00  0.00    -0.000 C 
BRANCH  21  22
ATOM     22  C   UNL     1      16.956   0.371  11.036  1.00  0.00    -0.000 C 
BRANCH  22  23
ATOM     23  C   UNL     1      17.200  -1.092  10.625  1.00  0.00    -0.000 C 
BRANCH  23  24
ATOM     24  C   UNL     1      17.533  -1.237   9.131  1.00  0.00    -0.000 C 
BRANCH  24  25
ATOM     25  C   UNL     1      18.543  -0.188   8.641  1.00  0.00    -0.003 C 
ATOM     26  C   UNL     1      18.846  -0.370   7.157  1.00  0.00     0.004 C 
ENDBRANCH  24  25
ENDBRANCH  23  24
ENDBRANCH  22  23
ENDBRANCH  21  22
ENDBRANCH  20  21
ENDBRANCH  19  20
ENDBRANCH  18  19
ENDBRANCH  17  18
ENDBRANCH  16  17
ENDBRANCH  15  16
ENDBRANCH   1  15
TORSDOF 22
ENDMDL
MODEL 5
REMARK VINA RESULT:    -6.102      1.641      3.759
REMARK INTER + INTRA:         -16.447
REMARK INTER:                 -14.122
REMARK INTRA:                  -2.324
REMARK UNBOUND:                -2.497
REMARK SMILES CCCCCCCCCCCCCCCCCCCCCCCC(=O)[O-]
REMARK SMILES IDX 13 1 14 2 15 3 16 4 17 5 18 6 19 7 20 8 21 9 22 10 23 11
REMARK SMILES IDX 24 12 25 13 26 14 12 15 11 16 10 17 9 18 8 19 7 20 6 21 5 22
REMARK SMILES IDX 4 23 3 24 2 25 1 26
REMARK H PARENT
REMARK Flexibility Score: inf
ROOT
ATOM      1  C   UNL     1      18.567  -1.011  15.122  1.00  0.00     0.000 C 
ENDROOT
BRANCH   1   2
ATOM      2  C   UNL     1      18.930  -1.973  16.259  1.00  0.00     0.000 C 
BRANCH   2   3
ATOM      3  C   UNL     1      18.284  -3.347  16.047  1.00  0.00     0.000 C 
BRANCH   3   4
ATOM      4  C   UNL     1      17.460  -3.764  17.271  1.00  0.00     0.000 C 
BRANCH   4   5
ATOM      5  C   UNL     1      15.956  -3.609  17.002  1.00  0.00     0.000 C 
BRANCH   5   6
ATOM      6  C   UNL     1      15.248  -2.767  18.074  1.00  0.00     0.000 C 
BRANCH   6   7
ATOM      7  C   UNL     1      16.206  -1.801  18.794  1.00  0.00     0.000 C 
BRANCH   7   8
ATOM      8  C   UNL     1      15.537  -1.072  19.972  1.00  0.00     0.000 C 
BRANCH   8   9
ATOM      9  C   UNL     1      14.012  -1.273  19.998  1.00  0.00     0.000 C 
BRANCH   9  10
ATOM     10  C   UNL     1      13.261  -0.239  19.141  1.00  0.00     0.006 C 
BRANCH  10  11
ATOM     11  C   UNL     1      13.969   1.119  19.018  1.00  0.00     0.053 C 
BRANCH  11  12
ATOM     12  C   UNL     1      13.634   1.816  17.735  1.00  0.00     0.041 C 
ATOM     13  O   UNL     1      13.273   1.151  16.729  1.00  0.00    -0.550 OA
ATOM     14  O   UNL     1      13.689   3.202  17.661  1.00  0.00    -0.550 OA
ENDBRANCH  11  12
ENDBRANCH  10  11
ENDBRANCH   9  10
ENDBRANCH   8   9
ENDBRANCH   7   8
ENDBRANCH   6   7
ENDBRANCH   5   6
ENDBRANCH   4   5
ENDBRANCH   3   4
ENDBRANCH   2   3
ENDBRANCH   1   2
BRANCH   1  15
ATOM     15  C   UNL     1      17.166  -1.317  14.573  1.00  0.00     0.000 C 
BRANCH  15  16
ATOM     16  C   UNL     1      16.079  -0.411  15.172  1.00  0.00     0.000 C 
BRANCH  16  17
ATOM     17  C   UNL     1      15.622   0.689  14.197  1.00  0.00     0.000 C 
BRANCH  17  18
ATOM     18  C   UNL     1      14.835   0.131  12.998  1.00  0.00    -0.000 C 
BRANCH  18  19
ATOM     19  C   UNL     1      15.352   0.575  11.615  1.00  0.00    -0.000 C 
BRANCH  19  20
ATOM     20  C   UNL     1      16.885   0.746  11.547  1.00  0.00    -0.000 C 
BRANCH  20  21
ATOM     21  C   UNL     1      17.611  -0.596  11.348  1.00  0.00    -0.000 C 
BRANCH  21  22
ATOM     22  C   UNL     1      17.356  -1.210   9.962  1.00  0.00    -0.000 C 
BRANCH  22  23
ATOM     23  C   UNL     1      17.749  -0.262   8.815  1.00  0.00    -0.000 C 
BRANCH  23  24
ATOM     24  C   UNL     1      18.805  -0.872   7.880  1.00  0.00    -0.000 C 
BRANCH  24  25
ATOM     25  C   UNL     1      18.956  -0.093   6.564  1.00  0.00    -0.003 C 
ATOM     26  C   UNL     1      19.958   1.048   6.715  1.00  0.00     0.004 C 
ENDBRANCH  24  25
ENDBRANCH  23  24
ENDBRANCH  22  23
ENDBRANCH  21  22
ENDBRANCH  20  21
ENDBRANCH  19  20
ENDBRANCH  18  19
ENDBRANCH  17  18
ENDBRANCH  16  17
ENDBRANCH  15  16
ENDBRANCH   1  15
TORSDOF 22
ENDMDL
MODEL 6
REMARK VINA RESULT:    -5.944      1.380      2.387
REMARK INTER + INTRA:         -16.085
REMARK INTER:                 -13.809
REMARK INTRA:                  -2.276
REMARK UNBOUND:                -2.497
REMARK SMILES CCCCCCCCCCCCCCCCCCCCCCCC(=O)[O-]
REMARK SMILES IDX 13 1 14 2 15 3 16 4 17 5 18 6 19 7 20 8 21 9 22 10 23 11
REMARK SMILES IDX 24 12 25 13 26 14 12 15 11 16 10 17 9 18 8 19 7 20 6 21 5 22
REMARK SMILES IDX 4 23 3 24 2 25 1 26
REMARK H PARENT
REMARK Flexibility Score: inf
ROOT
ATOM      1  C   UNL     1      17.841  -0.453  17.048  1.00  0.00     0.000 C 
ENDROOT
BRANCH   1   2
ATOM      2  C   UNL     1      17.460  -1.098  18.385  1.00  0.00     0.000 C 
BRANCH   2   3
ATOM      3  C   UNL     1      16.825  -2.477  18.173  1.00  0.00     0.000 C 
BRANCH   3   4
ATOM      4  C   UNL     1      15.561  -2.639  19.025  1.00  0.00     0.000 C 
BRANCH   4   5
ATOM      5  C   UNL     1      15.455  -1.520  20.072  1.00  0.00     0.000 C 
BRANCH   5   6
ATOM      6  C   UNL     1      14.073  -0.848  20.081  1.00  0.00     0.000 C 
BRANCH   6   7
ATOM      7  C   UNL     1      14.140   0.646  19.714  1.00  0.00     0.000 C 
BRANCH   7   8
ATOM      8  C   UNL     1      13.578   0.937  18.313  1.00  0.00     0.000 C 
BRANCH   8   9
ATOM      9  C   UNL     1      14.683   1.244  17.287  1.00  0.00     0.000 C 
BRANCH   9  10
ATOM     10  C   UNL     1      14.135   1.443  15.863  1.00  0.00     0.006 C 
BRANCH  10  11
ATOM     11  C   UNL     1      15.209   1.740  14.805  1.00  0.00     0.053 C 
BRANCH  11  12
ATOM     12  C   UNL     1      14.852   1.175  13.465  1.00  0.00     0.041 C 
ATOM     13  O   UNL     1      15.149   1.800  12.413  1.00  0.00    -0.550 OA
ATOM     14  O   UNL     1      14.219  -0.058  13.376  1.00  0.00    -0.550 OA
ENDBRANCH  11  12
ENDBRANCH  10  11
ENDBRANCH   9  10
ENDBRANCH   8   9
ENDBRANCH   7   8
ENDBRANCH   6   7
ENDBRANCH   5   6
ENDBRANCH   4   5
ENDBRANCH   3   4
ENDBRANCH   2   3
ENDBRANCH   1   2
BRANCH   1  15
ATOM     15  C   UNL     1      17.162  -1.179  15.877  1.00  0.00     0.000 C 
BRANCH  15  16
ATOM     16  C   UNL     1      18.103  -1.392  14.681  1.00  0.00     0.000 C 
BRANCH  16  17
ATOM     17  C   UNL     1      17.347  -1.759  13.392  1.00  0.00     0.000 C 
BRANCH  17  18
ATOM     18  C   UNL     1      17.584  -0.749  12.254  1.00  0.00    -0.000 C 
BRANCH  18  19
ATOM     19  C   UNL     1      17.609  -1.358  10.838  1.00  0.00    -0.000 C 
BRANCH  19  20
ATOM     20  C   UNL     1      17.503  -0.312   9.707  1.00  0.00    -0.000 C 
BRANCH  20  21
ATOM     21  C   UNL     1      17.951  -0.878   8.348  1.00  0.00    -0.000 C 
BRANCH  21  22
ATOM     22  C   UNL     1      18.437   0.214   7.380  1.00  0.00    -0.000 C 
BRANCH  22  23
ATOM     23  C   UNL     1      19.539  -0.288   6.431  1.00  0.00    -0.000 C 
BRANCH  23  24
ATOM     24  C   UNL     1      20.260  -1.534   6.969  1.00  0.00    -0.000 C 
BRANCH  24  25
ATOM     25  C   UNL     1      21.546  -1.859   6.194  1.00  0.00    -0.003 C 
ATOM     26  C   UNL     1      21.816  -3.361   6.185  1.00  0.00     0.004 C 
ENDBRANCH  24  25
ENDBRANCH  23  24
ENDBRANCH  22  23
ENDBRANCH  21  22
ENDBRANCH  20  21
ENDBRANCH  19  20
ENDBRANCH  18  19
ENDBRANCH  17  18
ENDBRANCH  16  17
ENDBRANCH  15  16
ENDBRANCH   1  15
TORSDOF 22
ENDMDL
MODEL 7
REMARK VINA RESULT:    -5.884      3.096      6.820
REMARK INTER + INTRA:         -15.949
REMARK INTER:                 -13.499
REMARK INTRA:                  -2.450
REMARK UNBOUND:                -2.497
REMARK SMILES CCCCCCCCCCCCCCCCCCCCCCCC(=O)[O-]
REMARK SMILES IDX 13 1 14 2 15 3 16 4 17 5 18 6 19 7 20 8 21 9 22 10 23 11
REMARK SMILES IDX 24 12 25 13 26 14 12 15 11 16 10 17 9 18 8 19 7 20 6 21 5 22
REMARK SMILES IDX 4 23 3 24 2 25 1 26
REMARK H PARENT
REMARK Flexibility Score: inf
ROOT
ATOM      1  C   UNL     1      17.735  -1.710  12.403  1.00  0.00     0.000 C 
ENDROOT
BRANCH   1   2
ATOM      2  C   UNL     1      17.205  -0.867  11.238  1.00  0.00     0.000 C 
BRANCH   2   3
ATOM      3  C   UNL     1      16.940   0.578  11.678  1.00  0.00     0.000 C 
BRANCH   3   4
ATOM      4  C   UNL     1      15.437   0.884  11.688  1.00  0.00     0.000 C 
BRANCH   4   5
ATOM      5  C   UNL     1      15.121   2.066  12.616  1.00  0.00     0.000 C 
BRANCH   5   6
ATOM      6  C   UNL     1      15.108   1.664  14.100  1.00  0.00     0.000 C 
BRANCH   6   7
ATOM      7  C   UNL     1      13.761   1.059  14.535  1.00  0.00     0.000 C 
BRANCH   7   8
ATOM      8  C   UNL     1      13.103   1.844  15.683  1.00  0.00     0.000 C 
BRANCH   8   9
ATOM      9  C   UNL     1      13.904   1.751  16.994  1.00  0.00     0.000 C 
BRANCH   9  10
ATOM     10  C   UNL     1      13.108   1.085  18.130  1.00  0.00     0.006 C 
BRANCH  10  11
ATOM     11  C   UNL     1      13.698  -0.245  18.625  1.00  0.00     0.053 C 
BRANCH  11  12
ATOM     12  C   UNL     1      14.634  -0.053  19.778  1.00  0.00     0.041 C 
ATOM     13  O   UNL     1      15.651  -0.785  19.898  1.00  0.00    -0.550 OA
ATOM     14  O   UNL     1      14.400   0.958  20.703  1.00  0.00    -0.550 OA
ENDBRANCH  11  12
ENDBRANCH  10  11
ENDBRANCH   9  10
ENDBRANCH   8   9
ENDBRANCH   7   8
ENDBRANCH   6   7
ENDBRANCH   5   6
ENDBRANCH   4   5
ENDBRANCH   3   4
ENDBRANCH   2   3
ENDBRANCH   1   2
BRANCH   1  15
ATOM     15  C   UNL     1      17.322  -1.101  13.752  1.00  0.00     0.000 C 
BRANCH  15  16
ATOM     16  C   UNL     1      16.079  -1.776  14.353  1.00  0.00     0.000 C 
BRANCH  16  17
ATOM     17  C   UNL     1      15.908  -1.470  15.852  1.00  0.00     0.000 C 
BRANCH  17  18
ATOM     18  C   UNL     1      16.117  -2.710  16.740  1.00  0.00    -0.000 C 
BRANCH  18  19
ATOM     19  C   UNL     1      17.525  -2.842  17.355  1.00  0.00    -0.000 C 
BRANCH  19  20
ATOM     20  C   UNL     1      18.570  -3.452  16.396  1.00  0.00    -0.000 C 
BRANCH  20  21
ATOM     21  C   UNL     1      19.711  -2.469  16.078  1.00  0.00    -0.000 C 
BRANCH  21  22
ATOM     22  C   UNL     1      21.065  -3.171  15.887  1.00  0.00    -0.000 C 
BRANCH  22  23
ATOM     23  C   UNL     1      22.256  -2.262  16.235  1.00  0.00    -0.000 C 
BRANCH  23  24
ATOM     24  C   UNL     1      23.598  -3.011  16.213  1.00  0.00    -0.000 C 
BRANCH  24  25
ATOM     25  C   UNL     1      23.525  -4.382  16.902  1.00  0.00    -0.003 C 
ATOM     26  C   UNL     1      24.789  -4.656  17.713  1.00  0.00     0.004 C 
ENDBRANCH  24  25
ENDBRANCH  23  24
ENDBRANCH  22  23
ENDBRANCH  21  22
ENDBRANCH  20  21
ENDBRANCH  19  20
ENDBRANCH  18  19
ENDBRANCH  17  18
ENDBRANCH  16  17
ENDBRANCH  15  16
ENDBRANCH   1  15
TORSDOF 22
ENDMDL
MODEL 8
REMARK VINA RESULT:    -5.811      4.670      7.982
REMARK INTER + INTRA:         -15.781
REMARK INTER:                 -13.171
REMARK INTRA:                  -2.610
REMARK UNBOUND:                -2.497
REMARK SMILES CCCCCCCCCCCCCCCCCCCCCCCC(=O)[O-]
REMARK SMILES IDX 13 1 14 2 15 3 16 4 17 5 18 6 19 7 20 8 21 9 22 10 23 11
REMARK SMILES IDX 24 12 25 13 26 14 12 15 11 16 10 17 9 18 8 19 7 20 6 21 5 22
REMARK SMILES IDX 4 23 3 24 2 25 1 26
REMARK H PARENT
REMARK Flexibility Score: inf
ROOT
ATOM      1  C   UNL     1      17.323  -0.886  18.747  1.00  0.00     0.000 C 
ENDROOT
BRANCH   1   2
ATOM      2  C   UNL     1      17.840  -0.245  17.454  1.00  0.00     0.000 C 
BRANCH   2   3
ATOM      3  C   UNL     1      17.202  -0.895  16.221  1.00  0.00     0.000 C 
BRANCH   3   4
ATOM      4  C   UNL     1      18.275  -1.393  15.244  1.00  0.00     0.000 C 
BRANCH   4   5
ATOM      5  C   UNL     1      19.683  -1.201  15.827  1.00  0.00     0.000 C 
BRANCH   5   6
ATOM      6  C   UNL     1      20.453  -2.524  15.955  1.00  0.00     0.000 C 
BRANCH   6   7
ATOM      7  C   UNL     1      21.967  -2.311  16.136  1.00  0.00     0.000 C 
BRANCH   7   8
ATOM      8  C   UNL     1      22.355  -0.823  16.166  1.00  0.00     0.000 C 
BRANCH   8   9
ATOM      9  C   UNL     1      23.862  -0.612  16.399  1.00  0.00     0.000 C 
BRANCH   9  10
ATOM     10  C   UNL     1      24.720  -1.096  15.217  1.00  0.00     0.006 C 
BRANCH  10  11
ATOM     11  C   UNL     1      26.169  -1.451  15.587  1.00  0.00     0.053 C 
BRANCH  11  12
ATOM     12  C   UNL     1      26.254  -2.720  16.378  1.00  0.00     0.041 C 
ATOM     13  O   UNL     1      27.084  -2.827  17.318  1.00  0.00    -0.550 OA
ATOM     14  O   UNL     1      25.393  -3.774  16.097  1.00  0.00    -0.550 OA
ENDBRANCH  11  12
ENDBRANCH  10  11
ENDBRANCH   9  10
ENDBRANCH   8   9
ENDBRANCH   7   8
ENDBRANCH   6   7
ENDBRANCH   5   6
ENDBRANCH   4   5
ENDBRANCH   3   4
ENDBRANCH   2   3
ENDBRANCH   1   2
BRANCH   1  15
ATOM     15  C   UNL     1      16.369  -2.050  18.436  1.00  0.00     0.000 C 
BRANCH  15  16
ATOM     16  C   UNL     1      14.992  -1.883  19.097  1.00  0.00     0.000 C 
BRANCH  16  17
ATOM     17  C   UNL     1      13.928  -1.352  18.120  1.00  0.00     0.000 C 
BRANCH  17  18
ATOM     18  C   UNL     1      13.214  -0.093  18.643  1.00  0.00    -0.000 C 
BRANCH  18  19
ATOM     19  C   UNL     1      14.100   1.166  18.740  1.00  0.00    -0.000 C 
BRANCH  19  20
ATOM     20  C   UNL     1      14.424   1.808  17.374  1.00  0.00    -0.000 C 
BRANCH  20  21
ATOM     21  C   UNL     1      13.169   1.976  16.498  1.00  0.00    -0.000 C 
BRANCH  21  22
ATOM     22  C   UNL     1      13.330   1.352  15.103  1.00  0.00    -0.000 C 
BRANCH  22  23
ATOM     23  C   UNL     1      14.805   1.166  14.705  1.00  0.00    -0.000 C 
BRANCH  23  24
ATOM     24  C   UNL     1      15.117   1.735  13.312  1.00  0.00    -0.000 C 
BRANCH  24  25
ATOM     25  C   UNL     1      15.189   0.648  12.228  1.00  0.00    -0.003 C 
ATOM     26  C   UNL     1      16.507   0.725  11.462  1.00  0.00     0.004 C 
ENDBRANCH  24  25
ENDBRANCH  23  24
ENDBRANCH  22  23
ENDBRANCH  21  22
ENDBRANCH  20  21
ENDBRANCH  19  20
ENDBRANCH  18  19
ENDBRANCH  17  18
ENDBRANCH  16  17
ENDBRANCH  15  16
ENDBRANCH   1  15
TORSDOF 22
ENDMDL
MODEL 9
REMARK VINA RESULT:    -5.796      3.857      7.302
REMARK INTER + INTRA:         -15.747
REMARK INTER:                 -13.300
REMARK INTRA:                  -2.447
REMARK UNBOUND:                -2.497
REMARK SMILES CCCCCCCCCCCCCCCCCCCCCCCC(=O)[O-]
REMARK SMILES IDX 13 1 14 2 15 3 16 4 17 5 18 6 19 7 20 8 21 9 22 10 23 11
REMARK SMILES IDX 24 12 25 13 26 14 12 15 11 16 10 17 9 18 8 19 7 20 6 21 5 22
REMARK SMILES IDX 4 23 3 24 2 25 1 26
REMARK H PARENT
REMARK Flexibility Score: inf
ROOT
ATOM      1  C   UNL     1      16.599  -1.259  17.940  1.00  0.00     0.000 C 
ENDROOT
BRANCH   1   2
ATOM      2  C   UNL     1      15.631  -1.982  16.997  1.00  0.00     0.000 C 
BRANCH   2   3
ATOM      3  C   UNL     1      16.223  -2.108  15.588  1.00  0.00     0.000 C 
BRANCH   3   4
ATOM      4  C   UNL     1      17.531  -1.316  15.468  1.00  0.00     0.000 C 
BRANCH   4   5
ATOM      5  C   UNL     1      18.440  -1.915  14.384  1.00  0.00     0.000 C 
BRANCH   5   6
ATOM      6  C   UNL     1      19.459  -2.914  14.955  1.00  0.00     0.000 C 
BRANCH   6   7
ATOM      7  C   UNL     1      20.462  -2.250  15.916  1.00  0.00     0.000 C 
BRANCH   7   8
ATOM      8  C   UNL     1      21.709  -3.117  16.160  1.00  0.00     0.000 C 
BRANCH   8   9
ATOM      9  C   UNL     1      22.988  -2.276  16.319  1.00  0.00     0.000 C 
BRANCH   9  10
ATOM     10  C   UNL     1      22.718  -0.763  16.241  1.00  0.00     0.006 C 
BRANCH  10  11
ATOM     11  C   UNL     1      23.923   0.117  16.613  1.00  0.00     0.053 C 
BRANCH  11  12
ATOM     12  C   UNL     1      25.039  -0.007  15.622  1.00  0.00     0.041 C 
ATOM     13  O   UNL     1      26.132  -0.531  15.962  1.00  0.00    -0.550 OA
ATOM     14  O   UNL     1      24.860   0.426  14.314  1.00  0.00    -0.550 OA
ENDBRANCH  11  12
ENDBRANCH  10  11
ENDBRANCH   9  10
ENDBRANCH   8   9
ENDBRANCH   7   8
ENDBRANCH   6   7
ENDBRANCH   5   6
ENDBRANCH   4   5
ENDBRANCH   3   4
ENDBRANCH   2   3
ENDBRANCH   1   2
BRANCH   1  15
ATOM     15  C   UNL     1      16.228  -1.519  19.408  1.00  0.00     0.000 C 
BRANCH  15  16
ATOM     16  C   UNL     1      14.741  -1.265  19.701  1.00  0.00     0.000 C 
BRANCH  16  17
ATOM     17  C   UNL     1      14.376   0.229  19.649  1.00  0.00     0.000 C 
BRANCH  17  18
ATOM     18  C   UNL     1      13.224   0.527  18.672  1.00  0.00    -0.000 C 
BRANCH  18  19
ATOM     19  C   UNL     1      13.054   2.014  18.298  1.00  0.00    -0.000 C 
BRANCH  19  20
ATOM     20  C   UNL     1      13.210   2.300  16.789  1.00  0.00    -0.000 C 
BRANCH  20  21
ATOM     21  C   UNL     1      14.478   1.654  16.204  1.00  0.00    -0.000 C 
BRANCH  21  22
ATOM     22  C   UNL     1      14.236   1.006  14.831  1.00  0.00    -0.000 C 
BRANCH  22  23
ATOM     23  C   UNL     1      15.457   1.121  13.901  1.00  0.00    -0.000 C 
BRANCH  23  24
ATOM     24  C   UNL     1      15.091   1.666  12.510  1.00  0.00    -0.000 C 
BRANCH  24  25
ATOM     25  C   UNL     1      15.542   0.741  11.371  1.00  0.00    -0.003 C 
ATOM     26  C   UNL     1      17.040   0.460  11.454  1.00  0.00     0.004 C 
ENDBRANCH  24  25
ENDBRANCH  23  24
ENDBRANCH  22  23
ENDBRANCH  21  22
ENDBRANCH  20  21
ENDBRANCH  19  20
ENDBRANCH  18  19
ENDBRANCH  17  18
ENDBRANCH  16  17
ENDBRANCH  15  16
ENDBRANCH   1  15
TORSDOF 22
ENDMDL
