MODEL 1
REMARK VINA RESULT:    -3.070      0.000      0.000
REMARK INTER + INTRA:          -5.954
REMARK INTER:                  -4.685
REMARK INTRA:                  -1.269
REMARK UNBOUND:                -1.269
REMARK SMILES CCCCCCCCCCC(=O)[O-]
REMARK SMILES IDX 7 1 8 2 9 3 10 4 11 5 12 6 13 7 6 8 5 9 4 10 3 11 2 12 1 13
REMARK H PARENT
REMARK Flexibility Score: inf
ROOT
ATOM      1  C   UNL     1      -3.166  -8.630  39.509  1.00  0.00     0.000 C 
ENDROOT
BRANCH   1   2
ATOM      2  C   UNL     1      -3.399  -9.453  40.785  1.00  0.00     0.000 C 
BRANCH   2   3
ATOM      3  C   UNL     1      -2.087  -9.850  41.483  1.00  0.00     0.006 C 
BRANCH   3   4
ATOM      4  C   UNL     1      -1.603 -11.242  41.060  1.00  0.00     0.053 C 
BRANCH   4   5
ATOM      5  C   UNL     1      -1.627 -12.212  42.203  1.00  0.00     0.041 C 
ATOM      6  O   UNL     1      -0.637 -12.306  42.974  1.00  0.00    -0.550 OA
ATOM      7  O   UNL     1      -2.732 -13.029  42.396  1.00  0.00    -0.550 OA
ENDBRANCH   4   5
ENDBRANCH   3   4
ENDBRANCH   2   3
ENDBRANCH   1   2
BRANCH   1   8
ATOM      8  C   UNL     1      -1.802  -7.922  39.501  1.00  0.00     0.000 C 
BRANCH   8   9
ATOM      9  C   UNL     1      -1.029  -8.232  38.212  1.00  0.00    -0.000 C 
BRANCH   9  10
ATOM     10  C   UNL     1       0.092  -9.247  38.475  1.00  0.00    -0.000 C 
BRANCH  10  11
ATOM     11  C   UNL     1      -0.131 -10.588  37.752  1.00  0.00    -0.000 C 
BRANCH  11  12
ATOM     12  C   UNL     1      -1.390 -10.644  36.868  1.00  0.00    -0.003 C 
ATOM     13  C   UNL     1      -2.445 -11.619  37.390  1.00  0.00     0.004 C 
ENDBRANCH  11  12
ENDBRANCH  10  11
ENDBRANCH   9  10
ENDBRANCH   8   9
ENDBRANCH   1   8
TORSDOF 9
ENDMDL
MODEL 2
REMARK VINA RESULT:    -3.051      3.650      4.661
REMARK INTER + INTRA:          -5.926
REMARK INTER:                  -5.383
REMARK INTRA:                  -0.543
REMARK UNBOUND:                -1.269
REMARK SMILES CCCCCCCCCCC(=O)[O-]
REMARK SMILES IDX 7 1 8 2 9 3 10 4 11 5 12 6 13 7 6 8 5 9 4 10 3 11 2 12 1 13
REMARK H PARENT
REMARK Flexibility Score: inf
ROOT
ATOM      1  C   UNL     1      -2.167  -8.230  37.518  1.00  0.00     0.000 C 
ENDROOT
BRANCH   1   2
ATOM      2  C   UNL     1      -2.661  -7.964  38.948  1.00  0.00     0.000 C 
BRANCH   2   3
ATOM      3  C   UNL     1      -1.573  -8.215  40.007  1.00  0.00     0.006 C 
BRANCH   3   4
ATOM      4  C   UNL     1      -1.966  -9.325  40.990  1.00  0.00     0.053 C 
BRANCH   4   5
ATOM      5  C   UNL     1      -1.232 -10.601  40.711  1.00  0.00     0.041 C 
ATOM      6  O   UNL     1      -0.379 -10.653  39.787  1.00  0.00    -0.550 OA
ATOM      7  O   UNL     1      -1.512 -11.740  41.455  1.00  0.00    -0.550 OA
ENDBRANCH   4   5
ENDBRANCH   3   4
ENDBRANCH   2   3
ENDBRANCH   1   2
BRANCH   1   8
ATOM      8  C   UNL     1      -2.363  -7.022  36.588  1.00  0.00     0.000 C 
BRANCH   8   9
ATOM      9  C   UNL     1      -3.522  -6.140  37.071  1.00  0.00    -0.000 C 
BRANCH   9  10
ATOM     10  C   UNL     1      -4.608  -6.021  35.992  1.00  0.00    -0.000 C 
BRANCH  10  11
ATOM     11  C   UNL     1      -4.904  -4.563  35.598  1.00  0.00    -0.000 C 
BRANCH  11  12
ATOM     12  C   UNL     1      -3.947  -3.970  34.549  1.00  0.00    -0.003 C 
ATOM     13  C   UNL     1      -3.476  -4.997  33.519  1.00  0.00     0.004 C 
ENDBRANCH  11  12
ENDBRANCH  10  11
ENDBRANCH   9  10
ENDBRANCH   8   9
ENDBRANCH   1   8
TORSDOF 9
ENDMDL
MODEL 3
REMARK VINA RESULT:    -3.050      2.914      4.816
REMARK INTER + INTRA:          -5.924
REMARK INTER:                  -5.016
REMARK INTRA:                  -0.908
REMARK UNBOUND:                -1.269
REMARK SMILES CCCCCCCCCCC(=O)[O-]
REMARK SMILES IDX 7 1 8 2 9 3 10 4 11 5 12 6 13 7 6 8 5 9 4 10 3 11 2 12 1 13
REMARK H PARENT
REMARK Flexibility Score: inf
ROOT
ATOM      1  C   UNL     1      -1.566 -11.165  41.190  1.00  0.00     0.000 C 
ENDROOT
BRANCH   1   2
ATOM      2  C   UNL     1      -1.083 -11.447  42.621  1.00  0.00     0.000 C 
BRANCH   2   3
ATOM      3  C   UNL     1      -1.097 -12.947  42.967  1.00  0.00     0.006 C 
BRANCH   3   4
ATOM      4  C   UNL     1      -2.311 -13.668  42.366  1.00  0.00     0.053 C 
BRANCH   4   5
ATOM      5  C   UNL     1      -2.704 -14.866  43.177  1.00  0.00     0.041 C 
ATOM      6  O   UNL     1      -1.884 -15.802  43.363  1.00  0.00    -0.550 OA
ATOM      7  O   UNL     1      -3.986 -14.958  43.701  1.00  0.00    -0.550 OA
ENDBRANCH   4   5
ENDBRANCH   3   4
ENDBRANCH   2   3
ENDBRANCH   1   2
BRANCH   1   8
ATOM      8  C   UNL     1      -2.446  -9.909  41.098  1.00  0.00     0.000 C 
BRANCH   8   9
ATOM      9  C   UNL     1      -3.909 -10.281  40.827  1.00  0.00    -0.000 C 
BRANCH   9  10
ATOM     10  C   UNL     1      -4.863  -9.394  41.641  1.00  0.00    -0.000 C 
BRANCH  10  11
ATOM     11  C   UNL     1      -5.239 -10.009  43.000  1.00  0.00    -0.000 C 
BRANCH  11  12
ATOM     12  C   UNL     1      -5.142 -11.544  43.066  1.00  0.00    -0.003 C 
ATOM     13  C   UNL     1      -6.179 -12.169  43.998  1.00  0.00     0.004 C 
ENDBRANCH  11  12
ENDBRANCH  10  11
ENDBRANCH   9  10
ENDBRANCH   8   9
ENDBRANCH   1   8
TORSDOF 9
ENDMDL
MODEL 4
REMARK VINA RESULT:    -3.038      4.138      5.279
REMARK INTER + INTRA:          -5.905
REMARK INTER:                  -5.180
REMARK INTRA:                  -0.726
REMARK UNBOUND:                -1.269
REMARK SMILES CCCCCCCCCCC(=O)[O-]
REMARK SMILES IDX 7 1 8 2 9 3 10 4 11 5 12 6 13 7 6 8 5 9 4 10 3 11 2 12 1 13
REMARK H PARENT
REMARK Flexibility Score: inf
ROOT
ATOM      1  C   UNL     1      -2.909  -6.501  37.372  1.00  0.00     0.000 C 
ENDROOT
BRANCH   1   2
ATOM      2  C   UNL     1      -1.985  -7.652  36.945  1.00  0.00     0.000 C 
BRANCH   2   3
ATOM      3  C   UNL     1      -1.065  -8.127  38.084  1.00  0.00     0.006 C 
BRANCH   3   4
ATOM      4  C   UNL     1      -1.729  -7.991  39.460  1.00  0.00     0.053 C 
BRANCH   4   5
ATOM      5  C   UNL     1      -1.516  -9.211  40.304  1.00  0.00     0.041 C 
ATOM      6  O   UNL     1      -2.097  -9.321  41.415  1.00  0.00    -0.550 OA
ATOM      7  O   UNL     1      -0.654 -10.210  39.874  1.00  0.00    -0.550 OA
ENDBRANCH   4   5
ENDBRANCH   3   4
ENDBRANCH   2   3
ENDBRANCH   1   2
BRANCH   1   8
ATOM      8  C   UNL     1      -4.267  -6.533  36.653  1.00  0.00     0.000 C 
BRANCH   8   9
ATOM      9  C   UNL     1      -4.854  -5.121  36.526  1.00  0.00    -0.000 C 
BRANCH   9  10
ATOM     10  C   UNL     1      -5.064  -4.744  35.052  1.00  0.00    -0.000 C 
BRANCH  10  11
ATOM     11  C   UNL     1      -3.769  -4.275  34.363  1.00  0.00    -0.000 C 
BRANCH  11  12
ATOM     12  C   UNL     1      -3.334  -5.124  33.156  1.00  0.00    -0.003 C 
ATOM     13  C   UNL     1      -2.237  -6.132  33.498  1.00  0.00     0.004 C 
ENDBRANCH  11  12
ENDBRANCH  10  11
ENDBRANCH   9  10
ENDBRANCH   8   9
ENDBRANCH   1   8
TORSDOF 9
ENDMDL
MODEL 5
REMARK VINA RESULT:    -3.014      1.596      2.923
REMARK INTER + INTRA:          -5.869
REMARK INTER:                  -4.794
REMARK INTRA:                  -1.075
REMARK UNBOUND:                -1.269
REMARK SMILES CCCCCCCCCCC(=O)[O-]
REMARK SMILES IDX 7 1 8 2 9 3 10 4 11 5 12 6 13 7 6 8 5 9 4 10 3 11 2 12 1 13
REMARK H PARENT
REMARK Flexibility Score: inf
ROOT
ATOM      1  C   UNL     1      -0.202  -9.153  39.002  1.00  0.00     0.000 C 
ENDROOT
BRANCH   1   2
ATOM      2  C   UNL     1      -1.086  -8.362  39.978  1.00  0.00     0.000 C 
BRANCH   2   3
ATOM      3  C   UNL     1      -2.133  -9.245  40.679  1.00  0.00     0.006 C 
BRANCH   3   4
ATOM      4  C   UNL     1      -1.761 -10.733  40.633  1.00  0.00     0.053 C 
BRANCH   4   5
ATOM      5  C   UNL     1      -1.831 -11.367  41.989  1.00  0.00     0.041 C 
ATOM      6  O   UNL     1      -2.934 -11.464  42.586  1.00  0.00    -0.550 OA
ATOM      7  O   UNL     1      -0.672 -11.825  42.602  1.00  0.00    -0.550 OA
ENDBRANCH   4   5
ENDBRANCH   3   4
ENDBRANCH   2   3
ENDBRANCH   1   2
BRANCH   1   8
ATOM      8  C   UNL     1      -0.660  -9.017  37.542  1.00  0.00     0.000 C 
BRANCH   8   9
ATOM      9  C   UNL     1      -0.833  -7.542  37.156  1.00  0.00    -0.000 C 
BRANCH   9  10
ATOM     10  C   UNL     1      -2.221  -7.291  36.550  1.00  0.00    -0.000 C 
BRANCH  10  11
ATOM     11  C   UNL     1      -3.165  -6.540  37.505  1.00  0.00    -0.000 C 
BRANCH  11  12
ATOM     12  C   UNL     1      -4.494  -7.257  37.800  1.00  0.00    -0.003 C 
ATOM     13  C   UNL     1      -4.367  -8.781  37.789  1.00  0.00     0.004 C 
ENDBRANCH  11  12
ENDBRANCH  10  11
ENDBRANCH   9  10
ENDBRANCH   8   9
ENDBRANCH   1   8
TORSDOF 9
ENDMDL
MODEL 6
REMARK VINA RESULT:    -2.963      6.283      7.814
REMARK INTER + INTRA:          -5.790
REMARK INTER:                  -5.252
REMARK INTRA:                  -0.538
REMARK UNBOUND:                -1.269
REMARK SMILES CCCCCCCCCCC(=O)[O-]
REMARK SMILES IDX 7 1 8 2 9 3 10 4 11 5 12 6 13 7 6 8 5 9 4 10 3 11 2 12 1 13
REMARK H PARENT
REMARK Flexibility Score: inf
ROOT
ATOM      1  C   UNL     1      -4.615  -5.975  36.126  1.00  0.00     0.000 C 
ENDROOT
BRANCH   1   2
ATOM      2  C   UNL     1      -4.800  -4.491  35.776  1.00  0.00     0.000 C 
BRANCH   2   3
ATOM      3  C   UNL     1      -4.082  -4.094  34.474  1.00  0.00     0.006 C 
BRANCH   3   4
ATOM      4  C   UNL     1      -4.447  -5.020  33.307  1.00  0.00     0.053 C 
BRANCH   4   5
ATOM      5  C   UNL     1      -3.228  -5.542  32.608  1.00  0.00     0.041 C 
ATOM      6  O   UNL     1      -3.234  -5.703  31.360  1.00  0.00    -0.550 OA
ATOM      7  O   UNL     1      -2.097  -5.875  33.341  1.00  0.00    -0.550 OA
ENDBRANCH   4   5
ENDBRANCH   3   4
ENDBRANCH   2   3
ENDBRANCH   1   2
BRANCH   1   8
ATOM      8  C   UNL     1      -3.471  -6.212  37.124  1.00  0.00     0.000 C 
BRANCH   8   9
ATOM      9  C   UNL     1      -2.407  -7.144  36.529  1.00  0.00    -0.000 C 
BRANCH   9  10
ATOM     10  C   UNL     1      -1.493  -7.706  37.627  1.00  0.00    -0.000 C 
BRANCH  10  11
ATOM     11  C   UNL     1      -2.165  -7.731  39.012  1.00  0.00    -0.000 C 
BRANCH  11  12
ATOM     12  C   UNL     1      -1.308  -8.336  40.137  1.00  0.00    -0.003 C 
ATOM     13  C   UNL     1      -2.046  -9.406  40.942  1.00  0.00     0.004 C 
ENDBRANCH  11  12
ENDBRANCH  10  11
ENDBRANCH   9  10
ENDBRANCH   8   9
ENDBRANCH   1   8
TORSDOF 9
ENDMDL
MODEL 7
REMARK VINA RESULT:    -2.945      3.132      5.540
REMARK INTER + INTRA:          -5.763
REMARK INTER:                  -4.618
REMARK INTRA:                  -1.145
REMARK UNBOUND:                -1.269
REMARK SMILES CCCCCCCCCCC(=O)[O-]
REMARK SMILES IDX 7 1 8 2 9 3 10 4 11 5 12 6 13 7 6 8 5 9 4 10 3 11 2 12 1 13
REMARK H PARENT
REMARK Flexibility Score: inf
ROOT
ATOM      1  C   UNL     1      -1.502 -12.029  42.315  1.00  0.00     0.000 C 
ENDROOT
BRANCH   1   2
ATOM      2  C   UNL     1      -1.467 -11.114  41.081  1.00  0.00     0.000 C 
BRANCH   2   3
ATOM      3  C   UNL     1      -1.946  -9.684  41.389  1.00  0.00     0.006 C 
BRANCH   3   4
ATOM      4  C   UNL     1      -2.873  -9.136  40.297  1.00  0.00     0.053 C 
BRANCH   4   5
ATOM      5  C   UNL     1      -2.160  -8.181  39.389  1.00  0.00     0.041 C 
ATOM      6  O   UNL     1      -0.910  -8.058  39.454  1.00  0.00    -0.550 OA
ATOM      7  O   UNL     1      -2.883  -7.407  38.491  1.00  0.00    -0.550 OA
ENDBRANCH   4   5
ENDBRANCH   3   4
ENDBRANCH   2   3
ENDBRANCH   1   2
BRANCH   1   8
ATOM      8  C   UNL     1      -2.493 -13.193  42.162  1.00  0.00     0.000 C 
BRANCH   8   9
ATOM      9  C   UNL     1      -3.485 -12.924  41.024  1.00  0.00    -0.000 C 
BRANCH   9  10
ATOM     10  C   UNL     1      -4.914 -12.767  41.565  1.00  0.00    -0.000 C 
BRANCH  10  11
ATOM     11  C   UNL     1      -4.951 -12.235  43.009  1.00  0.00    -0.000 C 
BRANCH  11  12
ATOM     12  C   UNL     1      -5.111 -10.709  43.133  1.00  0.00    -0.003 C 
ATOM     13  C   UNL     1      -6.012 -10.112  42.052  1.00  0.00     0.004 C 
ENDBRANCH  11  12
ENDBRANCH  10  11
ENDBRANCH   9  10
ENDBRANCH   8   9
ENDBRANCH   1   8
TORSDOF 9
ENDMDL
MODEL 8
REMARK VINA RESULT:    -2.942      1.800      3.004
REMARK INTER + INTRA:          -5.759
REMARK INTER:                  -4.739
REMARK INTRA:                  -1.019
REMARK UNBOUND:                -1.269
REMARK SMILES CCCCCCCCCCC(=O)[O-]
REMARK SMILES IDX 7 1 8 2 9 3 10 4 11 5 12 6 13 7 6 8 5 9 4 10 3 11 2 12 1 13
REMARK H PARENT
REMARK Flexibility Score: inf
ROOT
ATOM      1  C   UNL     1      -1.026 -10.790  40.540  1.00  0.00     0.000 C 
ENDROOT
BRANCH   1   2
ATOM      2  C   UNL     1      -1.829 -10.321  41.763  1.00  0.00     0.000 C 
BRANCH   2   3
ATOM      3  C   UNL     1      -2.952 -11.300  42.146  1.00  0.00     0.006 C 
BRANCH   3   4
ATOM      4  C   UNL     1      -3.021 -12.503  41.197  1.00  0.00     0.053 C 
BRANCH   4   5
ATOM      5  C   UNL     1      -2.739 -13.791  41.909  1.00  0.00     0.041 C 
ATOM      6  O   UNL     1      -1.827 -13.851  42.774  1.00  0.00    -0.550 OA
ATOM      7  O   UNL     1      -3.467 -14.932  41.595  1.00  0.00    -0.550 OA
ENDBRANCH   4   5
ENDBRANCH   3   4
ENDBRANCH   2   3
ENDBRANCH   1   2
BRANCH   1   8
ATOM      8  C   UNL     1      -0.738  -9.653  39.547  1.00  0.00     0.000 C 
BRANCH   8   9
ATOM      9  C   UNL     1      -1.365  -8.336  40.023  1.00  0.00    -0.000 C 
BRANCH   9  10
ATOM     10  C   UNL     1      -2.368  -7.800  38.991  1.00  0.00    -0.000 C 
BRANCH  10  11
ATOM     11  C   UNL     1      -3.537  -8.767  38.735  1.00  0.00    -0.000 C 
BRANCH  11  12
ATOM     12  C   UNL     1      -4.602  -8.805  39.845  1.00  0.00    -0.003 C 
ATOM     13  C   UNL     1      -5.866  -8.022  39.489  1.00  0.00     0.004 C 
ENDBRANCH  11  12
ENDBRANCH  10  11
ENDBRANCH   9  10
ENDBRANCH   8   9
ENDBRANCH   1   8
TORSDOF 9
ENDMDL
MODEL 9
REMARK VINA RESULT:    -2.913      1.712      2.814
REMARK INTER + INTRA:          -5.714
REMARK INTER:                  -4.591
REMARK INTRA:                  -1.123
REMARK UNBOUND:                -1.269
REMARK SMILES CCCCCCCCCCC(=O)[O-]
REMARK SMILES IDX 7 1 8 2 9 3 10 4 11 5 12 6 13 7 6 8 5 9 4 10 3 11 2 12 1 13
REMARK H PARENT
REMARK Flexibility Score: inf
ROOT
ATOM      1  C   UNL     1      -4.292 -10.100  40.427  1.00  0.00     0.000 C 
ENDROOT
BRANCH   1   2
ATOM      2  C   UNL     1      -3.850 -10.094  41.898  1.00  0.00     0.000 C 
BRANCH   2   3
ATOM      3  C   UNL     1      -2.518 -10.833  42.120  1.00  0.00     0.006 C 
BRANCH   3   4
ATOM      4  C   UNL     1      -2.458 -12.161  41.353  1.00  0.00     0.053 C 
BRANCH   4   5
ATOM      5  C   UNL     1      -2.787 -13.328  42.233  1.00  0.00     0.041 C 
ATOM      6  O   UNL     1      -3.987 -13.635  42.455  1.00  0.00    -0.550 OA
ATOM      7  O   UNL     1      -1.767 -14.057  42.830  1.00  0.00    -0.550 OA
ENDBRANCH   4   5
ENDBRANCH   3   4
ENDBRANCH   2   3
ENDBRANCH   1   2
BRANCH   1   8
ATOM      8  C   UNL     1      -5.173  -8.894  40.067  1.00  0.00     0.000 C 
BRANCH   8   9
ATOM      9  C   UNL     1      -4.576  -8.109  38.892  1.00  0.00    -0.000 C 
BRANCH   9  10
ATOM     10  C   UNL     1      -3.205  -8.673  38.494  1.00  0.00    -0.000 C 
BRANCH  10  11
ATOM     11  C   UNL     1      -2.042  -7.729  38.851  1.00  0.00    -0.000 C 
BRANCH  11  12
ATOM     12  C   UNL     1      -0.984  -8.331  39.792  1.00  0.00    -0.003 C 
ATOM     13  C   UNL     1      -0.410  -9.652  39.279  1.00  0.00     0.004 C 
ENDBRANCH  11  12
ENDBRANCH  10  11
ENDBRANCH   9  10
ENDBRANCH   8   9
ENDBRANCH   1   8
TORSDOF 9
ENDMDL
