MODEL 1
REMARK VINA RESULT:    -6.138      0.000      0.000
REMARK INTER + INTRA:          -6.138
REMARK INTER:                  -6.138
REMARK INTRA:                   0.000
REMARK UNBOUND:                 0.000
REMARK SMILES CC1=CC[C@]2(C)CCCC(C)(C)[C@]23C[C@H]13
REMARK SMILES IDX 1 1 2 2 3 3 4 4 5 5 7 6 8 7 9 8 10 9 13 10 15 11 14 12 11 13
REMARK SMILES IDX 12 14 6 15
REMARK H PARENT
REMARK Flexibility Score: inf
ROOT
ATOM      1  C   UNL     1     149.926 142.812 160.148  1.00  0.00     0.039 C 
ATOM      2  C   UNL     1     149.588 143.626 161.365  1.00  0.00    -0.074 C 
ATOM      3  C   UNL     1     150.266 144.768 161.603  1.00  0.00    -0.027 C 
ATOM      4  C   UNL     1     149.985 145.628 162.810  1.00  0.00     0.034 C 
ATOM      5  C   UNL     1     148.473 145.593 163.181  1.00  0.00    -0.022 C 
ATOM      6  C   UNL     1     148.268 146.340 164.522  1.00  0.00     0.008 C 
ATOM      7  C   UNL     1     146.830 146.239 165.061  1.00  0.00     0.001 C 
ATOM      8  C   UNL     1     146.364 144.784 165.228  1.00  0.00     0.007 C 
ATOM      9  C   UNL     1     146.492 143.906 163.950  1.00  0.00    -0.029 C 
ATOM     10  C   UNL     1     147.950 144.110 163.355  1.00  0.00    -0.012 C 
ATOM     11  C   UNL     1     148.486 143.137 162.294  1.00  0.00     0.022 C 
ATOM     12  C   UNL     1     148.970 143.001 163.735  1.00  0.00     0.017 C 
ATOM     13  C   UNL     1     145.411 144.293 162.908  1.00  0.00     0.012 C 
ATOM     14  C   UNL     1     146.164 142.447 164.385  1.00  0.00     0.012 C 
ATOM     15  C   UNL     1     147.723 146.335 162.031  1.00  0.00     0.012 C 
ENDROOT
TORSDOF 0
ENDMDL
MODEL 2
REMARK VINA RESULT:    -6.135      2.967      4.900
REMARK INTER + INTRA:          -6.135
REMARK INTER:                  -6.135
REMARK INTRA:                   0.000
REMARK UNBOUND:                 0.000
REMARK SMILES CC1=CC[C@]2(C)CCCC(C)(C)[C@]23C[C@H]13
REMARK SMILES IDX 1 1 2 2 3 3 4 4 5 5 7 6 8 7 9 8 10 9 13 10 15 11 14 12 11 13
REMARK SMILES IDX 12 14 6 15
REMARK H PARENT
REMARK Flexibility Score: inf
ROOT
ATOM      1  C   UNL     1     147.923 149.991 160.136  1.00  0.00     0.039 C 
ATOM      2  C   UNL     1     147.110 149.630 161.348  1.00  0.00    -0.074 C 
ATOM      3  C   UNL     1     145.967 150.303 161.598  1.00  0.00    -0.027 C 
ATOM      4  C   UNL     1     145.108 150.000 162.800  1.00  0.00     0.034 C 
ATOM      5  C   UNL     1     145.146 148.483 163.147  1.00  0.00    -0.022 C 
ATOM      6  C   UNL     1     144.400 148.254 164.484  1.00  0.00     0.008 C 
ATOM      7  C   UNL     1     144.503 146.808 165.000  1.00  0.00     0.001 C 
ATOM      8  C   UNL     1     145.959 146.343 165.159  1.00  0.00     0.007 C 
ATOM      9  C   UNL     1     146.836 146.493 163.883  1.00  0.00    -0.029 C 
ATOM     10  C   UNL     1     146.630 147.960 163.312  1.00  0.00    -0.012 C 
ATOM     11  C   UNL     1     147.601 148.515 162.259  1.00  0.00     0.022 C 
ATOM     12  C   UNL     1     147.737 148.976 163.708  1.00  0.00     0.017 C 
ATOM     13  C   UNL     1     146.452 145.429 162.824  1.00  0.00     0.012 C 
ATOM     14  C   UNL     1     148.296 146.161 164.313  1.00  0.00     0.012 C 
ATOM     15  C   UNL     1     144.405 147.750 161.984  1.00  0.00     0.012 C 
ENDROOT
TORSDOF 0
ENDMDL
MODEL 3
REMARK VINA RESULT:    -6.109      2.891      4.816
REMARK INTER + INTRA:          -6.109
REMARK INTER:                  -6.109
REMARK INTRA:                   0.000
REMARK UNBOUND:                 0.000
REMARK SMILES CC1=CC[C@]2(C)CCCC(C)(C)[C@]23C[C@H]13
REMARK SMILES IDX 1 1 2 2 3 3 4 4 5 5 7 6 8 7 9 8 10 9 13 10 15 11 14 12 11 13
REMARK SMILES IDX 12 14 6 15
REMARK H PARENT
REMARK Flexibility Score: inf
ROOT
ATOM      1  C   UNL     1     142.860 140.789 160.171  1.00  0.00     0.039 C 
ATOM      2  C   UNL     1     143.692 141.151 161.370  1.00  0.00    -0.074 C 
ATOM      3  C   UNL     1     144.858 140.505 161.582  1.00  0.00    -0.027 C 
ATOM      4  C   UNL     1     145.736 140.812 162.770  1.00  0.00     0.034 C 
ATOM      5  C   UNL     1     145.665 142.322 163.143  1.00  0.00    -0.022 C 
ATOM      6  C   UNL     1     146.436 142.548 164.466  1.00  0.00     0.008 C 
ATOM      7  C   UNL     1     146.306 143.982 165.009  1.00  0.00     0.001 C 
ATOM      8  C   UNL     1     144.842 144.405 165.210  1.00  0.00     0.007 C 
ATOM      9  C   UNL     1     143.939 144.252 163.951  1.00  0.00    -0.029 C 
ATOM     10  C   UNL     1     144.172 142.801 163.350  1.00  0.00    -0.012 C 
ATOM     11  C   UNL     1     143.191 142.237 162.311  1.00  0.00     0.022 C 
ATOM     12  C   UNL     1     143.102 141.749 163.755  1.00  0.00     0.017 C 
ATOM     13  C   UNL     1     144.270 145.344 162.902  1.00  0.00     0.012 C 
ATOM     14  C   UNL     1     142.481 144.537 164.420  1.00  0.00     0.012 C 
ATOM     15  C   UNL     1     146.359 143.094 161.977  1.00  0.00     0.012 C 
ENDROOT
TORSDOF 0
ENDMDL
MODEL 4
REMARK VINA RESULT:    -6.102      3.986      6.828
REMARK INTER + INTRA:          -6.102
REMARK INTER:                  -6.102
REMARK INTRA:                   0.000
REMARK UNBOUND:                 0.000
REMARK SMILES CC1=CC[C@]2(C)CCCC(C)(C)[C@]23C[C@H]13
REMARK SMILES IDX 1 1 2 2 3 3 4 4 5 5 7 6 8 7 9 8 10 9 13 10 15 11 14 12 11 13
REMARK SMILES IDX 12 14 6 15
REMARK H PARENT
REMARK Flexibility Score: inf
ROOT
ATOM      1  C   UNL     1     140.858 147.895 160.231  1.00  0.00     0.039 C 
ATOM      2  C   UNL     1     141.219 147.064 161.430  1.00  0.00    -0.074 C 
ATOM      3  C   UNL     1     140.575 145.896 161.639  1.00  0.00    -0.027 C 
ATOM      4  C   UNL     1     140.880 145.018 162.827  1.00  0.00     0.034 C 
ATOM      5  C   UNL     1     142.389 145.091 163.204  1.00  0.00    -0.022 C 
ATOM      6  C   UNL     1     142.613 144.319 164.528  1.00  0.00     0.008 C 
ATOM      7  C   UNL     1     144.046 144.452 165.075  1.00  0.00     0.001 C 
ATOM      8  C   UNL     1     144.465 145.916 165.278  1.00  0.00     0.007 C 
ATOM      9  C   UNL     1     144.314 146.819 164.020  1.00  0.00    -0.029 C 
ATOM     10  C   UNL     1     142.865 146.585 163.415  1.00  0.00    -0.012 C 
ATOM     11  C   UNL     1     142.302 147.565 162.374  1.00  0.00     0.022 C 
ATOM     12  C   UNL     1     141.810 147.652 163.817  1.00  0.00     0.017 C 
ATOM     13  C   UNL     1     145.409 146.491 162.973  1.00  0.00     0.012 C 
ATOM     14  C   UNL     1     144.594 148.278 164.490  1.00  0.00     0.012 C 
ATOM     15  C   UNL     1     143.165 144.400 162.040  1.00  0.00     0.012 C 
ENDROOT
TORSDOF 0
ENDMDL
MODEL 5
REMARK VINA RESULT:    -5.968      3.006      4.585
REMARK INTER + INTRA:          -5.968
REMARK INTER:                  -5.968
REMARK INTRA:                   0.000
REMARK UNBOUND:                 0.000
REMARK SMILES CC1=CC[C@]2(C)CCCC(C)(C)[C@]23C[C@H]13
REMARK SMILES IDX 1 1 2 2 3 3 4 4 5 5 7 6 8 7 9 8 10 9 13 10 15 11 14 12 11 13
REMARK SMILES IDX 12 14 6 15
REMARK H PARENT
REMARK Flexibility Score: inf
ROOT
ATOM      1  C   UNL     1     143.210 141.555 158.833  1.00  0.00     0.039 C 
ATOM      2  C   UNL     1     144.220 141.667 159.940  1.00  0.00    -0.074 C 
ATOM      3  C   UNL     1     145.444 142.167 159.668  1.00  0.00    -0.027 C 
ATOM      4  C   UNL     1     146.508 142.298 160.729  1.00  0.00     0.034 C 
ATOM      5  C   UNL     1     145.879 142.636 162.113  1.00  0.00    -0.022 C 
ATOM      6  C   UNL     1     146.986 142.582 163.193  1.00  0.00     0.008 C 
ATOM      7  C   UNL     1     146.448 142.754 164.625  1.00  0.00     0.001 C 
ATOM      8  C   UNL     1     145.365 141.722 164.974  1.00  0.00     0.007 C 
ATOM      9  C   UNL     1     144.166 141.671 163.983  1.00  0.00    -0.029 C 
ATOM     10  C   UNL     1     144.750 141.600 162.508  1.00  0.00    -0.012 C 
ATOM     11  C   UNL     1     143.831 141.212 161.339  1.00  0.00     0.022 C 
ATOM     12  C   UNL     1     144.802 140.173 161.896  1.00  0.00     0.017 C 
ATOM     13  C   UNL     1     143.256 142.913 164.157  1.00  0.00     0.012 C 
ATOM     14  C   UNL     1     143.302 140.444 164.401  1.00  0.00     0.012 C 
ATOM     15  C   UNL     1     145.312 144.085 161.993  1.00  0.00     0.012 C 
ENDROOT
TORSDOF 0
ENDMDL
MODEL 6
REMARK VINA RESULT:    -5.952      4.833      7.039
REMARK INTER + INTRA:          -5.952
REMARK INTER:                  -5.952
REMARK INTRA:                   0.000
REMARK UNBOUND:                 0.000
REMARK SMILES CC1=CC[C@]2(C)CCCC(C)(C)[C@]23C[C@H]13
REMARK SMILES IDX 1 1 2 2 3 3 4 4 5 5 7 6 8 7 9 8 10 9 13 10 15 11 14 12 11 13
REMARK SMILES IDX 12 14 6 15
REMARK H PARENT
REMARK Flexibility Score: inf
ROOT
ATOM      1  C   UNL     1     141.547 147.561 158.825  1.00  0.00     0.039 C 
ATOM      2  C   UNL     1     141.667 146.542 159.923  1.00  0.00    -0.074 C 
ATOM      3  C   UNL     1     142.181 145.326 159.639  1.00  0.00    -0.027 C 
ATOM      4  C   UNL     1     142.321 144.253 160.691  1.00  0.00     0.034 C 
ATOM      5  C   UNL     1     142.649 144.872 162.081  1.00  0.00    -0.022 C 
ATOM      6  C   UNL     1     142.604 143.754 163.151  1.00  0.00     0.008 C 
ATOM      7  C   UNL     1     142.768 144.280 164.588  1.00  0.00     0.001 C 
ATOM      8  C   UNL     1     141.724 145.349 164.946  1.00  0.00     0.007 C 
ATOM      9  C   UNL     1     141.663 146.556 163.966  1.00  0.00    -0.029 C 
ATOM     10  C   UNL     1     141.601 145.987 162.485  1.00  0.00    -0.012 C 
ATOM     11  C   UNL     1     141.206 146.913 161.325  1.00  0.00     0.022 C 
ATOM     12  C   UNL     1     140.176 145.926 161.869  1.00  0.00     0.017 C 
ATOM     13  C   UNL     1     142.895 147.478 164.152  1.00  0.00     0.012 C 
ATOM     14  C   UNL     1     140.426 147.403 164.389  1.00  0.00     0.012 C 
ATOM     15  C   UNL     1     144.093 145.455 161.971  1.00  0.00     0.012 C 
ENDROOT
TORSDOF 0
ENDMDL
MODEL 7
REMARK VINA RESULT:    -5.912      3.661      6.153
REMARK INTER + INTRA:          -5.912
REMARK INTER:                  -5.912
REMARK INTRA:                   0.000
REMARK UNBOUND:                 0.000
REMARK SMILES CC1=CC[C@]2(C)CCCC(C)(C)[C@]23C[C@H]13
REMARK SMILES IDX 1 1 2 2 3 3 4 4 5 5 7 6 8 7 9 8 10 9 13 10 15 11 14 12 11 13
REMARK SMILES IDX 12 14 6 15
REMARK H PARENT
REMARK Flexibility Score: inf
ROOT
ATOM      1  C   UNL     1     148.396 150.606 165.244  1.00  0.00     0.039 C 
ATOM      2  C   UNL     1     147.399 149.869 164.395  1.00  0.00    -0.074 C 
ATOM      3  C   UNL     1     146.085 149.966 164.688  1.00  0.00    -0.027 C 
ATOM      4  C   UNL     1     145.032 149.245 163.883  1.00  0.00     0.034 C 
ATOM      5  C   UNL     1     145.435 149.162 162.382  1.00  0.00    -0.022 C 
ATOM      6  C   UNL     1     144.416 148.264 161.638  1.00  0.00     0.008 C 
ATOM      7  C   UNL     1     144.802 147.990 160.174  1.00  0.00     0.001 C 
ATOM      8  C   UNL     1     146.201 147.368 160.040  1.00  0.00     0.007 C 
ATOM      9  C   UNL     1     147.342 148.173 160.725  1.00  0.00    -0.029 C 
ATOM     10  C   UNL     1     146.875 148.534 162.199  1.00  0.00    -0.012 C 
ATOM     11  C   UNL     1     147.902 149.034 163.227  1.00  0.00     0.022 C 
ATOM     12  C   UNL     1     147.420 147.588 163.305  1.00  0.00     0.017 C 
ATOM     13  C   UNL     1     147.669 149.457 159.920  1.00  0.00     0.012 C 
ATOM     14  C   UNL     1     148.617 147.282 160.646  1.00  0.00     0.012 C 
ATOM     15  C   UNL     1     145.371 150.621 161.830  1.00  0.00     0.012 C 
ENDROOT
TORSDOF 0
ENDMDL
MODEL 8
REMARK VINA RESULT:    -5.899      5.840      8.017
REMARK INTER + INTRA:          -5.899
REMARK INTER:                  -5.899
REMARK INTRA:                   0.000
REMARK UNBOUND:                 0.000
REMARK SMILES CC1=CC[C@]2(C)CCCC(C)(C)[C@]23C[C@H]13
REMARK SMILES IDX 1 1 2 2 3 3 4 4 5 5 7 6 8 7 9 8 10 9 13 10 15 11 14 12 11 13
REMARK SMILES IDX 12 14 6 15
REMARK H PARENT
REMARK Flexibility Score: inf
ROOT
ATOM      1  C   UNL     1     140.151 148.301 165.247  1.00  0.00     0.039 C 
ATOM      2  C   UNL     1     140.884 147.331 164.363  1.00  0.00    -0.074 C 
ATOM      3  C   UNL     1     140.814 146.011 164.634  1.00  0.00    -0.027 C 
ATOM      4  C   UNL     1     141.533 144.984 163.795  1.00  0.00     0.034 C 
ATOM      5  C   UNL     1     141.576 145.415 162.299  1.00  0.00    -0.022 C 
ATOM      6  C   UNL     1     142.473 144.424 161.517  1.00  0.00     0.008 C 
ATOM      7  C   UNL     1     142.708 144.840 160.054  1.00  0.00     0.001 C 
ATOM      8  C   UNL     1     143.305 146.251 159.932  1.00  0.00     0.007 C 
ATOM      9  C   UNL     1     142.497 147.367 160.656  1.00  0.00    -0.029 C 
ATOM     10  C   UNL     1     142.177 146.868 162.129  1.00  0.00    -0.012 C 
ATOM     11  C   UNL     1     141.685 147.869 163.186  1.00  0.00     0.022 C 
ATOM     12  C   UNL     1     143.140 147.408 163.223  1.00  0.00     0.017 C 
ATOM     13  C   UNL     1     141.191 147.687 159.886  1.00  0.00     0.012 C 
ATOM     14  C   UNL     1     143.367 148.657 160.580  1.00  0.00     0.012 C 
ATOM     15  C   UNL     1     140.106 145.338 161.779  1.00  0.00     0.012 C 
ENDROOT
TORSDOF 0
ENDMDL
MODEL 9
REMARK VINA RESULT:    -5.876      1.564      3.477
REMARK INTER + INTRA:          -5.876
REMARK INTER:                  -5.876
REMARK INTRA:                   0.000
REMARK UNBOUND:                 0.000
REMARK SMILES CC1=CC[C@]2(C)CCCC(C)(C)[C@]23C[C@H]13
REMARK SMILES IDX 1 1 2 2 3 3 4 4 5 5 7 6 8 7 9 8 10 9 13 10 15 11 14 12 11 13
REMARK SMILES IDX 12 14 6 15
REMARK H PARENT
REMARK Flexibility Score: inf
ROOT
ATOM      1  C   UNL     1     150.611 142.375 165.241  1.00  0.00     0.039 C 
ATOM      2  C   UNL     1     149.907 143.359 164.348  1.00  0.00    -0.074 C 
ATOM      3  C   UNL     1     150.098 144.680 164.545  1.00  0.00    -0.027 C 
ATOM      4  C   UNL     1     149.415 145.722 163.693  1.00  0.00     0.034 C 
ATOM      5  C   UNL     1     149.251 145.224 162.227  1.00  0.00    -0.022 C 
ATOM      6  C   UNL     1     148.392 146.247 161.443  1.00  0.00     0.008 C 
ATOM      7  C   UNL     1     148.040 145.782 160.019  1.00  0.00     0.001 C 
ATOM      8  C   UNL     1     147.326 144.421 160.004  1.00  0.00     0.007 C 
ATOM      9  C   UNL     1     148.083 143.278 160.741  1.00  0.00    -0.029 C 
ATOM     10  C   UNL     1     148.527 143.819 162.166  1.00  0.00    -0.012 C 
ATOM     11  C   UNL     1     148.999 142.833 163.246  1.00  0.00     0.022 C 
ATOM     12  C   UNL     1     147.590 143.413 163.338  1.00  0.00     0.017 C 
ATOM     13  C   UNL     1     149.313 142.814 159.919  1.00  0.00     0.012 C 
ATOM     14  C   UNL     1     147.111 142.062 160.780  1.00  0.00     0.012 C 
ATOM     15  C   UNL     1     150.689 145.155 161.624  1.00  0.00     0.012 C 
ENDROOT
TORSDOF 0
ENDMDL
