MODEL 1
REMARK VINA RESULT:    -2.443      0.000      0.000
REMARK INTER + INTRA:          -2.740
REMARK INTER:                  -2.729
REMARK INTRA:                  -0.011
REMARK UNBOUND:                -0.011
REMARK SMILES CCCC(=O)[O-]
REMARK SMILES IDX 3 1 4 2 5 3 6 4 2 5 1 6
REMARK H PARENT
REMARK Flexibility Score: inf
ROOT
ATOM      1  C   UNL     1      15.214   3.134  -1.224  1.00  0.00     0.052 C 
ENDROOT
BRANCH   1   2
ATOM      2  C   UNL     1      15.926   1.979  -1.856  1.00  0.00     0.041 C 
ATOM      3  O   UNL     1      15.279   0.967  -2.236  1.00  0.00    -0.550 OA
ATOM      4  O   UNL     1      17.308   1.999  -1.982  1.00  0.00    -0.550 OA
ENDBRANCH   1   2
BRANCH   1   5
ATOM      5  C   UNL     1      13.969   3.504  -2.034  1.00  0.00     0.003 C 
ATOM      6  C   UNL     1      13.053   4.432  -1.241  1.00  0.00     0.004 C 
ENDBRANCH   1   5
TORSDOF 2
ENDMDL
MODEL 2
REMARK VINA RESULT:    -2.420      0.248      1.341
REMARK INTER + INTRA:          -2.714
REMARK INTER:                  -2.706
REMARK INTRA:                  -0.009
REMARK UNBOUND:                -0.011
REMARK SMILES CCCC(=O)[O-]
REMARK SMILES IDX 3 1 4 2 5 3 6 4 2 5 1 6
REMARK H PARENT
REMARK Flexibility Score: inf
ROOT
ATOM      1  C   UNL     1      15.389   2.999  -1.260  1.00  0.00     0.052 C 
ENDROOT
BRANCH   1   2
ATOM      2  C   UNL     1      16.164   1.905  -1.925  1.00  0.00     0.041 C 
ATOM      3  O   UNL     1      17.415   1.991  -2.035  1.00  0.00    -0.550 OA
ATOM      4  O   UNL     1      15.498   0.813  -2.467  1.00  0.00    -0.550 OA
ENDBRANCH   1   2
BRANCH   1   5
ATOM      5  C   UNL     1      14.143   3.347  -2.078  1.00  0.00     0.003 C 
ATOM      6  C   UNL     1      13.210   4.266  -1.295  1.00  0.00     0.004 C 
ENDBRANCH   1   5
TORSDOF 2
ENDMDL
MODEL 3
REMARK VINA RESULT:    -2.413      2.335      3.130
REMARK INTER + INTRA:          -2.707
REMARK INTER:                  -2.699
REMARK INTRA:                  -0.008
REMARK UNBOUND:                -0.011
REMARK SMILES CCCC(=O)[O-]
REMARK SMILES IDX 3 1 4 2 5 3 6 4 2 5 1 6
REMARK H PARENT
REMARK Flexibility Score: inf
ROOT
ATOM      1  C   UNL     1      12.887   5.233  -1.497  1.00  0.00     0.052 C 
ENDROOT
BRANCH   1   2
ATOM      2  C   UNL     1      13.482   3.900  -1.826  1.00  0.00     0.041 C 
ATOM      3  O   UNL     1      12.935   3.156  -2.682  1.00  0.00    -0.550 OA
ATOM      4  O   UNL     1      14.613   3.459  -1.152  1.00  0.00    -0.550 OA
ENDBRANCH   1   2
BRANCH   1   5
ATOM      5  C   UNL     1      11.818   5.089  -0.411  1.00  0.00     0.003 C 
ATOM      6  C   UNL     1      10.823   6.245  -0.462  1.00  0.00     0.004 C 
ENDBRANCH   1   5
TORSDOF 2
ENDMDL
MODEL 4
REMARK VINA RESULT:    -2.303      1.797      2.106
REMARK INTER + INTRA:          -2.583
REMARK INTER:                  -2.566
REMARK INTRA:                  -0.017
REMARK UNBOUND:                -0.011
REMARK SMILES CCCC(=O)[O-]
REMARK SMILES IDX 3 1 4 2 5 3 6 4 2 5 1 6
REMARK H PARENT
REMARK Flexibility Score: inf
ROOT
ATOM      1  C   UNL     1      13.806   3.938  -1.311  1.00  0.00     0.052 C 
ENDROOT
BRANCH   1   2
ATOM      2  C   UNL     1      14.129   3.085  -2.498  1.00  0.00     0.041 C 
ATOM      3  O   UNL     1      13.250   2.334  -2.997  1.00  0.00    -0.550 OA
ATOM      4  O   UNL     1      15.414   3.084  -3.023  1.00  0.00    -0.550 OA
ENDBRANCH   1   2
BRANCH   1   5
ATOM      5  C   UNL     1      12.578   4.806  -1.594  1.00  0.00     0.003 C 
ATOM      6  C   UNL     1      11.787   5.074  -0.316  1.00  0.00     0.004 C 
ENDBRANCH   1   5
TORSDOF 2
ENDMDL
MODEL 5
REMARK VINA RESULT:    -2.246      3.475      4.296
REMARK INTER + INTRA:          -2.519
REMARK INTER:                  -2.513
REMARK INTRA:                  -0.006
REMARK UNBOUND:                -0.011
REMARK SMILES CCCC(=O)[O-]
REMARK SMILES IDX 3 1 4 2 5 3 6 4 2 5 1 6
REMARK H PARENT
REMARK Flexibility Score: inf
ROOT
ATOM      1  C   UNL     1      18.327   0.698  -3.003  1.00  0.00     0.052 C 
ENDROOT
BRANCH   1   2
ATOM      2  C   UNL     1      19.707   0.876  -2.453  1.00  0.00     0.041 C 
ATOM      3  O   UNL     1      20.264   2.005  -2.491  1.00  0.00    -0.550 OA
ATOM      4  O   UNL     1      20.398  -0.215  -1.943  1.00  0.00    -0.550 OA
ENDBRANCH   1   2
BRANCH   1   5
ATOM      5  C   UNL     1      17.354   1.669  -2.331  1.00  0.00     0.003 C 
ATOM      6  C   UNL     1      15.955   1.067  -2.236  1.00  0.00     0.004 C 
ENDBRANCH   1   5
TORSDOF 2
ENDMDL
MODEL 6
REMARK VINA RESULT:    -2.235      4.912      6.747
REMARK INTER + INTRA:          -2.508
REMARK INTER:                  -2.470
REMARK INTRA:                  -0.037
REMARK UNBOUND:                -0.011
REMARK SMILES CCCC(=O)[O-]
REMARK SMILES IDX 3 1 4 2 5 3 6 4 2 5 1 6
REMARK H PARENT
REMARK Flexibility Score: inf
ROOT
ATOM      1  C   UNL     1      20.562   0.019  -2.312  1.00  0.00     0.052 C 
ENDROOT
BRANCH   1   2
ATOM      2  C   UNL     1      19.631   1.168  -2.541  1.00  0.00     0.041 C 
ATOM      3  O   UNL     1      20.082   2.339  -2.636  1.00  0.00    -0.550 OA
ATOM      4  O   UNL     1      18.261   0.950  -2.601  1.00  0.00    -0.550 OA
ENDBRANCH   1   2
BRANCH   1   5
ATOM      5  C   UNL     1      21.953   0.526  -1.926  1.00  0.00     0.003 C 
ATOM      6  C   UNL     1      22.960   0.272  -3.044  1.00  0.00     0.004 C 
ENDBRANCH   1   5
TORSDOF 2
ENDMDL
MODEL 7
REMARK VINA RESULT:    -2.217      4.129      5.149
REMARK INTER + INTRA:          -2.488
REMARK INTER:                  -2.477
REMARK INTRA:                  -0.011
REMARK UNBOUND:                -0.011
REMARK SMILES CCCC(=O)[O-]
REMARK SMILES IDX 3 1 4 2 5 3 6 4 2 5 1 6
REMARK H PARENT
REMARK Flexibility Score: inf
ROOT
ATOM      1  C   UNL     1      12.348   4.790  -0.536  1.00  0.00     0.052 C 
ENDROOT
BRANCH   1   2
ATOM      2  C   UNL     1      10.988   5.284  -0.915  1.00  0.00     0.041 C 
ATOM      3  O   UNL     1      10.290   4.645  -1.745  1.00  0.00    -0.550 OA
ATOM      4  O   UNL     1      10.510   6.477  -0.388  1.00  0.00    -0.550 OA
ENDBRANCH   1   2
BRANCH   1   5
ATOM      5  C   UNL     1      13.095   4.279  -1.770  1.00  0.00     0.003 C 
ATOM      6  C   UNL     1      14.356   3.517  -1.373  1.00  0.00     0.004 C 
ENDBRANCH   1   5
TORSDOF 2
ENDMDL
MODEL 8
REMARK VINA RESULT:    -2.155      2.528      3.571
REMARK INTER + INTRA:          -2.418
REMARK INTER:                  -2.382
REMARK INTRA:                  -0.037
REMARK UNBOUND:                -0.011
REMARK SMILES CCCC(=O)[O-]
REMARK SMILES IDX 3 1 4 2 5 3 6 4 2 5 1 6
REMARK H PARENT
REMARK Flexibility Score: inf
ROOT
ATOM      1  C   UNL     1      14.690   3.396  -1.142  1.00  0.00     0.052 C 
ENDROOT
BRANCH   1   2
ATOM      2  C   UNL     1      13.354   3.913  -1.575  1.00  0.00     0.041 C 
ATOM      3  O   UNL     1      12.688   4.663  -0.814  1.00  0.00    -0.550 OA
ATOM      4  O   UNL     1      12.823   3.527  -2.799  1.00  0.00    -0.550 OA
ENDBRANCH   1   2
BRANCH   1   5
ATOM      5  C   UNL     1      15.382   2.668  -2.296  1.00  0.00     0.003 C 
ATOM      6  C   UNL     1      15.588   1.192  -1.970  1.00  0.00     0.004 C 
ENDBRANCH   1   5
TORSDOF 2
ENDMDL
MODEL 9
REMARK VINA RESULT:    -2.148      5.142      6.252
REMARK INTER + INTRA:          -2.410
REMARK INTER:                  -2.373
REMARK INTRA:                  -0.037
REMARK UNBOUND:                -0.011
REMARK SMILES CCCC(=O)[O-]
REMARK SMILES IDX 3 1 4 2 5 3 6 4 2 5 1 6
REMARK H PARENT
REMARK Flexibility Score: inf
ROOT
ATOM      1  C   UNL     1      10.538   5.090  -1.123  1.00  0.00     0.052 C 
ENDROOT
BRANCH   1   2
ATOM      2  C   UNL     1      10.094   6.495  -1.383  1.00  0.00     0.041 C 
ATOM      3  O   UNL     1       8.897   6.734  -1.695  1.00  0.00    -0.550 OA
ATOM      4  O   UNL     1      11.012   7.535  -1.327  1.00  0.00    -0.550 OA
ENDBRANCH   1   2
BRANCH   1   5
ATOM      5  C   UNL     1      11.916   5.078  -0.459  1.00  0.00     0.003 C 
ATOM      6  C   UNL     1      12.949   4.391  -1.348  1.00  0.00     0.004 C 
ENDBRANCH   1   5
TORSDOF 2
ENDMDL
