MODEL 1
REMARK VINA RESULT:    -2.136      0.000      0.000
REMARK INTER + INTRA:          -2.136
REMARK INTER:                  -2.136
REMARK INTRA:                   0.000
REMARK UNBOUND:                 0.000
REMARK SMILES CC(=O)[O-]
REMARK SMILES IDX 1 1 2 2 3 3 4 4
REMARK H PARENT
REMARK Flexibility Score: inf
ROOT
ATOM      1  C   UNL     1       6.308   9.877  33.269  1.00  0.00     0.063 C 
ATOM      2  C   UNL     1       7.129   8.633  33.256  1.00  0.00     0.038 C 
ATOM      3  O   UNL     1       8.385   8.705  33.315  1.00  0.00    -0.550 OA
ATOM      4  O   UNL     1       6.509   7.391  33.236  1.00  0.00    -0.550 OA
ENDROOT
TORSDOF 0
ENDMDL
MODEL 2
REMARK VINA RESULT:    -2.040      1.377      1.759
REMARK INTER + INTRA:          -2.040
REMARK INTER:                  -2.040
REMARK INTRA:                   0.000
REMARK UNBOUND:                 0.000
REMARK SMILES CC(=O)[O-]
REMARK SMILES IDX 1 1 2 2 3 3 4 4
REMARK H PARENT
REMARK Flexibility Score: inf
ROOT
ATOM      1  C   UNL     1       6.454   7.353  33.446  1.00  0.00     0.063 C 
ATOM      2  C   UNL     1       7.114   8.681  33.288  1.00  0.00     0.038 C 
ATOM      3  O   UNL     1       8.370   8.769  33.314  1.00  0.00    -0.550 OA
ATOM      4  O   UNL     1       6.348   9.815  33.055  1.00  0.00    -0.550 OA
ENDROOT
TORSDOF 0
ENDMDL
MODEL 3
REMARK VINA RESULT:    -1.954      1.655      2.178
REMARK INTER + INTRA:          -1.954
REMARK INTER:                  -1.954
REMARK INTRA:                   0.000
REMARK UNBOUND:                 0.000
REMARK SMILES CC(=O)[O-]
REMARK SMILES IDX 1 1 2 2 3 3 4 4
REMARK H PARENT
REMARK Flexibility Score: inf
ROOT
ATOM      1  C   UNL     1       7.908   8.725  33.396  1.00  0.00     0.063 C 
ATOM      2  C   UNL     1       7.485   7.346  33.773  1.00  0.00     0.038 C 
ATOM      3  O   UNL     1       6.371   6.901  33.391  1.00  0.00    -0.550 OA
ATOM      4  O   UNL     1       8.342   6.529  34.500  1.00  0.00    -0.550 OA
ENDROOT
TORSDOF 0
ENDMDL
MODEL 4
REMARK VINA RESULT:    -1.798      1.661      2.255
REMARK INTER + INTRA:          -1.798
REMARK INTER:                  -1.798
REMARK INTRA:                   0.000
REMARK UNBOUND:                 0.000
REMARK SMILES CC(=O)[O-]
REMARK SMILES IDX 1 1 2 2 3 3 4 4
REMARK H PARENT
REMARK Flexibility Score: inf
ROOT
ATOM      1  C   UNL     1       8.125   6.429  34.867  1.00  0.00     0.063 C 
ATOM      2  C   UNL     1       7.545   7.320  33.822  1.00  0.00     0.038 C 
ATOM      3  O   UNL     1       8.208   8.299  33.388  1.00  0.00    -0.550 OA
ATOM      4  O   UNL     1       6.296   7.039  33.283  1.00  0.00    -0.550 OA
ENDROOT
TORSDOF 0
ENDMDL
MODEL 5
REMARK VINA RESULT:    -1.753     11.549     11.911
REMARK INTER + INTRA:          -1.753
REMARK INTER:                  -1.753
REMARK INTRA:                   0.000
REMARK UNBOUND:                 0.000
REMARK SMILES CC(=O)[O-]
REMARK SMILES IDX 1 1 2 2 3 3 4 4
REMARK H PARENT
REMARK Flexibility Score: inf
ROOT
ATOM      1  C   UNL     1       5.696  19.649  32.485  1.00  0.00     0.063 C 
ATOM      2  C   UNL     1       6.951  20.443  32.609  1.00  0.00     0.038 C 
ATOM      3  O   UNL     1       7.375  21.111  31.629  1.00  0.00    -0.550 OA
ATOM      4  O   UNL     1       7.626  20.494  33.822  1.00  0.00    -0.550 OA
ENDROOT
TORSDOF 0
ENDMDL
MODEL 6
REMARK VINA RESULT:    -1.748     10.942     11.522
REMARK INTER + INTRA:          -1.748
REMARK INTER:                  -1.748
REMARK INTRA:                   0.000
REMARK UNBOUND:                 0.000
REMARK SMILES CC(=O)[O-]
REMARK SMILES IDX 1 1 2 2 3 3 4 4
REMARK H PARENT
REMARK Flexibility Score: inf
ROOT
ATOM      1  C   UNL     1       7.210  20.728  32.253  1.00  0.00     0.063 C 
ATOM      2  C   UNL     1       7.232  20.117  33.613  1.00  0.00     0.038 C 
ATOM      3  O   UNL     1       7.612  20.795  34.603  1.00  0.00    -0.550 OA
ATOM      4  O   UNL     1       6.780  18.817  33.799  1.00  0.00    -0.550 OA
ENDROOT
TORSDOF 0
ENDMDL
MODEL 7
REMARK VINA RESULT:    -1.714     10.833     11.373
REMARK INTER + INTRA:          -1.714
REMARK INTER:                  -1.714
REMARK INTRA:                   0.000
REMARK UNBOUND:                 0.000
REMARK SMILES CC(=O)[O-]
REMARK SMILES IDX 1 1 2 2 3 3 4 4
REMARK H PARENT
REMARK Flexibility Score: inf
ROOT
ATOM      1  C   UNL     1       7.271  20.432  32.683  1.00  0.00     0.063 C 
ATOM      2  C   UNL     1       5.944  19.829  32.367  1.00  0.00     0.038 C 
ATOM      3  O   UNL     1       5.299  20.215  31.358  1.00  0.00    -0.550 OA
ATOM      4  O   UNL     1       5.443  18.800  33.154  1.00  0.00    -0.550 OA
ENDROOT
TORSDOF 0
ENDMDL
MODEL 8
REMARK VINA RESULT:    -1.642     19.513     19.784
REMARK INTER + INTRA:          -1.642
REMARK INTER:                  -1.642
REMARK INTRA:                   0.000
REMARK UNBOUND:                 0.000
REMARK SMILES CC(=O)[O-]
REMARK SMILES IDX 1 1 2 2 3 3 4 4
REMARK H PARENT
REMARK Flexibility Score: inf
ROOT
ATOM      1  C   UNL     1      23.886  20.696  34.104  1.00  0.00     0.063 C 
ATOM      2  C   UNL     1      23.358  19.613  34.982  1.00  0.00     0.038 C 
ATOM      3  O   UNL     1      23.788  18.436  34.861  1.00  0.00    -0.550 OA
ATOM      4  O   UNL     1      22.432  19.910  35.974  1.00  0.00    -0.550 OA
ENDROOT
TORSDOF 0
ENDMDL
MODEL 9
REMARK VINA RESULT:    -1.448     19.437     19.648
REMARK INTER + INTRA:          -1.448
REMARK INTER:                  -1.448
REMARK INTRA:                   0.000
REMARK UNBOUND:                 0.000
REMARK SMILES CC(=O)[O-]
REMARK SMILES IDX 1 1 2 2 3 3 4 4
REMARK H PARENT
REMARK Flexibility Score: inf
ROOT
ATOM      1  C   UNL     1      22.224   4.602  20.617  1.00  0.00     0.063 C 
ATOM      2  C   UNL     1      21.120   3.600  20.587  1.00  0.00     0.038 C 
ATOM      3  O   UNL     1      21.066   2.694  21.460  1.00  0.00    -0.550 OA
ATOM      4  O   UNL     1      20.117   3.698  19.631  1.00  0.00    -0.550 OA
ENDROOT
TORSDOF 0
ENDMDL
