MODEL 1
REMARK VINA RESULT:    -5.724      0.000      0.000
REMARK INTER + INTRA:         -12.789
REMARK INTER:                 -10.409
REMARK INTRA:                  -2.380
REMARK UNBOUND:                -2.380
REMARK SMILES CCCCCCCCCCCCCC[C@@H](C)C(=O)[O-]
REMARK SMILES IDX 9 1 10 2 11 3 12 4 13 5 14 6 15 7 16 8 17 9 18 10 19 11 8 12
REMARK SMILES IDX 7 13 6 14 5 15 4 16 3 17 2 18 1 19
REMARK H PARENT
REMARK Flexibility Score: inf
ROOT
ATOM      1  C   UNL     1      19.904  14.622  -0.294  1.00  0.00     0.000 C 
ENDROOT
BRANCH   1   2
ATOM      2  C   UNL     1      19.907  15.828   0.659  1.00  0.00     0.000 C 
BRANCH   2   3
ATOM      3  C   UNL     1      21.323  16.253   1.077  1.00  0.00     0.000 C 
BRANCH   3   4
ATOM      4  C   UNL     1      22.383  15.390   0.375  1.00  0.00     0.000 C 
BRANCH   4   5
ATOM      5  C   UNL     1      23.624  15.144   1.248  1.00  0.00     0.001 C 
BRANCH   5   6
ATOM      6  C   UNL     1      23.790  13.664   1.639  1.00  0.00     0.009 C 
BRANCH   6   7
ATOM      7  C   UNL     1      22.587  13.123   2.444  1.00  0.00     0.032 C 
ATOM      8  C   UNL     1      22.245  11.671   2.080  1.00  0.00     0.014 C 
BRANCH   7   9
ATOM      9  C   UNL     1      22.870  13.221   3.918  1.00  0.00     0.044 C 
ATOM     10  O   UNL     1      22.629  14.287   4.546  1.00  0.00    -0.550 OA
ATOM     11  O   UNL     1      23.406  12.133   4.595  1.00  0.00    -0.550 OA
ENDBRANCH   7   9
ENDBRANCH   6   7
ENDBRANCH   5   6
ENDBRANCH   4   5
ENDBRANCH   3   4
ENDBRANCH   2   3
ENDBRANCH   1   2
BRANCH   1  12
ATOM     12  C   UNL     1      19.317  13.357   0.355  1.00  0.00     0.000 C 
BRANCH  12  13
ATOM     13  C   UNL     1      19.471  12.104  -0.527  1.00  0.00    -0.000 C 
BRANCH  13  14
ATOM     14  C   UNL     1      20.273  12.312  -1.824  1.00  0.00    -0.000 C 
BRANCH  14  15
ATOM     15  C   UNL     1      21.602  11.543  -1.837  1.00  0.00    -0.000 C 
BRANCH  15  16
ATOM     16  C   UNL     1      22.787  12.489  -1.595  1.00  0.00    -0.000 C 
BRANCH  16  17
ATOM     17  C   UNL     1      23.097  13.314  -2.853  1.00  0.00    -0.000 C 
BRANCH  17  18
ATOM     18  C   UNL     1      23.706  12.466  -3.980  1.00  0.00    -0.003 C 
ATOM     19  C   UNL     1      22.867  12.491  -5.257  1.00  0.00     0.004 C 
ENDBRANCH  17  18
ENDBRANCH  16  17
ENDBRANCH  15  16
ENDBRANCH  14  15
ENDBRANCH  13  14
ENDBRANCH  12  13
ENDBRANCH   1  12
TORSDOF 14
ENDMDL
MODEL 2
REMARK VINA RESULT:    -5.664      0.873      1.834
REMARK INTER + INTRA:         -12.680
REMARK INTER:                 -10.639
REMARK INTRA:                  -2.041
REMARK UNBOUND:                -2.380
REMARK SMILES CCCCCCCCCCCCCC[C@@H](C)C(=O)[O-]
REMARK SMILES IDX 9 1 10 2 11 3 12 4 13 5 14 6 15 7 16 8 17 9 18 10 19 11 8 12
REMARK SMILES IDX 7 13 6 14 5 15 4 16 3 17 2 18 1 19
REMARK H PARENT
REMARK Flexibility Score: inf
ROOT
ATOM      1  C   UNL     1      19.070  12.998  -0.695  1.00  0.00     0.000 C 
ENDROOT
BRANCH   1   2
ATOM      2  C   UNL     1      19.178  14.128   0.341  1.00  0.00     0.000 C 
BRANCH   2   3
ATOM      3  C   UNL     1      20.259  15.159  -0.013  1.00  0.00     0.000 C 
BRANCH   3   4
ATOM      4  C   UNL     1      21.036  15.591   1.241  1.00  0.00     0.000 C 
BRANCH   4   5
ATOM      5  C   UNL     1      22.559  15.544   1.044  1.00  0.00     0.001 C 
BRANCH   5   6
ATOM      6  C   UNL     1      23.141  14.135   1.261  1.00  0.00     0.009 C 
BRANCH   6   7
ATOM      7  C   UNL     1      22.281  13.277   2.215  1.00  0.00     0.032 C 
ATOM      8  C   UNL     1      22.149  11.824   1.736  1.00  0.00     0.014 C 
BRANCH   7   9
ATOM      9  C   UNL     1      22.871  13.301   3.599  1.00  0.00     0.044 C 
ATOM     10  O   UNL     1      23.306  12.244   4.128  1.00  0.00    -0.550 OA
ATOM     11  O   UNL     1      22.933  14.495   4.305  1.00  0.00    -0.550 OA
ENDBRANCH   7   9
ENDBRANCH   6   7
ENDBRANCH   5   6
ENDBRANCH   4   5
ENDBRANCH   3   4
ENDBRANCH   2   3
ENDBRANCH   1   2
BRANCH   1  12
ATOM     12  C   UNL     1      19.880  13.287  -1.971  1.00  0.00     0.000 C 
BRANCH  12  13
ATOM     13  C   UNL     1      20.609  12.044  -2.514  1.00  0.00    -0.000 C 
BRANCH  13  14
ATOM     14  C   UNL     1      22.078  11.903  -2.074  1.00  0.00    -0.000 C 
BRANCH  14  15
ATOM     15  C   UNL     1      22.873  13.209  -2.212  1.00  0.00    -0.000 C 
BRANCH  15  16
ATOM     16  C   UNL     1      23.325  13.427  -3.662  1.00  0.00    -0.000 C 
BRANCH  16  17
ATOM     17  C   UNL     1      23.720  12.098  -4.322  1.00  0.00    -0.000 C 
BRANCH  17  18
ATOM     18  C   UNL     1      23.211  11.981  -5.766  1.00  0.00    -0.003 C 
ATOM     19  C   UNL     1      24.005  10.969  -6.592  1.00  0.00     0.004 C 
ENDBRANCH  17  18
ENDBRANCH  16  17
ENDBRANCH  15  16
ENDBRANCH  14  15
ENDBRANCH  13  14
ENDBRANCH  12  13
ENDBRANCH   1  12
TORSDOF 14
ENDMDL
MODEL 3
REMARK VINA RESULT:    -5.597      1.318      3.854
REMARK INTER + INTRA:         -12.557
REMARK INTER:                 -10.556
REMARK INTRA:                  -2.002
REMARK UNBOUND:                -2.380
REMARK SMILES CCCCCCCCCCCCCC[C@@H](C)C(=O)[O-]
REMARK SMILES IDX 9 1 10 2 11 3 12 4 13 5 14 6 15 7 16 8 17 9 18 10 19 11 8 12
REMARK SMILES IDX 7 13 6 14 5 15 4 16 3 17 2 18 1 19
REMARK H PARENT
REMARK Flexibility Score: inf
ROOT
ATOM      1  C   UNL     1      22.645  13.369  -3.110  1.00  0.00     0.000 C 
ENDROOT
BRANCH   1   2
ATOM      2  C   UNL     1      23.857  13.030  -2.227  1.00  0.00     0.000 C 
BRANCH   2   3
ATOM      3  C   UNL     1      23.573  13.218  -0.729  1.00  0.00     0.000 C 
BRANCH   3   4
ATOM      4  C   UNL     1      24.731  12.672   0.121  1.00  0.00     0.000 C 
BRANCH   4   5
ATOM      5  C   UNL     1      24.905  13.428   1.448  1.00  0.00     0.001 C 
BRANCH   5   6
ATOM      6  C   UNL     1      23.645  14.216   1.850  1.00  0.00     0.009 C 
BRANCH   6   7
ATOM      7  C   UNL     1      23.352  14.135   3.365  1.00  0.00     0.032 C 
ATOM      8  C   UNL     1      22.256  15.119   3.802  1.00  0.00     0.014 C 
BRANCH   7   9
ATOM      9  C   UNL     1      22.950  12.734   3.736  1.00  0.00     0.044 C 
ATOM     10  O   UNL     1      23.423  12.183   4.766  1.00  0.00    -0.550 OA
ATOM     11  O   UNL     1      22.053  12.036   2.938  1.00  0.00    -0.550 OA
ENDBRANCH   7   9
ENDBRANCH   6   7
ENDBRANCH   5   6
ENDBRANCH   4   5
ENDBRANCH   3   4
ENDBRANCH   2   3
ENDBRANCH   1   2
BRANCH   1  12
ATOM     12  C   UNL     1      21.878  12.117  -3.567  1.00  0.00     0.000 C 
BRANCH  12  13
ATOM     13  C   UNL     1      20.513  11.962  -2.871  1.00  0.00    -0.000 C 
BRANCH  13  14
ATOM     14  C   UNL     1      19.812  13.283  -2.505  1.00  0.00    -0.000 C 
BRANCH  14  15
ATOM     15  C   UNL     1      18.747  13.114  -1.412  1.00  0.00    -0.000 C 
BRANCH  15  16
ATOM     16  C   UNL     1      19.345  12.462  -0.158  1.00  0.00    -0.000 C 
BRANCH  16  17
ATOM     17  C   UNL     1      20.233  13.454   0.608  1.00  0.00    -0.000 C 
BRANCH  17  18
ATOM     18  C   UNL     1      19.616  14.858   0.688  1.00  0.00    -0.003 C 
ATOM     19  C   UNL     1      20.644  15.968   0.468  1.00  0.00     0.004 C 
ENDBRANCH  17  18
ENDBRANCH  16  17
ENDBRANCH  15  16
ENDBRANCH  14  15
ENDBRANCH  13  14
ENDBRANCH  12  13
ENDBRANCH   1  12
TORSDOF 14
ENDMDL
MODEL 4
REMARK VINA RESULT:    -5.563      3.412      6.033
REMARK INTER + INTRA:         -12.495
REMARK INTER:                 -10.258
REMARK INTRA:                  -2.237
REMARK UNBOUND:                -2.380
REMARK SMILES CCCCCCCCCCCCCC[C@@H](C)C(=O)[O-]
REMARK SMILES IDX 9 1 10 2 11 3 12 4 13 5 14 6 15 7 16 8 17 9 18 10 19 11 8 12
REMARK SMILES IDX 7 13 6 14 5 15 4 16 3 17 2 18 1 19
REMARK H PARENT
REMARK Flexibility Score: inf
ROOT
ATOM      1  C   UNL     1      19.602  12.608   0.420  1.00  0.00     0.000 C 
ENDROOT
BRANCH   1   2
ATOM      2  C   UNL     1      20.676  11.788  -0.312  1.00  0.00     0.000 C 
BRANCH   2   3
ATOM      3  C   UNL     1      21.916  11.522   0.554  1.00  0.00     0.000 C 
BRANCH   3   4
ATOM      4  C   UNL     1      23.173  12.133  -0.087  1.00  0.00     0.000 C 
BRANCH   4   5
ATOM      5  C   UNL     1      22.849  13.279  -1.059  1.00  0.00     0.001 C 
BRANCH   5   6
ATOM      6  C   UNL     1      23.495  13.081  -2.443  1.00  0.00     0.009 C 
BRANCH   6   7
ATOM      7  C   UNL     1      22.645  12.188  -3.374  1.00  0.00     0.032 C 
ATOM      8  C   UNL     1      21.217  12.723  -3.554  1.00  0.00     0.014 C 
BRANCH   7   9
ATOM      9  C   UNL     1      23.312  12.065  -4.716  1.00  0.00     0.044 C 
ATOM     10  O   UNL     1      22.835  12.650  -5.725  1.00  0.00    -0.550 OA
ATOM     11  O   UNL     1      24.461  11.297  -4.851  1.00  0.00    -0.550 OA
ENDBRANCH   7   9
ENDBRANCH   6   7
ENDBRANCH   5   6
ENDBRANCH   4   5
ENDBRANCH   3   4
ENDBRANCH   2   3
ENDBRANCH   1   2
BRANCH   1  12
ATOM     12  C   UNL     1      19.145  13.836  -0.386  1.00  0.00     0.000 C 
BRANCH  12  13
ATOM     13  C   UNL     1      19.211  15.144   0.424  1.00  0.00    -0.000 C 
BRANCH  13  14
ATOM     14  C   UNL     1      20.596  15.816   0.470  1.00  0.00    -0.000 C 
BRANCH  14  15
ATOM     15  C   UNL     1      21.316  15.615   1.810  1.00  0.00    -0.000 C 
BRANCH  15  16
ATOM     16  C   UNL     1      22.836  15.548   1.613  1.00  0.00    -0.000 C 
BRANCH  16  17
ATOM     17  C   UNL     1      23.487  14.631   2.660  1.00  0.00    -0.000 C 
BRANCH  17  18
ATOM     18  C   UNL     1      22.572  14.369   3.865  1.00  0.00    -0.003 C 
ATOM     19  C   UNL     1      22.246  12.886   4.047  1.00  0.00     0.004 C 
ENDBRANCH  17  18
ENDBRANCH  16  17
ENDBRANCH  15  16
ENDBRANCH  14  15
ENDBRANCH  13  14
ENDBRANCH  12  13
ENDBRANCH   1  12
TORSDOF 14
ENDMDL
MODEL 5
REMARK VINA RESULT:    -5.531      3.244      5.932
REMARK INTER + INTRA:         -12.437
REMARK INTER:                 -10.223
REMARK INTRA:                  -2.215
REMARK UNBOUND:                -2.380
REMARK SMILES CCCCCCCCCCCCCC[C@@H](C)C(=O)[O-]
REMARK SMILES IDX 9 1 10 2 11 3 12 4 13 5 14 6 15 7 16 8 17 9 18 10 19 11 8 12
REMARK SMILES IDX 7 13 6 14 5 15 4 16 3 17 2 18 1 19
REMARK H PARENT
REMARK Flexibility Score: inf
ROOT
ATOM      1  C   UNL     1      23.241  12.967   3.021  1.00  0.00     0.000 C 
ENDROOT
BRANCH   1   2
ATOM      2  C   UNL     1      22.201  12.093   2.303  1.00  0.00     0.000 C 
BRANCH   2   3
ATOM      3  C   UNL     1      22.607  11.746   0.863  1.00  0.00     0.000 C 
BRANCH   3   4
ATOM      4  C   UNL     1      23.732  12.672   0.373  1.00  0.00     0.000 C 
BRANCH   4   5
ATOM      5  C   UNL     1      23.827  12.733  -1.160  1.00  0.00     0.001 C 
BRANCH   5   6
ATOM      6  C   UNL     1      22.524  13.226  -1.815  1.00  0.00     0.009 C 
BRANCH   6   7
ATOM      7  C   UNL     1      22.104  12.365  -3.027  1.00  0.00     0.032 C 
ATOM      8  C   UNL     1      20.594  12.426  -3.293  1.00  0.00     0.014 C 
BRANCH   7   9
ATOM      9  C   UNL     1      22.851  12.809  -4.255  1.00  0.00     0.044 C 
ATOM     10  O   UNL     1      22.863  12.092  -5.291  1.00  0.00    -0.550 OA
ATOM     11  O   UNL     1      23.539  14.016  -4.249  1.00  0.00    -0.550 OA
ENDBRANCH   7   9
ENDBRANCH   6   7
ENDBRANCH   5   6
ENDBRANCH   4   5
ENDBRANCH   3   4
ENDBRANCH   2   3
ENDBRANCH   1   2
BRANCH   1  12
ATOM     12  C   UNL     1      22.640  13.754   4.199  1.00  0.00     0.000 C 
BRANCH  12  13
ATOM     13  C   UNL     1      22.181  15.170   3.802  1.00  0.00    -0.000 C 
BRANCH  13  14
ATOM     14  C   UNL     1      22.684  15.661   2.432  1.00  0.00    -0.000 C 
BRANCH  14  15
ATOM     15  C   UNL     1      21.565  16.236   1.553  1.00  0.00    -0.000 C 
BRANCH  15  16
ATOM     16  C   UNL     1      21.080  15.200   0.530  1.00  0.00    -0.000 C 
BRANCH  16  17
ATOM     17  C   UNL     1      19.546  15.124   0.509  1.00  0.00    -0.000 C 
BRANCH  17  18
ATOM     18  C   UNL     1      19.023  14.013  -0.413  1.00  0.00    -0.003 C 
ATOM     19  C   UNL     1      19.221  12.616   0.175  1.00  0.00     0.004 C 
ENDBRANCH  17  18
ENDBRANCH  16  17
ENDBRANCH  15  16
ENDBRANCH  14  15
ENDBRANCH  13  14
ENDBRANCH  12  13
ENDBRANCH   1  12
TORSDOF 14
ENDMDL
MODEL 6
REMARK VINA RESULT:    -5.520      1.843      2.889
REMARK INTER + INTRA:         -12.418
REMARK INTER:                 -10.268
REMARK INTRA:                  -2.150
REMARK UNBOUND:                -2.380
REMARK SMILES CCCCCCCCCCCCCC[C@@H](C)C(=O)[O-]
REMARK SMILES IDX 9 1 10 2 11 3 12 4 13 5 14 6 15 7 16 8 17 9 18 10 19 11 8 12
REMARK SMILES IDX 7 13 6 14 5 15 4 16 3 17 2 18 1 19
REMARK H PARENT
REMARK Flexibility Score: inf
ROOT
ATOM      1  C   UNL     1      21.493  16.322   0.816  1.00  0.00     0.000 C 
ENDROOT
BRANCH   1   2
ATOM      2  C   UNL     1      22.497  16.105   1.960  1.00  0.00     0.000 C 
BRANCH   2   3
ATOM      3  C   UNL     1      21.888  15.349   3.151  1.00  0.00     0.000 C 
BRANCH   3   4
ATOM      4  C   UNL     1      22.900  14.356   3.745  1.00  0.00     0.000 C 
BRANCH   4   5
ATOM      5  C   UNL     1      22.415  12.899   3.678  1.00  0.00     0.001 C 
BRANCH   5   6
ATOM      6  C   UNL     1      21.859  12.523   2.292  1.00  0.00     0.009 C 
BRANCH   6   7
ATOM      7  C   UNL     1      22.911  11.828   1.398  1.00  0.00     0.032 C 
ATOM      8  C   UNL     1      22.277  10.835   0.414  1.00  0.00     0.014 C 
BRANCH   7   9
ATOM      9  C   UNL     1      23.701  12.858   0.639  1.00  0.00     0.044 C 
ATOM     10  O   UNL     1      24.872  13.158   0.995  1.00  0.00    -0.550 OA
ATOM     11  O   UNL     1      23.137  13.491  -0.462  1.00  0.00    -0.550 OA
ENDBRANCH   7   9
ENDBRANCH   6   7
ENDBRANCH   5   6
ENDBRANCH   4   5
ENDBRANCH   3   4
ENDBRANCH   2   3
ENDBRANCH   1   2
BRANCH   1  12
ATOM     12  C   UNL     1      20.215  15.483   0.984  1.00  0.00     0.000 C 
BRANCH  12  13
ATOM     13  C   UNL     1      19.865  14.666  -0.273  1.00  0.00    -0.000 C 
BRANCH  13  14
ATOM     14  C   UNL     1      19.154  13.326  -0.006  1.00  0.00    -0.000 C 
BRANCH  14  15
ATOM     15  C   UNL     1      19.368  12.300  -1.127  1.00  0.00    -0.000 C 
BRANCH  15  16
ATOM     16  C   UNL     1      19.920  12.972  -2.391  1.00  0.00    -0.000 C 
BRANCH  16  17
ATOM     17  C   UNL     1      21.018  12.113  -3.036  1.00  0.00    -0.000 C 
BRANCH  17  18
ATOM     18  C   UNL     1      22.121  12.959  -3.692  1.00  0.00    -0.003 C 
ATOM     19  C   UNL     1      23.262  12.110  -4.251  1.00  0.00     0.004 C 
ENDBRANCH  17  18
ENDBRANCH  16  17
ENDBRANCH  15  16
ENDBRANCH  14  15
ENDBRANCH  13  14
ENDBRANCH  12  13
ENDBRANCH   1  12
TORSDOF 14
ENDMDL
MODEL 7
REMARK VINA RESULT:    -5.467      3.610      6.594
REMARK INTER + INTRA:         -12.321
REMARK INTER:                 -10.219
REMARK INTRA:                  -2.102
REMARK UNBOUND:                -2.380
REMARK SMILES CCCCCCCCCCCCCC[C@@H](C)C(=O)[O-]
REMARK SMILES IDX 9 1 10 2 11 3 12 4 13 5 14 6 15 7 16 8 17 9 18 10 19 11 8 12
REMARK SMILES IDX 7 13 6 14 5 15 4 16 3 17 2 18 1 19
REMARK H PARENT
REMARK Flexibility Score: inf
ROOT
ATOM      1  C   UNL     1      20.739  12.566   0.839  1.00  0.00     0.000 C 
ENDROOT
BRANCH   1   2
ATOM      2  C   UNL     1      19.691  12.279  -0.248  1.00  0.00     0.000 C 
BRANCH   2   3
ATOM      3  C   UNL     1      19.700  13.324  -1.374  1.00  0.00     0.000 C 
BRANCH   3   4
ATOM      4  C   UNL     1      19.885  12.651  -2.743  1.00  0.00     0.000 C 
BRANCH   4   5
ATOM      5  C   UNL     1      21.349  12.279  -3.031  1.00  0.00     0.001 C 
BRANCH   5   6
ATOM      6  C   UNL     1      21.788  12.662  -4.456  1.00  0.00     0.009 C 
BRANCH   6   7
ATOM      7  C   UNL     1      23.316  12.860  -4.574  1.00  0.00     0.032 C 
ATOM      8  C   UNL     1      23.998  12.983  -3.204  1.00  0.00     0.014 C 
BRANCH   7   9
ATOM      9  C   UNL     1      23.923  11.716  -5.339  1.00  0.00     0.044 C 
ATOM     10  O   UNL     1      24.787  10.973  -4.802  1.00  0.00    -0.550 OA
ATOM     11  O   UNL     1      23.534  11.475  -6.651  1.00  0.00    -0.550 OA
ENDBRANCH   7   9
ENDBRANCH   6   7
ENDBRANCH   5   6
ENDBRANCH   4   5
ENDBRANCH   3   4
ENDBRANCH   2   3
ENDBRANCH   1   2
BRANCH   1  12
ATOM     12  C   UNL     1      22.012  11.717   0.671  1.00  0.00     0.000 C 
BRANCH  12  13
ATOM     13  C   UNL     1      23.301  12.560   0.687  1.00  0.00    -0.000 C 
BRANCH  13  14
ATOM     14  C   UNL     1      23.140  14.011   0.198  1.00  0.00    -0.000 C 
BRANCH  14  15
ATOM     15  C   UNL     1      23.553  15.048   1.253  1.00  0.00    -0.000 C 
BRANCH  15  16
ATOM     16  C   UNL     1      22.340  15.854   1.737  1.00  0.00    -0.000 C 
BRANCH  16  17
ATOM     17  C   UNL     1      21.981  15.489   3.185  1.00  0.00    -0.000 C 
BRANCH  17  18
ATOM     18  C   UNL     1      23.040  14.597   3.850  1.00  0.00    -0.003 C 
ATOM     19  C   UNL     1      22.483  13.240   4.282  1.00  0.00     0.004 C 
ENDBRANCH  17  18
ENDBRANCH  16  17
ENDBRANCH  15  16
ENDBRANCH  14  15
ENDBRANCH  13  14
ENDBRANCH  12  13
ENDBRANCH   1  12
TORSDOF 14
ENDMDL
MODEL 8
REMARK VINA RESULT:    -5.374      1.054      2.189
REMARK INTER + INTRA:         -12.152
REMARK INTER:                 -10.490
REMARK INTRA:                  -1.661
REMARK UNBOUND:                -2.380
REMARK SMILES CCCCCCCCCCCCCC[C@@H](C)C(=O)[O-]
REMARK SMILES IDX 9 1 10 2 11 3 12 4 13 5 14 6 15 7 16 8 17 9 18 10 19 11 8 12
REMARK SMILES IDX 7 13 6 14 5 15 4 16 3 17 2 18 1 19
REMARK H PARENT
REMARK Flexibility Score: inf
ROOT
ATOM      1  C   UNL     1      19.439  12.086  -0.351  1.00  0.00     0.000 C 
ENDROOT
BRANCH   1   2
ATOM      2  C   UNL     1      19.045  13.471   0.186  1.00  0.00     0.000 C 
BRANCH   2   3
ATOM      3  C   UNL     1      20.036  14.572  -0.222  1.00  0.00     0.000 C 
BRANCH   3   4
ATOM      4  C   UNL     1      20.602  15.285   1.016  1.00  0.00     0.000 C 
BRANCH   4   5
ATOM      5  C   UNL     1      21.785  16.208   0.682  1.00  0.00     0.001 C 
BRANCH   5   6
ATOM      6  C   UNL     1      23.064  15.835   1.454  1.00  0.00     0.009 C 
BRANCH   6   7
ATOM      7  C   UNL     1      23.148  14.325   1.770  1.00  0.00     0.032 C 
ATOM      8  C   UNL     1      24.390  13.667   1.153  1.00  0.00     0.014 C 
BRANCH   7   9
ATOM      9  C   UNL     1      23.150  14.112   3.259  1.00  0.00     0.044 C 
ATOM     10  O   UNL     1      22.713  15.004   4.034  1.00  0.00    -0.550 OA
ATOM     11  O   UNL     1      23.642  12.926   3.789  1.00  0.00    -0.550 OA
ENDBRANCH   7   9
ENDBRANCH   6   7
ENDBRANCH   5   6
ENDBRANCH   4   5
ENDBRANCH   3   4
ENDBRANCH   2   3
ENDBRANCH   1   2
BRANCH   1  12
ATOM     12  C   UNL     1      20.876  11.691   0.029  1.00  0.00     0.000 C 
BRANCH  12  13
ATOM     13  C   UNL     1      21.712  11.231  -1.179  1.00  0.00    -0.000 C 
BRANCH  13  14
ATOM     14  C   UNL     1      22.768  12.240  -1.667  1.00  0.00    -0.000 C 
BRANCH  14  15
ATOM     15  C   UNL     1      22.228  13.208  -2.729  1.00  0.00    -0.000 C 
BRANCH  15  16
ATOM     16  C   UNL     1      23.241  13.399  -3.865  1.00  0.00    -0.000 C 
BRANCH  16  17
ATOM     17  C   UNL     1      23.632  12.050  -4.487  1.00  0.00    -0.000 C 
BRANCH  17  18
ATOM     18  C   UNL     1      23.189  11.924  -5.952  1.00  0.00    -0.003 C 
ATOM     19  C   UNL     1      24.087  10.989  -6.763  1.00  0.00     0.004 C 
ENDBRANCH  17  18
ENDBRANCH  16  17
ENDBRANCH  15  16
ENDBRANCH  14  15
ENDBRANCH  13  14
ENDBRANCH  12  13
ENDBRANCH   1  12
TORSDOF 14
ENDMDL
MODEL 9
REMARK VINA RESULT:    -5.339      3.381      6.284
REMARK INTER + INTRA:         -12.088
REMARK INTER:                 -10.232
REMARK INTRA:                  -1.857
REMARK UNBOUND:                -2.380
REMARK SMILES CCCCCCCCCCCCCC[C@@H](C)C(=O)[O-]
REMARK SMILES IDX 9 1 10 2 11 3 12 4 13 5 14 6 15 7 16 8 17 9 18 10 19 11 8 12
REMARK SMILES IDX 7 13 6 14 5 15 4 16 3 17 2 18 1 19
REMARK H PARENT
REMARK Flexibility Score: inf
ROOT
ATOM      1  C   UNL     1      20.640  15.204   1.147  1.00  0.00     0.000 C 
ENDROOT
BRANCH   1   2
ATOM      2  C   UNL     1      19.638  14.989   0.002  1.00  0.00     0.000 C 
BRANCH   2   3
ATOM      3  C   UNL     1      19.177  13.529  -0.120  1.00  0.00     0.000 C 
BRANCH   3   4
ATOM      4  C   UNL     1      19.491  12.970  -1.516  1.00  0.00     0.000 C 
BRANCH   4   5
ATOM      5  C   UNL     1      20.995  12.758  -1.749  1.00  0.00     0.001 C 
BRANCH   5   6
ATOM      6  C   UNL     1      21.333  12.489  -3.227  1.00  0.00     0.009 C 
BRANCH   6   7
ATOM      7  C   UNL     1      22.661  13.148  -3.663  1.00  0.00     0.032 C 
ATOM      8  C   UNL     1      23.723  13.114  -2.555  1.00  0.00     0.014 C 
BRANCH   7   9
ATOM      9  C   UNL     1      23.193  12.465  -4.893  1.00  0.00     0.044 C 
ATOM     10  O   UNL     1      22.877  12.876  -6.042  1.00  0.00    -0.550 OA
ATOM     11  O   UNL     1      24.036  11.368  -4.767  1.00  0.00    -0.550 OA
ENDBRANCH   7   9
ENDBRANCH   6   7
ENDBRANCH   5   6
ENDBRANCH   4   5
ENDBRANCH   3   4
ENDBRANCH   2   3
ENDBRANCH   1   2
BRANCH   1  12
ATOM     12  C   UNL     1      21.728  16.234   0.795  1.00  0.00     0.000 C 
BRANCH  12  13
ATOM     13  C   UNL     1      23.133  15.803   1.254  1.00  0.00    -0.000 C 
BRANCH  13  14
ATOM     14  C   UNL     1      23.609  14.443   0.712  1.00  0.00    -0.000 C 
BRANCH  14  15
ATOM     15  C   UNL     1      23.885  13.418   1.821  1.00  0.00    -0.000 C 
BRANCH  15  16
ATOM     16  C   UNL     1      22.821  12.312   1.826  1.00  0.00    -0.000 C 
BRANCH  16  17
ATOM     17  C   UNL     1      21.908  12.433   3.055  1.00  0.00    -0.000 C 
BRANCH  17  18
ATOM     18  C   UNL     1      22.402  13.487   4.057  1.00  0.00    -0.003 C 
ATOM     19  C   UNL     1      22.874  12.872   5.375  1.00  0.00     0.004 C 
ENDBRANCH  17  18
ENDBRANCH  16  17
ENDBRANCH  15  16
ENDBRANCH  14  15
ENDBRANCH  13  14
ENDBRANCH  12  13
ENDBRANCH   1  12
TORSDOF 14
ENDMDL
