MODEL 1
REMARK VINA RESULT:    -7.474      0.000      0.000
REMARK INTER + INTRA:          -9.524
REMARK INTER:                  -9.222
REMARK INTRA:                  -0.302
REMARK UNBOUND:                -0.302
REMARK SMILES O=c1c(O)c(-c2cc(O)c(O)c(O)c2)oc2cc(O)cc(O)c12
REMARK SMILES IDX 5 1 3 2 2 3 1 4 23 5 21 6 20 7 18 8 17 9 16 10 15 11 6 12
REMARK SMILES IDX 7 13 8 14 14 15 10 16 12 17 9 18 11 20 13 22 4 24 22 26
REMARK SMILES IDX 19 28
REMARK H PARENT 9 19 11 21 13 23 4 25 22 27 19 29
REMARK Flexibility Score: inf
ROOT
ATOM      1  C   UNL     1      15.856  22.938  41.552  1.00  0.00     0.180 A 
ATOM      2  C   UNL     1      15.240  24.031  40.917  1.00  0.00     0.208 A 
ATOM      3  C   UNL     1      14.196  24.702  41.575  1.00  0.00     0.238 A 
ATOM      4  O   UNL     1      13.613  25.645  40.979  1.00  0.00    -0.285 OA
ATOM      5  C   UNL     1      13.793  24.283  42.866  1.00  0.00     0.111 A 
ATOM      6  C   UNL     1      12.776  24.915  43.641  1.00  0.00     0.134 A 
ATOM      7  C   UNL     1      12.369  24.336  44.850  1.00  0.00     0.093 A 
ATOM      8  C   UNL     1      12.990  23.184  45.342  1.00  0.00     0.123 A 
ATOM      9  C   UNL     1      14.024  22.595  44.621  1.00  0.00     0.094 A 
ATOM     10  C   UNL     1      14.428  23.128  43.394  1.00  0.00     0.146 A 
ATOM     11  O   UNL     1      15.411  22.529  42.734  1.00  0.00    -0.452 OA
ENDROOT
BRANCH   1  12
ATOM     12  C   UNL     1      16.978  22.197  40.932  1.00  0.00     0.029 A 
ATOM     13  C   UNL     1      18.256  22.776  40.903  1.00  0.00     0.062 A 
ATOM     14  C   UNL     1      19.329  22.108  40.306  1.00  0.00     0.162 A 
ATOM     15  C   UNL     1      16.778  20.949  40.317  1.00  0.00     0.062 A 
ATOM     16  C   UNL     1      19.130  20.850  39.711  1.00  0.00     0.200 A 
ATOM     17  C   UNL     1      17.848  20.273  39.714  1.00  0.00     0.162 A 
BRANCH  14  18
ATOM     18  O   UNL     1      20.587  22.710  40.312  1.00  0.00    -0.504 OA
ATOM     19  H   UNL     1      21.276  22.528  39.592  1.00  0.00     0.293 HD
ENDBRANCH  14  18
BRANCH  16  20
ATOM     20  O   UNL     1      20.207  20.189  39.119  1.00  0.00    -0.502 OA
ATOM     21  H   UNL     1      20.518  20.400  38.178  1.00  0.00     0.293 HD
ENDBRANCH  16  20
BRANCH  17  22
ATOM     22  O   UNL     1      17.641  19.033  39.113  1.00  0.00    -0.504 OA
ATOM     23  H   UNL     1      18.323  18.287  39.185  1.00  0.00     0.293 HD
ENDBRANCH  17  22
ENDBRANCH   1  12
BRANCH   2  24
ATOM     24  O   UNL     1      15.639  24.414  39.633  1.00  0.00    -0.502 OA
ATOM     25  H   UNL     1      16.610  24.414  39.343  1.00  0.00     0.293 HD
ENDBRANCH   2  24
BRANCH   6  26
ATOM     26  O   UNL     1      12.156  26.116  43.286  1.00  0.00    -0.507 OA
ATOM     27  H   UNL     1      11.821  26.806  43.941  1.00  0.00     0.293 HD
ENDBRANCH   6  26
BRANCH   8  28
ATOM     28  O   UNL     1      12.590  22.624  46.553  1.00  0.00    -0.508 OA
ATOM     29  H   UNL     1      11.950  21.839  46.588  1.00  0.00     0.293 HD
ENDBRANCH   8  28
TORSDOF 7
ENDMDL
MODEL 2
REMARK VINA RESULT:    -7.376      0.109      1.758
REMARK INTER + INTRA:          -9.402
REMARK INTER:                  -9.074
REMARK INTRA:                  -0.328
REMARK UNBOUND:                -0.302
REMARK SMILES O=c1c(O)c(-c2cc(O)c(O)c(O)c2)oc2cc(O)cc(O)c12
REMARK SMILES IDX 5 1 3 2 2 3 1 4 23 5 21 6 20 7 18 8 17 9 16 10 15 11 6 12
REMARK SMILES IDX 7 13 8 14 14 15 10 16 12 17 9 18 11 20 13 22 4 24 22 26
REMARK SMILES IDX 19 28
REMARK H PARENT 9 19 11 21 13 23 4 25 22 27 19 29
REMARK Flexibility Score: inf
ROOT
ATOM      1  C   UNL     1      15.939  22.980  41.474  1.00  0.00     0.180 A 
ATOM      2  C   UNL     1      15.292  24.061  40.849  1.00  0.00     0.208 A 
ATOM      3  C   UNL     1      14.241  24.707  41.521  1.00  0.00     0.238 A 
ATOM      4  O   UNL     1      13.630  25.638  40.935  1.00  0.00    -0.285 OA
ATOM      5  C   UNL     1      13.863  24.276  42.815  1.00  0.00     0.111 A 
ATOM      6  C   UNL     1      12.841  24.882  43.605  1.00  0.00     0.134 A 
ATOM      7  C   UNL     1      12.462  24.291  44.816  1.00  0.00     0.093 A 
ATOM      8  C   UNL     1      13.113  23.153  45.298  1.00  0.00     0.123 A 
ATOM      9  C   UNL     1      14.152  22.588  44.563  1.00  0.00     0.094 A 
ATOM     10  C   UNL     1      14.529  23.134  43.333  1.00  0.00     0.146 A 
ATOM     11  O   UNL     1      15.517  22.558  42.659  1.00  0.00    -0.452 OA
ENDROOT
BRANCH   1  12
ATOM     12  C   UNL     1      17.070  22.266  40.838  1.00  0.00     0.029 A 
ATOM     13  C   UNL     1      16.862  20.990  40.293  1.00  0.00     0.062 A 
ATOM     14  C   UNL     1      17.916  20.283  39.706  1.00  0.00     0.162 A 
ATOM     15  C   UNL     1      18.364  22.814  40.821  1.00  0.00     0.062 A 
ATOM     16  C   UNL     1      19.204  20.845  39.672  1.00  0.00     0.200 A 
ATOM     17  C   UNL     1      19.427  22.113  40.236  1.00  0.00     0.162 A 
BRANCH  14  18
ATOM     18  O   UNL     1      17.665  19.024  39.161  1.00  0.00    -0.504 OA
ATOM     19  H   UNL     1      18.091  18.715  38.296  1.00  0.00     0.293 HD
ENDBRANCH  14  18
BRANCH  16  20
ATOM     20  O   UNL     1      20.250  20.134  39.081  1.00  0.00    -0.502 OA
ATOM     21  H   UNL     1      20.553  20.311  38.131  1.00  0.00     0.293 HD
ENDBRANCH  16  20
BRANCH  17  22
ATOM     22  O   UNL     1      20.705  22.668  40.218  1.00  0.00    -0.504 OA
ATOM     23  H   UNL     1      20.877  23.593  39.842  1.00  0.00     0.293 HD
ENDBRANCH  17  22
ENDBRANCH   1  12
BRANCH   2  24
ATOM     24  O   UNL     1      15.667  24.456  39.562  1.00  0.00    -0.502 OA
ATOM     25  H   UNL     1      16.622  24.391  39.230  1.00  0.00     0.293 HD
ENDBRANCH   2  24
BRANCH   6  26
ATOM     26  O   UNL     1      12.191  26.070  43.260  1.00  0.00    -0.507 OA
ATOM     27  H   UNL     1      11.671  26.215  42.407  1.00  0.00     0.293 HD
ENDBRANCH   6  26
BRANCH   8  28
ATOM     28  O   UNL     1      12.740  22.580  46.512  1.00  0.00    -0.508 OA
ATOM     29  H   UNL     1      12.510  21.597  46.586  1.00  0.00     0.293 HD
ENDBRANCH   8  28
TORSDOF 7
ENDMDL
MODEL 3
REMARK VINA RESULT:    -7.196      1.710      2.818
REMARK INTER + INTRA:          -9.181
REMARK INTER:                  -9.466
REMARK INTRA:                   0.286
REMARK UNBOUND:                -0.302
REMARK SMILES O=c1c(O)c(-c2cc(O)c(O)c(O)c2)oc2cc(O)cc(O)c12
REMARK SMILES IDX 5 1 3 2 2 3 1 4 23 5 21 6 20 7 18 8 17 9 16 10 15 11 6 12
REMARK SMILES IDX 7 13 8 14 14 15 10 16 12 17 9 18 11 20 13 22 4 24 22 26
REMARK SMILES IDX 19 28
REMARK H PARENT 9 19 11 21 13 23 4 25 22 27 19 29
REMARK Flexibility Score: inf
ROOT
ATOM      1  C   UNL     1      17.631  22.686  40.414  1.00  0.00     0.180 A 
ATOM      2  C   UNL     1      17.268  23.724  39.537  1.00  0.00     0.208 A 
ATOM      3  C   UNL     1      16.124  24.487  39.822  1.00  0.00     0.238 A 
ATOM      4  O   UNL     1      15.773  25.378  39.005  1.00  0.00    -0.285 OA
ATOM      5  C   UNL     1      15.368  24.215  40.988  1.00  0.00     0.111 A 
ATOM      6  C   UNL     1      14.216  24.951  41.396  1.00  0.00     0.134 A 
ATOM      7  C   UNL     1      13.470  24.511  42.497  1.00  0.00     0.093 A 
ATOM      8  C   UNL     1      13.874  23.401  43.244  1.00  0.00     0.123 A 
ATOM      9  C   UNL     1      15.030  22.712  42.888  1.00  0.00     0.094 A 
ATOM     10  C   UNL     1      15.775  23.105  41.773  1.00  0.00     0.146 A 
ATOM     11  O   UNL     1      16.865  22.414  41.463  1.00  0.00    -0.452 OA
ENDROOT
BRANCH   1  12
ATOM     12  C   UNL     1      18.837  21.855  40.193  1.00  0.00     0.029 A 
ATOM     13  C   UNL     1      18.923  20.590  40.793  1.00  0.00     0.062 A 
ATOM     14  C   UNL     1      20.057  19.792  40.619  1.00  0.00     0.162 A 
ATOM     15  C   UNL     1      19.925  22.331  39.441  1.00  0.00     0.062 A 
ATOM     16  C   UNL     1      21.135  20.263  39.849  1.00  0.00     0.200 A 
ATOM     17  C   UNL     1      21.068  21.538  39.262  1.00  0.00     0.162 A 
BRANCH  14  18
ATOM     18  O   UNL     1      20.098  18.534  41.220  1.00  0.00    -0.504 OA
ATOM     19  H   UNL     1      20.882  18.230  41.784  1.00  0.00     0.293 HD
ENDBRANCH  14  18
BRANCH  16  20
ATOM     20  O   UNL     1      22.263  19.459  39.678  1.00  0.00    -0.502 OA
ATOM     21  H   UNL     1      23.200  19.844  39.647  1.00  0.00     0.293 HD
ENDBRANCH  16  20
BRANCH  17  22
ATOM     22  O   UNL     1      22.138  22.017  38.509  1.00  0.00    -0.504 OA
ATOM     23  H   UNL     1      23.012  21.507  38.444  1.00  0.00     0.293 HD
ENDBRANCH  17  22
ENDBRANCH   1  12
BRANCH   2  24
ATOM     24  O   UNL     1      18.016  23.961  38.380  1.00  0.00    -0.502 OA
ATOM     25  H   UNL     1      17.664  23.753  37.453  1.00  0.00     0.293 HD
ENDBRANCH   2  24
BRANCH   6  26
ATOM     26  O   UNL     1      13.780  26.125  40.776  1.00  0.00    -0.507 OA
ATOM     27  H   UNL     1      13.260  26.160  39.912  1.00  0.00     0.293 HD
ENDBRANCH   6  26
BRANCH   8  28
ATOM     28  O   UNL     1      13.135  22.980  44.347  1.00  0.00    -0.508 OA
ATOM     29  H   UNL     1      13.154  22.017  44.662  1.00  0.00     0.293 HD
ENDBRANCH   8  28
TORSDOF 7
ENDMDL
MODEL 4
REMARK VINA RESULT:    -6.039      1.467      7.025
REMARK INTER + INTRA:          -7.752
REMARK INTER:                  -8.026
REMARK INTRA:                   0.273
REMARK UNBOUND:                -0.302
REMARK SMILES O=c1c(O)c(-c2cc(O)c(O)c(O)c2)oc2cc(O)cc(O)c12
REMARK SMILES IDX 5 1 3 2 2 3 1 4 23 5 21 6 20 7 18 8 17 9 16 10 15 11 6 12
REMARK SMILES IDX 7 13 8 14 14 15 10 16 12 17 9 18 11 20 13 22 4 24 22 26
REMARK SMILES IDX 19 28
REMARK H PARENT 9 19 11 21 13 23 4 25 22 27 19 29
REMARK Flexibility Score: inf
ROOT
ATOM      1  C   UNL     1      13.965  23.714  43.136  1.00  0.00     0.180 A 
ATOM      2  C   UNL     1      13.720  24.857  42.354  1.00  0.00     0.208 A 
ATOM      3  C   UNL     1      14.493  25.073  41.202  1.00  0.00     0.238 A 
ATOM      4  O   UNL     1      14.306  26.125  40.537  1.00  0.00    -0.285 OA
ATOM      5  C   UNL     1      15.489  24.136  40.836  1.00  0.00     0.111 A 
ATOM      6  C   UNL     1      16.303  24.233  39.669  1.00  0.00     0.134 A 
ATOM      7  C   UNL     1      17.346  23.318  39.476  1.00  0.00     0.093 A 
ATOM      8  C   UNL     1      17.561  22.270  40.375  1.00  0.00     0.123 A 
ATOM      9  C   UNL     1      16.735  22.133  41.486  1.00  0.00     0.094 A 
ATOM     10  C   UNL     1      15.708  23.051  41.725  1.00  0.00     0.146 A 
ATOM     11  O   UNL     1      14.950  22.889  42.803  1.00  0.00    -0.452 OA
ENDROOT
BRANCH   1  12
ATOM     12  C   UNL     1      13.175  23.407  44.350  1.00  0.00     0.029 A 
ATOM     13  C   UNL     1      12.952  22.068  44.708  1.00  0.00     0.062 A 
ATOM     14  C   UNL     1      12.193  21.748  45.837  1.00  0.00     0.162 A 
ATOM     15  C   UNL     1      12.593  24.427  45.121  1.00  0.00     0.062 A 
ATOM     16  C   UNL     1      11.630  22.772  46.618  1.00  0.00     0.200 A 
ATOM     17  C   UNL     1      11.828  24.115  46.254  1.00  0.00     0.162 A 
BRANCH  14  18
ATOM     18  O   UNL     1      12.007  20.406  46.169  1.00  0.00    -0.504 OA
ATOM     19  H   UNL     1      12.690  19.694  45.940  1.00  0.00     0.293 HD
ENDBRANCH  14  18
BRANCH  16  20
ATOM     20  O   UNL     1      10.875  22.444  47.746  1.00  0.00    -0.502 OA
ATOM     21  H   UNL     1       9.995  22.899  47.956  1.00  0.00     0.293 HD
ENDBRANCH  16  20
BRANCH  17  22
ATOM     22  O   UNL     1      11.260  25.135  47.016  1.00  0.00    -0.504 OA
ATOM     23  H   UNL     1      10.963  26.009  46.597  1.00  0.00     0.293 HD
ENDBRANCH  17  22
ENDBRANCH   1  12
BRANCH   2  24
ATOM     24  O   UNL     1      12.746  25.781  42.746  1.00  0.00    -0.502 OA
ATOM     25  H   UNL     1      12.980  26.663  43.185  1.00  0.00     0.293 HD
ENDBRANCH   2  24
BRANCH   6  26
ATOM     26  O   UNL     1      16.114  25.185  38.663  1.00  0.00    -0.507 OA
ATOM     27  H   UNL     1      15.446  25.103  37.912  1.00  0.00     0.293 HD
ENDBRANCH   6  26
BRANCH   8  28
ATOM     28  O   UNL     1      18.591  21.356  40.167  1.00  0.00    -0.508 OA
ATOM     29  H   UNL     1      19.524  21.656  39.912  1.00  0.00     0.293 HD
ENDBRANCH   8  28
TORSDOF 7
ENDMDL
MODEL 5
REMARK VINA RESULT:    -5.794      1.530      7.475
REMARK INTER + INTRA:          -7.451
REMARK INTER:                  -7.328
REMARK INTRA:                  -0.123
REMARK UNBOUND:                -0.302
REMARK SMILES O=c1c(O)c(-c2cc(O)c(O)c(O)c2)oc2cc(O)cc(O)c12
REMARK SMILES IDX 5 1 3 2 2 3 1 4 23 5 21 6 20 7 18 8 17 9 16 10 15 11 6 12
REMARK SMILES IDX 7 13 8 14 14 15 10 16 12 17 9 18 11 20 13 22 4 24 22 26
REMARK SMILES IDX 19 28
REMARK H PARENT 9 19 11 21 13 23 4 25 22 27 19 29
REMARK Flexibility Score: inf
ROOT
ATOM      1  C   UNL     1      17.139  22.203  41.188  1.00  0.00     0.180 A 
ATOM      2  C   UNL     1      17.227  20.813  40.996  1.00  0.00     0.208 A 
ATOM      3  C   UNL     1      18.416  20.270  40.481  1.00  0.00     0.238 A 
ATOM      4  O   UNL     1      18.470  19.033  40.260  1.00  0.00    -0.285 OA
ATOM      5  C   UNL     1      19.507  21.122  40.182  1.00  0.00     0.111 A 
ATOM      6  C   UNL     1      20.772  20.677  39.695  1.00  0.00     0.134 A 
ATOM      7  C   UNL     1      21.733  21.619  39.309  1.00  0.00     0.093 A 
ATOM      8  C   UNL     1      21.500  22.989  39.454  1.00  0.00     0.123 A 
ATOM      9  C   UNL     1      20.290  23.431  39.984  1.00  0.00     0.094 A 
ATOM     10  C   UNL     1      19.297  22.516  40.345  1.00  0.00     0.146 A 
ATOM     11  O   UNL     1      18.155  22.981  40.835  1.00  0.00    -0.452 OA
ENDROOT
BRANCH   1  12
ATOM     12  C   UNL     1      15.928  22.844  41.748  1.00  0.00     0.029 A 
ATOM     13  C   UNL     1      15.326  23.908  41.057  1.00  0.00     0.062 A 
ATOM     14  C   UNL     1      14.194  24.546  41.573  1.00  0.00     0.162 A 
ATOM     15  C   UNL     1      15.400  22.450  42.990  1.00  0.00     0.062 A 
ATOM     16  C   UNL     1      13.657  24.134  42.805  1.00  0.00     0.200 A 
ATOM     17  C   UNL     1      14.266  23.086  43.516  1.00  0.00     0.162 A 
BRANCH  14  18
ATOM     18  O   UNL     1      13.617  25.588  40.848  1.00  0.00    -0.504 OA
ATOM     19  H   UNL     1      13.830  25.748  39.871  1.00  0.00     0.293 HD
ENDBRANCH  14  18
BRANCH  16  20
ATOM     20  O   UNL     1      12.525  24.775  43.312  1.00  0.00    -0.502 OA
ATOM     21  H   UNL     1      12.114  25.582  42.858  1.00  0.00     0.293 HD
ENDBRANCH  16  20
BRANCH  17  22
ATOM     22  O   UNL     1      13.747  22.683  44.745  1.00  0.00    -0.504 OA
ATOM     23  H   UNL     1      12.749  22.589  44.895  1.00  0.00     0.293 HD
ENDBRANCH  17  22
ENDBRANCH   1  12
BRANCH   2  24
ATOM     24  O   UNL     1      16.130  19.993  41.277  1.00  0.00    -0.502 OA
ATOM     25  H   UNL     1      15.305  20.335  41.755  1.00  0.00     0.293 HD
ENDBRANCH   2  24
BRANCH   6  26
ATOM     26  O   UNL     1      21.141  19.332  39.597  1.00  0.00    -0.507 OA
ATOM     27  H   UNL     1      21.253  18.828  38.731  1.00  0.00     0.293 HD
ENDBRANCH   6  26
BRANCH   8  28
ATOM     28  O   UNL     1      22.468  23.919  39.082  1.00  0.00    -0.508 OA
ATOM     29  H   UNL     1      22.678  24.725  39.658  1.00  0.00     0.293 HD
ENDBRANCH   8  28
TORSDOF 7
ENDMDL
MODEL 6
REMARK VINA RESULT:    -5.401      1.549      7.528
REMARK INTER + INTRA:          -6.966
REMARK INTER:                  -6.897
REMARK INTRA:                  -0.069
REMARK UNBOUND:                -0.302
REMARK SMILES O=c1c(O)c(-c2cc(O)c(O)c(O)c2)oc2cc(O)cc(O)c12
REMARK SMILES IDX 5 1 3 2 2 3 1 4 23 5 21 6 20 7 18 8 17 9 16 10 15 11 6 12
REMARK SMILES IDX 7 13 8 14 14 15 10 16 12 17 9 18 11 20 13 22 4 24 22 26
REMARK SMILES IDX 19 28
REMARK H PARENT 9 19 11 21 13 23 4 25 22 27 19 29
REMARK Flexibility Score: inf
ROOT
ATOM      1  C   UNL     1      17.169  22.195  41.222  1.00  0.00     0.180 A 
ATOM      2  C   UNL     1      17.249  20.808  41.003  1.00  0.00     0.208 A 
ATOM      3  C   UNL     1      18.429  20.270  40.464  1.00  0.00     0.238 A 
ATOM      4  O   UNL     1      18.475  19.036  40.221  1.00  0.00    -0.285 OA
ATOM      5  C   UNL     1      19.520  21.122  40.167  1.00  0.00     0.111 A 
ATOM      6  C   UNL     1      20.777  20.681  39.657  1.00  0.00     0.134 A 
ATOM      7  C   UNL     1      21.738  21.625  39.275  1.00  0.00     0.093 A 
ATOM      8  C   UNL     1      21.512  22.994  39.449  1.00  0.00     0.123 A 
ATOM      9  C   UNL     1      20.311  23.431  40.001  1.00  0.00     0.094 A 
ATOM     10  C   UNL     1      19.318  22.514  40.358  1.00  0.00     0.146 A 
ATOM     11  O   UNL     1      18.184  22.975  40.871  1.00  0.00    -0.452 OA
ENDROOT
BRANCH   1  12
ATOM     12  C   UNL     1      15.968  22.831  41.809  1.00  0.00     0.029 A 
ATOM     13  C   UNL     1      15.466  22.362  43.032  1.00  0.00     0.062 A 
ATOM     14  C   UNL     1      14.321  22.930  43.600  1.00  0.00     0.162 A 
ATOM     15  C   UNL     1      15.283  23.859  41.138  1.00  0.00     0.062 A 
ATOM     16  C   UNL     1      13.652  23.972  42.936  1.00  0.00     0.200 A 
ATOM     17  C   UNL     1      14.134  24.433  41.698  1.00  0.00     0.162 A 
BRANCH  14  18
ATOM     18  O   UNL     1      13.863  22.445  44.825  1.00  0.00    -0.504 OA
ATOM     19  H   UNL     1      14.459  22.392  45.641  1.00  0.00     0.293 HD
ENDBRANCH  14  18
BRANCH  16  20
ATOM     20  O   UNL     1      12.511  24.535  43.510  1.00  0.00    -0.502 OA
ATOM     21  H   UNL     1      11.844  25.071  42.969  1.00  0.00     0.293 HD
ENDBRANCH  16  20
BRANCH  17  22
ATOM     22  O   UNL     1      13.466  25.456  41.028  1.00  0.00    -0.504 OA
ATOM     23  H   UNL     1      12.650  25.273  40.456  1.00  0.00     0.293 HD
ENDBRANCH  17  22
ENDBRANCH   1  12
BRANCH   2  24
ATOM     24  O   UNL     1      16.152  19.988  41.284  1.00  0.00    -0.502 OA
ATOM     25  H   UNL     1      16.250  19.077  41.714  1.00  0.00     0.293 HD
ENDBRANCH   2  24
BRANCH   6  26
ATOM     26  O   UNL     1      21.139  19.337  39.530  1.00  0.00    -0.507 OA
ATOM     27  H   UNL     1      21.746  18.970  38.812  1.00  0.00     0.293 HD
ENDBRANCH   6  26
BRANCH   8  28
ATOM     28  O   UNL     1      22.479  23.926  39.081  1.00  0.00    -0.508 OA
ATOM     29  H   UNL     1      23.146  24.290  39.751  1.00  0.00     0.293 HD
ENDBRANCH   8  28
TORSDOF 7
ENDMDL
MODEL 7
REMARK VINA RESULT:    -5.179      1.634      6.960
REMARK INTER + INTRA:          -6.692
REMARK INTER:                  -7.183
REMARK INTRA:                   0.491
REMARK UNBOUND:                -0.302
REMARK SMILES O=c1c(O)c(-c2cc(O)c(O)c(O)c2)oc2cc(O)cc(O)c12
REMARK SMILES IDX 5 1 3 2 2 3 1 4 23 5 21 6 20 7 18 8 17 9 16 10 15 11 6 12
REMARK SMILES IDX 7 13 8 14 14 15 10 16 12 17 9 18 11 20 13 22 4 24 22 26
REMARK SMILES IDX 19 28
REMARK H PARENT 9 19 11 21 13 23 4 25 22 27 19 29
REMARK Flexibility Score: inf
ROOT
ATOM      1  C   UNL     1      16.598  23.207  40.933  1.00  0.00     0.180 A 
ATOM      2  C   UNL     1      17.101  24.071  39.945  1.00  0.00     0.208 A 
ATOM      3  C   UNL     1      18.234  23.681  39.212  1.00  0.00     0.238 A 
ATOM      4  O   UNL     1      18.712  24.482  38.367  1.00  0.00    -0.285 OA
ATOM      5  C   UNL     1      18.838  22.426  39.464  1.00  0.00     0.111 A 
ATOM      6  C   UNL     1      19.964  21.912  38.754  1.00  0.00     0.134 A 
ATOM      7  C   UNL     1      20.559  20.717  39.176  1.00  0.00     0.093 A 
ATOM      8  C   UNL     1      20.028  19.984  40.241  1.00  0.00     0.123 A 
ATOM      9  C   UNL     1      18.895  20.448  40.902  1.00  0.00     0.094 A 
ATOM     10  C   UNL     1      18.299  21.656  40.528  1.00  0.00     0.146 A 
ATOM     11  O   UNL     1      17.226  22.067  41.191  1.00  0.00    -0.452 OA
ENDROOT
BRANCH   1  12
ATOM     12  C   UNL     1      15.394  23.539  41.729  1.00  0.00     0.029 A 
ATOM     13  C   UNL     1      14.626  24.662  41.385  1.00  0.00     0.062 A 
ATOM     14  C   UNL     1      13.496  25.010  42.131  1.00  0.00     0.162 A 
ATOM     15  C   UNL     1      15.035  22.786  42.861  1.00  0.00     0.062 A 
ATOM     16  C   UNL     1      13.129  24.242  43.250  1.00  0.00     0.200 A 
ATOM     17  C   UNL     1      13.905  23.129  43.616  1.00  0.00     0.162 A 
BRANCH  14  18
ATOM     18  O   UNL     1      12.750  26.124  41.748  1.00  0.00    -0.504 OA
ATOM     19  H   UNL     1      11.835  26.320  42.134  1.00  0.00     0.293 HD
ENDBRANCH  14  18
BRANCH  16  20
ATOM     20  O   UNL     1      11.998  24.595  43.988  1.00  0.00    -0.502 OA
ATOM     21  H   UNL     1      11.886  24.334  44.960  1.00  0.00     0.293 HD
ENDBRANCH  16  20
BRANCH  17  22
ATOM     22  O   UNL     1      13.555  22.371  44.732  1.00  0.00    -0.504 OA
ATOM     23  H   UNL     1      14.219  21.755  45.185  1.00  0.00     0.293 HD
ENDBRANCH  17  22
ENDBRANCH   1  12
BRANCH   2  24
ATOM     24  O   UNL     1      16.502  25.316  39.727  1.00  0.00    -0.502 OA
ATOM     25  H   UNL     1      16.131  25.590  38.826  1.00  0.00     0.293 HD
ENDBRANCH   2  24
BRANCH   6  26
ATOM     26  O   UNL     1      20.515  22.517  37.622  1.00  0.00    -0.507 OA
ATOM     27  H   UNL     1      21.428  22.309  37.245  1.00  0.00     0.293 HD
ENDBRANCH   6  26
BRANCH   8  28
ATOM     28  O   UNL     1      20.617  18.788  40.645  1.00  0.00    -0.508 OA
ATOM     29  H   UNL     1      20.087  18.071  41.125  1.00  0.00     0.293 HD
ENDBRANCH   8  28
TORSDOF 7
ENDMDL
MODEL 8
REMARK VINA RESULT:    -4.753      2.446      7.910
REMARK INTER + INTRA:          -6.166
REMARK INTER:                  -6.544
REMARK INTRA:                   0.378
REMARK UNBOUND:                -0.302
REMARK SMILES O=c1c(O)c(-c2cc(O)c(O)c(O)c2)oc2cc(O)cc(O)c12
REMARK SMILES IDX 5 1 3 2 2 3 1 4 23 5 21 6 20 7 18 8 17 9 16 10 15 11 6 12
REMARK SMILES IDX 7 13 8 14 14 15 10 16 12 17 9 18 11 20 13 22 4 24 22 26
REMARK SMILES IDX 19 28
REMARK H PARENT 9 19 11 21 13 23 4 25 22 27 19 29
REMARK Flexibility Score: inf
ROOT
ATOM      1  C   UNL     1      18.123  22.169  40.204  1.00  0.00     0.180 A 
ATOM      2  C   UNL     1      18.148  20.970  40.938  1.00  0.00     0.208 A 
ATOM      3  C   UNL     1      19.252  20.112  40.808  1.00  0.00     0.238 A 
ATOM      4  O   UNL     1      19.243  19.016  41.426  1.00  0.00    -0.285 OA
ATOM      5  C   UNL     1      20.326  20.472  39.958  1.00  0.00     0.111 A 
ATOM      6  C   UNL     1      21.512  19.700  39.781  1.00  0.00     0.134 A 
ATOM      7  C   UNL     1      22.451  20.087  38.816  1.00  0.00     0.093 A 
ATOM      8  C   UNL     1      22.276  21.254  38.069  1.00  0.00     0.123 A 
ATOM      9  C   UNL     1      21.150  22.046  38.276  1.00  0.00     0.094 A 
ATOM     10  C   UNL     1      20.178  21.667  39.207  1.00  0.00     0.146 A 
ATOM     11  O   UNL     1      19.115  22.445  39.366  1.00  0.00    -0.452 OA
ENDROOT
BRANCH   1  12
ATOM     12  C   UNL     1      17.005  23.133  40.308  1.00  0.00     0.029 A 
ATOM     13  C   UNL     1      16.903  24.176  39.374  1.00  0.00     0.062 A 
ATOM     14  C   UNL     1      15.870  25.113  39.460  1.00  0.00     0.162 A 
ATOM     15  C   UNL     1      16.075  23.064  41.359  1.00  0.00     0.062 A 
ATOM     16  C   UNL     1      14.928  25.027  40.501  1.00  0.00     0.200 A 
ATOM     17  C   UNL     1      15.036  24.001  41.455  1.00  0.00     0.162 A 
BRANCH  14  18
ATOM     18  O   UNL     1      15.794  26.125  38.503  1.00  0.00    -0.504 OA
ATOM     19  H   UNL     1      16.618  26.513  38.061  1.00  0.00     0.293 HD
ENDBRANCH  14  18
BRANCH  16  20
ATOM     20  O   UNL     1      13.898  25.966  40.578  1.00  0.00    -0.502 OA
ATOM     21  H   UNL     1      13.986  26.896  40.186  1.00  0.00     0.293 HD
ENDBRANCH  16  20
BRANCH  17  22
ATOM     22  O   UNL     1      14.115  23.918  42.497  1.00  0.00    -0.504 OA
ATOM     23  H   UNL     1      13.154  23.640  42.336  1.00  0.00     0.293 HD
ENDBRANCH  17  22
ENDBRANCH   1  12
BRANCH   2  24
ATOM     24  O   UNL     1      17.066  20.624  41.755  1.00  0.00    -0.502 OA
ATOM     25  H   UNL     1      16.388  19.921  41.489  1.00  0.00     0.293 HD
ENDBRANCH   2  24
BRANCH   6  26
ATOM     26  O   UNL     1      21.828  18.569  40.539  1.00  0.00    -0.507 OA
ATOM     27  H   UNL     1      22.074  17.669  40.155  1.00  0.00     0.293 HD
ENDBRANCH   6  26
BRANCH   8  28
ATOM     28  O   UNL     1      23.222  21.640  37.122  1.00  0.00    -0.508 OA
ATOM     29  H   UNL     1      23.910  20.988  36.764  1.00  0.00     0.293 HD
ENDBRANCH   8  28
TORSDOF 7
ENDMDL
