MODEL 1
REMARK VINA RESULT:    -2.511      0.000      0.000
REMARK INTER + INTRA:          -2.511
REMARK INTER:                  -2.511
REMARK INTRA:                   0.000
REMARK UNBOUND:                 0.000
REMARK SMILES O=C1CCCCC1
REMARK SMILES IDX 5 1 4 2 3 3 2 4 1 5 7 6 6 7
REMARK H PARENT
REMARK Flexibility Score: inf
ROOT
ATOM      1  C   UNL     1     134.753 140.845 141.602  1.00  0.00     0.001 C 
ATOM      2  C   UNL     1     133.362 140.274 141.286  1.00  0.00     0.008 C 
ATOM      3  C   UNL     1     132.534 141.252 140.442  1.00  0.00     0.075 C 
ATOM      4  C   UNL     1     132.541 142.619 141.067  1.00  0.00     0.132 C 
ATOM      5  O   UNL     1     131.511 143.273 141.133  1.00  0.00    -0.300 OA
ATOM      6  C   UNL     1     133.846 143.212 141.525  1.00  0.00     0.075 C 
ATOM      7  C   UNL     1     134.640 142.186 142.343  1.00  0.00     0.008 C 
ENDROOT
TORSDOF 0
ENDMDL
MODEL 2
REMARK VINA RESULT:    -2.454      9.969     10.911
REMARK INTER + INTRA:          -2.454
REMARK INTER:                  -2.454
REMARK INTRA:                   0.000
REMARK UNBOUND:                 0.000
REMARK SMILES O=C1CCCCC1
REMARK SMILES IDX 5 1 4 2 3 3 2 4 1 5 7 6 6 7
REMARK H PARENT
REMARK Flexibility Score: inf
ROOT
ATOM      1  C   UNL     1     140.920 146.744 141.714  1.00  0.00     0.001 C 
ATOM      2  C   UNL     1     140.312 148.121 141.403  1.00  0.00     0.008 C 
ATOM      3  C   UNL     1     141.241 148.954 140.512  1.00  0.00     0.075 C 
ATOM      4  C   UNL     1     142.631 148.981 141.085  1.00  0.00     0.132 C 
ATOM      5  O   UNL     1     143.267 150.024 141.113  1.00  0.00    -0.300 OA
ATOM      6  C   UNL     1     143.265 147.694 141.536  1.00  0.00     0.075 C 
ATOM      7  C   UNL     1     142.286 146.892 142.402  1.00  0.00     0.008 C 
ENDROOT
TORSDOF 0
ENDMDL
MODEL 3
REMARK VINA RESULT:    -2.448      9.894     10.846
REMARK INTER + INTRA:          -2.448
REMARK INTER:                  -2.448
REMARK INTRA:                   0.000
REMARK UNBOUND:                 0.000
REMARK SMILES O=C1CCCCC1
REMARK SMILES IDX 5 1 4 2 3 3 2 4 1 5 7 6 6 7
REMARK H PARENT
REMARK Flexibility Score: inf
ROOT
ATOM      1  C   UNL     1     140.781 134.794 141.641  1.00  0.00     0.001 C 
ATOM      2  C   UNL     1     141.305 133.390 141.304  1.00  0.00     0.008 C 
ATOM      3  C   UNL     1     140.313 132.618 140.425  1.00  0.00     0.075 C 
ATOM      4  C   UNL     1     138.936 132.661 141.028  1.00  0.00     0.132 C 
ATOM      5  O   UNL     1     138.245 131.655 141.059  1.00  0.00    -0.300 OA
ATOM      6  C   UNL     1     138.384 133.977 141.505  1.00  0.00     0.075 C 
ATOM      7  C   UNL     1     139.424 134.714 142.357  1.00  0.00     0.008 C 
ENDROOT
TORSDOF 0
ENDMDL
MODEL 4
REMARK VINA RESULT:    -2.444     14.292     15.420
REMARK INTER + INTRA:          -2.444
REMARK INTER:                  -2.444
REMARK INTRA:                   0.000
REMARK UNBOUND:                 0.000
REMARK SMILES O=C1CCCCC1
REMARK SMILES IDX 5 1 4 2 3 3 2 4 1 5 7 6 6 7
REMARK H PARENT
REMARK Flexibility Score: inf
ROOT
ATOM      1  C   UNL     1     146.786 140.689 141.705  1.00  0.00     0.001 C 
ATOM      2  C   UNL     1     148.162 141.292 141.385  1.00  0.00     0.008 C 
ATOM      3  C   UNL     1     148.983 140.365 140.480  1.00  0.00     0.075 C 
ATOM      4  C   UNL     1     149.009 138.971 141.044  1.00  0.00     0.132 C 
ATOM      5  O   UNL     1     150.049 138.331 141.058  1.00  0.00    -0.300 OA
ATOM      6  C   UNL     1     147.723 138.341 141.503  1.00  0.00     0.075 C 
ATOM      7  C   UNL     1     146.934 139.318 142.383  1.00  0.00     0.008 C 
ENDROOT
TORSDOF 0
ENDMDL
MODEL 5
REMARK VINA RESULT:    -2.439      1.647      2.910
REMARK INTER + INTRA:          -2.439
REMARK INTER:                  -2.439
REMARK INTRA:                   0.000
REMARK UNBOUND:                 0.000
REMARK SMILES O=C1CCCCC1
REMARK SMILES IDX 5 1 4 2 3 3 2 4 1 5 7 6 6 7
REMARK H PARENT
REMARK Flexibility Score: inf
ROOT
ATOM      1  C   UNL     1     132.478 141.445 140.207  1.00  0.00     0.001 C 
ATOM      2  C   UNL     1     132.424 142.756 141.006  1.00  0.00     0.008 C 
ATOM      3  C   UNL     1     133.825 143.206 141.439  1.00  0.00     0.075 C 
ATOM      4  C   UNL     1     134.553 142.074 142.111  1.00  0.00     0.132 C 
ATOM      5  O   UNL     1     135.199 142.274 143.128  1.00  0.00    -0.300 OA
ATOM      6  C   UNL     1     134.556 140.715 141.465  1.00  0.00     0.075 C 
ATOM      7  C   UNL     1     133.136 140.328 141.032  1.00  0.00     0.008 C 
ENDROOT
TORSDOF 0
ENDMDL
MODEL 6
REMARK VINA RESULT:    -2.407     13.949     14.906
REMARK INTER + INTRA:          -2.407
REMARK INTER:                  -2.407
REMARK INTRA:                   0.000
REMARK UNBOUND:                 0.000
REMARK SMILES O=C1CCCCC1
REMARK SMILES IDX 5 1 4 2 3 3 2 4 1 5 7 6 6 7
REMARK H PARENT
REMARK Flexibility Score: inf
ROOT
ATOM      1  C   UNL     1     149.291 140.140 140.307  1.00  0.00     0.001 C 
ATOM      2  C   UNL     1     149.248 138.809 141.073  1.00  0.00     0.008 C 
ATOM      3  C   UNL     1     147.809 138.415 141.430  1.00  0.00     0.075 C 
ATOM      4  C   UNL     1     147.103 139.563 142.098  1.00  0.00     0.132 C 
ATOM      5  O   UNL     1     146.402 139.369 143.079  1.00  0.00    -0.300 OA
ATOM      6  C   UNL     1     147.192 140.935 141.488  1.00  0.00     0.075 C 
ATOM      7  C   UNL     1     148.646 141.267 141.129  1.00  0.00     0.008 C 
ENDROOT
TORSDOF 0
ENDMDL
MODEL 7
REMARK VINA RESULT:    -2.405      9.725     10.851
REMARK INTER + INTRA:          -2.405
REMARK INTER:                  -2.405
REMARK INTRA:                   0.000
REMARK UNBOUND:                 0.000
REMARK SMILES O=C1CCCCC1
REMARK SMILES IDX 5 1 4 2 3 3 2 4 1 5 7 6 6 7
REMARK H PARENT
REMARK Flexibility Score: inf
ROOT
ATOM      1  C   UNL     1     141.459 149.189 140.252  1.00  0.00     0.001 C 
ATOM      2  C   UNL     1     142.817 149.181 140.971  1.00  0.00     0.008 C 
ATOM      3  C   UNL     1     143.240 147.757 141.354  1.00  0.00     0.075 C 
ATOM      4  C   UNL     1     142.124 147.059 142.082  1.00  0.00     0.132 C 
ATOM      5  O   UNL     1     142.361 146.388 143.076  1.00  0.00    -0.300 OA
ATOM      6  C   UNL     1     140.730 147.117 141.520  1.00  0.00     0.075 C 
ATOM      7  C   UNL     1     140.370 148.556 141.133  1.00  0.00     0.008 C 
ENDROOT
TORSDOF 0
ENDMDL
MODEL 8
REMARK VINA RESULT:    -2.384      0.946      2.156
REMARK INTER + INTRA:          -2.384
REMARK INTER:                  -2.384
REMARK INTRA:                   0.000
REMARK UNBOUND:                 0.000
REMARK SMILES O=C1CCCCC1
REMARK SMILES IDX 5 1 4 2 3 3 2 4 1 5 7 6 6 7
REMARK H PARENT
REMARK Flexibility Score: inf
ROOT
ATOM      1  C   UNL     1     134.593 141.931 142.219  1.00  0.00     0.001 C 
ATOM      2  C   UNL     1     134.063 143.170 141.481  1.00  0.00     0.008 C 
ATOM      3  C   UNL     1     132.566 143.040 141.173  1.00  0.00     0.075 C 
ATOM      4  C   UNL     1     132.282 141.724 140.504  1.00  0.00     0.132 C 
ATOM      5  O   UNL     1     131.524 141.669 139.547  1.00  0.00    -0.300 OA
ATOM      6  C   UNL     1     132.864 140.464 141.084  1.00  0.00     0.075 C 
ATOM      7  C   UNL     1     134.353 140.657 141.393  1.00  0.00     0.008 C 
ENDROOT
TORSDOF 0
ENDMDL
MODEL 9
REMARK VINA RESULT:    -2.376      9.566     10.493
REMARK INTER + INTRA:          -2.376
REMARK INTER:                  -2.376
REMARK INTRA:                   0.000
REMARK UNBOUND:                 0.000
REMARK SMILES O=C1CCCCC1
REMARK SMILES IDX 5 1 4 2 3 3 2 4 1 5 7 6 6 7
REMARK H PARENT
REMARK Flexibility Score: inf
ROOT
ATOM      1  C   UNL     1     140.127 132.477 140.333  1.00  0.00     0.001 C 
ATOM      2  C   UNL     1     138.789 132.457 141.089  1.00  0.00     0.008 C 
ATOM      3  C   UNL     1     138.340 133.874 141.469  1.00  0.00     0.075 C 
ATOM      4  C   UNL     1     139.457 134.610 142.158  1.00  0.00     0.132 C 
ATOM      5  O   UNL     1     139.230 135.285 143.150  1.00  0.00    -0.300 OA
ATOM      6  C   UNL     1     140.836 134.581 141.557  1.00  0.00     0.075 C 
ATOM      7  C   UNL     1     141.223 133.147 141.176  1.00  0.00     0.008 C 
ENDROOT
TORSDOF 0
ENDMDL
