MODEL 1
REMARK VINA RESULT:    -6.583      0.000      0.000
REMARK INTER + INTRA:          -7.764
REMARK INTER:                  -7.737
REMARK INTRA:                  -0.027
REMARK UNBOUND:                -0.027
REMARK SMILES O=c1c(O)c(-c2ccc(O)cc2)oc2cc(O)cc(O)c12
REMARK SMILES IDX 5 1 3 2 2 3 1 4 21 5 19 6 18 7 16 8 15 9 14 10 13 11 6 12
REMARK SMILES IDX 7 13 8 14 9 15 12 16 11 17 10 18 4 20 20 22 17 24
REMARK H PARENT 10 19 4 21 20 23 17 25
REMARK Flexibility Score: inf
ROOT
ATOM      1  C   UNL     1      -9.974   3.025  23.193  1.00  0.00     0.180 A 
ATOM      2  C   UNL     1     -10.447   1.957  22.411  1.00  0.00     0.208 A 
ATOM      3  C   UNL     1     -11.787   1.960  21.995  1.00  0.00     0.238 A 
ATOM      4  O   UNL     1     -12.223   0.965  21.359  1.00  0.00    -0.285 OA
ATOM      5  C   UNL     1     -12.625   3.055  22.317  1.00  0.00     0.111 A 
ATOM      6  C   UNL     1     -13.987   3.185  21.909  1.00  0.00     0.134 A 
ATOM      7  C   UNL     1     -14.749   4.263  22.377  1.00  0.00     0.093 A 
ATOM      8  C   UNL     1     -14.180   5.250  23.185  1.00  0.00     0.123 A 
ATOM      9  C   UNL     1     -12.837   5.162  23.542  1.00  0.00     0.094 A 
ATOM     10  C   UNL     1     -12.061   4.078  23.124  1.00  0.00     0.146 A 
ATOM     11  O   UNL     1     -10.791   4.023  23.507  1.00  0.00    -0.452 OA
ENDROOT
BRANCH   1  12
ATOM     12  C   UNL     1      -8.578   3.088  23.681  1.00  0.00     0.021 A 
ATOM     13  C   UNL     1      -8.005   2.023  24.402  1.00  0.00     0.016 A 
ATOM     14  C   UNL     1      -6.692   2.116  24.875  1.00  0.00     0.047 A 
ATOM     15  C   UNL     1      -5.941   3.273  24.648  1.00  0.00     0.115 A 
ATOM     16  C   UNL     1      -7.825   4.256  23.476  1.00  0.00     0.016 A 
ATOM     17  C   UNL     1      -6.512   4.345  23.949  1.00  0.00     0.047 A 
BRANCH  15  18
ATOM     18  O   UNL     1      -4.635   3.351  25.124  1.00  0.00    -0.508 OA
ATOM     19  H   UNL     1      -3.879   2.840  24.682  1.00  0.00     0.293 HD
ENDBRANCH  15  18
ENDBRANCH   1  12
BRANCH   2  20
ATOM     20  O   UNL     1      -9.584   0.923  22.039  1.00  0.00    -0.502 OA
ATOM     21  H   UNL     1      -8.576   1.029  22.039  1.00  0.00     0.293 HD
ENDBRANCH   2  20
BRANCH   6  22
ATOM     22  O   UNL     1     -14.629   2.304  21.033  1.00  0.00    -0.507 OA
ATOM     23  H   UNL     1     -14.849   1.342  21.239  1.00  0.00     0.293 HD
ENDBRANCH   6  22
BRANCH   8  24
ATOM     24  O   UNL     1     -14.941   6.329  23.631  1.00  0.00    -0.508 OA
ATOM     25  H   UNL     1     -15.935   6.240  23.806  1.00  0.00     0.293 HD
ENDBRANCH   8  24
TORSDOF 5
ENDMDL
MODEL 2
REMARK VINA RESULT:    -6.360      2.545      6.553
REMARK INTER + INTRA:          -7.502
REMARK INTER:                  -7.205
REMARK INTRA:                  -0.297
REMARK UNBOUND:                -0.027
REMARK SMILES O=c1c(O)c(-c2ccc(O)cc2)oc2cc(O)cc(O)c12
REMARK SMILES IDX 5 1 3 2 2 3 1 4 21 5 19 6 18 7 16 8 15 9 14 10 13 11 6 12
REMARK SMILES IDX 7 13 8 14 9 15 12 16 11 17 10 18 4 20 20 22 17 24
REMARK H PARENT 10 19 4 21 20 23 17 25
REMARK Flexibility Score: inf
ROOT
ATOM      1  C   UNL     1     -13.303   2.673  22.611  1.00  0.00     0.180 A 
ATOM      2  C   UNL     1     -12.107   2.183  22.058  1.00  0.00     0.208 A 
ATOM      3  C   UNL     1     -10.926   2.922  22.230  1.00  0.00     0.238 A 
ATOM      4  O   UNL     1      -9.875   2.515  21.669  1.00  0.00    -0.285 OA
ATOM      5  C   UNL     1     -10.942   4.111  22.998  1.00  0.00     0.111 A 
ATOM      6  C   UNL     1      -9.795   4.915  23.275  1.00  0.00     0.134 A 
ATOM      7  C   UNL     1      -9.950   6.128  23.958  1.00  0.00     0.093 A 
ATOM      8  C   UNL     1     -11.200   6.534  24.431  1.00  0.00     0.123 A 
ATOM      9  C   UNL     1     -12.316   5.729  24.214  1.00  0.00     0.094 A 
ATOM     10  C   UNL     1     -12.200   4.533  23.502  1.00  0.00     0.146 A 
ATOM     11  O   UNL     1     -13.294   3.808  23.299  1.00  0.00    -0.452 OA
ENDROOT
BRANCH   1  12
ATOM     12  C   UNL     1     -14.592   1.959  22.462  1.00  0.00     0.021 A 
ATOM     13  C   UNL     1     -15.417   2.163  21.340  1.00  0.00     0.016 A 
ATOM     14  C   UNL     1     -16.641   1.496  21.233  1.00  0.00     0.047 A 
ATOM     15  C   UNL     1     -17.063   0.631  22.248  1.00  0.00     0.115 A 
ATOM     16  C   UNL     1     -15.032   1.105  23.487  1.00  0.00     0.016 A 
ATOM     17  C   UNL     1     -16.257   0.439  23.377  1.00  0.00     0.047 A 
BRANCH  15  18
ATOM     18  O   UNL     1     -18.285  -0.027  22.127  1.00  0.00    -0.508 OA
ATOM     19  H   UNL     1     -18.801  -0.338  22.942  1.00  0.00     0.293 HD
ENDBRANCH  15  18
ENDBRANCH   1  12
BRANCH   2  20
ATOM     20  O   UNL     1     -12.098   0.968  21.369  1.00  0.00    -0.502 OA
ATOM     21  H   UNL     1     -11.580   0.836  20.507  1.00  0.00     0.293 HD
ENDBRANCH   2  20
BRANCH   6  22
ATOM     22  O   UNL     1      -8.487   4.561  22.926  1.00  0.00    -0.507 OA
ATOM     23  H   UNL     1      -7.654   5.000  23.286  1.00  0.00     0.293 HD
ENDBRANCH   6  22
BRANCH   8  24
ATOM     24  O   UNL     1     -11.342   7.734  25.125  1.00  0.00    -0.508 OA
ATOM     25  H   UNL     1     -11.550   7.751  26.116  1.00  0.00     0.293 HD
ENDBRANCH   8  24
TORSDOF 5
ENDMDL
MODEL 3
REMARK VINA RESULT:    -6.245      1.360      3.236
REMARK INTER + INTRA:          -7.367
REMARK INTER:                  -7.304
REMARK INTRA:                  -0.063
REMARK UNBOUND:                -0.027
REMARK SMILES O=c1c(O)c(-c2ccc(O)cc2)oc2cc(O)cc(O)c12
REMARK SMILES IDX 5 1 3 2 2 3 1 4 21 5 19 6 18 7 16 8 15 9 14 10 13 11 6 12
REMARK SMILES IDX 7 13 8 14 9 15 12 16 11 17 10 18 4 20 20 22 17 24
REMARK H PARENT 10 19 4 21 20 23 17 25
REMARK Flexibility Score: inf
ROOT
ATOM      1  C   UNL     1      -9.628   4.186  23.906  1.00  0.00     0.180 A 
ATOM      2  C   UNL     1     -10.074   5.422  24.403  1.00  0.00     0.208 A 
ATOM      3  C   UNL     1     -11.407   5.804  24.182  1.00  0.00     0.238 A 
ATOM      4  O   UNL     1     -11.778   6.944  24.564  1.00  0.00    -0.285 OA
ATOM      5  C   UNL     1     -12.293   4.923  23.515  1.00  0.00     0.111 A 
ATOM      6  C   UNL     1     -13.675   5.187  23.276  1.00  0.00     0.134 A 
ATOM      7  C   UNL     1     -14.428   4.287  22.513  1.00  0.00     0.093 A 
ATOM      8  C   UNL     1     -13.866   3.100  22.035  1.00  0.00     0.123 A 
ATOM      9  C   UNL     1     -12.533   2.807  22.311  1.00  0.00     0.094 A 
ATOM     10  C   UNL     1     -11.745   3.704  23.036  1.00  0.00     0.146 A 
ATOM     11  O   UNL     1     -10.473   3.394  23.256  1.00  0.00    -0.452 OA
ENDROOT
BRANCH   1  12
ATOM     12  C   UNL     1      -8.235   3.719  24.087  1.00  0.00     0.021 A 
ATOM     13  C   UNL     1      -7.141   4.487  23.646  1.00  0.00     0.016 A 
ATOM     14  C   UNL     1      -5.835   4.014  23.806  1.00  0.00     0.047 A 
ATOM     15  C   UNL     1      -5.605   2.766  24.392  1.00  0.00     0.115 A 
ATOM     16  C   UNL     1      -7.997   2.456  24.655  1.00  0.00     0.016 A 
ATOM     17  C   UNL     1      -6.689   1.986  24.814  1.00  0.00     0.047 A 
BRANCH  15  18
ATOM     18  O   UNL     1      -4.299   2.308  24.546  1.00  0.00    -0.508 OA
ATOM     19  H   UNL     1      -4.006   1.812  25.379  1.00  0.00     0.293 HD
ENDBRANCH  15  18
ENDBRANCH   1  12
BRANCH   2  20
ATOM     20  O   UNL     1      -9.205   6.244  25.125  1.00  0.00    -0.502 OA
ATOM     21  H   UNL     1      -9.442   6.619  26.036  1.00  0.00     0.293 HD
ENDBRANCH   2  20
BRANCH   6  22
ATOM     22  O   UNL     1     -14.359   6.298  23.781  1.00  0.00    -0.507 OA
ATOM     23  H   UNL     1     -14.870   6.964  23.224  1.00  0.00     0.293 HD
ENDBRANCH   6  22
BRANCH   8  24
ATOM     24  O   UNL     1     -14.628   2.202  21.291  1.00  0.00    -0.508 OA
ATOM     25  H   UNL     1     -15.512   1.845  21.635  1.00  0.00     0.293 HD
ENDBRANCH   8  24
TORSDOF 5
ENDMDL
MODEL 4
REMARK VINA RESULT:    -6.177      2.437      6.193
REMARK INTER + INTRA:          -7.287
REMARK INTER:                  -7.100
REMARK INTRA:                  -0.187
REMARK UNBOUND:                -0.027
REMARK SMILES O=c1c(O)c(-c2ccc(O)cc2)oc2cc(O)cc(O)c12
REMARK SMILES IDX 5 1 3 2 2 3 1 4 21 5 19 6 18 7 16 8 15 9 14 10 13 11 6 12
REMARK SMILES IDX 7 13 8 14 9 15 12 16 11 17 10 18 4 20 20 22 17 24
REMARK H PARENT 10 19 4 21 20 23 17 25
REMARK Flexibility Score: inf
ROOT
ATOM      1  C   UNL     1     -12.368   2.956  23.261  1.00  0.00     0.180 A 
ATOM      2  C   UNL     1     -11.086   2.383  23.206  1.00  0.00     0.208 A 
ATOM      3  C   UNL     1      -9.976   3.166  23.562  1.00  0.00     0.238 A 
ATOM      4  O   UNL     1      -8.825   2.671  23.439  1.00  0.00    -0.285 OA
ATOM      5  C   UNL     1     -10.164   4.493  24.020  1.00  0.00     0.111 A 
ATOM      6  C   UNL     1      -9.116   5.361  24.449  1.00  0.00     0.134 A 
ATOM      7  C   UNL     1      -9.411   6.689  24.782  1.00  0.00     0.093 A 
ATOM      8  C   UNL     1     -10.726   7.162  24.763  1.00  0.00     0.123 A 
ATOM      9  C   UNL     1     -11.762   6.306  24.400  1.00  0.00     0.094 A 
ATOM     10  C   UNL     1     -11.495   4.986  24.025  1.00  0.00     0.146 A 
ATOM     11  O   UNL     1     -12.512   4.213  23.664  1.00  0.00    -0.452 OA
ENDROOT
BRANCH   1  12
ATOM     12  C   UNL     1     -13.586   2.200  22.889  1.00  0.00     0.021 A 
ATOM     13  C   UNL     1     -14.066   1.145  23.687  1.00  0.00     0.016 A 
ATOM     14  C   UNL     1     -15.204   0.429  23.303  1.00  0.00     0.047 A 
ATOM     15  C   UNL     1     -15.867   0.747  22.113  1.00  0.00     0.115 A 
ATOM     16  C   UNL     1     -14.245   2.499  21.685  1.00  0.00     0.016 A 
ATOM     17  C   UNL     1     -15.383   1.782  21.303  1.00  0.00     0.047 A 
BRANCH  15  18
ATOM     18  O   UNL     1     -17.000   0.026  21.743  1.00  0.00    -0.508 OA
ATOM     19  H   UNL     1     -17.482   0.209  20.871  1.00  0.00     0.293 HD
ENDBRANCH  15  18
ENDBRANCH   1  12
BRANCH   2  20
ATOM     20  O   UNL     1     -10.927   1.049  22.825  1.00  0.00    -0.502 OA
ATOM     21  H   UNL     1     -11.515   0.307  23.186  1.00  0.00     0.293 HD
ENDBRANCH   2  20
BRANCH   6  22
ATOM     22  O   UNL     1      -7.781   4.968  24.589  1.00  0.00    -0.507 OA
ATOM     23  H   UNL     1      -7.227   4.535  23.867  1.00  0.00     0.293 HD
ENDBRANCH   6  22
BRANCH   8  24
ATOM     24  O   UNL     1     -11.012   8.479  25.113  1.00  0.00    -0.508 OA
ATOM     25  H   UNL     1     -10.402   9.011  25.722  1.00  0.00     0.293 HD
ENDBRANCH   8  24
TORSDOF 5
ENDMDL
MODEL 5
REMARK VINA RESULT:    -6.172      2.117      7.065
REMARK INTER + INTRA:          -7.281
REMARK INTER:                  -7.068
REMARK INTRA:                  -0.213
REMARK UNBOUND:                -0.027
REMARK SMILES O=c1c(O)c(-c2ccc(O)cc2)oc2cc(O)cc(O)c12
REMARK SMILES IDX 5 1 3 2 2 3 1 4 21 5 19 6 18 7 16 8 15 9 14 10 13 11 6 12
REMARK SMILES IDX 7 13 8 14 9 15 12 16 11 17 10 18 4 20 20 22 17 24
REMARK H PARENT 10 19 4 21 20 23 17 25
REMARK Flexibility Score: inf
ROOT
ATOM      1  C   UNL     1     -13.141   3.515  23.078  1.00  0.00     0.180 A 
ATOM      2  C   UNL     1     -13.394   4.843  23.461  1.00  0.00     0.208 A 
ATOM      3  C   UNL     1     -12.322   5.645  23.884  1.00  0.00     0.238 A 
ATOM      4  O   UNL     1     -12.566   6.809  24.296  1.00  0.00    -0.285 OA
ATOM      5  C   UNL     1     -11.003   5.128  23.868  1.00  0.00     0.111 A 
ATOM      6  C   UNL     1      -9.837   5.865  24.233  1.00  0.00     0.134 A 
ATOM      7  C   UNL     1      -8.596   5.217  24.279  1.00  0.00     0.093 A 
ATOM      8  C   UNL     1      -8.470   3.875  23.911  1.00  0.00     0.123 A 
ATOM      9  C   UNL     1      -9.594   3.163  23.500  1.00  0.00     0.094 A 
ATOM     10  C   UNL     1     -10.852   3.771  23.481  1.00  0.00     0.146 A 
ATOM     11  O   UNL     1     -11.898   3.047  23.104  1.00  0.00    -0.452 OA
ENDROOT
BRANCH   1  12
ATOM     12  C   UNL     1     -14.220   2.603  22.633  1.00  0.00     0.021 A 
ATOM     13  C   UNL     1     -14.833   2.753  21.376  1.00  0.00     0.016 A 
ATOM     14  C   UNL     1     -15.867   1.895  20.987  1.00  0.00     0.047 A 
ATOM     15  C   UNL     1     -16.310   0.889  21.852  1.00  0.00     0.115 A 
ATOM     16  C   UNL     1     -14.685   1.604  23.505  1.00  0.00     0.016 A 
ATOM     17  C   UNL     1     -15.718   0.747  23.114  1.00  0.00     0.047 A 
BRANCH  15  18
ATOM     18  O   UNL     1     -17.340   0.042  21.452  1.00  0.00    -0.508 OA
ATOM     19  H   UNL     1     -17.221  -0.965  21.433  1.00  0.00     0.293 HD
ENDBRANCH  15  18
ENDBRANCH   1  12
BRANCH   2  20
ATOM     20  O   UNL     1     -14.691   5.358  23.397  1.00  0.00    -0.502 OA
ATOM     21  H   UNL     1     -15.189   5.679  24.219  1.00  0.00     0.293 HD
ENDBRANCH   2  20
BRANCH   6  22
ATOM     22  O   UNL     1      -9.836   7.232  24.533  1.00  0.00    -0.507 OA
ATOM     23  H   UNL     1     -10.231   7.951  23.949  1.00  0.00     0.293 HD
ENDBRANCH   6  22
BRANCH   8  24
ATOM     24  O   UNL     1      -7.229   3.243  23.943  1.00  0.00    -0.508 OA
ATOM     25  H   UNL     1      -6.517   3.508  24.613  1.00  0.00     0.293 HD
ENDBRANCH   8  24
TORSDOF 5
ENDMDL
MODEL 6
REMARK VINA RESULT:    -6.089      2.995      4.792
REMARK INTER + INTRA:          -7.184
REMARK INTER:                  -7.373
REMARK INTRA:                   0.190
REMARK UNBOUND:                -0.027
REMARK SMILES O=c1c(O)c(-c2ccc(O)cc2)oc2cc(O)cc(O)c12
REMARK SMILES IDX 5 1 3 2 2 3 1 4 21 5 19 6 18 7 16 8 15 9 14 10 13 11 6 12
REMARK SMILES IDX 7 13 8 14 9 15 12 16 11 17 10 18 4 20 20 22 17 24
REMARK H PARENT 10 19 4 21 20 23 17 25
REMARK Flexibility Score: inf
ROOT
ATOM      1  C   UNL     1     -12.832   4.251  23.411  1.00  0.00     0.180 A 
ATOM      2  C   UNL     1     -14.110   4.604  22.944  1.00  0.00     0.208 A 
ATOM      3  C   UNL     1     -14.975   3.591  22.501  1.00  0.00     0.238 A 
ATOM      4  O   UNL     1     -16.089   3.921  22.015  1.00  0.00    -0.285 OA
ATOM      5  C   UNL     1     -14.576   2.235  22.580  1.00  0.00     0.111 A 
ATOM      6  C   UNL     1     -15.389   1.124  22.200  1.00  0.00     0.134 A 
ATOM      7  C   UNL     1     -14.848  -0.167  22.223  1.00  0.00     0.093 A 
ATOM      8  C   UNL     1     -13.545  -0.395  22.673  1.00  0.00     0.123 A 
ATOM      9  C   UNL     1     -12.763   0.676  23.098  1.00  0.00     0.094 A 
ATOM     10  C   UNL     1     -13.261   1.980  23.050  1.00  0.00     0.146 A 
ATOM     11  O   UNL     1     -12.472   2.973  23.444  1.00  0.00    -0.452 OA
ENDROOT
BRANCH   1  12
ATOM     12  C   UNL     1     -11.858   5.261  23.883  1.00  0.00     0.021 A 
ATOM     13  C   UNL     1     -12.266   6.375  24.640  1.00  0.00     0.016 A 
ATOM     14  C   UNL     1     -11.331   7.329  25.054  1.00  0.00     0.047 A 
ATOM     15  C   UNL     1      -9.983   7.192  24.706  1.00  0.00     0.115 A 
ATOM     16  C   UNL     1     -10.506   5.141  23.519  1.00  0.00     0.016 A 
ATOM     17  C   UNL     1      -9.573   6.097  23.935  1.00  0.00     0.047 A 
BRANCH  15  18
ATOM     18  O   UNL     1      -9.064   8.150  25.125  1.00  0.00    -0.508 OA
ATOM     19  H   UNL     1      -9.354   9.085  25.384  1.00  0.00     0.293 HD
ENDBRANCH  15  18
ENDBRANCH   1  12
BRANCH   2  20
ATOM     20  O   UNL     1     -14.514   5.941  22.946  1.00  0.00    -0.502 OA
ATOM     21  H   UNL     1     -15.112   6.329  22.226  1.00  0.00     0.293 HD
ENDBRANCH   2  20
BRANCH   6  22
ATOM     22  O   UNL     1     -16.731   1.230  21.820  1.00  0.00    -0.507 OA
ATOM     23  H   UNL     1     -17.432   1.756  22.317  1.00  0.00     0.293 HD
ENDBRANCH   6  22
BRANCH   8  24
ATOM     24  O   UNL     1     -13.022  -1.686  22.709  1.00  0.00    -0.508 OA
ATOM     25  H   UNL     1     -13.454  -2.418  23.260  1.00  0.00     0.293 HD
ENDBRANCH   8  24
TORSDOF 5
ENDMDL
MODEL 7
REMARK VINA RESULT:    -6.077      3.180      4.292
REMARK INTER + INTRA:          -7.170
REMARK INTER:                  -6.919
REMARK INTRA:                  -0.251
REMARK UNBOUND:                -0.027
REMARK SMILES O=c1c(O)c(-c2ccc(O)cc2)oc2cc(O)cc(O)c12
REMARK SMILES IDX 5 1 3 2 2 3 1 4 21 5 19 6 18 7 16 8 15 9 14 10 13 11 6 12
REMARK SMILES IDX 7 13 8 14 9 15 12 16 11 17 10 18 4 20 20 22 17 24
REMARK H PARENT 10 19 4 21 20 23 17 25
REMARK Flexibility Score: inf
ROOT
ATOM      1  C   UNL     1     -13.235   3.800  23.300  1.00  0.00     0.180 A 
ATOM      2  C   UNL     1     -13.256   2.486  23.799  1.00  0.00     0.208 A 
ATOM      3  C   UNL     1     -14.229   1.593  23.324  1.00  0.00     0.238 A 
ATOM      4  O   UNL     1     -14.288   0.442  23.830  1.00  0.00    -0.285 OA
ATOM      5  C   UNL     1     -15.134   2.004  22.316  1.00  0.00     0.111 A 
ATOM      6  C   UNL     1     -16.132   1.169  21.729  1.00  0.00     0.134 A 
ATOM      7  C   UNL     1     -17.041   1.716  20.815  1.00  0.00     0.093 A 
ATOM      8  C   UNL     1     -16.948   3.053  20.419  1.00  0.00     0.123 A 
ATOM      9  C   UNL     1     -15.943   3.861  20.944  1.00  0.00     0.094 A 
ATOM     10  C   UNL     1     -15.045   3.355  21.887  1.00  0.00     0.146 A 
ATOM     11  O   UNL     1     -14.118   4.168  22.378  1.00  0.00    -0.452 OA
ENDROOT
BRANCH   1  12
ATOM     12  C   UNL     1     -12.249   4.804  23.761  1.00  0.00     0.021 A 
ATOM     13  C   UNL     1     -12.608   5.823  24.663  1.00  0.00     0.016 A 
ATOM     14  C   UNL     1     -11.665   6.774  25.065  1.00  0.00     0.047 A 
ATOM     15  C   UNL     1     -10.361   6.731  24.562  1.00  0.00     0.115 A 
ATOM     16  C   UNL     1     -10.943   4.779  23.242  1.00  0.00     0.016 A 
ATOM     17  C   UNL     1     -10.003   5.732  23.647  1.00  0.00     0.047 A 
BRANCH  15  18
ATOM     18  O   UNL     1      -9.433   7.685  24.971  1.00  0.00    -0.508 OA
ATOM     19  H   UNL     1      -9.693   8.445  25.589  1.00  0.00     0.293 HD
ENDBRANCH  15  18
ENDBRANCH   1  12
BRANCH   2  20
ATOM     20  O   UNL     1     -12.305   2.076  24.738  1.00  0.00    -0.502 OA
ATOM     21  H   UNL     1     -12.006   1.112  24.823  1.00  0.00     0.293 HD
ENDBRANCH   2  20
BRANCH   6  22
ATOM     22  O   UNL     1     -16.258  -0.200  21.987  1.00  0.00    -0.507 OA
ATOM     23  H   UNL     1     -16.265  -0.616  22.905  1.00  0.00     0.293 HD
ENDBRANCH   6  22
BRANCH   8  24
ATOM     24  O   UNL     1     -17.846   3.584  19.495  1.00  0.00    -0.508 OA
ATOM     25  H   UNL     1     -17.527   4.045  18.651  1.00  0.00     0.293 HD
ENDBRANCH   8  24
TORSDOF 5
ENDMDL
MODEL 8
REMARK VINA RESULT:    -5.994      3.207      7.706
REMARK INTER + INTRA:          -7.072
REMARK INTER:                  -6.841
REMARK INTRA:                  -0.231
REMARK UNBOUND:                -0.027
REMARK SMILES O=c1c(O)c(-c2ccc(O)cc2)oc2cc(O)cc(O)c12
REMARK SMILES IDX 5 1 3 2 2 3 1 4 21 5 19 6 18 7 16 8 15 9 14 10 13 11 6 12
REMARK SMILES IDX 7 13 8 14 9 15 12 16 11 17 10 18 4 20 20 22 17 24
REMARK H PARENT 10 19 4 21 20 23 17 25
REMARK Flexibility Score: inf
ROOT
ATOM      1  C   UNL     1     -14.679   1.825  23.000  1.00  0.00     0.180 A 
ATOM      2  C   UNL     1     -14.445   3.179  23.296  1.00  0.00     0.208 A 
ATOM      3  C   UNL     1     -13.207   3.746  22.956  1.00  0.00     0.238 A 
ATOM      4  O   UNL     1     -12.978   4.937  23.291  1.00  0.00    -0.285 OA
ATOM      5  C   UNL     1     -12.238   2.971  22.274  1.00  0.00     0.111 A 
ATOM      6  C   UNL     1     -10.967   3.455  21.841  1.00  0.00     0.134 A 
ATOM      7  C   UNL     1     -10.047   2.567  21.269  1.00  0.00     0.093 A 
ATOM      8  C   UNL     1     -10.377   1.226  21.057  1.00  0.00     0.123 A 
ATOM      9  C   UNL     1     -11.635   0.757  21.425  1.00  0.00     0.094 A 
ATOM     10  C   UNL     1     -12.560   1.609  22.033  1.00  0.00     0.146 A 
ATOM     11  O   UNL     1     -13.739   1.113  22.389  1.00  0.00    -0.452 OA
ENDROOT
BRANCH   1  12
ATOM     12  C   UNL     1     -15.953   1.152  23.339  1.00  0.00     0.021 A 
ATOM     13  C   UNL     1     -16.934   0.904  22.361  1.00  0.00     0.016 A 
ATOM     14  C   UNL     1     -18.141   0.289  22.710  1.00  0.00     0.047 A 
ATOM     15  C   UNL     1     -18.389  -0.072  24.038  1.00  0.00     0.115 A 
ATOM     16  C   UNL     1     -16.218   0.806  24.675  1.00  0.00     0.016 A 
ATOM     17  C   UNL     1     -17.425   0.190  25.021  1.00  0.00     0.047 A 
BRANCH  15  18
ATOM     18  O   UNL     1     -19.594  -0.685  24.371  1.00  0.00    -0.508 OA
ATOM     19  H   UNL     1     -20.254  -0.246  25.003  1.00  0.00     0.293 HD
ENDBRANCH  15  18
ENDBRANCH   1  12
BRANCH   2  20
ATOM     20  O   UNL     1     -15.443   3.949  23.900  1.00  0.00    -0.502 OA
ATOM     21  H   UNL     1     -15.545   4.941  23.724  1.00  0.00     0.293 HD
ENDBRANCH   2  20
BRANCH   6  22
ATOM     22  O   UNL     1     -10.569   4.793  21.924  1.00  0.00    -0.507 OA
ATOM     23  H   UNL     1      -9.616   5.118  21.864  1.00  0.00     0.293 HD
ENDBRANCH   6  22
BRANCH   8  24
ATOM     24  O   UNL     1      -9.462   0.353  20.471  1.00  0.00    -0.508 OA
ATOM     25  H   UNL     1      -8.839  -0.216  21.032  1.00  0.00     0.293 HD
ENDBRANCH   8  24
TORSDOF 5
ENDMDL
MODEL 9
REMARK VINA RESULT:    -5.982      2.255      3.026
REMARK INTER + INTRA:          -7.058
REMARK INTER:                  -6.807
REMARK INTRA:                  -0.251
REMARK UNBOUND:                -0.027
REMARK SMILES O=c1c(O)c(-c2ccc(O)cc2)oc2cc(O)cc(O)c12
REMARK SMILES IDX 5 1 3 2 2 3 1 4 21 5 19 6 18 7 16 8 15 9 14 10 13 11 6 12
REMARK SMILES IDX 7 13 8 14 9 15 12 16 11 17 10 18 4 20 20 22 17 24
REMARK H PARENT 10 19 4 21 20 23 17 25
REMARK Flexibility Score: inf
ROOT
ATOM      1  C   UNL     1     -12.298   2.611  23.158  1.00  0.00     0.180 A 
ATOM      2  C   UNL     1     -12.516   1.228  23.288  1.00  0.00     0.208 A 
ATOM      3  C   UNL     1     -13.750   0.694  22.888  1.00  0.00     0.238 A 
ATOM      4  O   UNL     1     -13.966  -0.532  23.076  1.00  0.00    -0.285 OA
ATOM      5  C   UNL     1     -14.732   1.536  22.311  1.00  0.00     0.111 A 
ATOM      6  C   UNL     1     -16.001   1.094  21.828  1.00  0.00     0.134 A 
ATOM      7  C   UNL     1     -16.932   2.035  21.374  1.00  0.00     0.093 A 
ATOM      8  C   UNL     1     -16.618   3.396  21.325  1.00  0.00     0.123 A 
ATOM      9  C   UNL     1     -15.362   3.830  21.742  1.00  0.00     0.094 A 
ATOM     10  C   UNL     1     -14.425   2.920  22.236  1.00  0.00     0.146 A 
ATOM     11  O   UNL     1     -13.249   3.382  22.644  1.00  0.00    -0.452 OA
ENDROOT
BRANCH   1  12
ATOM     12  C   UNL     1     -11.028   3.251  23.571  1.00  0.00     0.021 A 
ATOM     13  C   UNL     1     -10.933   3.985  24.768  1.00  0.00     0.016 A 
ATOM     14  C   UNL     1      -9.730   4.602  25.124  1.00  0.00     0.047 A 
ATOM     15  C   UNL     1      -8.614   4.507  24.286  1.00  0.00     0.115 A 
ATOM     16  C   UNL     1      -9.910   3.178  22.723  1.00  0.00     0.016 A 
ATOM     17  C   UNL     1      -8.708   3.796  23.083  1.00  0.00     0.047 A 
BRANCH  15  18
ATOM     18  O   UNL     1      -7.422   5.126  24.654  1.00  0.00    -0.508 OA
ATOM     19  H   UNL     1      -7.316   6.133  24.619  1.00  0.00     0.293 HD
ENDBRANCH  15  18
ENDBRANCH   1  12
BRANCH   2  20
ATOM     20  O   UNL     1     -11.507   0.402  23.789  1.00  0.00    -0.502 OA
ATOM     21  H   UNL     1     -10.784   0.008  23.198  1.00  0.00     0.293 HD
ENDBRANCH   2  20
BRANCH   6  22
ATOM     22  O   UNL     1     -16.384  -0.249  21.749  1.00  0.00    -0.507 OA
ATOM     23  H   UNL     1     -17.141  -0.601  21.184  1.00  0.00     0.293 HD
ENDBRANCH   6  22
BRANCH   8  24
ATOM     24  O   UNL     1     -17.546   4.323  20.855  1.00  0.00    -0.508 OA
ATOM     25  H   UNL     1     -17.271   5.264  20.599  1.00  0.00     0.293 HD
ENDBRANCH   8  24
TORSDOF 5
ENDMDL
