MODEL 1
REMARK VINA RESULT:    -6.641      0.000      0.000
REMARK INTER + INTRA:         -11.456
REMARK INTER:                 -10.523
REMARK INTRA:                  -0.933
REMARK UNBOUND:                -0.933
REMARK SMILES C[C@@H]1O[C@@H](O[C@H]2[C@H](Oc3cc(O)c4c(c3)O[C@@H](c3ccc(O)cc3)CC4=O)O[C@H](CO)[C@H](O)[C@H]2O)[C@H](O)[C@@H](O)[C@@H]1O
REMARK SMILES IDX 6 1 34 2 32 3 29 4 28 5 7 6 5 7 4 8 1 9 2 10 40 11 3 12
REMARK SMILES IDX 38 13 36 14 41 15 39 17 37 19 35 21 8 23 9 24 10 25 15 26
REMARK SMILES IDX 11 27 14 28 13 29 16 30 26 31 17 32 27 33 25 34 12 35 18 37
REMARK SMILES IDX 19 38 24 39 20 40 23 41 21 42 22 43 33 45 30 47 31 48
REMARK H PARENT 41 16 39 18 37 20 35 22 12 36 22 44 33 46 31 49
REMARK Flexibility Score: inf
ROOT
ATOM      1  C   UNL     1      13.552   8.740  30.509  1.00  0.00     0.221 C 
ATOM      2  C   UNL     1      12.323   9.185  31.296  1.00  0.00     0.181 C 
ATOM      3  C   UNL     1      12.289   8.485  32.650  1.00  0.00     0.177 C 
ATOM      4  C   UNL     1      13.704   8.458  33.394  1.00  0.00     0.179 C 
ATOM      5  O   UNL     1      14.900   8.565  32.573  1.00  0.00    -0.332 OA
ATOM      6  C   UNL     1      14.784   9.229  31.279  1.00  0.00     0.339 C 
ENDROOT
BRANCH   1   7
ATOM      7  O   UNL     1      13.497   9.301  29.217  1.00  0.00    -0.337 OA
BRANCH   7   8
ATOM      8  C   UNL     1      13.925   8.393  28.199  1.00  0.00     0.282 C 
ATOM      9  C   UNL     1      16.998  10.187  27.313  1.00  0.00     0.041 C 
ATOM     10  C   UNL     1      15.497   9.945  27.447  1.00  0.00     0.150 C 
ATOM     11  C   UNL     1      14.756  10.223  26.098  1.00  0.00     0.174 C 
ATOM     12  O   UNL     1      15.288   8.610  27.852  1.00  0.00    -0.344 OA
ATOM     13  C   UNL     1      13.265   9.778  26.122  1.00  0.00     0.179 C 
ATOM     14  C   UNL     1      13.029   8.493  26.935  1.00  0.00     0.202 C 
BRANCH  11  15
ATOM     15  O   UNL     1      15.402   9.585  25.018  1.00  0.00    -0.388 OA
ATOM     16  H   UNL     1      15.424  10.283  24.306  1.00  0.00     0.211 HD
ENDBRANCH  11  15
BRANCH  13  17
ATOM     17  O   UNL     1      12.494  10.851  26.635  1.00  0.00    -0.387 OA
ATOM     18  H   UNL     1      11.568  10.467  26.701  1.00  0.00     0.211 HD
ENDBRANCH  13  17
BRANCH  14  19
ATOM     19  O   UNL     1      13.129   7.326  26.183  1.00  0.00    -0.385 OA
ATOM     20  H   UNL     1      13.471   7.577  25.298  1.00  0.00     0.211 HD
ENDBRANCH  14  19
ENDBRANCH   7   8
ENDBRANCH   1   7
BRANCH   2  21
ATOM     21  O   UNL     1      12.388  10.577  31.437  1.00  0.00    -0.387 OA
ATOM     22  H   UNL     1      12.617  10.767  32.399  1.00  0.00     0.211 HD
ENDBRANCH   2  21
BRANCH   6  23
ATOM     23  O   UNL     1      15.963   8.930  30.541  1.00  0.00    -0.462 OA
BRANCH  23  24
ATOM     24  C   UNL     1      17.215   9.155  31.126  1.00  0.00     0.130 A 
ATOM     25  C   UNL     1      17.334  10.061  32.181  1.00  0.00     0.093 A 
ATOM     26  C   UNL     1      18.347   8.437  30.676  1.00  0.00     0.094 A 
ATOM     27  C   UNL     1      18.562  10.255  32.803  1.00  0.00     0.133 A 
ATOM     28  C   UNL     1      19.571   8.627  31.288  1.00  0.00     0.138 A 
ATOM     29  C   UNL     1      19.713   9.558  32.328  1.00  0.00     0.102 A 
ATOM     30  O   UNL     1      20.670   7.891  30.853  1.00  0.00    -0.484 OA
ATOM     31  C   UNL     1      21.084   9.745  32.887  1.00  0.00     0.174 C 
ATOM     32  C   UNL     1      21.832   7.707  31.649  1.00  0.00     0.211 C 
ATOM     33  O   UNL     1      21.284  10.539  33.839  1.00  0.00    -0.294 OA
ATOM     34  C   UNL     1      22.268   9.066  32.239  1.00  0.00     0.131 C 
BRANCH  27  35
ATOM     35  O   UNL     1      18.651  11.125  33.882  1.00  0.00    -0.507 OA
ATOM     36  H   UNL     1      19.149  11.996  33.840  1.00  0.00     0.293 HD
ENDBRANCH  27  35
BRANCH  32  37
ATOM     37  C   UNL     1      22.945   7.099  30.852  1.00  0.00    -0.007 A 
ATOM     38  C   UNL     1      22.966   7.170  29.433  1.00  0.00     0.011 A 
ATOM     39  C   UNL     1      24.012   6.485  31.520  1.00  0.00     0.011 A 
ATOM     40  C   UNL     1      24.015   6.593  28.714  1.00  0.00     0.046 A 
ATOM     41  C   UNL     1      25.044   5.905  30.790  1.00  0.00     0.046 A 
ATOM     42  C   UNL     1      25.052   5.932  29.390  1.00  0.00     0.115 A 
BRANCH  42  43
ATOM     43  O   UNL     1      26.076   5.334  28.670  1.00  0.00    -0.508 OA
ATOM     44  H   UNL     1      25.885   4.738  27.875  1.00  0.00     0.293 HD
ENDBRANCH  42  43
ENDBRANCH  32  37
ENDBRANCH  23  24
ENDBRANCH   6  23
BRANCH   3  45
ATOM     45  O   UNL     1      11.666   7.226  32.547  1.00  0.00    -0.387 OA
ATOM     46  H   UNL     1      10.820   7.341  32.041  1.00  0.00     0.211 HD
ENDBRANCH   3  45
BRANCH   4  47
ATOM     47  C   UNL     1      13.873   7.211  34.303  1.00  0.00     0.191 C 
BRANCH  47  48
ATOM     48  O   UNL     1      14.559   6.165  33.655  1.00  0.00    -0.394 OA
ATOM     49  H   UNL     1      13.989   5.351  33.653  1.00  0.00     0.210 HD
ENDBRANCH  47  48
ENDBRANCH   4  47
TORSDOF 14
ENDMDL
MODEL 2
REMARK VINA RESULT:    -5.861      3.172      5.633
REMARK INTER + INTRA:         -10.220
REMARK INTER:                  -9.191
REMARK INTRA:                  -1.030
REMARK UNBOUND:                -0.933
REMARK SMILES C[C@@H]1O[C@@H](O[C@H]2[C@H](Oc3cc(O)c4c(c3)O[C@@H](c3ccc(O)cc3)CC4=O)O[C@H](CO)[C@H](O)[C@H]2O)[C@H](O)[C@@H](O)[C@@H]1O
REMARK SMILES IDX 6 1 34 2 32 3 29 4 28 5 7 6 5 7 4 8 1 9 2 10 40 11 3 12
REMARK SMILES IDX 38 13 36 14 41 15 39 17 37 19 35 21 8 23 9 24 10 25 15 26
REMARK SMILES IDX 11 27 14 28 13 29 16 30 26 31 17 32 27 33 25 34 12 35 18 37
REMARK SMILES IDX 19 38 24 39 20 40 23 41 21 42 22 43 33 45 30 47 31 48
REMARK H PARENT 41 16 39 18 37 20 35 22 12 36 22 44 33 46 31 49
REMARK Flexibility Score: inf
ROOT
ATOM      1  C   UNL     1      10.644   9.747  29.173  1.00  0.00     0.221 C 
ATOM      2  C   UNL     1       9.349   9.649  28.373  1.00  0.00     0.181 C 
ATOM      3  C   UNL     1       8.193   9.276  29.295  1.00  0.00     0.177 C 
ATOM      4  C   UNL     1       8.182  10.090  30.671  1.00  0.00     0.179 C 
ATOM      5  O   UNL     1       9.446  10.632  31.144  1.00  0.00    -0.332 OA
ATOM      6  C   UNL     1      10.483  10.911  30.157  1.00  0.00     0.339 C 
ENDROOT
BRANCH   1   7
ATOM      7  O   UNL     1      11.716   9.968  28.284  1.00  0.00    -0.337 OA
BRANCH   7   8
ATOM      8  C   UNL     1      12.661   8.896  28.276  1.00  0.00     0.282 C 
ATOM      9  C   UNL     1      15.588  10.918  29.164  1.00  0.00     0.041 C 
ATOM     10  C   UNL     1      14.426  10.422  28.308  1.00  0.00     0.150 C 
ATOM     11  C   UNL     1      14.893  10.096  26.851  1.00  0.00     0.174 C 
ATOM     12  O   UNL     1      13.877   9.272  28.913  1.00  0.00    -0.344 OA
ATOM     13  C   UNL     1      13.799   9.379  26.009  1.00  0.00     0.179 C 
ATOM     14  C   UNL     1      12.945   8.399  26.832  1.00  0.00     0.202 C 
BRANCH  11  15
ATOM     15  O   UNL     1      16.058   9.299  26.853  1.00  0.00    -0.388 OA
ATOM     16  H   UNL     1      15.840   8.558  27.484  1.00  0.00     0.211 HD
ENDBRANCH  11  15
BRANCH  13  17
ATOM     17  O   UNL     1      12.989  10.373  25.405  1.00  0.00    -0.387 OA
ATOM     18  H   UNL     1      13.616  10.837  24.771  1.00  0.00     0.211 HD
ENDBRANCH  13  17
BRANCH  14  19
ATOM     19  O   UNL     1      13.450   7.103  26.862  1.00  0.00    -0.385 OA
ATOM     20  H   UNL     1      12.774   6.535  27.291  1.00  0.00     0.211 HD
ENDBRANCH  14  19
ENDBRANCH   7   8
ENDBRANCH   1   7
BRANCH   2  21
ATOM     21  O   UNL     1       9.135  10.890  27.755  1.00  0.00    -0.387 OA
ATOM     22  H   UNL     1       9.680  11.569  28.260  1.00  0.00     0.211 HD
ENDBRANCH   2  21
BRANCH   6  23
ATOM     23  O   UNL     1      11.700  11.115  30.864  1.00  0.00    -0.462 OA
BRANCH  23  24
ATOM     24  C   UNL     1      12.151  10.131  31.753  1.00  0.00     0.130 A 
ATOM     25  C   UNL     1      11.229   9.304  32.396  1.00  0.00     0.093 A 
ATOM     26  C   UNL     1      13.536   9.950  31.966  1.00  0.00     0.094 A 
ATOM     27  C   UNL     1      11.667   8.290  33.241  1.00  0.00     0.133 A 
ATOM     28  C   UNL     1      13.979   8.946  32.807  1.00  0.00     0.138 A 
ATOM     29  C   UNL     1      13.063   8.128  33.486  1.00  0.00     0.102 A 
ATOM     30  O   UNL     1      15.348   8.762  32.984  1.00  0.00    -0.484 OA
ATOM     31  C   UNL     1      13.628   7.113  34.422  1.00  0.00     0.174 C 
ATOM     32  C   UNL     1      15.899   7.549  33.476  1.00  0.00     0.211 C 
ATOM     33  O   UNL     1      12.873   6.325  35.044  1.00  0.00    -0.294 OA
ATOM     34  C   UNL     1      15.109   7.096  34.723  1.00  0.00     0.131 C 
BRANCH  27  35
ATOM     35  O   UNL     1      10.738   7.446  33.835  1.00  0.00    -0.507 OA
ATOM     36  H   UNL     1      10.662   7.333  34.830  1.00  0.00     0.293 HD
ENDBRANCH  27  35
BRANCH  32  37
ATOM     37  C   UNL     1      17.353   7.708  33.804  1.00  0.00    -0.007 A 
ATOM     38  C   UNL     1      17.972   6.937  34.824  1.00  0.00     0.011 A 
ATOM     39  C   UNL     1      18.129   8.605  33.060  1.00  0.00     0.011 A 
ATOM     40  C   UNL     1      19.327   7.108  35.111  1.00  0.00     0.046 A 
ATOM     41  C   UNL     1      19.476   8.772  33.365  1.00  0.00     0.046 A 
ATOM     42  C   UNL     1      20.085   8.048  34.397  1.00  0.00     0.115 A 
BRANCH  42  43
ATOM     43  O   UNL     1      21.425   8.234  34.706  1.00  0.00    -0.508 OA
ATOM     44  H   UNL     1      21.723   8.471  35.644  1.00  0.00     0.293 HD
ENDBRANCH  42  43
ENDBRANCH  32  37
ENDBRANCH  23  24
ENDBRANCH   6  23
BRANCH   3  45
ATOM     45  O   UNL     1       8.107   7.879  29.447  1.00  0.00    -0.387 OA
ATOM     46  H   UNL     1       8.880   7.580  29.992  1.00  0.00     0.211 HD
ENDBRANCH   3  45
BRANCH   4  47
ATOM     47  C   UNL     1       7.559   9.274  31.837  1.00  0.00     0.191 C 
BRANCH  47  48
ATOM     48  O   UNL     1       8.436   8.287  32.328  1.00  0.00    -0.394 OA
ATOM     49  H   UNL     1       9.374   8.567  32.155  1.00  0.00     0.210 HD
ENDBRANCH  47  48
ENDBRANCH   4  47
TORSDOF 14
ENDMDL
MODEL 3
REMARK VINA RESULT:    -5.361      1.306      4.711
REMARK INTER + INTRA:          -9.429
REMARK INTER:                  -8.856
REMARK INTRA:                  -0.573
REMARK UNBOUND:                -0.933
REMARK SMILES C[C@@H]1O[C@@H](O[C@H]2[C@H](Oc3cc(O)c4c(c3)O[C@@H](c3ccc(O)cc3)CC4=O)O[C@H](CO)[C@H](O)[C@H]2O)[C@H](O)[C@@H](O)[C@@H]1O
REMARK SMILES IDX 6 1 34 2 32 3 29 4 28 5 7 6 5 7 4 8 1 9 2 10 40 11 3 12
REMARK SMILES IDX 38 13 36 14 41 15 39 17 37 19 35 21 8 23 9 24 10 25 15 26
REMARK SMILES IDX 11 27 14 28 13 29 16 30 26 31 17 32 27 33 25 34 12 35 18 37
REMARK SMILES IDX 19 38 24 39 20 40 23 41 21 42 22 43 33 45 30 47 31 48
REMARK H PARENT 41 16 39 18 37 20 35 22 12 36 22 44 33 46 31 49
REMARK Flexibility Score: inf
ROOT
ATOM      1  C   UNL     1      14.205  10.404  29.418  1.00  0.00     0.221 C 
ATOM      2  C   UNL     1      13.366   9.340  28.717  1.00  0.00     0.181 C 
ATOM      3  C   UNL     1      13.367   9.584  27.212  1.00  0.00     0.177 C 
ATOM      4  C   UNL     1      14.810   9.933  26.618  1.00  0.00     0.179 C 
ATOM      5  O   UNL     1      15.792  10.504  27.527  1.00  0.00    -0.332 OA
ATOM      6  C   UNL     1      15.653  10.220  28.951  1.00  0.00     0.339 C 
ENDROOT
BRANCH   1   7
ATOM      7  O   UNL     1      14.089  10.233  30.813  1.00  0.00    -0.337 OA
BRANCH   7   8
ATOM      8  C   UNL     1      13.989   8.859  31.197  1.00  0.00     0.282 C 
ATOM      9  C   UNL     1      10.655   9.095  32.705  1.00  0.00     0.041 C 
ATOM     10  C   UNL     1      12.151   9.350  32.550  1.00  0.00     0.150 C 
ATOM     11  C   UNL     1      12.914   9.084  33.889  1.00  0.00     0.174 C 
ATOM     12  O   UNL     1      12.650   8.511  31.531  1.00  0.00    -0.344 OA
ATOM     13  C   UNL     1      14.461   9.113  33.723  1.00  0.00     0.179 C 
ATOM     14  C   UNL     1      14.938   8.530  32.381  1.00  0.00     0.202 C 
BRANCH  11  15
ATOM     15  O   UNL     1      12.543   7.845  34.454  1.00  0.00    -0.388 OA
ATOM     16  H   UNL     1      11.976   7.422  33.751  1.00  0.00     0.211 HD
ENDBRANCH  11  15
BRANCH  13  17
ATOM     17  O   UNL     1      14.894  10.454  33.875  1.00  0.00    -0.387 OA
ATOM     18  H   UNL     1      15.110  10.524  34.854  1.00  0.00     0.211 HD
ENDBRANCH  13  17
BRANCH  14  19
ATOM     19  O   UNL     1      15.196   7.163  32.423  1.00  0.00    -0.385 OA
ATOM     20  H   UNL     1      15.373   6.927  33.359  1.00  0.00     0.211 HD
ENDBRANCH  14  19
ENDBRANCH   7   8
ENDBRANCH   1   7
BRANCH   2  21
ATOM     21  O   UNL     1      13.912   8.089  29.036  1.00  0.00    -0.387 OA
ATOM     22  H   UNL     1      14.913   8.190  29.019  1.00  0.00     0.211 HD
ENDBRANCH   2  21
BRANCH   6  23
ATOM     23  O   UNL     1      16.503  11.123  29.649  1.00  0.00    -0.462 OA
BRANCH  23  24
ATOM     24  C   UNL     1      17.469  10.617  30.528  1.00  0.00     0.130 A 
ATOM     25  C   UNL     1      17.331  10.824  31.901  1.00  0.00     0.093 A 
ATOM     26  C   UNL     1      18.557   9.865  30.029  1.00  0.00     0.094 A 
ATOM     27  C   UNL     1      18.255  10.283  32.787  1.00  0.00     0.133 A 
ATOM     28  C   UNL     1      19.481   9.327  30.904  1.00  0.00     0.138 A 
ATOM     29  C   UNL     1      19.374   9.553  32.284  1.00  0.00     0.102 A 
ATOM     30  O   UNL     1      20.531   8.564  30.399  1.00  0.00    -0.484 OA
ATOM     31  C   UNL     1      20.452   8.989  33.148  1.00  0.00     0.174 C 
ATOM     32  C   UNL     1      21.271   7.655  31.201  1.00  0.00     0.211 C 
ATOM     33  O   UNL     1      20.409   9.126  34.396  1.00  0.00    -0.294 OA
ATOM     34  C   UNL     1      21.667   8.345  32.524  1.00  0.00     0.131 C 
BRANCH  27  35
ATOM     35  O   UNL     1      18.076  10.458  34.153  1.00  0.00    -0.507 OA
ATOM     36  H   UNL     1      17.294  10.076  34.654  1.00  0.00     0.293 HD
ENDBRANCH  27  35
BRANCH  32  37
ATOM     37  C   UNL     1      22.488   7.162  30.480  1.00  0.00    -0.007 A 
ATOM     38  C   UNL     1      22.736   7.503  29.123  1.00  0.00     0.011 A 
ATOM     39  C   UNL     1      23.426   6.384  31.170  1.00  0.00     0.011 A 
ATOM     40  C   UNL     1      23.877   7.028  28.474  1.00  0.00     0.046 A 
ATOM     41  C   UNL     1      24.553   5.910  30.507  1.00  0.00     0.046 A 
ATOM     42  C   UNL     1      24.784   6.205  29.158  1.00  0.00     0.115 A 
BRANCH  42  43
ATOM     43  O   UNL     1      25.902   5.712  28.500  1.00  0.00    -0.508 OA
ATOM     44  H   UNL     1      25.903   5.562  27.499  1.00  0.00     0.293 HD
ENDBRANCH  42  43
ENDBRANCH  32  37
ENDBRANCH  23  24
ENDBRANCH   6  23
BRANCH   3  45
ATOM     45  O   UNL     1      12.358  10.498  26.854  1.00  0.00    -0.387 OA
ATOM     46  H   UNL     1      12.381  10.614  25.869  1.00  0.00     0.211 HD
ENDBRANCH   3  45
BRANCH   4  47
ATOM     47  C   UNL     1      14.732  10.859  25.375  1.00  0.00     0.191 C 
BRANCH  47  48
ATOM     48  O   UNL     1      13.969  10.294  24.333  1.00  0.00    -0.394 OA
ATOM     49  H   UNL     1      14.186  10.756  23.481  1.00  0.00     0.210 HD
ENDBRANCH  47  48
ENDBRANCH   4  47
TORSDOF 14
ENDMDL
MODEL 4
REMARK VINA RESULT:    -5.146      3.131      6.494
REMARK INTER + INTRA:          -9.088
REMARK INTER:                  -7.615
REMARK INTRA:                  -1.473
REMARK UNBOUND:                -0.933
REMARK SMILES C[C@@H]1O[C@@H](O[C@H]2[C@H](Oc3cc(O)c4c(c3)O[C@@H](c3ccc(O)cc3)CC4=O)O[C@H](CO)[C@H](O)[C@H]2O)[C@H](O)[C@@H](O)[C@@H]1O
REMARK SMILES IDX 6 1 34 2 32 3 29 4 28 5 7 6 5 7 4 8 1 9 2 10 40 11 3 12
REMARK SMILES IDX 38 13 36 14 41 15 39 17 37 19 35 21 8 23 9 24 10 25 15 26
REMARK SMILES IDX 11 27 14 28 13 29 16 30 26 31 17 32 27 33 25 34 12 35 18 37
REMARK SMILES IDX 19 38 24 39 20 40 23 41 21 42 22 43 33 45 30 47 31 48
REMARK H PARENT 41 16 39 18 37 20 35 22 12 36 22 44 33 46 31 49
REMARK Flexibility Score: inf
ROOT
ATOM      1  C   UNL     1      10.910   9.209  32.780  1.00  0.00     0.221 C 
ATOM      2  C   UNL     1      10.995   8.504  34.129  1.00  0.00     0.181 C 
ATOM      3  C   UNL     1      12.371   7.867  34.300  1.00  0.00     0.177 C 
ATOM      4  C   UNL     1      13.577   8.818  33.857  1.00  0.00     0.179 C 
ATOM      5  O   UNL     1      13.289   9.867  32.890  1.00  0.00    -0.332 OA
ATOM      6  C   UNL     1      11.920  10.362  32.806  1.00  0.00     0.339 C 
ENDROOT
BRANCH   1   7
ATOM      7  O   UNL     1       9.595   9.681  32.591  1.00  0.00    -0.337 OA
BRANCH   7   8
ATOM      8  C   UNL     1       8.802   8.807  31.783  1.00  0.00     0.282 C 
ATOM      9  C   UNL     1       8.370  11.125  28.974  1.00  0.00     0.041 C 
ATOM     10  C   UNL     1       8.216  10.590  30.395  1.00  0.00     0.150 C 
ATOM     11  C   UNL     1       6.719  10.608  30.849  1.00  0.00     0.174 C 
ATOM     12  O   UNL     1       8.724   9.274  30.440  1.00  0.00    -0.344 OA
ATOM     13  C   UNL     1       6.485   9.868  32.197  1.00  0.00     0.179 C 
ATOM     14  C   UNL     1       7.377   8.626  32.371  1.00  0.00     0.202 C 
BRANCH  11  15
ATOM     15  O   UNL     1       5.880  10.038  29.868  1.00  0.00    -0.388 OA
ATOM     16  H   UNL     1       5.439   9.280  30.341  1.00  0.00     0.211 HD
ENDBRANCH  11  15
BRANCH  13  17
ATOM     17  O   UNL     1       6.696  10.794  33.249  1.00  0.00    -0.387 OA
ATOM     18  H   UNL     1       5.791  10.876  33.678  1.00  0.00     0.211 HD
ENDBRANCH  13  17
BRANCH  14  19
ATOM     19  O   UNL     1       6.805   7.453  31.889  1.00  0.00    -0.385 OA
ATOM     20  H   UNL     1       6.840   7.491  30.909  1.00  0.00     0.211 HD
ENDBRANCH  14  19
ENDBRANCH   7   8
ENDBRANCH   1   7
BRANCH   2  21
ATOM     21  O   UNL     1      10.742   9.458  35.125  1.00  0.00    -0.387 OA
ATOM     22  H   UNL     1      10.429  10.294  34.661  1.00  0.00     0.211 HD
ENDBRANCH   2  21
BRANCH   6  23
ATOM     23  O   UNL     1      11.815  11.121  31.607  1.00  0.00    -0.462 OA
BRANCH  23  24
ATOM     24  C   UNL     1      12.562  10.739  30.485  1.00  0.00     0.130 A 
ATOM     25  C   UNL     1      11.906  10.371  29.310  1.00  0.00     0.093 A 
ATOM     26  C   UNL     1      13.975  10.766  30.531  1.00  0.00     0.094 A 
ATOM     27  C   UNL     1      12.637  10.040  28.174  1.00  0.00     0.133 A 
ATOM     28  C   UNL     1      14.707  10.435  29.407  1.00  0.00     0.138 A 
ATOM     29  C   UNL     1      14.063  10.032  28.228  1.00  0.00     0.102 A 
ATOM     30  O   UNL     1      16.098  10.495  29.460  1.00  0.00    -0.484 OA
ATOM     31  C   UNL     1      14.933   9.631  27.084  1.00  0.00     0.174 C 
ATOM     32  C   UNL     1      16.905  10.577  28.294  1.00  0.00     0.211 C 
ATOM     33  O   UNL     1      14.429   9.286  25.987  1.00  0.00    -0.294 OA
ATOM     34  C   UNL     1      16.429   9.525  27.268  1.00  0.00     0.131 C 
BRANCH  27  35
ATOM     35  O   UNL     1      11.968   9.722  26.999  1.00  0.00    -0.507 OA
ATOM     36  H   UNL     1      10.970   9.619  26.951  1.00  0.00     0.293 HD
ENDBRANCH  27  35
BRANCH  32  37
ATOM     37  C   UNL     1      18.352  10.373  28.622  1.00  0.00    -0.007 A 
ATOM     38  C   UNL     1      18.995  11.125  29.642  1.00  0.00     0.011 A 
ATOM     39  C   UNL     1      19.079   9.390  27.939  1.00  0.00     0.011 A 
ATOM     40  C   UNL     1      20.347  10.917  29.925  1.00  0.00     0.046 A 
ATOM     41  C   UNL     1      20.427   9.202  28.224  1.00  0.00     0.046 A 
ATOM     42  C   UNL     1      21.080   9.967  29.198  1.00  0.00     0.115 A 
BRANCH  42  43
ATOM     43  O   UNL     1      22.430   9.786  29.463  1.00  0.00    -0.508 OA
ATOM     44  H   UNL     1      23.121  10.469  29.182  1.00  0.00     0.293 HD
ENDBRANCH  42  43
ENDBRANCH  32  37
ENDBRANCH  23  24
ENDBRANCH   6  23
BRANCH   3  45
ATOM     45  O   UNL     1      12.402   6.585  33.720  1.00  0.00    -0.387 OA
ATOM     46  H   UNL     1      12.664   5.935  34.423  1.00  0.00     0.211 HD
ENDBRANCH   3  45
BRANCH   4  47
ATOM     47  C   UNL     1      14.799   8.019  33.327  1.00  0.00     0.191 C 
BRANCH  47  48
ATOM     48  O   UNL     1      14.751   7.831  31.932  1.00  0.00    -0.394 OA
ATOM     49  H   UNL     1      14.588   8.704  31.489  1.00  0.00     0.210 HD
ENDBRANCH  47  48
ENDBRANCH   4  47
TORSDOF 14
ENDMDL
MODEL 5
REMARK VINA RESULT:    -4.721      2.096      3.196
REMARK INTER + INTRA:          -8.415
REMARK INTER:                  -7.482
REMARK INTRA:                  -0.933
REMARK UNBOUND:                -0.933
REMARK SMILES C[C@@H]1O[C@@H](O[C@H]2[C@H](Oc3cc(O)c4c(c3)O[C@@H](c3ccc(O)cc3)CC4=O)O[C@H](CO)[C@H](O)[C@H]2O)[C@H](O)[C@@H](O)[C@@H]1O
REMARK SMILES IDX 6 1 34 2 32 3 29 4 28 5 7 6 5 7 4 8 1 9 2 10 40 11 3 12
REMARK SMILES IDX 38 13 36 14 41 15 39 17 37 19 35 21 8 23 9 24 10 25 15 26
REMARK SMILES IDX 11 27 14 28 13 29 16 30 26 31 17 32 27 33 25 34 12 35 18 37
REMARK SMILES IDX 19 38 24 39 20 40 23 41 21 42 22 43 33 45 30 47 31 48
REMARK H PARENT 41 16 39 18 37 20 35 22 12 36 22 44 33 46 31 49
REMARK Flexibility Score: inf
ROOT
ATOM      1  C   UNL     1      15.284   8.895  30.750  1.00  0.00     0.221 C 
ATOM      2  C   UNL     1      14.372   8.326  31.832  1.00  0.00     0.181 C 
ATOM      3  C   UNL     1      15.208   7.787  32.988  1.00  0.00     0.177 C 
ATOM      4  C   UNL     1      16.401   8.758  33.426  1.00  0.00     0.179 C 
ATOM      5  O   UNL     1      16.908   9.693  32.433  1.00  0.00    -0.332 OA
ATOM      6  C   UNL     1      16.011  10.100  31.356  1.00  0.00     0.339 C 
ENDROOT
BRANCH   1   7
ATOM      7  O   UNL     1      14.499   9.272  29.641  1.00  0.00    -0.337 OA
BRANCH   7   8
ATOM      8  C   UNL     1      14.732   8.453  28.492  1.00  0.00     0.282 C 
ATOM      9  C   UNL     1      16.030  11.125  26.340  1.00  0.00     0.041 C 
ATOM     10  C   UNL     1      15.003  10.355  27.166  1.00  0.00     0.150 C 
ATOM     11  C   UNL     1      13.682  10.129  26.361  1.00  0.00     0.174 C 
ATOM     12  O   UNL     1      15.562   9.117  27.544  1.00  0.00    -0.344 OA
ATOM     13  C   UNL     1      12.694   9.161  27.073  1.00  0.00     0.179 C 
ATOM     14  C   UNL     1      13.400   8.018  27.824  1.00  0.00     0.202 C 
BRANCH  11  15
ATOM     15  O   UNL     1      13.950   9.631  25.068  1.00  0.00    -0.388 OA
ATOM     16  H   UNL     1      13.205   8.990  24.898  1.00  0.00     0.211 HD
ENDBRANCH  11  15
BRANCH  13  17
ATOM     17  O   UNL     1      11.890   9.925  27.956  1.00  0.00    -0.387 OA
ATOM     18  H   UNL     1      11.687   9.286  28.704  1.00  0.00     0.211 HD
ENDBRANCH  13  17
BRANCH  14  19
ATOM     19  O   UNL     1      13.602   6.879  27.050  1.00  0.00    -0.385 OA
ATOM     20  H   UNL     1      14.547   6.865  26.790  1.00  0.00     0.211 HD
ENDBRANCH  14  19
ENDBRANCH   7   8
ENDBRANCH   1   7
BRANCH   2  21
ATOM     21  O   UNL     1      13.516   9.354  32.251  1.00  0.00    -0.387 OA
ATOM     22  H   UNL     1      13.976  10.225  32.043  1.00  0.00     0.211 HD
ENDBRANCH   2  21
BRANCH   6  23
ATOM     23  O   UNL     1      16.804  10.734  30.360  1.00  0.00    -0.462 OA
BRANCH  23  24
ATOM     24  C   UNL     1      17.982  10.116  29.922  1.00  0.00     0.130 A 
ATOM     25  C   UNL     1      18.335  10.176  28.574  1.00  0.00     0.093 A 
ATOM     26  C   UNL     1      18.830   9.469  30.850  1.00  0.00     0.094 A 
ATOM     27  C   UNL     1      19.527   9.610  28.136  1.00  0.00     0.133 A 
ATOM     28  C   UNL     1      20.015   8.902  30.421  1.00  0.00     0.138 A 
ATOM     29  C   UNL     1      20.368   8.926  29.063  1.00  0.00     0.102 A 
ATOM     30  O   UNL     1      20.854   8.294  31.352  1.00  0.00    -0.484 OA
ATOM     31  C   UNL     1      21.633   8.233  28.681  1.00  0.00     0.174 C 
ATOM     32  C   UNL     1      22.231   8.057  31.101  1.00  0.00     0.211 C 
ATOM     33  O   UNL     1      22.029   8.236  27.489  1.00  0.00    -0.294 OA
ATOM     34  C   UNL     1      22.394   7.421  29.702  1.00  0.00     0.131 C 
BRANCH  27  35
ATOM     35  O   UNL     1      19.885   9.720  26.798  1.00  0.00    -0.507 OA
ATOM     36  H   UNL     1      19.810  10.578  26.282  1.00  0.00     0.293 HD
ENDBRANCH  27  35
BRANCH  32  37
ATOM     37  C   UNL     1      22.830   7.173  32.152  1.00  0.00    -0.007 A 
ATOM     38  C   UNL     1      24.090   6.546  31.965  1.00  0.00     0.011 A 
ATOM     39  C   UNL     1      22.153   6.996  33.365  1.00  0.00     0.011 A 
ATOM     40  C   UNL     1      24.624   5.725  32.961  1.00  0.00     0.046 A 
ATOM     41  C   UNL     1      22.692   6.167  34.344  1.00  0.00     0.046 A 
ATOM     42  C   UNL     1      23.913   5.510  34.151  1.00  0.00     0.115 A 
BRANCH  42  43
ATOM     43  O   UNL     1      24.434   4.670  35.125  1.00  0.00    -0.508 OA
ATOM     44  H   UNL     1      25.400   4.372  35.105  1.00  0.00     0.293 HD
ENDBRANCH  42  43
ENDBRANCH  32  37
ENDBRANCH  23  24
ENDBRANCH   6  23
BRANCH   3  45
ATOM     45  O   UNL     1      15.605   6.459  32.741  1.00  0.00    -0.387 OA
ATOM     46  H   UNL     1      16.526   6.341  33.091  1.00  0.00     0.211 HD
ENDBRANCH   3  45
BRANCH   4  47
ATOM     47  C   UNL     1      17.617   7.983  33.999  1.00  0.00     0.191 C 
BRANCH  47  48
ATOM     48  O   UNL     1      18.739   8.813  34.193  1.00  0.00    -0.394 OA
ATOM     49  H   UNL     1      19.488   8.489  33.627  1.00  0.00     0.210 HD
ENDBRANCH  47  48
ENDBRANCH   4  47
TORSDOF 14
ENDMDL
MODEL 6
REMARK VINA RESULT:    -4.621     18.307     20.331
REMARK INTER + INTRA:          -8.256
REMARK INTER:                  -6.802
REMARK INTRA:                  -1.454
REMARK UNBOUND:                -0.933
REMARK SMILES C[C@@H]1O[C@@H](O[C@H]2[C@H](Oc3cc(O)c4c(c3)O[C@@H](c3ccc(O)cc3)CC4=O)O[C@H](CO)[C@H](O)[C@H]2O)[C@H](O)[C@@H](O)[C@@H]1O
REMARK SMILES IDX 6 1 34 2 32 3 29 4 28 5 7 6 5 7 4 8 1 9 2 10 40 11 3 12
REMARK SMILES IDX 38 13 36 14 41 15 39 17 37 19 35 21 8 23 9 24 10 25 15 26
REMARK SMILES IDX 11 27 14 28 13 29 16 30 26 31 17 32 27 33 25 34 12 35 18 37
REMARK SMILES IDX 19 38 24 39 20 40 23 41 21 42 22 43 33 45 30 47 31 48
REMARK H PARENT 41 16 39 18 37 20 35 22 12 36 22 44 33 46 31 49
REMARK Flexibility Score: inf
ROOT
ATOM      1  C   UNL     1      11.371  -7.958  21.519  1.00  0.00     0.221 C 
ATOM      2  C   UNL     1      11.237  -7.069  22.751  1.00  0.00     0.181 C 
ATOM      3  C   UNL     1      12.144  -7.581  23.865  1.00  0.00     0.177 C 
ATOM      4  C   UNL     1      13.610  -7.981  23.367  1.00  0.00     0.179 C 
ATOM      5  O   UNL     1      13.770  -8.344  21.967  1.00  0.00    -0.332 OA
ATOM      6  C   UNL     1      12.809  -7.811  21.008  1.00  0.00     0.339 C 
ENDROOT
BRANCH   1   7
ATOM      7  O   UNL     1      10.435  -7.541  20.550  1.00  0.00    -0.337 OA
BRANCH   7   8
ATOM      8  C   UNL     1       9.513  -8.573  20.190  1.00  0.00     0.282 C 
ATOM      9  C   UNL     1      10.419  -8.715  16.639  1.00  0.00     0.041 C 
ATOM     10  C   UNL     1       9.856  -8.119  17.927  1.00  0.00     0.150 C 
ATOM     11  C   UNL     1       8.422  -7.537  17.703  1.00  0.00     0.174 C 
ATOM     12  O   UNL     1       9.825  -9.125  18.915  1.00  0.00    -0.344 OA
ATOM     13  C   UNL     1       7.721  -7.122  19.028  1.00  0.00     0.179 C 
ATOM     14  C   UNL     1       8.049  -8.057  20.206  1.00  0.00     0.202 C 
BRANCH  11  15
ATOM     15  O   UNL     1       7.596  -8.457  17.022  1.00  0.00    -0.388 OA
ATOM     16  H   UNL     1       7.325  -9.105  17.730  1.00  0.00     0.211 HD
ENDBRANCH  11  15
BRANCH  13  17
ATOM     17  O   UNL     1       8.093  -5.787  19.323  1.00  0.00    -0.387 OA
ATOM     18  H   UNL     1       8.256  -5.800  20.314  1.00  0.00     0.211 HD
ENDBRANCH  13  17
BRANCH  14  19
ATOM     19  O   UNL     1       7.166  -9.125  20.338  1.00  0.00    -0.385 OA
ATOM     20  H   UNL     1       6.260  -8.751  20.384  1.00  0.00     0.211 HD
ENDBRANCH  14  19
ENDBRANCH   7   8
ENDBRANCH   1   7
BRANCH   2  21
ATOM     21  O   UNL     1      11.575  -5.762  22.372  1.00  0.00    -0.387 OA
ATOM     22  H   UNL     1      10.715  -5.248  22.283  1.00  0.00     0.211 HD
ENDBRANCH   2  21
BRANCH   6  23
ATOM     23  O   UNL     1      12.967  -8.542  19.798  1.00  0.00    -0.462 OA
BRANCH  23  24
ATOM     24  C   UNL     1      13.909  -8.114  18.855  1.00  0.00     0.130 A 
ATOM     25  C   UNL     1      13.479  -7.616  17.624  1.00  0.00     0.093 A 
ATOM     26  C   UNL     1      15.288  -8.149  19.164  1.00  0.00     0.094 A 
ATOM     27  C   UNL     1      14.402  -7.141  16.700  1.00  0.00     0.133 A 
ATOM     28  C   UNL     1      16.211  -7.680  18.249  1.00  0.00     0.138 A 
ATOM     29  C   UNL     1      15.796  -7.207  16.995  1.00  0.00     0.102 A 
ATOM     30  O   UNL     1      17.563  -7.694  18.580  1.00  0.00    -0.484 OA
ATOM     31  C   UNL     1      16.866  -6.781  16.045  1.00  0.00     0.174 C 
ATOM     32  C   UNL     1      18.523  -6.886  17.912  1.00  0.00     0.211 C 
ATOM     33  O   UNL     1      16.571  -6.319  14.915  1.00  0.00    -0.294 OA
ATOM     34  C   UNL     1      18.320  -7.008  16.386  1.00  0.00     0.131 C 
BRANCH  27  35
ATOM     35  O   UNL     1      13.953  -6.605  15.499  1.00  0.00    -0.507 OA
ATOM     36  H   UNL     1      13.446  -5.741  15.444  1.00  0.00     0.293 HD
ENDBRANCH  27  35
BRANCH  32  37
ATOM     37  C   UNL     1      19.918  -7.279  18.290  1.00  0.00    -0.007 A 
ATOM     38  C   UNL     1      21.003  -6.369  18.175  1.00  0.00     0.011 A 
ATOM     39  C   UNL     1      20.154  -8.559  18.808  1.00  0.00     0.011 A 
ATOM     40  C   UNL     1      22.294  -6.762  18.531  1.00  0.00     0.046 A 
ATOM     41  C   UNL     1      21.448  -8.940  19.149  1.00  0.00     0.046 A 
ATOM     42  C   UNL     1      22.529  -8.064  18.999  1.00  0.00     0.115 A 
BRANCH  42  43
ATOM     43  O   UNL     1      23.819  -8.459  19.323  1.00  0.00    -0.508 OA
ATOM     44  H   UNL     1      24.283  -8.120  20.157  1.00  0.00     0.293 HD
ENDBRANCH  42  43
ENDBRANCH  32  37
ENDBRANCH  23  24
ENDBRANCH   6  23
BRANCH   3  45
ATOM     45  O   UNL     1      11.496  -8.580  24.617  1.00  0.00    -0.387 OA
ATOM     46  H   UNL     1      10.517  -8.448  24.526  1.00  0.00     0.211 HD
ENDBRANCH   3  45
BRANCH   4  47
ATOM     47  C   UNL     1      14.235  -9.119  24.218  1.00  0.00     0.191 C 
BRANCH  47  48
ATOM     48  O   UNL     1      15.573  -8.851  24.569  1.00  0.00    -0.394 OA
ATOM     49  H   UNL     1      16.014  -9.697  24.847  1.00  0.00     0.210 HD
ENDBRANCH  47  48
ENDBRANCH   4  47
TORSDOF 14
ENDMDL
MODEL 7
REMARK VINA RESULT:    -4.581      4.978      8.240
REMARK INTER + INTRA:          -8.192
REMARK INTER:                  -7.436
REMARK INTRA:                  -0.756
REMARK UNBOUND:                -0.933
REMARK SMILES C[C@@H]1O[C@@H](O[C@H]2[C@H](Oc3cc(O)c4c(c3)O[C@@H](c3ccc(O)cc3)CC4=O)O[C@H](CO)[C@H](O)[C@H]2O)[C@H](O)[C@@H](O)[C@@H]1O
REMARK SMILES IDX 6 1 34 2 32 3 29 4 28 5 7 6 5 7 4 8 1 9 2 10 40 11 3 12
REMARK SMILES IDX 38 13 36 14 41 15 39 17 37 19 35 21 8 23 9 24 10 25 15 26
REMARK SMILES IDX 11 27 14 28 13 29 16 30 26 31 17 32 27 33 25 34 12 35 18 37
REMARK SMILES IDX 19 38 24 39 20 40 23 41 21 42 22 43 33 45 30 47 31 48
REMARK H PARENT 41 16 39 18 37 20 35 22 12 36 22 44 33 46 31 49
REMARK Flexibility Score: inf
ROOT
ATOM      1  C   UNL     1      10.961   9.219  32.807  1.00  0.00     0.221 C 
ATOM      2  C   UNL     1      10.890   8.497  34.149  1.00  0.00     0.181 C 
ATOM      3  C   UNL     1      12.228   7.831  34.454  1.00  0.00     0.177 C 
ATOM      4  C   UNL     1      13.492   8.763  34.152  1.00  0.00     0.179 C 
ATOM      5  O   UNL     1      13.327   9.827  33.175  1.00  0.00    -0.332 OA
ATOM      6  C   UNL     1      11.984  10.351  32.954  1.00  0.00     0.339 C 
ENDROOT
BRANCH   1   7
ATOM      7  O   UNL     1       9.681   9.719  32.488  1.00  0.00    -0.337 OA
BRANCH   7   8
ATOM      8  C   UNL     1       8.948   8.853  31.619  1.00  0.00     0.282 C 
ATOM      9  C   UNL     1       8.898  11.115  28.732  1.00  0.00     0.041 C 
ATOM     10  C   UNL     1       8.576  10.620  30.139  1.00  0.00     0.150 C 
ATOM     11  C   UNL     1       7.042  10.699  30.431  1.00  0.00     0.174 C 
ATOM     12  O   UNL     1       9.028   9.290  30.266  1.00  0.00    -0.344 OA
ATOM     13  C   UNL     1       6.639  10.001  31.761  1.00  0.00     0.179 C 
ATOM     14  C   UNL     1       7.463   8.735  32.055  1.00  0.00     0.202 C 
BRANCH  11  15
ATOM     15  O   UNL     1       6.290  10.135  29.378  1.00  0.00    -0.388 OA
ATOM     16  H   UNL     1       6.663   9.215  29.284  1.00  0.00     0.211 HD
ENDBRANCH  11  15
BRANCH  13  17
ATOM     17  O   UNL     1       6.772  10.945  32.811  1.00  0.00    -0.387 OA
ATOM     18  H   UNL     1       7.765  11.009  32.948  1.00  0.00     0.211 HD
ENDBRANCH  13  17
BRANCH  14  19
ATOM     19  O   UNL     1       6.903   7.569  31.539  1.00  0.00    -0.385 OA
ATOM     20  H   UNL     1       7.625   7.064  31.107  1.00  0.00     0.211 HD
ENDBRANCH  14  19
ENDBRANCH   7   8
ENDBRANCH   1   7
BRANCH   2  21
ATOM     21  O   UNL     1      10.552   9.444  35.125  1.00  0.00    -0.387 OA
ATOM     22  H   UNL     1      11.325   9.495  35.768  1.00  0.00     0.211 HD
ENDBRANCH   2  21
BRANCH   6  23
ATOM     23  O   UNL     1      12.020  11.125  31.761  1.00  0.00    -0.462 OA
BRANCH  23  24
ATOM     24  C   UNL     1      12.937  10.795  30.756  1.00  0.00     0.130 A 
ATOM     25  C   UNL     1      14.267  10.537  31.089  1.00  0.00     0.093 A 
ATOM     26  C   UNL     1      12.508  10.682  29.414  1.00  0.00     0.094 A 
ATOM     27  C   UNL     1      15.175  10.158  30.107  1.00  0.00     0.133 A 
ATOM     28  C   UNL     1      13.405  10.309  28.432  1.00  0.00     0.138 A 
ATOM     29  C   UNL     1      14.753  10.079  28.747  1.00  0.00     0.102 A 
ATOM     30  O   UNL     1      12.960  10.174  27.119  1.00  0.00    -0.484 OA
ATOM     31  C   UNL     1      15.665   9.743  27.614  1.00  0.00     0.174 C 
ATOM     32  C   UNL     1      13.669   9.424  26.144  1.00  0.00     0.211 C 
ATOM     33  O   UNL     1      16.878   9.495  27.821  1.00  0.00    -0.294 OA
ATOM     34  C   UNL     1      15.164   9.809  26.190  1.00  0.00     0.131 C 
BRANCH  27  35
ATOM     35  O   UNL     1      16.484   9.860  30.465  1.00  0.00    -0.507 OA
ATOM     36  H   UNL     1      17.275  10.365  30.107  1.00  0.00     0.293 HD
ENDBRANCH  27  35
BRANCH  32  37
ATOM     37  C   UNL     1      13.110   9.652  24.772  1.00  0.00    -0.007 A 
ATOM     38  C   UNL     1      13.134  10.936  24.166  1.00  0.00     0.011 A 
ATOM     39  C   UNL     1      12.592   8.568  24.054  1.00  0.00     0.011 A 
ATOM     40  C   UNL     1      12.603  11.121  22.887  1.00  0.00     0.046 A 
ATOM     41  C   UNL     1      12.057   8.769  22.786  1.00  0.00     0.046 A 
ATOM     42  C   UNL     1      12.037  10.039  22.197  1.00  0.00     0.115 A 
BRANCH  42  43
ATOM     43  O   UNL     1      11.484  10.235  20.939  1.00  0.00    -0.508 OA
ATOM     44  H   UNL     1      10.746   9.640  20.587  1.00  0.00     0.293 HD
ENDBRANCH  42  43
ENDBRANCH  32  37
ENDBRANCH  23  24
ENDBRANCH   6  23
BRANCH   3  45
ATOM     45  O   UNL     1      12.296   6.555  33.864  1.00  0.00    -0.387 OA
ATOM     46  H   UNL     1      11.524   6.458  33.247  1.00  0.00     0.211 HD
ENDBRANCH   3  45
BRANCH   4  47
ATOM     47  C   UNL     1      14.747   7.945  33.743  1.00  0.00     0.191 C 
BRANCH  47  48
ATOM     48  O   UNL     1      15.809   8.101  34.656  1.00  0.00    -0.394 OA
ATOM     49  H   UNL     1      16.669   7.938  34.188  1.00  0.00     0.210 HD
ENDBRANCH  47  48
ENDBRANCH   4  47
TORSDOF 14
ENDMDL
MODEL 8
REMARK VINA RESULT:    -4.438      2.051      8.974
REMARK INTER + INTRA:          -7.965
REMARK INTER:                  -7.558
REMARK INTRA:                  -0.407
REMARK UNBOUND:                -0.933
REMARK SMILES C[C@@H]1O[C@@H](O[C@H]2[C@H](Oc3cc(O)c4c(c3)O[C@@H](c3ccc(O)cc3)CC4=O)O[C@H](CO)[C@H](O)[C@H]2O)[C@H](O)[C@@H](O)[C@@H]1O
REMARK SMILES IDX 6 1 34 2 32 3 29 4 28 5 7 6 5 7 4 8 1 9 2 10 40 11 3 12
REMARK SMILES IDX 38 13 36 14 41 15 39 17 37 19 35 21 8 23 9 24 10 25 15 26
REMARK SMILES IDX 11 27 14 28 13 29 16 30 26 31 17 32 27 33 25 34 12 35 18 37
REMARK SMILES IDX 19 38 24 39 20 40 23 41 21 42 22 43 33 45 30 47 31 48
REMARK H PARENT 41 16 39 18 37 20 35 22 12 36 22 44 33 46 31 49
REMARK Flexibility Score: inf
ROOT
ATOM      1  C   UNL     1      20.223   9.079  32.712  1.00  0.00     0.221 C 
ATOM      2  C   UNL     1      20.690   8.951  34.159  1.00  0.00     0.181 C 
ATOM      3  C   UNL     1      19.807   9.798  35.069  1.00  0.00     0.177 C 
ATOM      4  C   UNL     1      18.245   9.662  34.755  1.00  0.00     0.179 C 
ATOM      5  O   UNL     1      17.860   9.253  33.413  1.00  0.00    -0.332 OA
ATOM      6  C   UNL     1      18.817   8.475  32.634  1.00  0.00     0.339 C 
ENDROOT
BRANCH   1   7
ATOM      7  O   UNL     1      21.127   8.391  31.876  1.00  0.00    -0.337 OA
BRANCH   7   8
ATOM      8  C   UNL     1      22.237   9.198  31.476  1.00  0.00     0.282 C 
ATOM      9  C   UNL     1      21.566   9.065  27.873  1.00  0.00     0.041 C 
ATOM     10  C   UNL     1      21.942   8.540  29.256  1.00  0.00     0.150 C 
ATOM     11  C   UNL     1      23.259   7.698  29.205  1.00  0.00     0.174 C 
ATOM     12  O   UNL     1      22.099   9.638  30.129  1.00  0.00    -0.344 OA
ATOM     13  C   UNL     1      23.801   7.333  30.616  1.00  0.00     0.179 C 
ATOM     14  C   UNL     1      23.582   8.444  31.657  1.00  0.00     0.202 C 
BRANCH  11  15
ATOM     15  O   UNL     1      24.272   8.374  28.492  1.00  0.00    -0.388 OA
ATOM     16  H   UNL     1      25.117   8.030  28.892  1.00  0.00     0.211 HD
ENDBRANCH  11  15
BRANCH  13  17
ATOM     17  O   UNL     1      23.181   6.126  31.026  1.00  0.00    -0.387 OA
ATOM     18  H   UNL     1      22.266   6.177  30.612  1.00  0.00     0.211 HD
ENDBRANCH  13  17
BRANCH  14  19
ATOM     19  O   UNL     1      24.634   9.353  31.738  1.00  0.00    -0.385 OA
ATOM     20  H   UNL     1      25.326   9.056  31.109  1.00  0.00     0.211 HD
ENDBRANCH  14  19
ENDBRANCH   7   8
ENDBRANCH   1   7
BRANCH   2  21
ATOM     21  O   UNL     1      20.635   7.594  34.505  1.00  0.00    -0.387 OA
ATOM     22  H   UNL     1      20.625   7.545  35.510  1.00  0.00     0.211 HD
ENDBRANCH   2  21
BRANCH   6  23
ATOM     23  O   UNL     1      18.367   8.476  31.284  1.00  0.00    -0.462 OA
BRANCH  23  24
ATOM     24  C   UNL     1      16.996   8.580  31.017  1.00  0.00     0.130 A 
ATOM     25  C   UNL     1      16.074   8.396  32.048  1.00  0.00     0.093 A 
ATOM     26  C   UNL     1      16.551   8.912  29.717  1.00  0.00     0.094 A 
ATOM     27  C   UNL     1      14.714   8.548  31.807  1.00  0.00     0.133 A 
ATOM     28  C   UNL     1      15.200   9.061  29.469  1.00  0.00     0.138 A 
ATOM     29  C   UNL     1      14.259   8.848  30.488  1.00  0.00     0.102 A 
ATOM     30  O   UNL     1      14.779   9.417  28.190  1.00  0.00    -0.484 OA
ATOM     31  C   UNL     1      12.819   8.968  30.115  1.00  0.00     0.174 C 
ATOM     32  C   UNL     1      13.501   9.981  27.935  1.00  0.00     0.211 C 
ATOM     33  O   UNL     1      11.920   8.819  30.979  1.00  0.00    -0.294 OA
ATOM     34  C   UNL     1      12.421   9.157  28.669  1.00  0.00     0.131 C 
BRANCH  27  35
ATOM     35  O   UNL     1      13.813   8.408  32.855  1.00  0.00    -0.507 OA
ATOM     36  H   UNL     1      12.884   8.786  32.829  1.00  0.00     0.293 HD
ENDBRANCH  27  35
BRANCH  32  37
ATOM     37  C   UNL     1      13.214  10.031  26.465  1.00  0.00    -0.007 A 
ATOM     38  C   UNL     1      13.741   9.059  25.573  1.00  0.00     0.011 A 
ATOM     39  C   UNL     1      12.372  11.032  25.963  1.00  0.00     0.011 A 
ATOM     40  C   UNL     1      13.460   9.130  24.207  1.00  0.00     0.046 A 
ATOM     41  C   UNL     1      12.110  11.096  24.599  1.00  0.00     0.046 A 
ATOM     42  C   UNL     1      12.660  10.168  23.707  1.00  0.00     0.115 A 
BRANCH  42  43
ATOM     43  O   UNL     1      12.408  10.251  22.344  1.00  0.00    -0.508 OA
ATOM     44  H   UNL     1      11.465  10.284  21.981  1.00  0.00     0.293 HD
ENDBRANCH  42  43
ENDBRANCH  32  37
ENDBRANCH  23  24
ENDBRANCH   6  23
BRANCH   3  45
ATOM     45  O   UNL     1      20.273  11.125  35.123  1.00  0.00    -0.387 OA
ATOM     46  H   UNL     1      20.789  11.237  35.963  1.00  0.00     0.211 HD
ENDBRANCH   3  45
BRANCH   4  47
ATOM     47  C   UNL     1      17.457  10.957  35.091  1.00  0.00     0.191 C 
BRANCH  47  48
ATOM     48  O   UNL     1      16.146  10.936  34.576  1.00  0.00    -0.394 OA
ATOM     49  H   UNL     1      15.616  10.247  35.057  1.00  0.00     0.210 HD
ENDBRANCH  47  48
ENDBRANCH   4  47
TORSDOF 14
ENDMDL
