MODEL 1
REMARK VINA RESULT:    -3.191      0.000      0.000
REMARK INTER + INTRA:          -3.191
REMARK INTER:                  -3.191
REMARK INTRA:                   0.000
REMARK UNBOUND:                 0.000
REMARK SMILES CC1(C)[C@@H]2CC[C@@]1(C)C(=O)C2
REMARK SMILES IDX 1 1 2 2 4 3 5 4 6 5 7 6 9 7 10 8 11 9 8 10 3 11
REMARK H PARENT
REMARK Flexibility Score: inf
ROOT
ATOM      1  C   UNL     1     110.648 107.670 104.127  1.00  0.00     0.012 C 
ATOM      2  C   UNL     1     109.830 108.821 104.791  1.00  0.00    -0.020 C 
ATOM      3  C   UNL     1     108.550 109.203 104.011  1.00  0.00     0.003 C 
ATOM      4  C   UNL     1     107.862 110.222 104.961  1.00  0.00     0.005 C 
ATOM      5  C   UNL     1     108.190 109.661 106.367  1.00  0.00     0.015 C 
ATOM      6  C   UNL     1     109.031 108.403 106.043  1.00  0.00     0.032 C 
ATOM      7  C   UNL     1     108.049 107.431 105.436  1.00  0.00     0.139 C 
ATOM      8  O   UNL     1     107.559 106.463 105.996  1.00  0.00    -0.299 OA
ATOM      9  C   UNL     1     107.693 107.908 104.062  1.00  0.00     0.080 C 
ATOM     10  C   UNL     1     109.842 107.852 107.222  1.00  0.00     0.020 C 
ATOM     11  C   UNL     1     110.822 110.006 104.994  1.00  0.00     0.012 C 
ENDROOT
TORSDOF 0
ENDMDL
MODEL 2
REMARK VINA RESULT:    -3.184      2.507      3.901
REMARK INTER + INTRA:          -3.184
REMARK INTER:                  -3.184
REMARK INTRA:                   0.000
REMARK UNBOUND:                 0.000
REMARK SMILES CC1(C)[C@@H]2CC[C@@]1(C)C(=O)C2
REMARK SMILES IDX 1 1 2 2 4 3 5 4 6 5 7 6 9 7 10 8 11 9 8 10 3 11
REMARK H PARENT
REMARK Flexibility Score: inf
ROOT
ATOM      1  C   UNL     1     110.278 112.042 106.189  1.00  0.00     0.012 C 
ATOM      2  C   UNL     1     109.495 111.055 105.269  1.00  0.00    -0.020 C 
ATOM      3  C   UNL     1     108.805 109.904 106.040  1.00  0.00     0.003 C 
ATOM      4  C   UNL     1     107.981 109.196 104.930  1.00  0.00     0.005 C 
ATOM      5  C   UNL     1     107.523 110.372 104.032  1.00  0.00     0.015 C 
ATOM      6  C   UNL     1     108.153 111.599 104.735  1.00  0.00     0.032 C 
ATOM      7  C   UNL     1     107.378 111.744 106.022  1.00  0.00     0.139 C 
ATOM      8  O   UNL     1     106.508 112.571 106.247  1.00  0.00    -0.299 OA
ATOM      9  C   UNL     1     107.779 110.637 106.948  1.00  0.00     0.080 C 
ATOM     10  C   UNL     1     108.222 112.867 103.875  1.00  0.00     0.020 C 
ATOM     11  C   UNL     1     110.502 110.572 104.183  1.00  0.00     0.012 C 
ENDROOT
TORSDOF 0
ENDMDL
MODEL 3
REMARK VINA RESULT:    -3.153      0.974      2.822
REMARK INTER + INTRA:          -3.153
REMARK INTER:                  -3.153
REMARK INTRA:                   0.000
REMARK UNBOUND:                 0.000
REMARK SMILES CC1(C)[C@@H]2CC[C@@]1(C)C(=O)C2
REMARK SMILES IDX 1 1 2 2 4 3 5 4 6 5 7 6 9 7 10 8 11 9 8 10 3 11
REMARK H PARENT
REMARK Flexibility Score: inf
ROOT
ATOM      1  C   UNL     1     108.093 110.299 106.202  1.00  0.00     0.012 C 
ATOM      2  C   UNL     1     109.101 109.518 105.303  1.00  0.00    -0.020 C 
ATOM      3  C   UNL     1     110.240 108.836 106.097  1.00  0.00     0.003 C 
ATOM      4  C   UNL     1     110.973 108.012 105.002  1.00  0.00     0.005 C 
ATOM      5  C   UNL     1     109.816 107.547 104.084  1.00  0.00     0.015 C 
ATOM      6  C   UNL     1     108.573 108.172 104.762  1.00  0.00     0.032 C 
ATOM      7  C   UNL     1     108.408 107.400 106.048  1.00  0.00     0.139 C 
ATOM      8  O   UNL     1     107.581 106.526 106.260  1.00  0.00    -0.299 OA
ATOM      9  C   UNL     1     109.495 107.809 106.994  1.00  0.00     0.080 C 
ATOM     10  C   UNL     1     107.322 108.233 103.879  1.00  0.00     0.020 C 
ATOM     11  C   UNL     1     109.599 110.525 104.223  1.00  0.00     0.012 C 
ENDROOT
TORSDOF 0
ENDMDL
MODEL 4
REMARK VINA RESULT:    -3.140      2.555      4.104
REMARK INTER + INTRA:          -3.140
REMARK INTER:                  -3.140
REMARK INTRA:                   0.000
REMARK UNBOUND:                 0.000
REMARK SMILES CC1(C)[C@@H]2CC[C@@]1(C)C(=O)C2
REMARK SMILES IDX 1 1 2 2 4 3 5 4 6 5 7 6 9 7 10 8 11 9 8 10 3 11
REMARK H PARENT
REMARK Flexibility Score: inf
ROOT
ATOM      1  C   UNL     1     109.463 109.811 104.789  1.00  0.00     0.012 C 
ATOM      2  C   UNL     1     110.746 108.936 104.632  1.00  0.00    -0.020 C 
ATOM      3  C   UNL     1     111.893 109.647 103.876  1.00  0.00     0.003 C 
ATOM      4  C   UNL     1     113.068 108.640 104.014  1.00  0.00     0.005 C 
ATOM      5  C   UNL     1     112.859 108.054 105.432  1.00  0.00     0.015 C 
ATOM      6  C   UNL     1     111.587 108.789 105.918  1.00  0.00     0.032 C 
ATOM      7  C   UNL     1     112.026 110.217 106.129  1.00  0.00     0.139 C 
ATOM      8  O   UNL     1     112.253 110.747 107.206  1.00  0.00    -0.299 OA
ATOM      9  C   UNL     1     112.239 110.854 104.791  1.00  0.00     0.080 C 
ATOM     10  C   UNL     1     110.891 108.142 107.122  1.00  0.00     0.020 C 
ATOM     11  C   UNL     1     110.289 107.599 103.975  1.00  0.00     0.012 C 
ENDROOT
TORSDOF 0
ENDMDL
MODEL 5
REMARK VINA RESULT:    -3.138      2.917      4.078
REMARK INTER + INTRA:          -3.138
REMARK INTER:                  -3.138
REMARK INTRA:                   0.000
REMARK UNBOUND:                 0.000
REMARK SMILES CC1(C)[C@@H]2CC[C@@]1(C)C(=O)C2
REMARK SMILES IDX 1 1 2 2 4 3 5 4 6 5 7 6 9 7 10 8 11 9 8 10 3 11
REMARK H PARENT
REMARK Flexibility Score: inf
ROOT
ATOM      1  C   UNL     1     110.552 109.340 104.840  1.00  0.00     0.012 C 
ATOM      2  C   UNL     1     111.294 110.694 104.611  1.00  0.00    -0.020 C 
ATOM      3  C   UNL     1     110.439 111.752 103.875  1.00  0.00     0.003 C 
ATOM      4  C   UNL     1     111.338 113.019 103.936  1.00  0.00     0.005 C 
ATOM      5  C   UNL     1     112.017 112.897 105.322  1.00  0.00     0.015 C 
ATOM      6  C   UNL     1     111.431 111.575 105.872  1.00  0.00     0.032 C 
ATOM      7  C   UNL     1     109.981 111.884 106.154  1.00  0.00     0.139 C 
ATOM      8  O   UNL     1     109.492 112.087 107.255  1.00  0.00    -0.299 OA
ATOM      9  C   UNL     1     109.256 112.007 104.850  1.00  0.00     0.080 C 
ATOM     10  C   UNL     1     112.205 110.969 107.049  1.00  0.00     0.020 C 
ATOM     11  C   UNL     1     112.630 110.347 103.888  1.00  0.00     0.012 C 
ENDROOT
TORSDOF 0
ENDMDL
MODEL 6
REMARK VINA RESULT:    -3.116      1.527      2.602
REMARK INTER + INTRA:          -3.116
REMARK INTER:                  -3.116
REMARK INTRA:                   0.000
REMARK UNBOUND:                 0.000
REMARK SMILES CC1(C)[C@@H]2CC[C@@]1(C)C(=O)C2
REMARK SMILES IDX 1 1 2 2 4 3 5 4 6 5 7 6 9 7 10 8 11 9 8 10 3 11
REMARK H PARENT
REMARK Flexibility Score: inf
ROOT
ATOM      1  C   UNL     1     110.742 108.144 106.347  1.00  0.00     0.012 C 
ATOM      2  C   UNL     1     109.676 108.216 105.210  1.00  0.00    -0.020 C 
ATOM      3  C   UNL     1     108.424 107.348 105.477  1.00  0.00     0.003 C 
ATOM      4  C   UNL     1     107.483 107.734 104.302  1.00  0.00     0.005 C 
ATOM      5  C   UNL     1     107.778 109.242 104.103  1.00  0.00     0.015 C 
ATOM      6  C   UNL     1     108.854 109.522 105.179  1.00  0.00     0.032 C 
ATOM      7  C   UNL     1     108.120 109.421 106.493  1.00  0.00     0.139 C 
ATOM      8  O   UNL     1     107.761 110.358 107.189  1.00  0.00    -0.299 OA
ATOM      9  C   UNL     1     107.810 107.980 106.757  1.00  0.00     0.080 C 
ATOM     10  C   UNL     1     109.642 110.822 104.976  1.00  0.00     0.020 C 
ATOM     11  C   UNL     1     110.420 107.861 103.887  1.00  0.00     0.012 C 
ENDROOT
TORSDOF 0
ENDMDL
MODEL 7
REMARK VINA RESULT:    -3.106      2.842      4.706
REMARK INTER + INTRA:          -3.106
REMARK INTER:                  -3.106
REMARK INTRA:                   0.000
REMARK UNBOUND:                 0.000
REMARK SMILES CC1(C)[C@@H]2CC[C@@]1(C)C(=O)C2
REMARK SMILES IDX 1 1 2 2 4 3 5 4 6 5 7 6 9 7 10 8 11 9 8 10 3 11
REMARK H PARENT
REMARK Flexibility Score: inf
ROOT
ATOM      1  C   UNL     1     109.353 111.901 106.339  1.00  0.00     0.012 C 
ATOM      2  C   UNL     1     110.433 111.862 105.214  1.00  0.00    -0.020 C 
ATOM      3  C   UNL     1     111.675 112.734 105.516  1.00  0.00     0.003 C 
ATOM      4  C   UNL     1     112.634 112.380 104.346  1.00  0.00     0.005 C 
ATOM      5  C   UNL     1     112.355 110.875 104.112  1.00  0.00     0.015 C 
ATOM      6  C   UNL     1     111.267 110.563 105.168  1.00  0.00     0.032 C 
ATOM      7  C   UNL     1     111.984 110.644 106.493  1.00  0.00     0.139 C 
ATOM      8  O   UNL     1     112.342 109.696 107.175  1.00  0.00    -0.299 OA
ATOM      9  C   UNL     1     112.278 112.082 106.790  1.00  0.00     0.080 C 
ATOM     10  C   UNL     1     110.494 109.261 104.928  1.00  0.00     0.020 C 
ATOM     11  C   UNL     1     109.704 112.237 103.890  1.00  0.00     0.012 C 
ENDROOT
TORSDOF 0
ENDMDL
MODEL 8
REMARK VINA RESULT:    -3.106      2.016      2.849
REMARK INTER + INTRA:          -3.106
REMARK INTER:                  -3.106
REMARK INTRA:                   0.000
REMARK UNBOUND:                 0.000
REMARK SMILES CC1(C)[C@@H]2CC[C@@]1(C)C(=O)C2
REMARK SMILES IDX 1 1 2 2 4 3 5 4 6 5 7 6 9 7 10 8 11 9 8 10 3 11
REMARK H PARENT
REMARK Flexibility Score: inf
ROOT
ATOM      1  C   UNL     1     110.758 110.620 105.095  1.00  0.00     0.012 C 
ATOM      2  C   UNL     1     109.419 111.340 104.744  1.00  0.00    -0.020 C 
ATOM      3  C   UNL     1     108.437 110.463 103.932  1.00  0.00     0.003 C 
ATOM      4  C   UNL     1     107.158 111.343 103.875  1.00  0.00     0.005 C 
ATOM      5  C   UNL     1     107.154 112.039 105.259  1.00  0.00     0.015 C 
ATOM      6  C   UNL     1     108.433 111.478 105.925  1.00  0.00     0.032 C 
ATOM      7  C   UNL     1     108.120 110.027 106.197  1.00  0.00     0.139 C 
ATOM      8  O   UNL     1     107.832 109.547 107.283  1.00  0.00    -0.299 OA
ATOM      9  C   UNL     1     108.117 109.286 104.896  1.00  0.00     0.080 C 
ATOM     10  C   UNL     1     108.927 112.273 107.139  1.00  0.00     0.020 C 
ATOM     11  C   UNL     1     109.807 112.673 104.037  1.00  0.00     0.012 C 
ENDROOT
TORSDOF 0
ENDMDL
