MODEL 1
REMARK VINA RESULT:    -3.624      0.000      0.000
REMARK INTER + INTRA:          -4.303
REMARK INTER:                  -4.259
REMARK INTRA:                  -0.044
REMARK UNBOUND:                -0.044
REMARK SMILES O=C([O-])CCC(=O)[O-]
REMARK SMILES IDX 4 1 2 2 1 3 3 4 5 5 6 6 7 7 8 8
REMARK H PARENT
REMARK Flexibility Score: inf
ROOT
ATOM      1  C   UNL     1      15.131  46.122   9.244  1.00  0.00     0.059 C 
ENDROOT
BRANCH   1   2
ATOM      2  C   UNL     1      14.656  47.371   9.922  1.00  0.00     0.042 C 
ATOM      3  O   UNL     1      14.350  48.385   9.240  1.00  0.00    -0.550 OA
ATOM      4  O   UNL     1      14.589  47.428  11.307  1.00  0.00    -0.550 OA
ENDBRANCH   1   2
BRANCH   1   5
ATOM      5  C   UNL     1      13.964  45.201   8.875  1.00  0.00     0.059 C 
BRANCH   5   6
ATOM      6  C   UNL     1      14.232  43.784   9.278  1.00  0.00     0.042 C 
ATOM      7  O   UNL     1      13.291  42.949   9.325  1.00  0.00    -0.550 OA
ATOM      8  O   UNL     1      15.515  43.394   9.639  1.00  0.00    -0.550 OA
ENDBRANCH   5   6
ENDBRANCH   1   5
TORSDOF 3
ENDMDL
MODEL 2
REMARK VINA RESULT:    -3.543      8.286      9.173
REMARK INTER + INTRA:          -4.208
REMARK INTER:                  -4.245
REMARK INTRA:                   0.037
REMARK UNBOUND:                -0.044
REMARK SMILES O=C([O-])CCC(=O)[O-]
REMARK SMILES IDX 4 1 2 2 1 3 3 4 5 5 6 6 7 7 8 8
REMARK H PARENT
REMARK Flexibility Score: inf
ROOT
ATOM      1  C   UNL     1       6.798  47.443   9.970  1.00  0.00     0.059 C 
ENDROOT
BRANCH   1   2
ATOM      2  C   UNL     1       7.811  48.235  10.739  1.00  0.00     0.042 C 
ATOM      3  O   UNL     1       8.410  47.718  11.719  1.00  0.00    -0.550 OA
ATOM      4  O   UNL     1       8.063  49.558  10.399  1.00  0.00    -0.550 OA
ENDBRANCH   1   2
BRANCH   1   5
ATOM      5  C   UNL     1       6.121  48.291   8.889  1.00  0.00     0.059 C 
BRANCH   5   6
ATOM      6  C   UNL     1       5.064  49.180   9.468  1.00  0.00     0.042 C 
ATOM      7  O   UNL     1       4.345  48.774  10.418  1.00  0.00    -0.550 OA
ATOM      8  O   UNL     1       4.847  50.442   8.932  1.00  0.00    -0.550 OA
ENDBRANCH   5   6
ENDBRANCH   1   5
TORSDOF 3
ENDMDL
MODEL 3
REMARK VINA RESULT:    -3.520      8.341      9.079
REMARK INTER + INTRA:          -4.181
REMARK INTER:                  -4.185
REMARK INTRA:                   0.004
REMARK UNBOUND:                -0.044
REMARK SMILES O=C([O-])CCC(=O)[O-]
REMARK SMILES IDX 4 1 2 2 1 3 3 4 5 5 6 6 7 7 8 8
REMARK H PARENT
REMARK Flexibility Score: inf
ROOT
ATOM      1  C   UNL     1       6.060  48.301   8.875  1.00  0.00     0.059 C 
ENDROOT
BRANCH   1   2
ATOM      2  C   UNL     1       5.004  49.234   9.386  1.00  0.00     0.042 C 
ATOM      3  O   UNL     1       4.921  50.407   8.934  1.00  0.00    -0.550 OA
ATOM      4  O   UNL     1       4.139  48.822  10.391  1.00  0.00    -0.550 OA
ENDBRANCH   1   2
BRANCH   1   5
ATOM      5  C   UNL     1       6.701  47.498  10.012  1.00  0.00     0.059 C 
BRANCH   5   6
ATOM      6  C   UNL     1       7.775  48.280  10.702  1.00  0.00     0.042 C 
ATOM      7  O   UNL     1       8.410  47.774  11.664  1.00  0.00    -0.550 OA
ATOM      8  O   UNL     1       8.050  49.583  10.307  1.00  0.00    -0.550 OA
ENDBRANCH   5   6
ENDBRANCH   1   5
TORSDOF 3
ENDMDL
MODEL 4
REMARK VINA RESULT:    -3.381      8.328      9.261
REMARK INTER + INTRA:          -4.018
REMARK INTER:                  -3.970
REMARK INTRA:                  -0.048
REMARK UNBOUND:                -0.044
REMARK SMILES O=C([O-])CCC(=O)[O-]
REMARK SMILES IDX 4 1 2 2 1 3 3 4 5 5 6 6 7 7 8 8
REMARK H PARENT
REMARK Flexibility Score: inf
ROOT
ATOM      1  C   UNL     1       6.460  47.469  10.106  1.00  0.00     0.059 C 
ENDROOT
BRANCH   1   2
ATOM      2  C   UNL     1       7.928  47.721  10.270  1.00  0.00     0.042 C 
ATOM      3  O   UNL     1       8.423  47.858  11.420  1.00  0.00    -0.550 OA
ATOM      4  O   UNL     1       8.741  47.845   9.151  1.00  0.00    -0.550 OA
ENDBRANCH   1   2
BRANCH   1   5
ATOM      5  C   UNL     1       5.883  48.250   8.920  1.00  0.00     0.059 C 
BRANCH   5   6
ATOM      6  C   UNL     1       4.882  49.270   9.366  1.00  0.00     0.042 C 
ATOM      7  O   UNL     1       4.898  50.431   8.877  1.00  0.00    -0.550 OA
ATOM      8  O   UNL     1       3.956  48.952  10.351  1.00  0.00    -0.550 OA
ENDBRANCH   5   6
ENDBRANCH   1   5
TORSDOF 3
ENDMDL
MODEL 5
REMARK VINA RESULT:    -2.701      8.276      8.784
REMARK INTER + INTRA:          -3.219
REMARK INTER:                  -3.189
REMARK INTRA:                  -0.030
REMARK UNBOUND:                -0.044
REMARK SMILES O=C([O-])CCC(=O)[O-]
REMARK SMILES IDX 4 1 2 2 1 3 3 4 5 5 6 6 7 7 8 8
REMARK H PARENT
REMARK Flexibility Score: inf
ROOT
ATOM      1  C   UNL     1       6.747  49.851   9.878  1.00  0.00     0.059 C 
ENDROOT
BRANCH   1   2
ATOM      2  C   UNL     1       5.282  49.614   9.668  1.00  0.00     0.042 C 
ATOM      3  O   UNL     1       4.630  50.345   8.875  1.00  0.00    -0.550 OA
ATOM      4  O   UNL     1       4.630  48.615  10.377  1.00  0.00    -0.550 OA
ENDBRANCH   1   2
BRANCH   1   5
ATOM      5  C   UNL     1       7.598  48.839   9.104  1.00  0.00     0.059 C 
BRANCH   5   6
ATOM      6  C   UNL     1       7.591  47.494   9.763  1.00  0.00     0.042 C 
ATOM      7  O   UNL     1       7.808  47.392  10.999  1.00  0.00    -0.550 OA
ATOM      8  O   UNL     1       7.382  46.350   9.006  1.00  0.00    -0.550 OA
ENDBRANCH   5   6
ENDBRANCH   1   5
TORSDOF 3
ENDMDL
MODEL 6
REMARK VINA RESULT:    -2.089      8.323      8.885
REMARK INTER + INTRA:          -2.499
REMARK INTER:                  -2.420
REMARK INTRA:                  -0.078
REMARK UNBOUND:                -0.044
REMARK SMILES O=C([O-])CCC(=O)[O-]
REMARK SMILES IDX 4 1 2 2 1 3 3 4 5 5 6 6 7 7 8 8
REMARK H PARENT
REMARK Flexibility Score: inf
ROOT
ATOM      1  C   UNL     1       5.694  47.785  10.545  1.00  0.00     0.059 C 
ENDROOT
BRANCH   1   2
ATOM      2  C   UNL     1       4.761  48.778   9.922  1.00  0.00     0.042 C 
ATOM      3  O   UNL     1       3.540  48.783  10.234  1.00  0.00    -0.550 OA
ATOM      4  O   UNL     1       5.231  49.672   8.969  1.00  0.00    -0.550 OA
ENDBRANCH   1   2
BRANCH   1   5
ATOM      5  C   UNL     1       7.154  48.235  10.432  1.00  0.00     0.059 C 
BRANCH   5   6
ATOM      6  C   UNL     1       7.876  47.500   9.345  1.00  0.00     0.042 C 
ATOM      7  O   UNL     1       7.398  46.434   8.875  1.00  0.00    -0.550 OA
ATOM      8  O   UNL     1       9.095  47.971   8.878  1.00  0.00    -0.550 OA
ENDBRANCH   5   6
ENDBRANCH   1   5
TORSDOF 3
ENDMDL
