MODEL 1
REMARK VINA RESULT:    -3.901      0.000      0.000
REMARK INTER + INTRA:          -4.953
REMARK INTER:                  -4.699
REMARK INTRA:                  -0.254
REMARK UNBOUND:                -0.254
REMARK SMILES NC(=O)C[C@@H]([NH3+])C(=O)[O-]
REMARK SMILES IDX 4 1 5 2 6 3 7 7 8 8 9 9 2 10 3 11 1 12
REMARK H PARENT 6 4 6 5 6 6 1 13 1 14
REMARK Flexibility Score: inf
ROOT
ATOM      1  C   UNL     1      23.939 -24.127  23.894  1.00  0.00     0.171 C 
ENDROOT
BRANCH   1   2
ATOM      2  C   UNL     1      23.091 -25.026  24.815  1.00  0.00     0.237 C 
BRANCH   2   3
ATOM      3  N   UNL     1      23.903 -26.128  25.346  1.00  0.00    -0.350 N 
ATOM      4  H   UNL     1      24.345 -25.858  26.255  1.00  0.00     0.345 HD
ATOM      5  H   UNL     1      23.302 -26.973  25.493  1.00  0.00     0.345 HD
ATOM      6  H   UNL     1      24.654 -26.377  24.661  1.00  0.00     0.345 HD
ENDBRANCH   2   3
BRANCH   2   7
ATOM      7  C   UNL     1      22.499 -24.229  25.949  1.00  0.00     0.100 C 
ATOM      8  O   UNL     1      21.838 -23.184  25.710  1.00  0.00    -0.544 OA
ATOM      9  O   UNL     1      22.689 -24.633  27.266  1.00  0.00    -0.544 OA
ENDBRANCH   2   7
ENDBRANCH   1   2
BRANCH   1  10
ATOM     10  C   UNL     1      25.034 -24.903  23.219  1.00  0.00     0.223 C 
ATOM     11  O   UNL     1      26.199 -24.883  23.697  1.00  0.00    -0.275 OA
ATOM     12  N   UNL     1      24.755 -25.693  22.063  1.00  0.00    -0.369 N 
ATOM     13  H   UNL     1      23.791 -25.736  21.665  1.00  0.00     0.159 HD
ATOM     14  H   UNL     1      25.517 -26.243  21.606  1.00  0.00     0.159 HD
ENDBRANCH   1  10
TORSDOF 4
ENDMDL
MODEL 2
REMARK VINA RESULT:    -3.840      1.947      4.052
REMARK INTER + INTRA:          -4.879
REMARK INTER:                  -4.623
REMARK INTRA:                  -0.256
REMARK UNBOUND:                -0.254
REMARK SMILES NC(=O)C[C@@H]([NH3+])C(=O)[O-]
REMARK SMILES IDX 4 1 5 2 6 3 7 7 8 8 9 9 2 10 3 11 1 12
REMARK H PARENT 6 4 6 5 6 6 1 13 1 14
REMARK Flexibility Score: inf
ROOT
ATOM      1  C   UNL     1      23.176 -23.357  24.308  1.00  0.00     0.171 C 
ENDROOT
BRANCH   1   2
ATOM      2  C   UNL     1      24.023 -24.638  24.449  1.00  0.00     0.237 C 
BRANCH   2   3
ATOM      3  N   UNL     1      23.172 -25.829  24.340  1.00  0.00    -0.350 N 
ATOM      4  H   UNL     1      22.376 -25.779  25.017  1.00  0.00     0.345 HD
ATOM      5  H   UNL     1      22.793 -25.907  23.368  1.00  0.00     0.345 HD
ATOM      6  H   UNL     1      23.737 -26.687  24.540  1.00  0.00     0.345 HD
ENDBRANCH   2   3
BRANCH   2   7
ATOM      7  C   UNL     1      25.110 -24.682  23.406  1.00  0.00     0.100 C 
ATOM      8  O   UNL     1      25.036 -25.497  22.450  1.00  0.00    -0.544 OA
ATOM      9  O   UNL     1      26.207 -23.832  23.499  1.00  0.00    -0.544 OA
ENDBRANCH   2   7
ENDBRANCH   1   2
BRANCH   1  10
ATOM     10  C   UNL     1      22.346 -23.104  25.534  1.00  0.00     0.223 C 
ATOM     11  O   UNL     1      22.324 -23.957  26.460  1.00  0.00    -0.275 OA
ATOM     12  N   UNL     1      21.615 -21.886  25.676  1.00  0.00    -0.369 N 
ATOM     13  H   UNL     1      21.637 -21.160  24.926  1.00  0.00     0.159 HD
ATOM     14  H   UNL     1      21.051 -21.709  26.537  1.00  0.00     0.159 HD
ENDBRANCH   1  10
TORSDOF 4
ENDMDL
MODEL 3
REMARK VINA RESULT:    -3.829      1.885      2.243
REMARK INTER + INTRA:          -4.867
REMARK INTER:                  -4.598
REMARK INTRA:                  -0.269
REMARK UNBOUND:                -0.254
REMARK SMILES NC(=O)C[C@@H]([NH3+])C(=O)[O-]
REMARK SMILES IDX 4 1 5 2 6 3 7 7 8 8 9 9 2 10 3 11 1 12
REMARK H PARENT 6 4 6 5 6 6 1 13 1 14
REMARK Flexibility Score: inf
ROOT
ATOM      1  C   UNL     1      23.876 -23.967  23.695  1.00  0.00     0.171 C 
ENDROOT
BRANCH   1   2
ATOM      2  C   UNL     1      24.338 -22.971  24.778  1.00  0.00     0.237 C 
BRANCH   2   3
ATOM      3  N   UNL     1      25.148 -21.903  24.181  1.00  0.00    -0.350 N 
ATOM      4  H   UNL     1      25.407 -22.141  23.195  1.00  0.00     0.345 HD
ATOM      5  H   UNL     1      24.613 -21.004  24.189  1.00  0.00     0.345 HD
ATOM      6  H   UNL     1      26.022 -21.767  24.740  1.00  0.00     0.345 HD
ENDBRANCH   2   3
BRANCH   2   7
ATOM      7  C   UNL     1      23.157 -22.379  25.504  1.00  0.00     0.100 C 
ATOM      8  O   UNL     1      22.103 -23.052  25.652  1.00  0.00    -0.544 OA
ATOM      9  O   UNL     1      23.218 -21.083  26.004  1.00  0.00    -0.544 OA
ENDBRANCH   2   7
ENDBRANCH   1   2
BRANCH   1  10
ATOM     10  C   UNL     1      25.024 -24.773  23.159  1.00  0.00     0.223 C 
ATOM     11  O   UNL     1      26.153 -24.696  23.711  1.00  0.00    -0.275 OA
ATOM     12  N   UNL     1      24.835 -25.657  22.054  1.00  0.00    -0.369 N 
ATOM     13  H   UNL     1      23.901 -25.748  21.596  1.00  0.00     0.159 HD
ATOM     14  H   UNL     1      25.633 -26.227  21.693  1.00  0.00     0.159 HD
ENDBRANCH   1  10
TORSDOF 4
ENDMDL
MODEL 4
REMARK VINA RESULT:    -3.810      1.217      1.618
REMARK INTER + INTRA:          -4.844
REMARK INTER:                  -4.715
REMARK INTRA:                  -0.129
REMARK UNBOUND:                -0.254
REMARK SMILES NC(=O)C[C@@H]([NH3+])C(=O)[O-]
REMARK SMILES IDX 4 1 5 2 6 3 7 7 8 8 9 9 2 10 3 11 1 12
REMARK H PARENT 6 4 6 5 6 6 1 13 1 14
REMARK Flexibility Score: inf
ROOT
ATOM      1  C   UNL     1      24.250 -24.853  24.752  1.00  0.00     0.171 C 
ENDROOT
BRANCH   1   2
ATOM      2  C   UNL     1      22.748 -24.827  25.100  1.00  0.00     0.237 C 
BRANCH   2   3
ATOM      3  N   UNL     1      22.355 -26.073  25.769  1.00  0.00    -0.350 N 
ATOM      4  H   UNL     1      22.934 -26.875  25.428  1.00  0.00     0.345 HD
ATOM      5  H   UNL     1      22.478 -25.974  26.804  1.00  0.00     0.345 HD
ATOM      6  H   UNL     1      21.346 -26.275  25.578  1.00  0.00     0.345 HD
ENDBRANCH   2   3
BRANCH   2   7
ATOM      7  C   UNL     1      22.418 -23.645  25.974  1.00  0.00     0.100 C 
ATOM      8  O   UNL     1      22.485 -23.747  27.228  1.00  0.00    -0.544 OA
ATOM      9  O   UNL     1      22.027 -22.438  25.405  1.00  0.00    -0.544 OA
ENDBRANCH   2   7
ENDBRANCH   1   2
BRANCH   1  10
ATOM     10  C   UNL     1      24.505 -24.338  23.364  1.00  0.00     0.223 C 
ATOM     11  O   UNL     1      24.492 -23.098  23.145  1.00  0.00    -0.275 OA
ATOM     12  N   UNL     1      24.802 -25.242  22.300  1.00  0.00    -0.369 N 
ATOM     13  H   UNL     1      24.836 -26.272  22.467  1.00  0.00     0.159 HD
ATOM     14  H   UNL     1      24.994 -24.879  21.339  1.00  0.00     0.159 HD
ENDBRANCH   1  10
TORSDOF 4
ENDMDL
MODEL 5
REMARK VINA RESULT:    -3.778      1.728      3.409
REMARK INTER + INTRA:          -4.805
REMARK INTER:                  -4.639
REMARK INTRA:                  -0.166
REMARK UNBOUND:                -0.254
REMARK SMILES NC(=O)C[C@@H]([NH3+])C(=O)[O-]
REMARK SMILES IDX 4 1 5 2 6 3 7 7 8 8 9 9 2 10 3 11 1 12
REMARK H PARENT 6 4 6 5 6 6 1 13 1 14
REMARK Flexibility Score: inf
ROOT
ATOM      1  C   UNL     1      23.685 -26.076  24.289  1.00  0.00     0.171 C 
ENDROOT
BRANCH   1   2
ATOM      2  C   UNL     1      24.757 -25.268  23.530  1.00  0.00     0.237 C 
BRANCH   2   3
ATOM      3  N   UNL     1      24.798 -25.669  22.119  1.00  0.00    -0.350 N 
ATOM      4  H   UNL     1      23.956 -25.316  21.608  1.00  0.00     0.345 HD
ATOM      5  H   UNL     1      25.661 -25.287  21.666  1.00  0.00     0.345 HD
ATOM      6  H   UNL     1      24.827 -26.712  22.048  1.00  0.00     0.345 HD
ENDBRANCH   2   3
BRANCH   2   7
ATOM      7  C   UNL     1      24.492 -23.788  23.638  1.00  0.00     0.100 C 
ATOM      8  O   UNL     1      25.445 -22.968  23.568  1.00  0.00    -0.544 OA
ATOM      9  O   UNL     1      23.197 -23.319  23.829  1.00  0.00    -0.544 OA
ENDBRANCH   2   7
ENDBRANCH   1   2
BRANCH   1  10
ATOM     10  C   UNL     1      23.719 -25.794  25.763  1.00  0.00     0.223 C 
ATOM     11  O   UNL     1      24.763 -26.045  26.423  1.00  0.00    -0.275 OA
ATOM     12  N   UNL     1      22.594 -25.205  26.415  1.00  0.00    -0.369 N 
ATOM     13  H   UNL     1      21.728 -24.973  25.880  1.00  0.00     0.159 HD
ATOM     14  H   UNL     1      22.628 -24.998  27.439  1.00  0.00     0.159 HD
ENDBRANCH   1  10
TORSDOF 4
ENDMDL
MODEL 6
REMARK VINA RESULT:    -3.758     10.909     11.380
REMARK INTER + INTRA:          -4.782
REMARK INTER:                  -4.495
REMARK INTRA:                  -0.286
REMARK UNBOUND:                -0.254
REMARK SMILES NC(=O)C[C@@H]([NH3+])C(=O)[O-]
REMARK SMILES IDX 4 1 5 2 6 3 7 7 8 8 9 9 2 10 3 11 1 12
REMARK H PARENT 6 4 6 5 6 6 1 13 1 14
REMARK Flexibility Score: inf
ROOT
ATOM      1  C   UNL     1      27.583 -17.570  31.086  1.00  0.00     0.171 C 
ENDROOT
BRANCH   1   2
ATOM      2  C   UNL     1      26.507 -16.472  31.209  1.00  0.00     0.237 C 
BRANCH   2   3
ATOM      3  N   UNL     1      26.795 -15.599  32.353  1.00  0.00    -0.350 N 
ATOM      4  H   UNL     1      26.474 -16.041  33.246  1.00  0.00     0.345 HD
ATOM      5  H   UNL     1      27.823 -15.415  32.410  1.00  0.00     0.345 HD
ATOM      6  H   UNL     1      26.305 -14.682  32.231  1.00  0.00     0.345 HD
ENDBRANCH   2   3
BRANCH   2   7
ATOM      7  C   UNL     1      26.424 -15.656  29.945  1.00  0.00     0.100 C 
ATOM      8  O   UNL     1      25.446 -14.886  29.753  1.00  0.00    -0.544 OA
ATOM      9  O   UNL     1      27.417 -15.757  28.977  1.00  0.00    -0.544 OA
ENDBRANCH   2   7
ENDBRANCH   1   2
BRANCH   1  10
ATOM     10  C   UNL     1      27.894 -18.192  32.417  1.00  0.00     0.223 C 
ATOM     11  O   UNL     1      26.957 -18.471  33.211  1.00  0.00    -0.275 OA
ATOM     12  N   UNL     1      29.240 -18.508  32.772  1.00  0.00    -0.369 N 
ATOM     13  H   UNL     1      30.028 -18.301  32.118  1.00  0.00     0.159 HD
ATOM     14  H   UNL     1      29.451 -18.953  33.693  1.00  0.00     0.159 HD
ENDBRANCH   1  10
TORSDOF 4
ENDMDL
MODEL 7
REMARK VINA RESULT:    -3.736      1.697      1.752
REMARK INTER + INTRA:          -4.755
REMARK INTER:                  -4.575
REMARK INTRA:                  -0.180
REMARK UNBOUND:                -0.254
REMARK SMILES NC(=O)C[C@@H]([NH3+])C(=O)[O-]
REMARK SMILES IDX 4 1 5 2 6 3 7 7 8 8 9 9 2 10 3 11 1 12
REMARK H PARENT 6 4 6 5 6 6 1 13 1 14
REMARK Flexibility Score: inf
ROOT
ATOM      1  C   UNL     1      23.995 -23.788  23.507  1.00  0.00     0.171 C 
ENDROOT
BRANCH   1   2
ATOM      2  C   UNL     1      23.721 -23.871  25.022  1.00  0.00     0.237 C 
BRANCH   2   3
ATOM      3  N   UNL     1      22.738 -22.857  25.422  1.00  0.00    -0.350 N 
ATOM      4  H   UNL     1      23.117 -22.258  26.192  1.00  0.00     0.345 HD
ATOM      5  H   UNL     1      22.499 -22.252  24.602  1.00  0.00     0.345 HD
ATOM      6  H   UNL     1      21.861 -23.323  25.751  1.00  0.00     0.345 HD
ENDBRANCH   2   3
BRANCH   2   7
ATOM      7  C   UNL     1      23.231 -25.244  25.405  1.00  0.00     0.100 C 
ATOM      8  O   UNL     1      22.088 -25.631  25.045  1.00  0.00    -0.544 OA
ATOM      9  O   UNL     1      24.031 -26.087  26.169  1.00  0.00    -0.544 OA
ENDBRANCH   2   7
ENDBRANCH   1   2
BRANCH   1  10
ATOM     10  C   UNL     1      25.055 -24.763  23.082  1.00  0.00     0.223 C 
ATOM     11  O   UNL     1      26.179 -24.752  23.651  1.00  0.00    -0.275 OA
ATOM     12  N   UNL     1      24.786 -25.728  22.065  1.00  0.00    -0.369 N 
ATOM     13  H   UNL     1      23.854 -25.765  21.596  1.00  0.00     0.159 HD
ATOM     14  H   UNL     1      25.522 -26.414  21.783  1.00  0.00     0.159 HD
ENDBRANCH   1  10
TORSDOF 4
ENDMDL
MODEL 8
REMARK VINA RESULT:    -3.726     14.501     15.292
REMARK INTER + INTRA:          -4.743
REMARK INTER:                  -4.474
REMARK INTRA:                  -0.269
REMARK UNBOUND:                -0.254
REMARK SMILES NC(=O)C[C@@H]([NH3+])C(=O)[O-]
REMARK SMILES IDX 4 1 5 2 6 3 7 7 8 8 9 9 2 10 3 11 1 12
REMARK H PARENT 6 4 6 5 6 6 1 13 1 14
REMARK Flexibility Score: inf
ROOT
ATOM      1  C   UNL     1      24.798 -30.541  37.676  1.00  0.00     0.171 C 
ENDROOT
BRANCH   1   2
ATOM      2  C   UNL     1      25.600 -29.839  38.790  1.00  0.00     0.237 C 
BRANCH   2   3
ATOM      3  N   UNL     1      26.114 -30.824  39.750  1.00  0.00    -0.350 N 
ATOM      4  H   UNL     1      26.449 -31.683  39.255  1.00  0.00     0.345 HD
ATOM      5  H   UNL     1      26.906 -30.410  40.294  1.00  0.00     0.345 HD
ATOM      6  H   UNL     1      25.359 -31.090  40.423  1.00  0.00     0.345 HD
ENDBRANCH   2   3
BRANCH   2   7
ATOM      7  C   UNL     1      26.738 -29.039  38.211  1.00  0.00     0.100 C 
ATOM      8  O   UNL     1      27.135 -27.994  38.790  1.00  0.00    -0.544 OA
ATOM      9  O   UNL     1      27.350 -29.443  37.029  1.00  0.00    -0.544 OA
ENDBRANCH   2   7
ENDBRANCH   1   2
BRANCH   1  10
ATOM     10  C   UNL     1      23.903 -31.613  38.229  1.00  0.00     0.223 C 
ATOM     11  O   UNL     1      23.025 -31.316  39.081  1.00  0.00    -0.275 OA
ATOM     12  N   UNL     1      24.014 -32.959  37.766  1.00  0.00    -0.369 N 
ATOM     13  H   UNL     1      24.723 -33.220  37.046  1.00  0.00     0.159 HD
ATOM     14  H   UNL     1      23.380 -33.699  38.143  1.00  0.00     0.159 HD
ENDBRANCH   1  10
TORSDOF 4
ENDMDL
MODEL 9
REMARK VINA RESULT:    -3.717      8.417      9.187
REMARK INTER + INTRA:          -4.732
REMARK INTER:                  -4.247
REMARK INTRA:                  -0.485
REMARK UNBOUND:                -0.254
REMARK SMILES NC(=O)C[C@@H]([NH3+])C(=O)[O-]
REMARK SMILES IDX 4 1 5 2 6 3 7 7 8 8 9 9 2 10 3 11 1 12
REMARK H PARENT 6 4 6 5 6 6 1 13 1 14
REMARK Flexibility Score: inf
ROOT
ATOM      1  C   UNL     1      27.255 -27.933  31.376  1.00  0.00     0.171 C 
ENDROOT
BRANCH   1   2
ATOM      2  C   UNL     1      26.199 -28.588  32.289  1.00  0.00     0.237 C 
BRANCH   2   3
ATOM      3  N   UNL     1      25.455 -29.618  31.554  1.00  0.00    -0.350 N 
ATOM      4  H   UNL     1      24.529 -29.248  31.235  1.00  0.00     0.345 HD
ATOM      5  H   UNL     1      26.006 -29.929  30.721  1.00  0.00     0.345 HD
ATOM      6  H   UNL     1      25.297 -30.449  32.170  1.00  0.00     0.345 HD
ENDBRANCH   2   3
BRANCH   2   7
ATOM      7  C   UNL     1      26.843 -29.191  33.511  1.00  0.00     0.100 C 
ATOM      8  O   UNL     1      27.880 -29.897  33.397  1.00  0.00    -0.544 OA
ATOM      9  O   UNL     1      26.292 -28.982  34.770  1.00  0.00    -0.544 OA
ENDBRANCH   2   7
ENDBRANCH   1   2
BRANCH   1  10
ATOM     10  C   UNL     1      27.630 -28.828  30.230  1.00  0.00     0.223 C 
ATOM     11  O   UNL     1      27.002 -28.745  29.141  1.00  0.00    -0.275 OA
ATOM     12  N   UNL     1      28.718 -29.744  30.352  1.00  0.00    -0.369 N 
ATOM     13  H   UNL     1      29.262 -29.813  31.240  1.00  0.00     0.159 HD
ATOM     14  H   UNL     1      28.983 -30.355  29.547  1.00  0.00     0.159 HD
ENDBRANCH   1  10
TORSDOF 4
ENDMDL
