MODEL 1
REMARK VINA RESULT:    -6.958      0.000      0.000
REMARK INTER + INTRA:          -8.272
REMARK INTER:                  -7.975
REMARK INTRA:                  -0.297
REMARK UNBOUND:                -0.297
REMARK SMILES O=C1C[C@@H](c2ccc(O)cc2)Oc2cc(O)cc(O)c21
REMARK SMILES IDX 3 1 4 2 12 3 13 4 14 5 15 6 17 7 18 8 20 9 2 10 1 11 5 12
REMARK SMILES IDX 6 13 11 14 7 15 10 16 8 17 9 18 19 20 16 22
REMARK H PARENT 9 19 19 21 16 23
REMARK Flexibility Score: inf
ROOT
ATOM      1  C   UNL     1     107.265 122.482 118.794  1.00  0.00     0.131 C 
ATOM      2  C   UNL     1     107.216 121.253 119.708  1.00  0.00     0.211 C 
ATOM      3  O   UNL     1     106.596 121.588 120.949  1.00  0.00    -0.484 OA
ATOM      4  C   UNL     1     105.418 122.341 121.003  1.00  0.00     0.138 A 
ATOM      5  C   UNL     1     104.689 122.365 122.194  1.00  0.00     0.093 A 
ATOM      6  C   UNL     1     103.497 123.084 122.275  1.00  0.00     0.123 A 
ATOM      7  C   UNL     1     103.022 123.768 121.152  1.00  0.00     0.093 A 
ATOM      8  C   UNL     1     103.732 123.752 119.945  1.00  0.00     0.133 A 
ATOM      9  C   UNL     1     104.979 123.069 119.874  1.00  0.00     0.102 A 
ATOM     10  C   UNL     1     105.911 123.131 118.709  1.00  0.00     0.174 C 
ATOM     11  O   UNL     1     105.645 123.811 117.684  1.00  0.00    -0.294 OA
ENDROOT
BRANCH   2  12
ATOM     12  C   UNL     1     108.603 120.710 119.952  1.00  0.00    -0.007 A 
ATOM     13  C   UNL     1     109.119 119.675 119.152  1.00  0.00     0.011 A 
ATOM     14  C   UNL     1     109.375 121.197 121.021  1.00  0.00     0.011 A 
ATOM     15  C   UNL     1     110.392 119.155 119.403  1.00  0.00     0.046 A 
ATOM     16  C   UNL     1     110.648 120.675 121.269  1.00  0.00     0.046 A 
ATOM     17  C   UNL     1     111.161 119.656 120.462  1.00  0.00     0.115 A 
BRANCH  17  18
ATOM     18  O   UNL     1     112.431 119.146 120.721  1.00  0.00    -0.508 OA
ATOM     19  H   UNL     1     112.579 118.415 121.408  1.00  0.00     0.293 HD
ENDBRANCH  17  18
ENDBRANCH   2  12
BRANCH   8  20
ATOM     20  O   UNL     1     103.147 124.409 118.860  1.00  0.00    -0.507 OA
ATOM     21  H   UNL     1     102.165 124.625 118.784  1.00  0.00     0.293 HD
ENDBRANCH   8  20
BRANCH   6  22
ATOM     22  O   UNL     1     102.786 123.103 123.473  1.00  0.00    -0.508 OA
ATOM     23  H   UNL     1     102.379 122.261 123.862  1.00  0.00     0.293 HD
ENDBRANCH   6  22
TORSDOF 4
ENDMDL
MODEL 2
REMARK VINA RESULT:    -6.750      1.967      2.785
REMARK INTER + INTRA:          -8.034
REMARK INTER:                  -7.751
REMARK INTRA:                  -0.283
REMARK UNBOUND:                -0.297
REMARK SMILES O=C1C[C@@H](c2ccc(O)cc2)Oc2cc(O)cc(O)c21
REMARK SMILES IDX 3 1 4 2 12 3 13 4 14 5 15 6 17 7 18 8 20 9 2 10 1 11 5 12
REMARK SMILES IDX 6 13 11 14 7 15 10 16 8 17 9 18 19 20 16 22
REMARK H PARENT 9 19 19 21 16 23
REMARK Flexibility Score: inf
ROOT
ATOM      1  C   UNL     1     106.273 119.806 119.916  1.00  0.00     0.131 C 
ATOM      2  C   UNL     1     107.129 120.960 120.447  1.00  0.00     0.211 C 
ATOM      3  O   UNL     1     106.985 122.105 119.606  1.00  0.00    -0.484 OA
ATOM      4  C   UNL     1     105.733 122.533 119.154  1.00  0.00     0.138 A 
ATOM      5  C   UNL     1     105.614 123.816 118.616  1.00  0.00     0.093 A 
ATOM      6  C   UNL     1     104.376 124.284 118.180  1.00  0.00     0.123 A 
ATOM      7  C   UNL     1     103.245 123.471 118.299  1.00  0.00     0.093 A 
ATOM      8  C   UNL     1     103.338 122.184 118.843  1.00  0.00     0.133 A 
ATOM      9  C   UNL     1     104.610 121.678 119.236  1.00  0.00     0.102 A 
ATOM     10  C   UNL     1     104.866 120.268 119.654  1.00  0.00     0.174 C 
ATOM     11  O   UNL     1     103.946 119.411 119.690  1.00  0.00    -0.294 OA
ENDROOT
BRANCH   2  12
ATOM     12  C   UNL     1     108.581 120.557 120.530  1.00  0.00    -0.007 A 
ATOM     13  C   UNL     1     109.176 119.804 119.503  1.00  0.00     0.011 A 
ATOM     14  C   UNL     1     109.342 120.885 121.666  1.00  0.00     0.011 A 
ATOM     15  C   UNL     1     110.513 119.407 119.600  1.00  0.00     0.046 A 
ATOM     16  C   UNL     1     110.679 120.486 121.761  1.00  0.00     0.046 A 
ATOM     17  C   UNL     1     111.268 119.750 120.730  1.00  0.00     0.115 A 
BRANCH  17  18
ATOM     18  O   UNL     1     112.601 119.360 120.838  1.00  0.00    -0.508 OA
ATOM     19  H   UNL     1     112.877 118.564 121.402  1.00  0.00     0.293 HD
ENDBRANCH  17  18
ENDBRANCH   2  12
BRANCH   8  20
ATOM     20  O   UNL     1     102.145 121.470 118.984  1.00  0.00    -0.507 OA
ATOM     21  H   UNL     1     101.838 121.033 119.838  1.00  0.00     0.293 HD
ENDBRANCH   8  20
BRANCH   6  22
ATOM     22  O   UNL     1     104.277 125.564 117.639  1.00  0.00    -0.508 OA
ATOM     23  H   UNL     1     104.449 125.739 116.656  1.00  0.00     0.293 HD
ENDBRANCH   6  22
TORSDOF 4
ENDMDL
MODEL 3
REMARK VINA RESULT:    -6.721      1.942      2.977
REMARK INTER + INTRA:          -8.001
REMARK INTER:                  -7.716
REMARK INTRA:                  -0.284
REMARK UNBOUND:                -0.297
REMARK SMILES O=C1C[C@@H](c2ccc(O)cc2)Oc2cc(O)cc(O)c21
REMARK SMILES IDX 3 1 4 2 12 3 13 4 14 5 15 6 17 7 18 8 20 9 2 10 1 11 5 12
REMARK SMILES IDX 6 13 11 14 7 15 10 16 8 17 9 18 19 20 16 22
REMARK H PARENT 9 19 19 21 16 23
REMARK Flexibility Score: inf
ROOT
ATOM      1  C   UNL     1     106.229 119.790 119.987  1.00  0.00     0.131 C 
ATOM      2  C   UNL     1     107.102 120.935 120.512  1.00  0.00     0.211 C 
ATOM      3  O   UNL     1     106.977 122.076 119.665  1.00  0.00    -0.484 OA
ATOM      4  C   UNL     1     105.732 122.521 119.207  1.00  0.00     0.138 A 
ATOM      5  C   UNL     1     105.634 123.802 118.660  1.00  0.00     0.093 A 
ATOM      6  C   UNL     1     104.404 124.287 118.219  1.00  0.00     0.123 A 
ATOM      7  C   UNL     1     103.260 123.492 118.341  1.00  0.00     0.093 A 
ATOM      8  C   UNL     1     103.333 122.206 118.893  1.00  0.00     0.133 A 
ATOM      9  C   UNL     1     104.596 121.684 119.291  1.00  0.00     0.102 A 
ATOM     10  C   UNL     1     104.829 120.273 119.719  1.00  0.00     0.174 C 
ATOM     11  O   UNL     1     103.897 119.430 119.758  1.00  0.00    -0.294 OA
ENDROOT
BRANCH   2  12
ATOM     12  C   UNL     1     108.547 120.511 120.601  1.00  0.00    -0.007 A 
ATOM     13  C   UNL     1     109.327 120.850 121.720  1.00  0.00     0.011 A 
ATOM     14  C   UNL     1     109.147 119.817 119.535  1.00  0.00     0.011 A 
ATOM     15  C   UNL     1     110.674 120.482 121.782  1.00  0.00     0.046 A 
ATOM     16  C   UNL     1     110.494 119.449 119.600  1.00  0.00     0.046 A 
ATOM     17  C   UNL     1     111.260 119.777 120.722  1.00  0.00     0.115 A 
BRANCH  17  18
ATOM     18  O   UNL     1     112.601 119.404 120.773  1.00  0.00    -0.508 OA
ATOM     19  H   UNL     1     113.209 119.499 119.967  1.00  0.00     0.293 HD
ENDBRANCH  17  18
ENDBRANCH   2  12
BRANCH   8  20
ATOM     20  O   UNL     1     102.129 121.512 119.036  1.00  0.00    -0.507 OA
ATOM     21  H   UNL     1     101.714 120.935 118.321  1.00  0.00     0.293 HD
ENDBRANCH   8  20
BRANCH   6  22
ATOM     22  O   UNL     1     104.325 125.565 117.670  1.00  0.00    -0.508 OA
ATOM     23  H   UNL     1     105.031 125.912 117.031  1.00  0.00     0.293 HD
ENDBRANCH   6  22
TORSDOF 4
ENDMDL
MODEL 4
REMARK VINA RESULT:    -6.348      3.079      5.173
REMARK INTER + INTRA:          -7.573
REMARK INTER:                  -7.292
REMARK INTRA:                  -0.281
REMARK UNBOUND:                -0.297
REMARK SMILES O=C1C[C@@H](c2ccc(O)cc2)Oc2cc(O)cc(O)c21
REMARK SMILES IDX 3 1 4 2 12 3 13 4 14 5 15 6 17 7 18 8 20 9 2 10 1 11 5 12
REMARK SMILES IDX 6 13 11 14 7 15 10 16 8 17 9 18 19 20 16 22
REMARK H PARENT 9 19 19 21 16 23
REMARK Flexibility Score: inf
ROOT
ATOM      1  C   UNL     1     107.740 120.339 120.334  1.00  0.00     0.131 C 
ATOM      2  C   UNL     1     106.286 120.084 119.923  1.00  0.00     0.211 C 
ATOM      3  O   UNL     1     105.580 121.321 119.823  1.00  0.00    -0.484 OA
ATOM      4  C   UNL     1     106.131 122.432 119.176  1.00  0.00     0.138 A 
ATOM      5  C   UNL     1     105.292 123.492 118.827  1.00  0.00     0.093 A 
ATOM      6  C   UNL     1     105.803 124.603 118.157  1.00  0.00     0.123 A 
ATOM      7  C   UNL     1     107.159 124.647 117.819  1.00  0.00     0.093 A 
ATOM      8  C   UNL     1     108.018 123.592 118.152  1.00  0.00     0.133 A 
ATOM      9  C   UNL     1     107.514 122.482 118.887  1.00  0.00     0.102 A 
ATOM     10  C   UNL     1     108.360 121.392 119.457  1.00  0.00     0.174 C 
ATOM     11  O   UNL     1     109.611 121.382 119.318  1.00  0.00    -0.294 OA
ENDROOT
BRANCH   2  12
ATOM     12  C   UNL     1     105.600 119.175 120.914  1.00  0.00    -0.007 A 
ATOM     13  C   UNL     1     105.692 119.420 122.295  1.00  0.00     0.011 A 
ATOM     14  C   UNL     1     104.905 118.038 120.465  1.00  0.00     0.011 A 
ATOM     15  C   UNL     1     105.081 118.557 123.208  1.00  0.00     0.046 A 
ATOM     16  C   UNL     1     104.295 117.176 121.382  1.00  0.00     0.046 A 
ATOM     17  C   UNL     1     104.378 117.433 122.753  1.00  0.00     0.115 A 
BRANCH  17  18
ATOM     18  O   UNL     1     103.765 116.566 123.654  1.00  0.00    -0.508 OA
ATOM     19  H   UNL     1     103.421 115.657 123.365  1.00  0.00     0.293 HD
ENDBRANCH  17  18
ENDBRANCH   2  12
BRANCH   8  20
ATOM     20  O   UNL     1     109.341 123.695 117.716  1.00  0.00    -0.507 OA
ATOM     21  H   UNL     1     109.631 123.640 116.752  1.00  0.00     0.293 HD
ENDBRANCH   8  20
BRANCH   6  22
ATOM     22  O   UNL     1     104.953 125.655 117.823  1.00  0.00    -0.508 OA
ATOM     23  H   UNL     1     104.924 126.508 118.369  1.00  0.00     0.293 HD
ENDBRANCH   6  22
TORSDOF 4
ENDMDL
MODEL 5
REMARK VINA RESULT:    -6.318      2.013      6.832
REMARK INTER + INTRA:          -7.538
REMARK INTER:                  -7.226
REMARK INTRA:                  -0.312
REMARK UNBOUND:                -0.297
REMARK SMILES O=C1C[C@@H](c2ccc(O)cc2)Oc2cc(O)cc(O)c21
REMARK SMILES IDX 3 1 4 2 12 3 13 4 14 5 15 6 17 7 18 8 20 9 2 10 1 11 5 12
REMARK SMILES IDX 6 13 11 14 7 15 10 16 8 17 9 18 19 20 16 22
REMARK H PARENT 9 19 19 21 16 23
REMARK Flexibility Score: inf
ROOT
ATOM      1  C   UNL     1     105.667 121.343 121.426  1.00  0.00     0.131 C 
ATOM      2  C   UNL     1     106.179 121.512 119.992  1.00  0.00     0.211 C 
ATOM      3  O   UNL     1     107.566 121.846 120.002  1.00  0.00    -0.484 OA
ATOM      4  C   UNL     1     108.480 121.172 120.819  1.00  0.00     0.138 A 
ATOM      5  C   UNL     1     109.845 121.311 120.560  1.00  0.00     0.093 A 
ATOM      6  C   UNL     1     110.782 120.633 121.337  1.00  0.00     0.123 A 
ATOM      7  C   UNL     1     110.350 119.795 122.370  1.00  0.00     0.093 A 
ATOM      8  C   UNL     1     108.986 119.634 122.644  1.00  0.00     0.133 A 
ATOM      9  C   UNL     1     108.028 120.370 121.891  1.00  0.00     0.102 A 
ATOM     10  C   UNL     1     106.569 120.425 122.204  1.00  0.00     0.174 C 
ATOM     11  O   UNL     1     106.078 119.804 123.182  1.00  0.00    -0.294 OA
ENDROOT
BRANCH   2  12
ATOM     12  C   UNL     1     105.394 122.576 119.264  1.00  0.00    -0.007 A 
ATOM     13  C   UNL     1     106.036 123.718 118.755  1.00  0.00     0.011 A 
ATOM     14  C   UNL     1     103.999 122.462 119.135  1.00  0.00     0.011 A 
ATOM     15  C   UNL     1     105.300 124.715 118.110  1.00  0.00     0.046 A 
ATOM     16  C   UNL     1     103.265 123.461 118.489  1.00  0.00     0.046 A 
ATOM     17  C   UNL     1     103.911 124.588 117.973  1.00  0.00     0.115 A 
BRANCH  17  18
ATOM     18  O   UNL     1     103.167 125.574 117.331  1.00  0.00    -0.508 OA
ATOM     19  H   UNL     1     102.396 125.341 116.716  1.00  0.00     0.293 HD
ENDBRANCH  17  18
ENDBRANCH   2  12
BRANCH   8  20
ATOM     20  O   UNL     1     108.648 118.727 123.651  1.00  0.00    -0.507 OA
ATOM     21  H   UNL     1     107.767 118.240 123.709  1.00  0.00     0.293 HD
ENDBRANCH   8  20
BRANCH   6  22
ATOM     22  O   UNL     1     112.140 120.789 121.069  1.00  0.00    -0.508 OA
ATOM     23  H   UNL     1     112.645 121.619 121.356  1.00  0.00     0.293 HD
ENDBRANCH   6  22
TORSDOF 4
ENDMDL
MODEL 6
REMARK VINA RESULT:    -6.026      1.269      3.167
REMARK INTER + INTRA:          -7.203
REMARK INTER:                  -6.896
REMARK INTRA:                  -0.307
REMARK UNBOUND:                -0.297
REMARK SMILES O=C1C[C@@H](c2ccc(O)cc2)Oc2cc(O)cc(O)c21
REMARK SMILES IDX 3 1 4 2 12 3 13 4 14 5 15 6 17 7 18 8 20 9 2 10 1 11 5 12
REMARK SMILES IDX 6 13 11 14 7 15 10 16 8 17 9 18 19 20 16 22
REMARK H PARENT 9 19 19 21 16 23
REMARK Flexibility Score: inf
ROOT
ATOM      1  C   UNL     1     106.351 120.513 122.755  1.00  0.00     0.131 C 
ATOM      2  C   UNL     1     107.196 121.505 121.948  1.00  0.00     0.211 C 
ATOM      3  O   UNL     1     106.463 121.964 120.813  1.00  0.00    -0.484 OA
ATOM      4  C   UNL     1     105.125 122.359 120.911  1.00  0.00     0.138 A 
ATOM      5  C   UNL     1     104.560 123.091 119.865  1.00  0.00     0.093 A 
ATOM      6  C   UNL     1     103.237 123.523 119.942  1.00  0.00     0.123 A 
ATOM      7  C   UNL     1     102.479 123.236 121.080  1.00  0.00     0.093 A 
ATOM      8  C   UNL     1     103.026 122.510 122.146  1.00  0.00     0.133 A 
ATOM      9  C   UNL     1     104.357 122.016 122.047  1.00  0.00     0.102 A 
ATOM     10  C   UNL     1     104.986 121.082 123.028  1.00  0.00     0.174 C 
ATOM     11  O   UNL     1     104.361 120.660 124.035  1.00  0.00    -0.294 OA
ENDROOT
BRANCH   2  12
ATOM     12  C   UNL     1     108.493 120.871 121.507  1.00  0.00    -0.007 A 
ATOM     13  C   UNL     1     109.480 120.528 122.447  1.00  0.00     0.011 A 
ATOM     14  C   UNL     1     108.751 120.668 120.139  1.00  0.00     0.011 A 
ATOM     15  C   UNL     1     110.691 119.970 122.029  1.00  0.00     0.046 A 
ATOM     16  C   UNL     1     109.963 120.110 119.725  1.00  0.00     0.046 A 
ATOM     17  C   UNL     1     110.935 119.757 120.665  1.00  0.00     0.115 A 
BRANCH  17  18
ATOM     18  O   UNL     1     112.138 119.202 120.237  1.00  0.00    -0.508 OA
ATOM     19  H   UNL     1     112.301 118.201 120.268  1.00  0.00     0.293 HD
ENDBRANCH  17  18
ENDBRANCH   2  12
BRANCH   8  20
ATOM     20  O   UNL     1     102.214 122.329 123.268  1.00  0.00    -0.507 OA
ATOM     21  H   UNL     1     101.309 121.885 123.254  1.00  0.00     0.293 HD
ENDBRANCH   8  20
BRANCH   6  22
ATOM     22  O   UNL     1     102.688 124.247 118.885  1.00  0.00    -0.508 OA
ATOM     23  H   UNL     1     101.726 124.564 118.903  1.00  0.00     0.293 HD
ENDBRANCH   6  22
TORSDOF 4
ENDMDL
MODEL 7
REMARK VINA RESULT:    -5.957      2.747      3.649
REMARK INTER + INTRA:          -7.125
REMARK INTER:                  -6.844
REMARK INTRA:                  -0.281
REMARK UNBOUND:                -0.297
REMARK SMILES O=C1C[C@@H](c2ccc(O)cc2)Oc2cc(O)cc(O)c21
REMARK SMILES IDX 3 1 4 2 12 3 13 4 14 5 15 6 17 7 18 8 20 9 2 10 1 11 5 12
REMARK SMILES IDX 6 13 11 14 7 15 10 16 8 17 9 18 19 20 16 22
REMARK H PARENT 9 19 19 21 16 23
REMARK Flexibility Score: inf
ROOT
ATOM      1  C   UNL     1     106.608 121.698 122.036  1.00  0.00     0.131 C 
ATOM      2  C   UNL     1     107.001 120.362 121.396  1.00  0.00     0.211 C 
ATOM      3  O   UNL     1     106.534 119.278 122.198  1.00  0.00    -0.484 OA
ATOM      4  C   UNL     1     105.238 119.257 122.725  1.00  0.00     0.138 A 
ATOM      5  C   UNL     1     104.732 118.053 123.218  1.00  0.00     0.093 A 
ATOM      6  C   UNL     1     103.435 117.990 123.726  1.00  0.00     0.123 A 
ATOM      7  C   UNL     1     102.633 119.136 123.725  1.00  0.00     0.093 A 
ATOM      8  C   UNL     1     103.117 120.353 123.228  1.00  0.00     0.133 A 
ATOM      9  C   UNL     1     104.460 120.436 122.763  1.00  0.00     0.102 A 
ATOM     10  C   UNL     1     105.145 121.707 122.384  1.00  0.00     0.174 C 
ATOM     11  O   UNL     1     104.562 122.820 122.452  1.00  0.00    -0.294 OA
ENDROOT
BRANCH   2  12
ATOM     12  C   UNL     1     108.497 120.270 121.221  1.00  0.00    -0.007 A 
ATOM     13  C   UNL     1     109.053 119.909 119.981  1.00  0.00     0.011 A 
ATOM     14  C   UNL     1     109.352 120.491 122.315  1.00  0.00     0.011 A 
ATOM     15  C   UNL     1     110.438 119.795 119.833  1.00  0.00     0.046 A 
ATOM     16  C   UNL     1     110.737 120.377 122.164  1.00  0.00     0.046 A 
ATOM     17  C   UNL     1     111.284 120.031 120.926  1.00  0.00     0.115 A 
BRANCH  17  18
ATOM     18  O   UNL     1     112.666 119.921 120.790  1.00  0.00    -0.508 OA
ATOM     19  H   UNL     1     113.089 119.564 119.941  1.00  0.00     0.293 HD
ENDBRANCH  17  18
ENDBRANCH   2  12
BRANCH   8  20
ATOM     20  O   UNL     1     102.223 121.426 123.207  1.00  0.00    -0.507 OA
ATOM     21  H   UNL     1     101.526 121.575 122.494  1.00  0.00     0.293 HD
ENDBRANCH   8  20
BRANCH   6  22
ATOM     22  O   UNL     1     102.948 116.782 124.221  1.00  0.00    -0.508 OA
ATOM     23  H   UNL     1     103.293 115.892 123.882  1.00  0.00     0.293 HD
ENDBRANCH   6  22
TORSDOF 4
ENDMDL
MODEL 8
REMARK VINA RESULT:    -5.914      2.275      2.627
REMARK INTER + INTRA:          -7.076
REMARK INTER:                  -6.796
REMARK INTRA:                  -0.279
REMARK UNBOUND:                -0.297
REMARK SMILES O=C1C[C@@H](c2ccc(O)cc2)Oc2cc(O)cc(O)c21
REMARK SMILES IDX 3 1 4 2 12 3 13 4 14 5 15 6 17 7 18 8 20 9 2 10 1 11 5 12
REMARK SMILES IDX 6 13 11 14 7 15 10 16 8 17 9 18 19 20 16 22
REMARK H PARENT 9 19 19 21 16 23
REMARK Flexibility Score: inf
ROOT
ATOM      1  C   UNL     1     107.196 122.138 119.315  1.00  0.00     0.131 C 
ATOM      2  C   UNL     1     107.602 120.665 119.194  1.00  0.00     0.211 C 
ATOM      3  O   UNL     1     106.677 119.842 119.903  1.00  0.00    -0.484 OA
ATOM      4  C   UNL     1     105.294 120.025 119.795  1.00  0.00     0.138 A 
ATOM      5  C   UNL     1     104.444 119.012 120.241  1.00  0.00     0.093 A 
ATOM      6  C   UNL     1     103.061 119.151 120.123  1.00  0.00     0.123 A 
ATOM      7  C   UNL     1     102.527 120.303 119.540  1.00  0.00     0.093 A 
ATOM      8  C   UNL     1     103.360 121.330 119.079  1.00  0.00     0.133 A 
ATOM      9  C   UNL     1     104.770 121.219 119.249  1.00  0.00     0.102 A 
ATOM     10  C   UNL     1     105.743 122.316 118.969  1.00  0.00     0.174 C 
ATOM     11  O   UNL     1     105.370 123.442 118.550  1.00  0.00    -0.294 OA
ENDROOT
BRANCH   2  12
ATOM     12  C   UNL     1     108.999 120.448 119.721  1.00  0.00    -0.007 A 
ATOM     13  C   UNL     1     109.521 121.276 120.730  1.00  0.00     0.011 A 
ATOM     14  C   UNL     1     109.816 119.447 119.167  1.00  0.00     0.011 A 
ATOM     15  C   UNL     1     110.827 121.091 121.192  1.00  0.00     0.046 A 
ATOM     16  C   UNL     1     111.122 119.264 119.631  1.00  0.00     0.046 A 
ATOM     17  C   UNL     1     111.631 120.081 120.644  1.00  0.00     0.115 A 
BRANCH  17  18
ATOM     18  O   UNL     1     112.933 119.886 121.097  1.00  0.00    -0.508 OA
ATOM     19  H   UNL     1     113.347 120.490 121.799  1.00  0.00     0.293 HD
ENDBRANCH  17  18
ENDBRANCH   2  12
BRANCH   8  20
ATOM     20  O   UNL     1     102.740 122.413 118.451  1.00  0.00    -0.507 OA
ATOM     21  H   UNL     1     101.795 122.405 118.100  1.00  0.00     0.293 HD
ENDBRANCH   8  20
BRANCH   6  22
ATOM     22  O   UNL     1     102.227 118.133 120.580  1.00  0.00    -0.508 OA
ATOM     23  H   UNL     1     102.230 117.213 120.155  1.00  0.00     0.293 HD
ENDBRANCH   6  22
TORSDOF 4
ENDMDL
MODEL 9
REMARK VINA RESULT:    -5.819      2.078      3.029
REMARK INTER + INTRA:          -6.966
REMARK INTER:                  -6.652
REMARK INTRA:                  -0.314
REMARK UNBOUND:                -0.297
REMARK SMILES O=C1C[C@@H](c2ccc(O)cc2)Oc2cc(O)cc(O)c21
REMARK SMILES IDX 3 1 4 2 12 3 13 4 14 5 15 6 17 7 18 8 20 9 2 10 1 11 5 12
REMARK SMILES IDX 6 13 11 14 7 15 10 16 8 17 9 18 19 20 16 22
REMARK H PARENT 9 19 19 21 16 23
REMARK Flexibility Score: inf
ROOT
ATOM      1  C   UNL     1     106.412 121.703 121.221  1.00  0.00     0.131 C 
ATOM      2  C   UNL     1     107.145 121.622 119.878  1.00  0.00     0.211 C 
ATOM      3  O   UNL     1     106.366 120.882 118.938  1.00  0.00    -0.484 OA
ATOM      4  C   UNL     1     104.993 121.101 118.785  1.00  0.00     0.138 A 
ATOM      5  C   UNL     1     104.353 120.595 117.652  1.00  0.00     0.093 A 
ATOM      6  C   UNL     1     102.991 120.818 117.454  1.00  0.00     0.123 A 
ATOM      7  C   UNL     1     102.268 121.568 118.387  1.00  0.00     0.093 A 
ATOM      8  C   UNL     1     102.891 122.093 119.527  1.00  0.00     0.133 A 
ATOM      9  C   UNL     1     104.268 121.818 119.764  1.00  0.00     0.102 A 
ATOM     10  C   UNL     1     104.993 122.162 121.022  1.00  0.00     0.174 C 
ATOM     11  O   UNL     1     104.418 122.736 121.983  1.00  0.00    -0.294 OA
ENDROOT
BRANCH   2  12
ATOM     12  C   UNL     1     108.501 120.982 120.045  1.00  0.00    -0.007 A 
ATOM     13  C   UNL     1     108.902 119.923 119.212  1.00  0.00     0.011 A 
ATOM     14  C   UNL     1     109.359 121.403 121.077  1.00  0.00     0.011 A 
ATOM     15  C   UNL     1     110.147 119.313 119.392  1.00  0.00     0.046 A 
ATOM     16  C   UNL     1     110.604 120.791 121.254  1.00  0.00     0.046 A 
ATOM     17  C   UNL     1     111.003 119.748 120.414  1.00  0.00     0.115 A 
BRANCH  17  18
ATOM     18  O   UNL     1     112.246 119.149 120.602  1.00  0.00    -0.508 OA
ATOM     19  H   UNL     1     112.352 118.317 121.172  1.00  0.00     0.293 HD
ENDBRANCH  17  18
ENDBRANCH   2  12
BRANCH   8  20
ATOM     20  O   UNL     1     102.104 122.884 120.368  1.00  0.00    -0.507 OA
ATOM     21  H   UNL     1     101.202 123.259 120.120  1.00  0.00     0.293 HD
ENDBRANCH   8  20
BRANCH   6  22
ATOM     22  O   UNL     1     102.367 120.300 116.322  1.00  0.00    -0.508 OA
ATOM     23  H   UNL     1     101.462 119.847 116.376  1.00  0.00     0.293 HD
ENDBRANCH   6  22
TORSDOF 4
ENDMDL
