MODEL 1
REMARK VINA RESULT:    11.781      0.000      0.000
REMARK INTER + INTRA:          15.013
REMARK INTER:                  14.880
REMARK INTRA:                   0.134
REMARK UNBOUND:                 0.134
REMARK SMILES Oc1ccc(CCc2cc(O)cc(O)c2)cc1
REMARK SMILES IDX 6 1 5 2 4 3 3 4 2 5 16 6 17 7 1 8 7 10 8 11 15 12 9 13 13 14
REMARK SMILES IDX 10 15 12 16 14 17 11 19
REMARK H PARENT 1 9 14 18 11 20
REMARK Flexibility Score: inf
ROOT
ATOM      1  C   UNL     1      15.126  55.083  59.468  1.00  0.00     0.040 C 
ENDROOT
BRANCH   1   2
ATOM      2  C   UNL     1      15.192  55.048  60.971  1.00  0.00    -0.047 A 
ATOM      3  C   UNL     1      14.015  55.120  61.734  1.00  0.00     0.007 A 
ATOM      4  C   UNL     1      14.074  55.054  63.129  1.00  0.00     0.046 A 
ATOM      5  C   UNL     1      15.310  54.906  63.775  1.00  0.00     0.115 A 
ATOM      6  C   UNL     1      16.425  54.886  61.622  1.00  0.00     0.007 A 
ATOM      7  C   UNL     1      16.483  54.820  63.017  1.00  0.00     0.046 A 
BRANCH   5   8
ATOM      8  O   UNL     1      15.381  54.839  65.164  1.00  0.00    -0.508 OA
ATOM      9  H   UNL     1      16.248  55.014  65.659  1.00  0.00     0.293 HD
ENDBRANCH   5   8
ENDBRANCH   1   2
BRANCH   1  10
ATOM     10  C   UNL     1      14.758  53.704  58.912  1.00  0.00     0.040 C 
BRANCH  10  11
ATOM     11  C   UNL     1      15.437  52.617  59.701  1.00  0.00    -0.040 A 
ATOM     12  C   UNL     1      16.836  52.508  59.698  1.00  0.00     0.050 A 
ATOM     13  C   UNL     1      14.680  51.740  60.494  1.00  0.00     0.050 A 
ATOM     14  C   UNL     1      17.472  51.520  60.457  1.00  0.00     0.119 A 
ATOM     15  C   UNL     1      15.312  50.748  61.255  1.00  0.00     0.119 A 
ATOM     16  C   UNL     1      16.707  50.639  61.233  1.00  0.00     0.092 A 
BRANCH  14  17
ATOM     17  O   UNL     1      18.861  51.423  60.435  1.00  0.00    -0.508 OA
ATOM     18  H   UNL     1      19.390  51.600  59.590  1.00  0.00     0.293 HD
ENDBRANCH  14  17
BRANCH  15  19
ATOM     19  O   UNL     1      14.567  49.869  62.039  1.00  0.00    -0.508 OA
ATOM     20  H   UNL     1      13.555  49.911  62.063  1.00  0.00     0.293 HD
ENDBRANCH  15  19
ENDBRANCH  10  11
ENDBRANCH   1  10
TORSDOF 6
ENDMDL
MODEL 2
REMARK VINA RESULT:    11.909      0.101      2.037
REMARK INTER + INTRA:          15.176
REMARK INTER:                  15.220
REMARK INTRA:                  -0.044
REMARK UNBOUND:                 0.134
REMARK SMILES Oc1ccc(CCc2cc(O)cc(O)c2)cc1
REMARK SMILES IDX 6 1 5 2 4 3 3 4 2 5 16 6 17 7 1 8 7 10 8 11 15 12 9 13 13 14
REMARK SMILES IDX 10 15 12 16 14 17 11 19
REMARK H PARENT 1 9 14 18 11 20
REMARK Flexibility Score: inf
ROOT
ATOM      1  C   UNL     1      15.120  55.093  59.466  1.00  0.00     0.040 C 
ENDROOT
BRANCH   1   2
ATOM      2  C   UNL     1      15.191  55.110  60.970  1.00  0.00    -0.047 A 
ATOM      3  C   UNL     1      14.012  55.124  61.734  1.00  0.00     0.007 A 
ATOM      4  C   UNL     1      14.078  55.107  63.130  1.00  0.00     0.046 A 
ATOM      5  C   UNL     1      15.322  55.066  63.776  1.00  0.00     0.115 A 
ATOM      6  C   UNL     1      16.433  55.056  61.621  1.00  0.00     0.007 A 
ATOM      7  C   UNL     1      16.497  55.039  63.018  1.00  0.00     0.046 A 
BRANCH   5   8
ATOM      8  O   UNL     1      15.399  55.049  65.167  1.00  0.00    -0.508 OA
ATOM      9  H   UNL     1      15.557  54.189  65.678  1.00  0.00     0.293 HD
ENDBRANCH   5   8
ENDBRANCH   1   2
BRANCH   1  10
ATOM     10  C   UNL     1      14.755  53.694  58.960  1.00  0.00     0.040 C 
BRANCH  10  11
ATOM     11  C   UNL     1      15.449  52.637  59.777  1.00  0.00    -0.040 A 
ATOM     12  C   UNL     1      14.700  51.726  60.538  1.00  0.00     0.050 A 
ATOM     13  C   UNL     1      16.847  52.517  59.738  1.00  0.00     0.050 A 
ATOM     14  C   UNL     1      15.340  50.721  61.272  1.00  0.00     0.119 A 
ATOM     15  C   UNL     1      17.492  51.512  60.472  1.00  0.00     0.119 A 
ATOM     16  C   UNL     1      16.737  50.618  61.239  1.00  0.00     0.092 A 
BRANCH  14  17
ATOM     17  O   UNL     1      14.580  49.831  62.026  1.00  0.00    -0.508 OA
ATOM     18  H   UNL     1      14.605  49.840  63.039  1.00  0.00     0.293 HD
ENDBRANCH  14  17
BRANCH  15  19
ATOM     19  O   UNL     1      18.880  51.391  60.444  1.00  0.00    -0.508 OA
ATOM     20  H   UNL     1      19.332  50.486  60.478  1.00  0.00     0.293 HD
ENDBRANCH  15  19
ENDBRANCH  10  11
ENDBRANCH   1  10
TORSDOF 6
ENDMDL
MODEL 3
REMARK VINA RESULT:    13.789      1.163      4.543
REMARK INTER + INTRA:          17.551
REMARK INTER:                  15.952
REMARK INTRA:                   1.598
REMARK UNBOUND:                 0.134
REMARK SMILES Oc1ccc(CCc2cc(O)cc(O)c2)cc1
REMARK SMILES IDX 6 1 5 2 4 3 3 4 2 5 16 6 17 7 1 8 7 10 8 11 15 12 9 13 13 14
REMARK SMILES IDX 10 15 12 16 14 17 11 19
REMARK H PARENT 1 9 14 18 11 20
REMARK Flexibility Score: inf
ROOT
ATOM      1  C   UNL     1      15.123  53.656  58.915  1.00  0.00     0.040 C 
ENDROOT
BRANCH   1   2
ATOM      2  C   UNL     1      15.373  52.476  59.815  1.00  0.00    -0.047 A 
ATOM      3  C   UNL     1      16.621  51.830  59.807  1.00  0.00     0.007 A 
ATOM      4  C   UNL     1      16.863  50.754  60.666  1.00  0.00     0.046 A 
ATOM      5  C   UNL     1      15.864  50.318  61.548  1.00  0.00     0.115 A 
ATOM      6  C   UNL     1      14.381  52.044  60.709  1.00  0.00     0.007 A 
ATOM      7  C   UNL     1      14.624  50.967  61.567  1.00  0.00     0.046 A 
BRANCH   5   8
ATOM      8  O   UNL     1      16.094  49.248  62.408  1.00  0.00    -0.508 OA
ATOM      9  H   UNL     1      16.659  49.350  63.242  1.00  0.00     0.293 HD
ENDBRANCH   5   8
ENDBRANCH   1   2
BRANCH   1  10
ATOM     10  C   UNL     1      14.769  54.896  59.741  1.00  0.00     0.040 C 
BRANCH  10  11
ATOM     11  C   UNL     1      15.266  54.752  61.154  1.00  0.00    -0.040 A 
ATOM     12  C   UNL     1      14.411  55.016  62.236  1.00  0.00     0.050 A 
ATOM     13  C   UNL     1      16.571  54.295  61.403  1.00  0.00     0.050 A 
ATOM     14  C   UNL     1      14.860  54.850  63.551  1.00  0.00     0.119 A 
ATOM     15  C   UNL     1      17.024  54.128  62.718  1.00  0.00     0.119 A 
ATOM     16  C   UNL     1      16.168  54.408  63.789  1.00  0.00     0.092 A 
BRANCH  14  17
ATOM     17  O   UNL     1      13.999  55.125  64.611  1.00  0.00    -0.508 OA
ATOM     18  H   UNL     1      14.166  54.752  65.538  1.00  0.00     0.293 HD
ENDBRANCH  14  17
BRANCH  15  19
ATOM     19  O   UNL     1      18.319  53.681  62.973  1.00  0.00    -0.508 OA
ATOM     20  H   UNL     1      18.645  52.785  62.632  1.00  0.00     0.293 HD
ENDBRANCH  15  19
ENDBRANCH  10  11
ENDBRANCH   1  10
TORSDOF 6
ENDMDL
MODEL 4
REMARK VINA RESULT:    13.905      1.170      4.161
REMARK INTER + INTRA:          17.697
REMARK INTER:                  16.281
REMARK INTRA:                   1.417
REMARK UNBOUND:                 0.134
REMARK SMILES Oc1ccc(CCc2cc(O)cc(O)c2)cc1
REMARK SMILES IDX 6 1 5 2 4 3 3 4 2 5 16 6 17 7 1 8 7 10 8 11 15 12 9 13 13 14
REMARK SMILES IDX 10 15 12 16 14 17 11 19
REMARK H PARENT 1 9 14 18 11 20
REMARK Flexibility Score: inf
ROOT
ATOM      1  C   UNL     1      15.120  53.713  58.901  1.00  0.00     0.040 C 
ENDROOT
BRANCH   1   2
ATOM      2  C   UNL     1      15.341  52.524  59.797  1.00  0.00    -0.047 A 
ATOM      3  C   UNL     1      16.555  51.818  59.749  1.00  0.00     0.007 A 
ATOM      4  C   UNL     1      16.772  50.733  60.604  1.00  0.00     0.046 A 
ATOM      5  C   UNL     1      15.783  50.350  61.522  1.00  0.00     0.115 A 
ATOM      6  C   UNL     1      14.360  52.145  60.726  1.00  0.00     0.007 A 
ATOM      7  C   UNL     1      14.579  51.060  61.580  1.00  0.00     0.046 A 
BRANCH   5   8
ATOM      8  O   UNL     1      15.989  49.272  62.378  1.00  0.00    -0.508 OA
ATOM      9  H   UNL     1      15.221  48.836  62.875  1.00  0.00     0.293 HD
ENDBRANCH   5   8
ENDBRANCH   1   2
BRANCH   1  10
ATOM     10  C   UNL     1      14.869  54.975  59.733  1.00  0.00     0.040 C 
BRANCH  10  11
ATOM     11  C   UNL     1      15.319  54.770  61.154  1.00  0.00    -0.040 A 
ATOM     12  C   UNL     1      16.638  54.375  61.429  1.00  0.00     0.050 A 
ATOM     13  C   UNL     1      14.442  55.030  62.220  1.00  0.00     0.050 A 
ATOM     14  C   UNL     1      17.070  54.217  62.751  1.00  0.00     0.119 A 
ATOM     15  C   UNL     1      14.870  54.872  63.545  1.00  0.00     0.119 A 
ATOM     16  C   UNL     1      16.183  54.463  63.807  1.00  0.00     0.092 A 
BRANCH  14  17
ATOM     17  O   UNL     1      18.380  53.817  63.003  1.00  0.00    -0.508 OA
ATOM     18  H   UNL     1      19.006  54.380  63.566  1.00  0.00     0.293 HD
ENDBRANCH  14  17
BRANCH  15  19
ATOM     19  O   UNL     1      14.004  55.121  64.606  1.00  0.00    -0.508 OA
ATOM     20  H   UNL     1      13.459  54.379  65.030  1.00  0.00     0.293 HD
ENDBRANCH  15  19
ENDBRANCH  10  11
ENDBRANCH   1  10
TORSDOF 6
ENDMDL
