MODEL 1
REMARK VINA RESULT:    -3.550      0.000      0.000
REMARK INTER + INTRA:          -7.861
REMARK INTER:                  -6.248
REMARK INTRA:                  -1.613
REMARK UNBOUND:                -1.613
REMARK SMILES CCCCCCCCCCCCCCC(=O)[O-]
REMARK SMILES IDX 9 1 10 2 11 3 12 4 13 5 14 6 15 7 16 8 17 9 8 10 7 11 6 12
REMARK SMILES IDX 5 13 4 14 3 15 2 16 1 17
REMARK H PARENT
REMARK Flexibility Score: inf
ROOT
ATOM      1  C   UNL     1     -98.686  70.418  22.486  1.00  0.00     0.000 C 
ENDROOT
BRANCH   1   2
ATOM      2  C   UNL     1     -99.749  69.449  23.037  1.00  0.00     0.000 C 
BRANCH   2   3
ATOM      3  C   UNL     1     -99.201  68.318  23.926  1.00  0.00     0.000 C 
BRANCH   3   4
ATOM      4  C   UNL     1     -99.003  68.748  25.387  1.00  0.00     0.000 C 
BRANCH   4   5
ATOM      5  C   UNL     1    -100.217  69.532  25.899  1.00  0.00     0.006 C 
BRANCH   5   6
ATOM      6  C   UNL     1     -99.912  70.206  27.240  1.00  0.00     0.053 C 
BRANCH   6   7
ATOM      7  C   UNL     1     -99.403  69.202  28.227  1.00  0.00     0.041 C 
ATOM      8  O   UNL     1     -98.253  69.328  28.722  1.00  0.00    -0.550 OA
ATOM      9  O   UNL     1    -100.220  68.158  28.638  1.00  0.00    -0.550 OA
ENDBRANCH   6   7
ENDBRANCH   5   6
ENDBRANCH   4   5
ENDBRANCH   3   4
ENDBRANCH   2   3
ENDBRANCH   1   2
BRANCH   1  10
ATOM     10  C   UNL     1     -98.712  71.832  23.097  1.00  0.00     0.000 C 
BRANCH  10  11
ATOM     11  C   UNL     1     -97.637  72.062  24.182  1.00  0.00    -0.000 C 
BRANCH  11  12
ATOM     12  C   UNL     1     -96.685  73.220  23.833  1.00  0.00    -0.000 C 
BRANCH  12  13
ATOM     13  C   UNL     1     -95.430  72.732  23.078  1.00  0.00    -0.000 C 
BRANCH  13  14
ATOM     14  C   UNL     1     -95.098  73.568  21.829  1.00  0.00    -0.000 C 
BRANCH  14  15
ATOM     15  C   UNL     1     -96.320  73.807  20.929  1.00  0.00    -0.000 C 
BRANCH  15  16
ATOM     16  C   UNL     1     -96.521  72.684  19.900  1.00  0.00    -0.003 C 
ATOM     17  C   UNL     1     -97.981  72.523  19.478  1.00  0.00     0.004 C 
ENDBRANCH  15  16
ENDBRANCH  14  15
ENDBRANCH  13  14
ENDBRANCH  12  13
ENDBRANCH  11  12
ENDBRANCH  10  11
ENDBRANCH   1  10
TORSDOF 13
ENDMDL
MODEL 2
REMARK VINA RESULT:    -3.506      3.521      6.747
REMARK INTER + INTRA:          -7.783
REMARK INTER:                  -5.576
REMARK INTRA:                  -2.207
REMARK UNBOUND:                -1.613
REMARK SMILES CCCCCCCCCCCCCCC(=O)[O-]
REMARK SMILES IDX 9 1 10 2 11 3 12 4 13 5 14 6 15 7 16 8 17 9 8 10 7 11 6 12
REMARK SMILES IDX 5 13 4 14 3 15 2 16 1 17
REMARK H PARENT
REMARK Flexibility Score: inf
ROOT
ATOM      1  C   UNL     1     -99.163  71.728  22.427  1.00  0.00     0.000 C 
ENDROOT
BRANCH   1   2
ATOM      2  C   UNL     1     -98.566  72.858  23.286  1.00  0.00     0.000 C 
BRANCH   2   3
ATOM      3  C   UNL     1     -97.327  72.463  24.110  1.00  0.00     0.000 C 
BRANCH   3   4
ATOM      4  C   UNL     1     -96.125  73.385  23.862  1.00  0.00     0.000 C 
BRANCH   4   5
ATOM      5  C   UNL     1     -95.237  72.842  22.735  1.00  0.00     0.006 C 
BRANCH   5   6
ATOM      6  C   UNL     1     -95.378  73.688  21.467  1.00  0.00     0.053 C 
BRANCH   6   7
ATOM      7  C   UNL     1     -95.891  72.854  20.335  1.00  0.00     0.041 C 
ATOM      8  O   UNL     1     -96.155  71.636  20.514  1.00  0.00    -0.550 OA
ATOM      9  O   UNL     1     -96.128  73.435  19.097  1.00  0.00    -0.550 OA
ENDBRANCH   6   7
ENDBRANCH   5   6
ENDBRANCH   4   5
ENDBRANCH   3   4
ENDBRANCH   2   3
ENDBRANCH   1   2
BRANCH   1  10
ATOM     10  C   UNL     1     -98.572  70.328  22.688  1.00  0.00     0.000 C 
BRANCH  10  11
ATOM     11  C   UNL     1     -99.639  69.236  22.919  1.00  0.00    -0.000 C 
BRANCH  11  12
ATOM     12  C   UNL     1     -99.221  68.222  23.999  1.00  0.00    -0.000 C 
BRANCH  12  13
ATOM     13  C   UNL     1     -98.999  68.893  25.371  1.00  0.00    -0.000 C 
BRANCH  13  14
ATOM     14  C   UNL     1    -100.266  69.542  25.954  1.00  0.00    -0.000 C 
BRANCH  14  15
ATOM     15  C   UNL     1    -100.107  71.052  26.191  1.00  0.00    -0.000 C 
BRANCH  15  16
ATOM     16  C   UNL     1    -101.298  71.860  25.655  1.00  0.00    -0.003 C 
ATOM     17  C   UNL     1    -102.189  71.049  24.714  1.00  0.00     0.004 C 
ENDBRANCH  15  16
ENDBRANCH  14  15
ENDBRANCH  13  14
ENDBRANCH  12  13
ENDBRANCH  11  12
ENDBRANCH  10  11
ENDBRANCH   1  10
TORSDOF 13
ENDMDL
MODEL 3
REMARK VINA RESULT:    -3.499      1.897      4.322
REMARK INTER + INTRA:          -7.772
REMARK INTER:                  -5.462
REMARK INTRA:                  -2.310
REMARK UNBOUND:                -1.613
REMARK SMILES CCCCCCCCCCCCCCC(=O)[O-]
REMARK SMILES IDX 9 1 10 2 11 3 12 4 13 5 14 6 15 7 16 8 17 9 8 10 7 11 6 12
REMARK SMILES IDX 5 13 4 14 3 15 2 16 1 17
REMARK H PARENT
REMARK Flexibility Score: inf
ROOT
ATOM      1  C   UNL     1     -97.641  71.952  24.265  1.00  0.00     0.000 C 
ENDROOT
BRANCH   1   2
ATOM      2  C   UNL     1     -98.686  72.615  25.181  1.00  0.00     0.000 C 
BRANCH   2   3
ATOM      3  C   UNL     1     -99.466  71.646  26.088  1.00  0.00     0.000 C 
BRANCH   3   4
ATOM      4  C   UNL     1     -98.580  70.544  26.687  1.00  0.00     0.000 C 
BRANCH   4   5
ATOM      5  C   UNL     1     -99.084  69.153  26.285  1.00  0.00     0.006 C 
BRANCH   5   6
ATOM      6  C   UNL     1    -100.581  69.006  26.569  1.00  0.00     0.053 C 
BRANCH   6   7
ATOM      7  C   UNL     1    -100.829  68.920  28.042  1.00  0.00     0.041 C 
ATOM      8  O   UNL     1    -101.720  69.630  28.578  1.00  0.00    -0.550 OA
ATOM      9  O   UNL     1    -100.112  68.016  28.814  1.00  0.00    -0.550 OA
ENDBRANCH   6   7
ENDBRANCH   5   6
ENDBRANCH   4   5
ENDBRANCH   3   4
ENDBRANCH   2   3
ENDBRANCH   1   2
BRANCH   1  10
ATOM     10  C   UNL     1     -97.776  72.294  22.768  1.00  0.00     0.000 C 
BRANCH  10  11
ATOM     11  C   UNL     1     -98.297  71.123  21.906  1.00  0.00    -0.000 C 
BRANCH  11  12
ATOM     12  C   UNL     1     -98.775  69.932  22.756  1.00  0.00    -0.000 C 
BRANCH  12  13
ATOM     13  C   UNL     1    -100.315  69.828  22.797  1.00  0.00    -0.000 C 
BRANCH  13  14
ATOM     14  C   UNL     1    -101.032  71.017  22.135  1.00  0.00    -0.000 C 
BRANCH  14  15
ATOM     15  C   UNL     1    -101.788  71.895  23.145  1.00  0.00    -0.000 C 
BRANCH  15  16
ATOM     16  C   UNL     1    -102.802  71.095  23.977  1.00  0.00    -0.003 C 
ATOM     17  C   UNL     1    -102.997  71.665  25.381  1.00  0.00     0.004 C 
ENDBRANCH  15  16
ENDBRANCH  14  15
ENDBRANCH  13  14
ENDBRANCH  12  13
ENDBRANCH  11  12
ENDBRANCH  10  11
ENDBRANCH   1  10
TORSDOF 13
ENDMDL
MODEL 4
REMARK VINA RESULT:    -3.470      1.489      3.040
REMARK INTER + INTRA:          -7.721
REMARK INTER:                  -6.154
REMARK INTRA:                  -1.567
REMARK UNBOUND:                -1.613
REMARK SMILES CCCCCCCCCCCCCCC(=O)[O-]
REMARK SMILES IDX 9 1 10 2 11 3 12 4 13 5 14 6 15 7 16 8 17 9 8 10 7 11 6 12
REMARK SMILES IDX 5 13 4 14 3 15 2 16 1 17
REMARK H PARENT
REMARK Flexibility Score: inf
ROOT
ATOM      1  C   UNL     1     -99.132  71.942  25.799  1.00  0.00     0.000 C 
ENDROOT
BRANCH   1   2
ATOM      2  C   UNL     1    -100.650  71.728  25.642  1.00  0.00     0.000 C 
BRANCH   2   3
ATOM      3  C   UNL     1    -101.385  71.315  26.930  1.00  0.00     0.000 C 
BRANCH   3   4
ATOM      4  C   UNL     1    -102.052  69.937  26.823  1.00  0.00     0.000 C 
BRANCH   4   5
ATOM      5  C   UNL     1    -101.044  68.814  27.101  1.00  0.00     0.006 C 
BRANCH   5   6
ATOM      6  C   UNL     1    -100.598  68.825  28.565  1.00  0.00     0.053 C 
BRANCH   6   7
ATOM      7  C   UNL     1     -99.114  68.656  28.662  1.00  0.00     0.041 C 
ATOM      8  O   UNL     1     -98.602  68.119  29.679  1.00  0.00    -0.550 OA
ATOM      9  O   UNL     1     -98.301  69.044  27.605  1.00  0.00    -0.550 OA
ENDBRANCH   6   7
ENDBRANCH   5   6
ENDBRANCH   4   5
ENDBRANCH   3   4
ENDBRANCH   2   3
ENDBRANCH   1   2
BRANCH   1  10
ATOM     10  C   UNL     1     -98.258  71.172  24.790  1.00  0.00     0.000 C 
BRANCH  10  11
ATOM     11  C   UNL     1     -99.031  70.108  23.980  1.00  0.00    -0.000 C 
BRANCH  11  12
ATOM     12  C   UNL     1     -98.673  70.129  22.484  1.00  0.00    -0.000 C 
BRANCH  12  13
ATOM     13  C   UNL     1     -98.176  71.516  22.025  1.00  0.00    -0.000 C 
BRANCH  13  14
ATOM     14  C   UNL     1     -96.830  71.475  21.280  1.00  0.00    -0.000 C 
BRANCH  14  15
ATOM     15  C   UNL     1     -95.951  72.702  21.568  1.00  0.00    -0.000 C 
BRANCH  15  16
ATOM     16  C   UNL     1     -95.451  72.740  23.020  1.00  0.00    -0.003 C 
ATOM     17  C   UNL     1     -95.942  73.970  23.783  1.00  0.00     0.004 C 
ENDBRANCH  15  16
ENDBRANCH  14  15
ENDBRANCH  13  14
ENDBRANCH  12  13
ENDBRANCH  11  12
ENDBRANCH  10  11
ENDBRANCH   1  10
TORSDOF 13
ENDMDL
MODEL 5
REMARK VINA RESULT:    -3.362      2.082      3.845
REMARK INTER + INTRA:          -7.530
REMARK INTER:                  -5.147
REMARK INTRA:                  -2.383
REMARK UNBOUND:                -1.613
REMARK SMILES CCCCCCCCCCCCCCC(=O)[O-]
REMARK SMILES IDX 9 1 10 2 11 3 12 4 13 5 14 6 15 7 16 8 17 9 8 10 7 11 6 12
REMARK SMILES IDX 5 13 4 14 3 15 2 16 1 17
REMARK H PARENT
REMARK Flexibility Score: inf
ROOT
ATOM      1  C   UNL     1     -98.607  70.246  22.407  1.00  0.00     0.000 C 
ENDROOT
BRANCH   1   2
ATOM      2  C   UNL     1     -99.676  69.431  23.159  1.00  0.00     0.000 C 
BRANCH   2   3
ATOM      3  C   UNL     1     -99.131  68.500  24.258  1.00  0.00     0.000 C 
BRANCH   3   4
ATOM      4  C   UNL     1     -99.748  68.776  25.636  1.00  0.00     0.000 C 
BRANCH   4   5
ATOM      5  C   UNL     1     -98.666  69.126  26.664  1.00  0.00     0.006 C 
BRANCH   5   6
ATOM      6  C   UNL     1     -99.247  69.948  27.818  1.00  0.00     0.053 C 
BRANCH   6   7
ATOM      7  C   UNL     1    -100.180  69.114  28.638  1.00  0.00     0.041 C 
ATOM      8  O   UNL     1     -99.796  68.012  29.110  1.00  0.00    -0.550 OA
ATOM      9  O   UNL     1    -101.457  69.578  28.924  1.00  0.00    -0.550 OA
ENDBRANCH   6   7
ENDBRANCH   5   6
ENDBRANCH   4   5
ENDBRANCH   3   4
ENDBRANCH   2   3
ENDBRANCH   1   2
BRANCH   1  10
ATOM     10  C   UNL     1     -98.491  71.721  22.836  1.00  0.00     0.000 C 
BRANCH  10  11
ATOM     11  C   UNL     1     -97.876  71.915  24.240  1.00  0.00    -0.000 C 
BRANCH  11  12
ATOM     12  C   UNL     1     -98.834  72.624  25.212  1.00  0.00    -0.000 C 
BRANCH  12  13
ATOM     13  C   UNL     1     -99.856  73.515  24.474  1.00  0.00    -0.000 C 
BRANCH  13  14
ATOM     14  C   UNL     1    -101.304  73.325  24.958  1.00  0.00    -0.000 C 
BRANCH  14  15
ATOM     15  C   UNL     1    -101.506  72.015  25.735  1.00  0.00    -0.000 C 
BRANCH  15  16
ATOM     16  C   UNL     1    -102.570  71.110  25.095  1.00  0.00    -0.003 C 
ATOM     17  C   UNL     1    -102.740  71.364  23.597  1.00  0.00     0.004 C 
ENDBRANCH  15  16
ENDBRANCH  14  15
ENDBRANCH  13  14
ENDBRANCH  12  13
ENDBRANCH  11  12
ENDBRANCH  10  11
ENDBRANCH   1  10
TORSDOF 13
ENDMDL
MODEL 6
REMARK VINA RESULT:    -3.358      1.369      3.111
REMARK INTER + INTRA:          -7.523
REMARK INTER:                  -5.902
REMARK INTRA:                  -1.620
REMARK UNBOUND:                -1.613
REMARK SMILES CCCCCCCCCCCCCCC(=O)[O-]
REMARK SMILES IDX 9 1 10 2 11 3 12 4 13 5 14 6 15 7 16 8 17 9 8 10 7 11 6 12
REMARK SMILES IDX 5 13 4 14 3 15 2 16 1 17
REMARK H PARENT
REMARK Flexibility Score: inf
ROOT
ATOM      1  C   UNL     1     -99.739  69.001  25.286  1.00  0.00     0.000 C 
ENDROOT
BRANCH   1   2
ATOM      2  C   UNL     1     -98.601  69.372  26.255  1.00  0.00     0.000 C 
BRANCH   2   3
ATOM      3  C   UNL     1     -98.724  70.765  26.900  1.00  0.00     0.000 C 
BRANCH   3   4
ATOM      4  C   UNL     1    -100.160  71.308  26.882  1.00  0.00     0.000 C 
BRANCH   4   5
ATOM      5  C   UNL     1    -100.782  71.267  28.283  1.00  0.00     0.006 C 
BRANCH   5   6
ATOM      6  C   UNL     1    -101.376  69.888  28.582  1.00  0.00     0.053 C 
BRANCH   6   7
ATOM      7  C   UNL     1    -100.518  69.150  29.561  1.00  0.00     0.041 C 
ATOM      8  O   UNL     1    -100.432  69.544  30.753  1.00  0.00    -0.550 OA
ATOM      9  O   UNL     1     -99.855  67.995  29.168  1.00  0.00    -0.550 OA
ENDBRANCH   6   7
ENDBRANCH   5   6
ENDBRANCH   4   5
ENDBRANCH   3   4
ENDBRANCH   2   3
ENDBRANCH   1   2
BRANCH   1  10
ATOM     10  C   UNL     1     -99.280  68.501  23.902  1.00  0.00     0.000 C 
BRANCH  10  11
ATOM     11  C   UNL     1     -98.869  69.634  22.936  1.00  0.00    -0.000 C 
BRANCH  11  12
ATOM     12  C   UNL     1     -99.753  70.885  23.083  1.00  0.00    -0.000 C 
BRANCH  12  13
ATOM     13  C   UNL     1     -98.920  72.156  23.356  1.00  0.00    -0.000 C 
BRANCH  13  14
ATOM     14  C   UNL     1     -97.456  71.868  23.728  1.00  0.00    -0.000 C 
BRANCH  14  15
ATOM     15  C   UNL     1     -96.564  73.117  23.650  1.00  0.00    -0.000 C 
BRANCH  15  16
ATOM     16  C   UNL     1     -95.305  72.888  22.799  1.00  0.00    -0.003 C 
ATOM     17  C   UNL     1     -95.337  73.654  21.477  1.00  0.00     0.004 C 
ENDBRANCH  15  16
ENDBRANCH  14  15
ENDBRANCH  13  14
ENDBRANCH  12  13
ENDBRANCH  11  12
ENDBRANCH  10  11
ENDBRANCH   1  10
TORSDOF 13
ENDMDL
MODEL 7
REMARK VINA RESULT:    -3.320      1.280      1.670
REMARK INTER + INTRA:          -7.456
REMARK INTER:                  -5.942
REMARK INTRA:                  -1.514
REMARK UNBOUND:                -1.613
REMARK SMILES CCCCCCCCCCCCCCC(=O)[O-]
REMARK SMILES IDX 9 1 10 2 11 3 12 4 13 5 14 6 15 7 16 8 17 9 8 10 7 11 6 12
REMARK SMILES IDX 5 13 4 14 3 15 2 16 1 17
REMARK H PARENT
REMARK Flexibility Score: inf
ROOT
ATOM      1  C   UNL     1     -98.874  69.817  22.763  1.00  0.00     0.000 C 
ENDROOT
BRANCH   1   2
ATOM      2  C   UNL     1     -99.967  70.135  23.801  1.00  0.00     0.000 C 
BRANCH   2   3
ATOM      3  C   UNL     1     -99.622  69.743  25.250  1.00  0.00     0.000 C 
BRANCH   3   4
ATOM      4  C   UNL     1     -98.692  70.751  25.938  1.00  0.00     0.000 C 
BRANCH   4   5
ATOM      5  C   UNL     1     -98.318  70.281  27.349  1.00  0.00     0.006 C 
BRANCH   5   6
ATOM      6  C   UNL     1     -99.180  69.091  27.779  1.00  0.00     0.053 C 
BRANCH   6   7
ATOM      7  C   UNL     1     -98.954  68.776  29.225  1.00  0.00     0.041 C 
ATOM      8  O   UNL     1     -99.124  69.663  30.101  1.00  0.00    -0.550 OA
ATOM      9  O   UNL     1     -98.607  67.487  29.608  1.00  0.00    -0.550 OA
ENDBRANCH   6   7
ENDBRANCH   5   6
ENDBRANCH   4   5
ENDBRANCH   3   4
ENDBRANCH   2   3
ENDBRANCH   1   2
BRANCH   1  10
ATOM     10  C   UNL     1     -98.279  71.044  22.046  1.00  0.00     0.000 C 
BRANCH  10  11
ATOM     11  C   UNL     1     -98.889  72.388  22.501  1.00  0.00    -0.000 C 
BRANCH  11  12
ATOM     12  C   UNL     1     -97.883  73.263  23.269  1.00  0.00    -0.000 C 
BRANCH  12  13
ATOM     13  C   UNL     1     -96.529  72.551  23.471  1.00  0.00    -0.000 C 
BRANCH  13  14
ATOM     14  C   UNL     1     -95.379  73.168  22.656  1.00  0.00    -0.000 C 
BRANCH  14  15
ATOM     15  C   UNL     1     -95.800  74.434  21.894  1.00  0.00    -0.000 C 
BRANCH  15  16
ATOM     16  C   UNL     1     -95.569  74.314  20.380  1.00  0.00    -0.003 C 
ATOM     17  C   UNL     1     -95.781  72.892  19.860  1.00  0.00     0.004 C 
ENDBRANCH  15  16
ENDBRANCH  14  15
ENDBRANCH  13  14
ENDBRANCH  12  13
ENDBRANCH  11  12
ENDBRANCH  10  11
ENDBRANCH   1  10
TORSDOF 13
ENDMDL
MODEL 8
REMARK VINA RESULT:    -3.301      2.903      6.384
REMARK INTER + INTRA:          -7.423
REMARK INTER:                  -5.095
REMARK INTRA:                  -2.328
REMARK UNBOUND:                -1.613
REMARK SMILES CCCCCCCCCCCCCCC(=O)[O-]
REMARK SMILES IDX 9 1 10 2 11 3 12 4 13 5 14 6 15 7 16 8 17 9 8 10 7 11 6 12
REMARK SMILES IDX 5 13 4 14 3 15 2 16 1 17
REMARK H PARENT
REMARK Flexibility Score: inf
ROOT
ATOM      1  C   UNL     1     -98.618  69.097  27.102  1.00  0.00     0.000 C 
ENDROOT
BRANCH   1   2
ATOM      2  C   UNL     1     -98.706  69.645  25.666  1.00  0.00     0.000 C 
BRANCH   2   3
ATOM      3  C   UNL     1     -99.226  68.644  24.618  1.00  0.00     0.000 C 
BRANCH   3   4
ATOM      4  C   UNL     1     -99.805  69.329  23.372  1.00  0.00     0.000 C 
BRANCH   4   5
ATOM      5  C   UNL     1     -99.288  70.767  23.243  1.00  0.00     0.006 C 
BRANCH   5   6
ATOM      6  C   UNL     1     -98.174  70.860  22.197  1.00  0.00     0.053 C 
BRANCH   6   7
ATOM      7  C   UNL     1     -97.145  71.862  22.616  1.00  0.00     0.041 C 
ATOM      8  O   UNL     1     -97.064  72.224  23.818  1.00  0.00    -0.550 OA
ATOM      9  O   UNL     1     -96.241  72.358  21.685  1.00  0.00    -0.550 OA
ENDBRANCH   6   7
ENDBRANCH   5   6
ENDBRANCH   4   5
ENDBRANCH   3   4
ENDBRANCH   2   3
ENDBRANCH   1   2
BRANCH   1  10
ATOM     10  C   UNL     1     -98.545  70.169  28.206  1.00  0.00     0.000 C 
BRANCH  10  11
ATOM     11  C   UNL     1     -99.704  70.095  29.224  1.00  0.00    -0.000 C 
BRANCH  11  12
ATOM     12  C   UNL     1    -100.914  69.313  28.685  1.00  0.00    -0.000 C 
BRANCH  12  13
ATOM     13  C   UNL     1    -102.005  70.247  28.120  1.00  0.00    -0.000 C 
BRANCH  13  14
ATOM     14  C   UNL     1    -102.203  70.117  26.600  1.00  0.00    -0.000 C 
BRANCH  14  15
ATOM     15  C   UNL     1    -101.903  71.422  25.846  1.00  0.00    -0.000 C 
BRANCH  15  16
ATOM     16  C   UNL     1    -101.256  72.486  26.746  1.00  0.00    -0.003 C 
ATOM     17  C   UNL     1     -99.950  73.034  26.171  1.00  0.00     0.004 C 
ENDBRANCH  15  16
ENDBRANCH  14  15
ENDBRANCH  13  14
ENDBRANCH  12  13
ENDBRANCH  11  12
ENDBRANCH  10  11
ENDBRANCH   1  10
TORSDOF 13
ENDMDL
MODEL 9
REMARK VINA RESULT:    -3.284      4.052      7.478
REMARK INTER + INTRA:          -7.393
REMARK INTER:                  -6.106
REMARK INTRA:                  -1.287
REMARK UNBOUND:                -1.613
REMARK SMILES CCCCCCCCCCCCCCC(=O)[O-]
REMARK SMILES IDX 9 1 10 2 11 3 12 4 13 5 14 6 15 7 16 8 17 9 8 10 7 11 6 12
REMARK SMILES IDX 5 13 4 14 3 15 2 16 1 17
REMARK H PARENT
REMARK Flexibility Score: inf
ROOT
ATOM      1  C   UNL     1     -99.509  69.916  23.037  1.00  0.00     0.000 C 
ENDROOT
BRANCH   1   2
ATOM      2  C   UNL     1     -98.371  70.875  22.639  1.00  0.00     0.000 C 
BRANCH   2   3
ATOM      3  C   UNL     1     -97.813  71.735  23.788  1.00  0.00     0.000 C 
BRANCH   3   4
ATOM      4  C   UNL     1     -96.520  72.472  23.411  1.00  0.00     0.000 C 
BRANCH   4   5
ATOM      5  C   UNL     1     -96.357  72.553  21.888  1.00  0.00     0.006 C 
BRANCH   5   6
ATOM      6  C   UNL     1     -95.328  73.619  21.501  1.00  0.00     0.053 C 
BRANCH   6   7
ATOM      7  C   UNL     1     -95.458  73.971  20.053  1.00  0.00     0.041 C 
ATOM      8  O   UNL     1     -95.866  75.111  19.711  1.00  0.00    -0.550 OA
ATOM      9  O   UNL     1     -95.078  73.056  19.080  1.00  0.00    -0.550 OA
ENDBRANCH   6   7
ENDBRANCH   5   6
ENDBRANCH   4   5
ENDBRANCH   3   4
ENDBRANCH   2   3
ENDBRANCH   1   2
BRANCH   1  10
ATOM     10  C   UNL     1     -99.071  68.692  23.865  1.00  0.00     0.000 C 
BRANCH  10  11
ATOM     11  C   UNL     1     -99.568  68.719  25.327  1.00  0.00    -0.000 C 
BRANCH  11  12
ATOM     12  C   UNL     1    -100.447  69.945  25.629  1.00  0.00    -0.000 C 
BRANCH  12  13
ATOM     13  C   UNL     1     -99.824  70.854  26.710  1.00  0.00    -0.000 C 
BRANCH  13  14
ATOM     14  C   UNL     1     -98.403  70.435  27.126  1.00  0.00    -0.000 C 
BRANCH  14  15
ATOM     15  C   UNL     1     -98.156  70.585  28.635  1.00  0.00    -0.000 C 
BRANCH  15  16
ATOM     16  C   UNL     1     -99.018  69.626  29.470  1.00  0.00    -0.003 C 
ATOM     17  C   UNL     1     -98.662  68.157  29.240  1.00  0.00     0.004 C 
ENDBRANCH  15  16
ENDBRANCH  14  15
ENDBRANCH  13  14
ENDBRANCH  12  13
ENDBRANCH  11  12
ENDBRANCH  10  11
ENDBRANCH   1  10
TORSDOF 13
ENDMDL
