MODEL 1
REMARK VINA RESULT:    -2.771      0.000      0.000
REMARK INTER + INTRA:          -3.256
REMARK INTER:                  -3.176
REMARK INTRA:                  -0.080
REMARK UNBOUND:                -0.080
REMARK SMILES C=Cc1ccc(O)c(OC)c1
REMARK SMILES IDX 8 1 6 2 5 3 4 4 3 5 11 6 9 7 10 8 7 9 2 11 1 12
REMARK H PARENT 7 10
REMARK Flexibility Score: inf
ROOT
ATOM      1  C   UNL     1     144.366 144.306 139.769  1.00  0.00     0.161 A 
ATOM      2  C   UNL     1     144.961 145.533 139.426  1.00  0.00     0.157 A 
ATOM      3  C   UNL     1     144.292 146.423 138.583  1.00  0.00     0.051 A 
ATOM      4  C   UNL     1     143.033 146.106 138.071  1.00  0.00     0.012 A 
ATOM      5  C   UNL     1     142.424 144.877 138.389  1.00  0.00    -0.022 A 
ATOM      6  C   UNL     1     143.094 143.990 139.249  1.00  0.00     0.058 A 
ENDROOT
BRANCH   1   7
ATOM      7  O   UNL     1     145.058 143.433 140.622  1.00  0.00    -0.493 OA
ATOM      8  C   UNL     1     144.944 142.014 140.594  1.00  0.00     0.278 C 
ENDBRANCH   1   7
BRANCH   2   9
ATOM      9  O   UNL     1     146.218 145.886 139.917  1.00  0.00    -0.504 OA
ATOM     10  H   UNL     1     147.018 146.019 139.310  1.00  0.00     0.293 HD
ENDBRANCH   2   9
BRANCH   5  11
ATOM     11  C   UNL     1     141.083 144.494 137.879  1.00  0.00     0.000 C 
ATOM     12  C   UNL     1     140.823 144.195 136.606  1.00  0.00     0.009 C 
ENDBRANCH   5  11
TORSDOF 3
ENDMDL
MODEL 2
REMARK VINA RESULT:    -2.686      9.330     11.037
REMARK INTER + INTRA:          -3.159
REMARK INTER:                  -3.070
REMARK INTRA:                  -0.089
REMARK UNBOUND:                -0.080
REMARK SMILES C=Cc1ccc(O)c(OC)c1
REMARK SMILES IDX 8 1 6 2 5 3 4 4 3 5 11 6 9 7 10 8 7 9 2 11 1 12
REMARK H PARENT 7 10
REMARK Flexibility Score: inf
ROOT
ATOM      1  C   UNL     1     145.979 133.386 140.034  1.00  0.00     0.161 A 
ATOM      2  C   UNL     1     147.344 133.272 139.718  1.00  0.00     0.157 A 
ATOM      3  C   UNL     1     147.943 134.200 138.862  1.00  0.00     0.051 A 
ATOM      4  C   UNL     1     147.196 135.241 138.310  1.00  0.00     0.012 A 
ATOM      5  C   UNL     1     145.824 135.366 138.601  1.00  0.00    -0.022 A 
ATOM      6  C   UNL     1     145.228 134.439 139.473  1.00  0.00     0.058 A 
ENDROOT
BRANCH   1   7
ATOM      7  O   UNL     1     145.404 132.443 140.901  1.00  0.00    -0.493 OA
ATOM      8  C   UNL     1     144.113 131.868 140.730  1.00  0.00     0.278 C 
ENDBRANCH   1   7
BRANCH   2   9
ATOM      9  O   UNL     1     148.124 132.246 140.250  1.00  0.00    -0.504 OA
ATOM     10  H   UNL     1     147.717 131.411 140.655  1.00  0.00     0.293 HD
ENDBRANCH   2   9
BRANCH   5  11
ATOM     11  C   UNL     1     144.986 136.459 138.047  1.00  0.00     0.000 C 
ATOM     12  C   UNL     1     144.987 136.830 136.767  1.00  0.00     0.009 C 
ENDBRANCH   5  11
TORSDOF 3
ENDMDL
MODEL 3
REMARK VINA RESULT:    -2.679      9.746     11.060
REMARK INTER + INTRA:          -3.151
REMARK INTER:                  -3.053
REMARK INTRA:                  -0.097
REMARK UNBOUND:                -0.080
REMARK SMILES C=Cc1ccc(O)c(OC)c1
REMARK SMILES IDX 8 1 6 2 5 3 4 4 3 5 11 6 9 7 10 8 7 9 2 11 1 12
REMARK H PARENT 7 10
REMARK Flexibility Score: inf
ROOT
ATOM      1  C   UNL     1     133.574 145.836 139.730  1.00  0.00     0.161 A 
ATOM      2  C   UNL     1     132.639 146.856 139.476  1.00  0.00     0.157 A 
ATOM      3  C   UNL     1     131.541 146.607 138.649  1.00  0.00     0.051 A 
ATOM      4  C   UNL     1     131.363 145.353 138.064  1.00  0.00     0.012 A 
ATOM      5  C   UNL     1     132.294 144.321 138.293  1.00  0.00    -0.022 A 
ATOM      6  C   UNL     1     133.390 144.571 139.137  1.00  0.00     0.058 A 
ENDROOT
BRANCH   1   7
ATOM      7  O   UNL     1     134.664 146.112 140.570  1.00  0.00    -0.493 OA
ATOM      8  C   UNL     1     134.712 145.811 141.961  1.00  0.00     0.278 C 
ENDBRANCH   1   7
BRANCH   2   9
ATOM      9  O   UNL     1     132.782 148.122 140.042  1.00  0.00    -0.504 OA
ATOM     10  H   UNL     1     132.989 148.943 139.485  1.00  0.00     0.293 HD
ENDBRANCH   2   9
BRANCH   5  11
ATOM     11  C   UNL     1     132.147 142.967 137.703  1.00  0.00     0.000 C 
ATOM     12  C   UNL     1     132.459 142.659 136.444  1.00  0.00     0.009 C 
ENDBRANCH   5  11
TORSDOF 3
ENDMDL
MODEL 4
REMARK VINA RESULT:    -2.677      1.507      3.062
REMARK INTER + INTRA:          -3.148
REMARK INTER:                  -3.068
REMARK INTRA:                  -0.080
REMARK UNBOUND:                -0.080
REMARK SMILES C=Cc1ccc(O)c(OC)c1
REMARK SMILES IDX 8 1 6 2 5 3 4 4 3 5 11 6 9 7 10 8 7 9 2 11 1 12
REMARK H PARENT 7 10
REMARK Flexibility Score: inf
ROOT
ATOM      1  C   UNL     1     144.088 145.837 138.862  1.00  0.00     0.161 A 
ATOM      2  C   UNL     1     145.131 145.280 139.624  1.00  0.00     0.157 A 
ATOM      3  C   UNL     1     145.013 143.981 140.126  1.00  0.00     0.051 A 
ATOM      4  C   UNL     1     143.864 143.228 139.882  1.00  0.00     0.012 A 
ATOM      5  C   UNL     1     142.801 143.770 139.134  1.00  0.00    -0.022 A 
ATOM      6  C   UNL     1     142.929 145.072 138.619  1.00  0.00     0.058 A 
ENDROOT
BRANCH   1   7
ATOM      7  O   UNL     1     144.236 147.141 138.365  1.00  0.00    -0.493 OA
ATOM      8  C   UNL     1     143.173 148.079 138.225  1.00  0.00     0.278 C 
ENDBRANCH   1   7
BRANCH   2   9
ATOM      9  O   UNL     1     146.294 146.001 139.889  1.00  0.00    -0.504 OA
ATOM     10  H   UNL     1     147.129 145.563 140.262  1.00  0.00     0.293 HD
ENDBRANCH   2   9
BRANCH   5  11
ATOM     11  C   UNL     1     141.562 143.009 138.839  1.00  0.00     0.000 C 
ATOM     12  C   UNL     1     141.468 142.060 137.907  1.00  0.00     0.009 C 
ENDBRANCH   5  11
TORSDOF 3
ENDMDL
MODEL 5
REMARK VINA RESULT:    -2.665     10.483     12.007
REMARK INTER + INTRA:          -3.134
REMARK INTER:                  -3.034
REMARK INTRA:                  -0.101
REMARK UNBOUND:                -0.080
REMARK SMILES C=Cc1ccc(O)c(OC)c1
REMARK SMILES IDX 8 1 6 2 5 3 4 4 3 5 11 6 9 7 10 8 7 9 2 11 1 12
REMARK H PARENT 7 10
REMARK Flexibility Score: inf
ROOT
ATOM      1  C   UNL     1     131.491 145.863 138.259  1.00  0.00     0.161 A 
ATOM      2  C   UNL     1     132.276 146.583 139.178  1.00  0.00     0.157 A 
ATOM      3  C   UNL     1     133.425 146.003 139.720  1.00  0.00     0.051 A 
ATOM      4  C   UNL     1     133.802 144.708 139.363  1.00  0.00     0.012 A 
ATOM      5  C   UNL     1     133.024 143.963 138.456  1.00  0.00    -0.022 A 
ATOM      6  C   UNL     1     131.876 144.556 137.901  1.00  0.00     0.058 A 
ENDROOT
BRANCH   1   7
ATOM      7  O   UNL     1     130.344 146.473 137.726  1.00  0.00    -0.493 OA
ATOM      8  C   UNL     1     129.012 146.203 138.150  1.00  0.00     0.278 C 
ENDBRANCH   1   7
BRANCH   2   9
ATOM      9  O   UNL     1     131.931 147.879 139.560  1.00  0.00    -0.504 OA
ATOM     10  H   UNL     1     132.572 148.484 140.060  1.00  0.00     0.293 HD
ENDBRANCH   2   9
BRANCH   5  11
ATOM     11  C   UNL     1     133.385 142.586 138.035  1.00  0.00     0.000 C 
ATOM     12  C   UNL     1     134.424 142.288 137.255  1.00  0.00     0.009 C 
ENDBRANCH   5  11
TORSDOF 3
ENDMDL
MODEL 6
REMARK VINA RESULT:    -2.578      2.110      3.932
REMARK INTER + INTRA:          -3.035
REMARK INTER:                  -2.936
REMARK INTRA:                  -0.099
REMARK UNBOUND:                -0.080
REMARK SMILES C=Cc1ccc(O)c(OC)c1
REMARK SMILES IDX 8 1 6 2 5 3 4 4 3 5 11 6 9 7 10 8 7 9 2 11 1 12
REMARK H PARENT 7 10
REMARK Flexibility Score: inf
ROOT
ATOM      1  C   UNL     1     142.399 145.068 138.282  1.00  0.00     0.161 A 
ATOM      2  C   UNL     1     143.299 146.148 138.238  1.00  0.00     0.157 A 
ATOM      3  C   UNL     1     144.497 146.089 138.955  1.00  0.00     0.051 A 
ATOM      4  C   UNL     1     144.811 144.966 139.721  1.00  0.00     0.012 A 
ATOM      5  C   UNL     1     143.919 143.879 139.791  1.00  0.00    -0.022 A 
ATOM      6  C   UNL     1     142.721 143.936 139.058  1.00  0.00     0.058 A 
ENDROOT
BRANCH   1   7
ATOM      7  O   UNL     1     141.205 145.152 137.549  1.00  0.00    -0.493 OA
ATOM      8  C   UNL     1     140.825 144.248 136.515  1.00  0.00     0.278 C 
ENDBRANCH   1   7
BRANCH   2   9
ATOM      9  O   UNL     1     143.020 147.288 137.484  1.00  0.00    -0.504 OA
ATOM     10  H   UNL     1     142.202 147.357 136.890  1.00  0.00     0.293 HD
ENDBRANCH   2   9
BRANCH   5  11
ATOM     11  C   UNL     1     144.208 142.658 140.583  1.00  0.00     0.000 C 
ATOM     12  C   UNL     1     145.393 142.048 140.616  1.00  0.00     0.009 C 
ENDBRANCH   5  11
TORSDOF 3
ENDMDL
MODEL 7
REMARK VINA RESULT:    -2.566      9.655     11.571
REMARK INTER + INTRA:          -3.022
REMARK INTER:                  -2.920
REMARK INTRA:                  -0.101
REMARK UNBOUND:                -0.080
REMARK SMILES C=Cc1ccc(O)c(OC)c1
REMARK SMILES IDX 8 1 6 2 5 3 4 4 3 5 11 6 9 7 10 8 7 9 2 11 1 12
REMARK H PARENT 7 10
REMARK Flexibility Score: inf
ROOT
ATOM      1  C   UNL     1     132.186 144.375 138.236  1.00  0.00     0.161 A 
ATOM      2  C   UNL     1     131.432 145.562 138.235  1.00  0.00     0.157 A 
ATOM      3  C   UNL     1     131.884 146.678 138.945  1.00  0.00     0.051 A 
ATOM      4  C   UNL     1     133.079 146.625 139.662  1.00  0.00     0.012 A 
ATOM      5  C   UNL     1     133.844 145.443 139.689  1.00  0.00    -0.022 A 
ATOM      6  C   UNL     1     133.393 144.327 138.963  1.00  0.00     0.058 A 
ENDROOT
BRANCH   1   7
ATOM      7  O   UNL     1     131.711 143.272 137.510  1.00  0.00    -0.493 OA
ATOM      8  C   UNL     1     132.429 142.619 136.468  1.00  0.00     0.278 C 
ENDBRANCH   1   7
BRANCH   2   9
ATOM      9  O   UNL     1     130.233 145.654 137.530  1.00  0.00    -0.504 OA
ATOM     10  H   UNL     1     130.102 146.308 136.768  1.00  0.00     0.293 HD
ENDBRANCH   2   9
BRANCH   5  11
ATOM     11  C   UNL     1     135.126 145.337 140.430  1.00  0.00     0.000 C 
ATOM     12  C   UNL     1     135.911 146.373 140.723  1.00  0.00     0.009 C 
ENDBRANCH   5  11
TORSDOF 3
ENDMDL
MODEL 8
REMARK VINA RESULT:    -2.516     14.988     16.186
REMARK INTER + INTRA:          -2.964
REMARK INTER:                  -2.872
REMARK INTRA:                  -0.092
REMARK UNBOUND:                -0.080
REMARK SMILES C=Cc1ccc(O)c(OC)c1
REMARK SMILES IDX 8 1 6 2 5 3 4 4 3 5 11 6 9 7 10 8 7 9 2 11 1 12
REMARK H PARENT 7 10
REMARK Flexibility Score: inf
ROOT
ATOM      1  C   UNL     1     132.495 133.327 137.505  1.00  0.00     0.161 A 
ATOM      2  C   UNL     1     132.140 133.478 136.153  1.00  0.00     0.157 A 
ATOM      3  C   UNL     1     133.111 133.347 135.157  1.00  0.00     0.051 A 
ATOM      4  C   UNL     1     134.437 133.070 135.492  1.00  0.00     0.012 A 
ATOM      5  C   UNL     1     134.818 132.929 136.840  1.00  0.00    -0.022 A 
ATOM      6  C   UNL     1     133.836 133.048 137.838  1.00  0.00     0.058 A 
ENDROOT
BRANCH   1   7
ATOM      7  O   UNL     1     131.498 133.460 138.485  1.00  0.00    -0.493 OA
ATOM      8  C   UNL     1     130.784 132.372 139.066  1.00  0.00     0.278 C 
ENDBRANCH   1   7
BRANCH   2   9
ATOM      9  O   UNL     1     130.826 133.756 135.779  1.00  0.00    -0.504 OA
ATOM     10  H   UNL     1     130.161 133.024 135.557  1.00  0.00     0.293 HD
ENDBRANCH   2   9
BRANCH   5  11
ATOM     11  C   UNL     1     136.212 132.626 137.249  1.00  0.00     0.000 C 
ATOM     12  C   UNL     1     136.543 131.728 138.177  1.00  0.00     0.009 C 
ENDBRANCH   5  11
TORSDOF 3
ENDMDL
MODEL 9
REMARK VINA RESULT:    -2.509     12.595     13.260
REMARK INTER + INTRA:          -2.956
REMARK INTER:                  -2.865
REMARK INTRA:                  -0.091
REMARK UNBOUND:                -0.080
REMARK SMILES C=Cc1ccc(O)c(OC)c1
REMARK SMILES IDX 8 1 6 2 5 3 4 4 3 5 11 6 9 7 10 8 7 9 2 11 1 12
REMARK H PARENT 7 10
REMARK Flexibility Score: inf
ROOT
ATOM      1  C   UNL     1     131.886 140.960 137.399  1.00  0.00     0.161 A 
ATOM      2  C   UNL     1     132.017 141.337 136.050  1.00  0.00     0.157 A 
ATOM      3  C   UNL     1     132.259 140.368 135.074  1.00  0.00     0.051 A 
ATOM      4  C   UNL     1     132.377 139.022 135.424  1.00  0.00     0.012 A 
ATOM      5  C   UNL     1     132.263 138.623 136.769  1.00  0.00    -0.022 A 
ATOM      6  C   UNL     1     132.006 139.600 137.747  1.00  0.00     0.058 A 
ENDROOT
BRANCH   1   7
ATOM      7  O   UNL     1     131.638 141.954 138.358  1.00  0.00    -0.493 OA
ATOM      8  C   UNL     1     130.346 142.309 138.842  1.00  0.00     0.278 C 
ENDBRANCH   1   7
BRANCH   2   9
ATOM      9  O   UNL     1     131.906 142.672 135.661  1.00  0.00    -0.504 OA
ATOM     10  H   UNL     1     132.717 143.263 135.518  1.00  0.00     0.293 HD
ENDBRANCH   2   9
BRANCH   5  11
ATOM     11  C   UNL     1     132.371 137.205 137.194  1.00  0.00     0.000 C 
ATOM     12  C   UNL     1     131.587 136.634 138.108  1.00  0.00     0.009 C 
ENDBRANCH   5  11
TORSDOF 3
ENDMDL
