MODEL 1
REMARK VINA RESULT:    -4.825      0.000      0.000
REMARK INTER + INTRA:          -6.132
REMARK INTER:                  -5.953
REMARK INTRA:                  -0.179
REMARK UNBOUND:                -0.179
REMARK SMILES CCCCC=CC(C)=O
REMARK SMILES IDX 4 1 3 2 2 3 1 4 5 5 6 6 7 7 9 8 8 9
REMARK H PARENT
REMARK Flexibility Score: inf
ROOT
ATOM      1  C   UNL     1      88.279  38.630  28.541  1.00  0.00     0.027 C 
ENDROOT
BRANCH   1   2
ATOM      2  C   UNL     1      86.913  38.353  29.201  1.00  0.00     0.004 C 
BRANCH   2   3
ATOM      3  C   UNL     1      86.304  39.579  29.902  1.00  0.00    -0.003 C 
ATOM      4  C   UNL     1      85.014  39.258  30.656  1.00  0.00     0.004 C 
ENDBRANCH   2   3
ENDBRANCH   1   2
BRANCH   1   5
ATOM      5  C   UNL     1      88.281  38.352  27.060  1.00  0.00    -0.023 C 
ATOM      6  C   UNL     1      89.101  38.910  26.154  1.00  0.00     0.042 C 
BRANCH   6   7
ATOM      7  C   UNL     1      90.137  39.935  26.420  1.00  0.00     0.152 C 
ATOM      8  O   UNL     1      89.917  41.162  26.236  1.00  0.00    -0.295 OA
ATOM      9  C   UNL     1      91.501  39.501  26.848  1.00  0.00     0.093 C 
ENDBRANCH   6   7
ENDBRANCH   1   5
TORSDOF 4
ENDMDL
MODEL 2
REMARK VINA RESULT:    -4.738      2.918      4.918
REMARK INTER + INTRA:          -6.025
REMARK INTER:                  -5.846
REMARK INTRA:                  -0.179
REMARK UNBOUND:                -0.179
REMARK SMILES CCCCC=CC(C)=O
REMARK SMILES IDX 4 1 3 2 2 3 1 4 5 5 6 6 7 7 9 8 8 9
REMARK H PARENT
REMARK Flexibility Score: inf
ROOT
ATOM      1  C   UNL     1      88.556  37.907  24.634  1.00  0.00     0.027 C 
ENDROOT
BRANCH   1   2
ATOM      2  C   UNL     1      87.820  36.671  24.077  1.00  0.00     0.004 C 
BRANCH   2   3
ATOM      3  C   UNL     1      88.724  35.722  23.271  1.00  0.00    -0.003 C 
ATOM      4  C   UNL     1      88.002  34.458  22.807  1.00  0.00     0.004 C 
ENDBRANCH   2   3
ENDBRANCH   1   2
BRANCH   1   5
ATOM      5  C   UNL     1      88.223  38.186  26.076  1.00  0.00    -0.023 C 
ATOM      6  C   UNL     1      88.990  38.864  26.946  1.00  0.00     0.042 C 
BRANCH   6   7
ATOM      7  C   UNL     1      90.330  39.436  26.676  1.00  0.00     0.152 C 
ATOM      8  O   UNL     1      91.385  38.784  26.897  1.00  0.00    -0.295 OA
ATOM      9  C   UNL     1      90.438  40.847  26.196  1.00  0.00     0.093 C 
ENDBRANCH   6   7
ENDBRANCH   1   5
TORSDOF 4
ENDMDL
MODEL 3
REMARK VINA RESULT:    -4.542      1.192      1.884
REMARK INTER + INTRA:          -5.784
REMARK INTER:                  -5.515
REMARK INTRA:                  -0.269
REMARK UNBOUND:                -0.179
REMARK SMILES CCCCC=CC(C)=O
REMARK SMILES IDX 4 1 3 2 2 3 1 4 5 5 6 6 7 7 9 8 8 9
REMARK H PARENT
REMARK Flexibility Score: inf
ROOT
ATOM      1  C   UNL     1      88.238  38.640  28.479  1.00  0.00     0.027 C 
ENDROOT
BRANCH   1   2
ATOM      2  C   UNL     1      87.070  37.921  29.185  1.00  0.00     0.004 C 
BRANCH   2   3
ATOM      3  C   UNL     1      86.630  36.622  28.488  1.00  0.00    -0.003 C 
ATOM      4  C   UNL     1      86.967  35.367  29.293  1.00  0.00     0.004 C 
ENDBRANCH   2   3
ENDBRANCH   1   2
BRANCH   1   5
ATOM      5  C   UNL     1      88.311  38.332  27.007  1.00  0.00    -0.023 C 
ATOM      6  C   UNL     1      89.183  38.862  26.133  1.00  0.00     0.042 C 
BRANCH   6   7
ATOM      7  C   UNL     1      90.216  39.881  26.430  1.00  0.00     0.152 C 
ATOM      8  O   UNL     1      90.022  41.105  26.205  1.00  0.00    -0.295 OA
ATOM      9  C   UNL     1      91.549  39.441  26.942  1.00  0.00     0.093 C 
ENDBRANCH   6   7
ENDBRANCH   1   5
TORSDOF 4
ENDMDL
MODEL 4
REMARK VINA RESULT:    -4.245      2.638      5.024
REMARK INTER + INTRA:          -5.417
REMARK INTER:                  -5.167
REMARK INTRA:                  -0.249
REMARK UNBOUND:                -0.179
REMARK SMILES CCCCC=CC(C)=O
REMARK SMILES IDX 4 1 3 2 2 3 1 4 5 5 6 6 7 7 9 8 8 9
REMARK H PARENT
REMARK Flexibility Score: inf
ROOT
ATOM      1  C   UNL     1      89.153  38.537  27.711  1.00  0.00     0.027 C 
ENDROOT
BRANCH   1   2
ATOM      2  C   UNL     1      89.062  39.540  26.544  1.00  0.00     0.004 C 
BRANCH   2   3
ATOM      3  C   UNL     1      90.338  40.377  26.344  1.00  0.00    -0.003 C 
ATOM      4  C   UNL     1      91.597  39.681  26.861  1.00  0.00     0.004 C 
ENDBRANCH   2   3
ENDBRANCH   1   2
BRANCH   1   5
ATOM      5  C   UNL     1      88.063  38.727  28.732  1.00  0.00    -0.023 C 
ATOM      6  C   UNL     1      87.069  37.862  28.996  1.00  0.00     0.042 C 
BRANCH   6   7
ATOM      7  C   UNL     1      86.822  36.572  28.311  1.00  0.00     0.152 C 
ATOM      8  O   UNL     1      87.134  35.471  28.839  1.00  0.00    -0.295 OA
ATOM      9  C   UNL     1      86.254  36.577  26.929  1.00  0.00     0.093 C 
ENDBRANCH   6   7
ENDBRANCH   1   5
TORSDOF 4
ENDMDL
MODEL 5
REMARK VINA RESULT:    -4.227      3.407      5.042
REMARK INTER + INTRA:          -5.395
REMARK INTER:                  -5.140
REMARK INTRA:                  -0.255
REMARK UNBOUND:                -0.179
REMARK SMILES CCCCC=CC(C)=O
REMARK SMILES IDX 4 1 3 2 2 3 1 4 5 5 6 6 7 7 9 8 8 9
REMARK H PARENT
REMARK Flexibility Score: inf
ROOT
ATOM      1  C   UNL     1      88.258  38.227  26.519  1.00  0.00     0.027 C 
ENDROOT
BRANCH   1   2
ATOM      2  C   UNL     1      89.253  39.050  27.362  1.00  0.00     0.004 C 
BRANCH   2   3
ATOM      3  C   UNL     1      90.561  39.386  26.625  1.00  0.00    -0.003 C 
ATOM      4  C   UNL     1      90.674  40.863  26.248  1.00  0.00     0.004 C 
ENDBRANCH   2   3
ENDBRANCH   1   2
BRANCH   1   5
ATOM      5  C   UNL     1      88.667  38.116  25.074  1.00  0.00    -0.023 C 
ATOM      6  C   UNL     1      87.979  37.488  24.106  1.00  0.00     0.042 C 
BRANCH   6   7
ATOM      7  C   UNL     1      86.707  36.747  24.270  1.00  0.00     0.152 C 
ATOM      8  O   UNL     1      86.686  35.500  24.449  1.00  0.00    -0.295 OA
ATOM      9  C   UNL     1      85.413  37.484  24.151  1.00  0.00     0.093 C 
ENDBRANCH   6   7
ENDBRANCH   1   5
TORSDOF 4
ENDMDL
MODEL 6
REMARK VINA RESULT:    -4.208      2.496      5.041
REMARK INTER + INTRA:          -5.371
REMARK INTER:                  -5.094
REMARK INTRA:                  -0.278
REMARK UNBOUND:                -0.179
REMARK SMILES CCCCC=CC(C)=O
REMARK SMILES IDX 4 1 3 2 2 3 1 4 5 5 6 6 7 7 9 8 8 9
REMARK H PARENT
REMARK Flexibility Score: inf
ROOT
ATOM      1  C   UNL     1      88.176  38.224  26.788  1.00  0.00     0.027 C 
ENDROOT
BRANCH   1   2
ATOM      2  C   UNL     1      89.271  38.796  25.865  1.00  0.00     0.004 C 
BRANCH   2   3
ATOM      3  C   UNL     1      89.800  40.171  26.308  1.00  0.00    -0.003 C 
ATOM      4  C   UNL     1      91.299  40.170  26.604  1.00  0.00     0.004 C 
ENDBRANCH   2   3
ENDBRANCH   1   2
BRANCH   1   5
ATOM      5  C   UNL     1      88.309  38.692  28.214  1.00  0.00    -0.023 C 
ATOM      6  C   UNL     1      87.589  38.252  29.259  1.00  0.00     0.042 C 
BRANCH   6   7
ATOM      7  C   UNL     1      86.496  37.253  29.215  1.00  0.00     0.152 C 
ATOM      8  O   UNL     1      85.288  37.597  29.113  1.00  0.00    -0.295 OA
ATOM      9  C   UNL     1      86.826  35.804  29.367  1.00  0.00     0.093 C 
ENDBRANCH   6   7
ENDBRANCH   1   5
TORSDOF 4
ENDMDL
MODEL 7
REMARK VINA RESULT:    -3.983      2.785      5.120
REMARK INTER + INTRA:          -5.093
REMARK INTER:                  -5.028
REMARK INTRA:                  -0.065
REMARK UNBOUND:                -0.179
REMARK SMILES CCCCC=CC(C)=O
REMARK SMILES IDX 4 1 3 2 2 3 1 4 5 5 6 6 7 7 9 8 8 9
REMARK H PARENT
REMARK Flexibility Score: inf
ROOT
ATOM      1  C   UNL     1      87.965  38.244  25.513  1.00  0.00     0.027 C 
ENDROOT
BRANCH   1   2
ATOM      2  C   UNL     1      88.488  37.530  24.250  1.00  0.00     0.004 C 
BRANCH   2   3
ATOM      3  C   UNL     1      87.633  36.324  23.821  1.00  0.00    -0.003 C 
ATOM      4  C   UNL     1      88.400  35.325  22.954  1.00  0.00     0.004 C 
ENDBRANCH   2   3
ENDBRANCH   1   2
BRANCH   1   5
ATOM      5  C   UNL     1      89.071  38.691  26.433  1.00  0.00    -0.023 C 
ATOM      6  C   UNL     1      89.007  38.749  27.773  1.00  0.00     0.042 C 
BRANCH   6   7
ATOM      7  C   UNL     1      87.828  38.428  28.612  1.00  0.00     0.152 C 
ATOM      8  O   UNL     1      87.289  39.291  29.354  1.00  0.00    -0.295 OA
ATOM      9  C   UNL     1      87.308  37.027  28.633  1.00  0.00     0.093 C 
ENDBRANCH   6   7
ENDBRANCH   1   5
TORSDOF 4
ENDMDL
MODEL 8
REMARK VINA RESULT:    -3.970      2.508      5.324
REMARK INTER + INTRA:          -5.077
REMARK INTER:                  -4.893
REMARK INTRA:                  -0.184
REMARK UNBOUND:                -0.179
REMARK SMILES CCCCC=CC(C)=O
REMARK SMILES IDX 4 1 3 2 2 3 1 4 5 5 6 6 7 7 9 8 8 9
REMARK H PARENT
REMARK Flexibility Score: inf
ROOT
ATOM      1  C   UNL     1      87.822  38.637  28.956  1.00  0.00     0.027 C 
ENDROOT
BRANCH   1   2
ATOM      2  C   UNL     1      88.296  38.417  27.505  1.00  0.00     0.004 C 
BRANCH   2   3
ATOM      3  C   UNL     1      89.677  39.025  27.205  1.00  0.00    -0.003 C 
ATOM      4  C   UNL     1      89.611  40.228  26.264  1.00  0.00     0.004 C 
ENDBRANCH   2   3
ENDBRANCH   1   2
BRANCH   1   5
ATOM      5  C   UNL     1      86.910  37.544  29.446  1.00  0.00    -0.023 C 
ATOM      6  C   UNL     1      85.687  37.715  29.976  1.00  0.00     0.042 C 
BRANCH   6   7
ATOM      7  C   UNL     1      85.009  39.009  30.221  1.00  0.00     0.152 C 
ATOM      8  O   UNL     1      85.334  39.755  31.183  1.00  0.00    -0.295 OA
ATOM      9  C   UNL     1      83.861  39.408  29.351  1.00  0.00     0.093 C 
ENDBRANCH   6   7
ENDBRANCH   1   5
TORSDOF 4
ENDMDL
MODEL 9
REMARK VINA RESULT:    -3.909      4.146      5.573
REMARK INTER + INTRA:          -5.003
REMARK INTER:                  -4.757
REMARK INTRA:                  -0.246
REMARK UNBOUND:                -0.179
REMARK SMILES CCCCC=CC(C)=O
REMARK SMILES IDX 4 1 3 2 2 3 1 4 5 5 6 6 7 7 9 8 8 9
REMARK H PARENT
REMARK Flexibility Score: inf
ROOT
ATOM      1  C   UNL     1      87.307  37.473  25.546  1.00  0.00     0.027 C 
ENDROOT
BRANCH   1   2
ATOM      2  C   UNL     1      88.572  38.292  25.218  1.00  0.00     0.004 C 
BRANCH   2   3
ATOM      3  C   UNL     1      89.210  38.965  26.446  1.00  0.00    -0.003 C 
ATOM      4  C   UNL     1      89.677  40.394  26.171  1.00  0.00     0.004 C 
ENDBRANCH   2   3
ENDBRANCH   1   2
BRANCH   1   5
ATOM      5  C   UNL     1      86.309  37.461  24.418  1.00  0.00    -0.023 C 
ATOM      6  C   UNL     1      86.137  36.471  23.527  1.00  0.00     0.042 C 
BRANCH   6   7
ATOM      7  C   UNL     1      86.919  35.215  23.448  1.00  0.00     0.152 C 
ATOM      8  O   UNL     1      86.480  34.131  23.918  1.00  0.00    -0.295 OA
ATOM      9  C   UNL     1      88.292  35.246  22.860  1.00  0.00     0.093 C 
ENDBRANCH   6   7
ENDBRANCH   1   5
TORSDOF 4
ENDMDL
