MODEL 1
REMARK VINA RESULT:    17.534      0.000      0.000
REMARK INTER + INTRA:          18.934
REMARK INTER:                  18.559
REMARK INTRA:                   0.376
REMARK UNBOUND:                 0.376
REMARK SMILES C=C(C)[C@H]1CC[C@@H](C)[C@]12CC=C(C)CC2
REMARK SMILES IDX 8 1 7 2 6 3 5 4 4 5 9 6 15 7 14 8 12 9 11 10 10 11 13 12
REMARK SMILES IDX 2 13 1 14 3 15
REMARK H PARENT
REMARK Flexibility Score: inf
ROOT
ATOM      1  C   UNL     1       1.173   3.735 -10.385  1.00  0.00     0.008 C 
ATOM      2  C   UNL     1       1.250   4.988  -9.501  1.00  0.00    -0.007 C 
ATOM      3  C   UNL     1       1.322   4.609  -8.015  1.00  0.00     0.004 C 
ATOM      4  C   UNL     1       0.712   5.767  -7.232  1.00  0.00     0.009 C 
ATOM      5  C   UNL     1       0.309   6.817  -8.274  1.00  0.00     0.021 C 
ATOM      6  C   UNL     1       0.116   6.057  -9.623  1.00  0.00    -0.017 C 
ATOM      7  C   UNL     1      -1.320   5.458  -9.757  1.00  0.00     0.012 C 
ATOM      8  C   UNL     1      -1.674   4.892 -11.149  1.00  0.00     0.031 C 
ATOM      9  C   UNL     1      -0.957   5.545 -12.312  1.00  0.00    -0.077 C 
ATOM     10  C   UNL     1       0.015   6.458 -12.138  1.00  0.00    -0.027 C 
ATOM     11  C   UNL     1       0.352   7.041 -10.797  1.00  0.00     0.035 C 
ATOM     12  C   UNL     1      -1.279   5.081 -13.706  1.00  0.00     0.039 C 
ENDROOT
BRANCH   5  13
ATOM     13  C   UNL     1      -0.807   7.767  -7.826  1.00  0.00    -0.077 C 
ATOM     14  C   UNL     1      -2.111   7.448  -7.914  1.00  0.00     0.008 C 
ATOM     15  C   UNL     1      -0.447   9.105  -7.231  1.00  0.00     0.039 C 
ENDBRANCH   5  13
TORSDOF 1
ENDMDL
MODEL 2
REMARK VINA RESULT:    19.170     10.412     11.656
REMARK INTER + INTRA:          20.666
REMARK INTER:                  20.134
REMARK INTRA:                   0.532
REMARK UNBOUND:                 0.376
REMARK SMILES C=C(C)[C@H]1CC[C@@H](C)[C@]12CC=C(C)CC2
REMARK SMILES IDX 8 1 7 2 6 3 5 4 4 5 9 6 15 7 14 8 12 9 11 10 10 11 13 12
REMARK SMILES IDX 2 13 1 14 3 15
REMARK H PARENT
REMARK Flexibility Score: inf
ROOT
ATOM      1  C   UNL     1      13.151   6.874  -7.413  1.00  0.00     0.008 C 
ATOM      2  C   UNL     1      11.941   7.485  -6.691  1.00  0.00    -0.007 C 
ATOM      3  C   UNL     1      11.141   6.406  -5.948  1.00  0.00     0.004 C 
ATOM      4  C   UNL     1       9.698   6.895  -5.875  1.00  0.00     0.009 C 
ATOM      5  C   UNL     1       9.680   8.266  -6.561  1.00  0.00     0.021 C 
ATOM      6  C   UNL     1      10.902   8.296  -7.531  1.00  0.00    -0.017 C 
ATOM      7  C   UNL     1      10.564   7.663  -8.919  1.00  0.00     0.012 C 
ATOM      8  C   UNL     1      11.635   7.857 -10.014  1.00  0.00     0.031 C 
ATOM      9  C   UNL     1      12.476   9.108  -9.879  1.00  0.00    -0.077 C 
ATOM     10  C   UNL     1      12.389   9.923  -8.811  1.00  0.00    -0.027 C 
ATOM     11  C   UNL     1      11.336   9.767  -7.754  1.00  0.00     0.035 C 
ATOM     12  C   UNL     1      13.513   9.395 -10.930  1.00  0.00     0.039 C 
ENDROOT
BRANCH   5  13
ATOM     13  C   UNL     1       8.316   8.683  -7.121  1.00  0.00    -0.077 C 
ATOM     14  C   UNL     1       8.032   8.657  -8.437  1.00  0.00     0.008 C 
ATOM     15  C   UNL     1       7.226   9.114  -6.173  1.00  0.00     0.039 C 
ENDBRANCH   5  13
TORSDOF 1
ENDMDL
