MODEL 1
REMARK VINA RESULT:    -5.430      0.000      0.000
REMARK INTER + INTRA:         -17.671
REMARK INTER:                 -14.317
REMARK INTRA:                  -3.354
REMARK UNBOUND:                -3.354
REMARK SMILES CCCCCCCCCCCCCCCCCCCCCCCCCCCCCC(=O)[O-]
REMARK SMILES IDX 16 1 17 2 18 3 19 4 20 5 21 6 22 7 23 8 24 9 25 10 26 11
REMARK SMILES IDX 27 12 28 13 29 14 30 15 31 16 32 17 15 18 14 19 13 20 12 21
REMARK SMILES IDX 11 22 10 23 9 24 8 25 7 26 6 27 5 28 4 29 3 30 2 31 1 32
REMARK H PARENT
REMARK Flexibility Score: inf
ROOT
ATOM      1  C   UNL     1      15.860  -4.865  34.198  1.00  0.00     0.000 C 
ENDROOT
BRANCH   1   2
ATOM      2  C   UNL     1      16.271  -4.742  35.673  1.00  0.00     0.000 C 
BRANCH   2   3
ATOM      3  C   UNL     1      17.041  -5.974  36.186  1.00  0.00     0.000 C 
BRANCH   3   4
ATOM      4  C   UNL     1      18.373  -5.665  36.899  1.00  0.00     0.000 C 
BRANCH   4   5
ATOM      5  C   UNL     1      19.606  -6.064  36.075  1.00  0.00     0.000 C 
BRANCH   5   6
ATOM      6  C   UNL     1      19.500  -7.512  35.577  1.00  0.00     0.000 C 
BRANCH   6   7
ATOM      7  C   UNL     1      19.247  -7.552  34.064  1.00  0.00     0.000 C 
BRANCH   7   8
ATOM      8  C   UNL     1      19.286  -6.141  33.451  1.00  0.00     0.000 C 
BRANCH   8   9
ATOM      9  C   UNL     1      20.380  -5.999  32.381  1.00  0.00     0.000 C 
BRANCH   9  10
ATOM     10  C   UNL     1      21.027  -4.604  32.378  1.00  0.00     0.000 C 
BRANCH  10  11
ATOM     11  C   UNL     1      20.633  -3.772  33.609  1.00  0.00     0.000 C 
BRANCH  11  12
ATOM     12  C   UNL     1      19.235  -3.130  33.532  1.00  0.00     0.000 C 
BRANCH  12  13
ATOM     13  C   UNL     1      18.812  -2.404  34.829  1.00  0.00     0.006 C 
BRANCH  13  14
ATOM     14  C   UNL     1      19.998  -1.846  35.634  1.00  0.00     0.053 C 
BRANCH  14  15
ATOM     15  C   UNL     1      19.792  -0.407  36.008  1.00  0.00     0.041 C 
ATOM     16  O   UNL     1      20.396   0.083  37.000  1.00  0.00    -0.550 OA
ATOM     17  O   UNL     1      18.881   0.374  35.307  1.00  0.00    -0.550 OA
ENDBRANCH  14  15
ENDBRANCH  13  14
ENDBRANCH  12  13
ENDBRANCH  11  12
ENDBRANCH  10  11
ENDBRANCH   9  10
ENDBRANCH   8   9
ENDBRANCH   7   8
ENDBRANCH   6   7
ENDBRANCH   5   6
ENDBRANCH   4   5
ENDBRANCH   3   4
ENDBRANCH   2   3
ENDBRANCH   1   2
BRANCH   1  18
ATOM     18  C   UNL     1      15.773  -6.336  33.771  1.00  0.00     0.000 C 
BRANCH  18  19
ATOM     19  C   UNL     1      15.921  -6.532  32.249  1.00  0.00     0.000 C 
BRANCH  19  20
ATOM     20  C   UNL     1      16.324  -5.247  31.493  1.00  0.00     0.000 C 
BRANCH  20  21
ATOM     21  C   UNL     1      15.857  -5.248  30.026  1.00  0.00     0.000 C 
BRANCH  21  22
ATOM     22  C   UNL     1      15.498  -3.833  29.534  1.00  0.00     0.000 C 
BRANCH  22  23
ATOM     23  C   UNL     1      15.514  -3.731  28.002  1.00  0.00     0.000 C 
BRANCH  23  24
ATOM     24  C   UNL     1      15.877  -2.311  27.538  1.00  0.00    -0.000 C 
BRANCH  24  25
ATOM     25  C   UNL     1      15.263  -1.961  26.165  1.00  0.00    -0.000 C 
BRANCH  25  26
ATOM     26  C   UNL     1      13.797  -1.482  26.228  1.00  0.00    -0.000 C 
BRANCH  26  27
ATOM     27  C   UNL     1      13.560   0.002  25.877  1.00  0.00    -0.000 C 
BRANCH  27  28
ATOM     28  C   UNL     1      14.708   0.947  26.279  1.00  0.00    -0.000 C 
BRANCH  28  29
ATOM     29  C   UNL     1      14.700   1.286  27.780  1.00  0.00    -0.000 C 
BRANCH  29  30
ATOM     30  C   UNL     1      13.412   0.813  28.472  1.00  0.00    -0.000 C 
BRANCH  30  31
ATOM     31  C   UNL     1      13.619   0.587  29.979  1.00  0.00    -0.003 C 
ATOM     32  C   UNL     1      14.781  -0.368  30.238  1.00  0.00     0.004 C 
ENDBRANCH  30  31
ENDBRANCH  29  30
ENDBRANCH  28  29
ENDBRANCH  27  28
ENDBRANCH  26  27
ENDBRANCH  25  26
ENDBRANCH  24  25
ENDBRANCH  23  24
ENDBRANCH  22  23
ENDBRANCH  21  22
ENDBRANCH  20  21
ENDBRANCH  19  20
ENDBRANCH  18  19
ENDBRANCH   1  18
TORSDOF 28
ENDMDL
MODEL 2
REMARK VINA RESULT:    -5.149      7.279     12.918
REMARK INTER + INTRA:         -16.931
REMARK INTER:                 -13.179
REMARK INTRA:                  -3.751
REMARK UNBOUND:                -3.354
REMARK SMILES CCCCCCCCCCCCCCCCCCCCCCCCCCCCCC(=O)[O-]
REMARK SMILES IDX 16 1 17 2 18 3 19 4 20 5 21 6 22 7 23 8 24 9 25 10 26 11
REMARK SMILES IDX 27 12 28 13 29 14 30 15 31 16 32 17 15 18 14 19 13 20 12 21
REMARK SMILES IDX 11 22 10 23 9 24 8 25 7 26 6 27 5 28 4 29 3 30 2 31 1 32
REMARK H PARENT
REMARK Flexibility Score: inf
ROOT
ATOM      1  C   UNL     1      13.502   4.911  23.312  1.00  0.00     0.000 C 
ENDROOT
BRANCH   1   2
ATOM      2  C   UNL     1      13.607   3.726  24.282  1.00  0.00     0.000 C 
BRANCH   2   3
ATOM      3  C   UNL     1      14.947   2.974  24.169  1.00  0.00     0.000 C 
BRANCH   3   4
ATOM      4  C   UNL     1      15.237   1.975  25.307  1.00  0.00     0.000 C 
BRANCH   4   5
ATOM      5  C   UNL     1      14.422   2.255  26.579  1.00  0.00     0.000 C 
BRANCH   5   6
ATOM      6  C   UNL     1      14.870   1.355  27.738  1.00  0.00     0.000 C 
BRANCH   6   7
ATOM      7  C   UNL     1      13.708   1.091  28.705  1.00  0.00     0.000 C 
BRANCH   7   8
ATOM      8  C   UNL     1      14.040  -0.049  29.684  1.00  0.00     0.000 C 
BRANCH   8   9
ATOM      9  C   UNL     1      15.369  -0.742  29.345  1.00  0.00     0.000 C 
BRANCH   9  10
ATOM     10  C   UNL     1      15.172  -2.035  28.535  1.00  0.00     0.000 C 
BRANCH  10  11
ATOM     11  C   UNL     1      15.934  -2.013  27.201  1.00  0.00     0.000 C 
BRANCH  11  12
ATOM     12  C   UNL     1      15.039  -1.921  25.950  1.00  0.00     0.000 C 
BRANCH  12  13
ATOM     13  C   UNL     1      13.565  -1.578  26.265  1.00  0.00     0.006 C 
BRANCH  13  14
ATOM     14  C   UNL     1      12.947  -0.570  25.283  1.00  0.00     0.053 C 
BRANCH  14  15
ATOM     15  C   UNL     1      11.634  -0.038  25.780  1.00  0.00     0.041 C 
ATOM     16  O   UNL     1      11.149  -0.458  26.865  1.00  0.00    -0.550 OA
ATOM     17  O   UNL     1      10.912   0.867  25.012  1.00  0.00    -0.550 OA
ENDBRANCH  14  15
ENDBRANCH  13  14
ENDBRANCH  12  13
ENDBRANCH  11  12
ENDBRANCH  10  11
ENDBRANCH   9  10
ENDBRANCH   8   9
ENDBRANCH   7   8
ENDBRANCH   6   7
ENDBRANCH   5   6
ENDBRANCH   4   5
ENDBRANCH   3   4
ENDBRANCH   2   3
ENDBRANCH   1   2
BRANCH   1  18
ATOM     18  C   UNL     1      12.492   4.621  22.194  1.00  0.00     0.000 C 
BRANCH  18  19
ATOM     19  C   UNL     1      11.691   5.867  21.765  1.00  0.00     0.000 C 
BRANCH  19  20
ATOM     20  C   UNL     1      12.529   7.163  21.734  1.00  0.00     0.000 C 
BRANCH  20  21
ATOM     21  C   UNL     1      12.594   7.798  20.333  1.00  0.00     0.000 C 
BRANCH  21  22
ATOM     22  C   UNL     1      11.308   7.544  19.524  1.00  0.00     0.000 C 
BRANCH  22  23
ATOM     23  C   UNL     1      11.583   7.445  18.016  1.00  0.00     0.000 C 
BRANCH  23  24
ATOM     24  C   UNL     1      10.289   7.189  17.226  1.00  0.00    -0.000 C 
BRANCH  24  25
ATOM     25  C   UNL     1       9.072   6.947  18.145  1.00  0.00    -0.000 C 
BRANCH  25  26
ATOM     26  C   UNL     1       8.175   5.766  17.713  1.00  0.00    -0.000 C 
BRANCH  26  27
ATOM     27  C   UNL     1       7.955   4.667  18.774  1.00  0.00    -0.000 C 
BRANCH  27  28
ATOM     28  C   UNL     1       9.053   4.587  19.851  1.00  0.00    -0.000 C 
BRANCH  28  29
ATOM     29  C   UNL     1       9.996   3.388  19.650  1.00  0.00    -0.000 C 
BRANCH  29  30
ATOM     30  C   UNL     1      10.163   3.028  18.165  1.00  0.00    -0.000 C 
BRANCH  30  31
ATOM     31  C   UNL     1      11.632   3.111  17.715  1.00  0.00    -0.003 C 
ATOM     32  C   UNL     1      12.371   4.225  18.452  1.00  0.00     0.004 C 
ENDBRANCH  30  31
ENDBRANCH  29  30
ENDBRANCH  28  29
ENDBRANCH  27  28
ENDBRANCH  26  27
ENDBRANCH  25  26
ENDBRANCH  24  25
ENDBRANCH  23  24
ENDBRANCH  22  23
ENDBRANCH  21  22
ENDBRANCH  20  21
ENDBRANCH  19  20
ENDBRANCH  18  19
ENDBRANCH   1  18
TORSDOF 28
ENDMDL
MODEL 3
REMARK VINA RESULT:    -5.146      7.023     12.525
REMARK INTER + INTRA:         -16.924
REMARK INTER:                 -12.557
REMARK INTRA:                  -4.367
REMARK UNBOUND:                -3.354
REMARK SMILES CCCCCCCCCCCCCCCCCCCCCCCCCCCCCC(=O)[O-]
REMARK SMILES IDX 16 1 17 2 18 3 19 4 20 5 21 6 22 7 23 8 24 9 25 10 26 11
REMARK SMILES IDX 27 12 28 13 29 14 30 15 31 16 32 17 15 18 14 19 13 20 12 21
REMARK SMILES IDX 11 22 10 23 9 24 8 25 7 26 6 27 5 28 4 29 3 30 2 31 1 32
REMARK H PARENT
REMARK Flexibility Score: inf
ROOT
ATOM      1  C   UNL     1      13.590   4.545  24.281  1.00  0.00     0.000 C 
ENDROOT
BRANCH   1   2
ATOM      2  C   UNL     1      13.667   3.014  24.376  1.00  0.00     0.000 C 
BRANCH   2   3
ATOM      3  C   UNL     1      15.115   2.485  24.375  1.00  0.00     0.000 C 
BRANCH   3   4
ATOM      4  C   UNL     1      15.573   1.826  25.691  1.00  0.00     0.000 C 
BRANCH   4   5
ATOM      5  C   UNL     1      14.554   1.980  26.831  1.00  0.00     0.000 C 
BRANCH   5   6
ATOM      6  C   UNL     1      15.008   1.231  28.091  1.00  0.00     0.000 C 
BRANCH   6   7
ATOM      7  C   UNL     1      13.800   0.757  28.909  1.00  0.00     0.000 C 
BRANCH   7   8
ATOM      8  C   UNL     1      14.196  -0.344  29.908  1.00  0.00     0.000 C 
BRANCH   8   9
ATOM      9  C   UNL     1      15.433  -1.132  29.449  1.00  0.00     0.000 C 
BRANCH   9  10
ATOM     10  C   UNL     1      15.077  -2.295  28.508  1.00  0.00     0.000 C 
BRANCH  10  11
ATOM     11  C   UNL     1      15.908  -2.279  27.215  1.00  0.00     0.000 C 
BRANCH  11  12
ATOM     12  C   UNL     1      15.144  -1.809  25.964  1.00  0.00     0.000 C 
BRANCH  12  13
ATOM     13  C   UNL     1      13.644  -1.532  26.219  1.00  0.00     0.006 C 
BRANCH  13  14
ATOM     14  C   UNL     1      13.012  -0.581  25.190  1.00  0.00     0.053 C 
BRANCH  14  15
ATOM     15  C   UNL     1      11.698  -0.034  25.667  1.00  0.00     0.041 C 
ATOM     16  O   UNL     1      11.065   0.799  24.964  1.00  0.00    -0.550 OA
ATOM     17  O   UNL     1      11.206  -0.389  26.917  1.00  0.00    -0.550 OA
ENDBRANCH  14  15
ENDBRANCH  13  14
ENDBRANCH  12  13
ENDBRANCH  11  12
ENDBRANCH  10  11
ENDBRANCH   9  10
ENDBRANCH   8   9
ENDBRANCH   7   8
ENDBRANCH   6   7
ENDBRANCH   5   6
ENDBRANCH   4   5
ENDBRANCH   3   4
ENDBRANCH   2   3
ENDBRANCH   1   2
BRANCH   1  18
ATOM     18  C   UNL     1      13.552   5.005  22.817  1.00  0.00     0.000 C 
BRANCH  18  19
ATOM     19  C   UNL     1      12.120   5.127  22.260  1.00  0.00     0.000 C 
BRANCH  19  20
ATOM     20  C   UNL     1      11.779   6.534  21.724  1.00  0.00     0.000 C 
BRANCH  20  21
ATOM     21  C   UNL     1      10.278   6.715  21.433  1.00  0.00     0.000 C 
BRANCH  21  22
ATOM     22  C   UNL     1       9.589   5.378  21.102  1.00  0.00     0.000 C 
BRANCH  22  23
ATOM     23  C   UNL     1       8.382   5.563  20.172  1.00  0.00     0.000 C 
BRANCH  23  24
ATOM     24  C   UNL     1       8.336   4.473  19.088  1.00  0.00    -0.000 C 
BRANCH  24  25
ATOM     25  C   UNL     1       9.374   3.355  19.329  1.00  0.00    -0.000 C 
BRANCH  25  26
ATOM     26  C   UNL     1      10.007   2.788  18.040  1.00  0.00    -0.000 C 
BRANCH  26  27
ATOM     27  C   UNL     1      11.419   3.312  17.701  1.00  0.00    -0.000 C 
BRANCH  27  28
ATOM     28  C   UNL     1      12.018   4.268  18.748  1.00  0.00    -0.000 C 
BRANCH  28  29
ATOM     29  C   UNL     1      12.667   5.512  18.115  1.00  0.00    -0.000 C 
BRANCH  29  30
ATOM     30  C   UNL     1      11.804   6.771  18.301  1.00  0.00    -0.000 C 
BRANCH  30  31
ATOM     31  C   UNL     1      10.664   6.844  17.271  1.00  0.00    -0.003 C 
ATOM     32  C   UNL     1       9.572   7.809  17.727  1.00  0.00     0.004 C 
ENDBRANCH  30  31
ENDBRANCH  29  30
ENDBRANCH  28  29
ENDBRANCH  27  28
ENDBRANCH  26  27
ENDBRANCH  25  26
ENDBRANCH  24  25
ENDBRANCH  23  24
ENDBRANCH  22  23
ENDBRANCH  21  22
ENDBRANCH  20  21
ENDBRANCH  19  20
ENDBRANCH  18  19
ENDBRANCH   1  18
TORSDOF 28
ENDMDL
MODEL 4
REMARK VINA RESULT:    -5.141      3.390      9.239
REMARK INTER + INTRA:         -16.910
REMARK INTER:                 -13.227
REMARK INTRA:                  -3.684
REMARK UNBOUND:                -3.354
REMARK SMILES CCCCCCCCCCCCCCCCCCCCCCCCCCCCCC(=O)[O-]
REMARK SMILES IDX 16 1 17 2 18 3 19 4 20 5 21 6 22 7 23 8 24 9 25 10 26 11
REMARK SMILES IDX 27 12 28 13 29 14 30 15 31 16 32 17 15 18 14 19 13 20 12 21
REMARK SMILES IDX 11 22 10 23 9 24 8 25 7 26 6 27 5 28 4 29 3 30 2 31 1 32
REMARK H PARENT
REMARK Flexibility Score: inf
ROOT
ATOM      1  C   UNL     1      15.903  -6.744  32.703  1.00  0.00     0.000 C 
ENDROOT
BRANCH   1   2
ATOM      2  C   UNL     1      16.483  -5.532  31.959  1.00  0.00     0.000 C 
BRANCH   2   3
ATOM      3  C   UNL     1      15.838  -5.310  30.578  1.00  0.00     0.000 C 
BRANCH   3   4
ATOM      4  C   UNL     1      16.046  -3.906  29.975  1.00  0.00     0.000 C 
BRANCH   4   5
ATOM      5  C   UNL     1      15.418  -3.748  28.582  1.00  0.00     0.000 C 
BRANCH   5   6
ATOM      6  C   UNL     1      15.055  -2.284  28.297  1.00  0.00     0.000 C 
BRANCH   6   7
ATOM      7  C   UNL     1      15.521  -1.373  29.440  1.00  0.00     0.000 C 
BRANCH   7   8
ATOM      8  C   UNL     1      14.426  -0.370  29.841  1.00  0.00     0.000 C 
BRANCH   8   9
ATOM      9  C   UNL     1      13.600   0.106  28.635  1.00  0.00     0.000 C 
BRANCH   9  10
ATOM     10  C   UNL     1      13.981   1.525  28.181  1.00  0.00     0.000 C 
BRANCH  10  11
ATOM     11  C   UNL     1      15.220   1.538  27.273  1.00  0.00     0.000 C 
BRANCH  11  12
ATOM     12  C   UNL     1      15.098   0.673  26.004  1.00  0.00     0.000 C 
BRANCH  12  13
ATOM     13  C   UNL     1      14.657   1.465  24.752  1.00  0.00     0.006 C 
BRANCH  13  14
ATOM     14  C   UNL     1      13.218   2.002  24.841  1.00  0.00     0.053 C 
BRANCH  14  15
ATOM     15  C   UNL     1      12.203   0.909  24.675  1.00  0.00     0.041 C 
ATOM     16  O   UNL     1      12.034   0.057  25.588  1.00  0.00    -0.550 OA
ATOM     17  O   UNL     1      11.494   0.790  23.487  1.00  0.00    -0.550 OA
ENDBRANCH  14  15
ENDBRANCH  13  14
ENDBRANCH  12  13
ENDBRANCH  11  12
ENDBRANCH  10  11
ENDBRANCH   9  10
ENDBRANCH   8   9
ENDBRANCH   7   8
ENDBRANCH   6   7
ENDBRANCH   5   6
ENDBRANCH   4   5
ENDBRANCH   3   4
ENDBRANCH   2   3
ENDBRANCH   1   2
BRANCH   1  18
ATOM     18  C   UNL     1      15.476  -6.364  34.127  1.00  0.00     0.000 C 
BRANCH  18  19
ATOM     19  C   UNL     1      15.920  -4.943  34.530  1.00  0.00     0.000 C 
BRANCH  19  20
ATOM     20  C   UNL     1      16.523  -4.860  35.949  1.00  0.00     0.000 C 
BRANCH  20  21
ATOM     21  C   UNL     1      17.375  -6.090  36.309  1.00  0.00     0.000 C 
BRANCH  21  22
ATOM     22  C   UNL     1      18.871  -5.742  36.428  1.00  0.00     0.000 C 
BRANCH  22  23
ATOM     23  C   UNL     1      19.766  -6.800  35.765  1.00  0.00     0.000 C 
BRANCH  23  24
ATOM     24  C   UNL     1      19.039  -7.506  34.609  1.00  0.00    -0.000 C 
BRANCH  24  25
ATOM     25  C   UNL     1      19.624  -7.137  33.228  1.00  0.00    -0.000 C 
BRANCH  25  26
ATOM     26  C   UNL     1      19.389  -5.669  32.811  1.00  0.00    -0.000 C 
BRANCH  26  27
ATOM     27  C   UNL     1      20.624  -4.746  32.881  1.00  0.00    -0.000 C 
BRANCH  27  28
ATOM     28  C   UNL     1      20.427  -3.473  33.725  1.00  0.00    -0.000 C 
BRANCH  28  29
ATOM     29  C   UNL     1      18.945  -3.096  33.895  1.00  0.00    -0.000 C 
BRANCH  29  30
ATOM     30  C   UNL     1      18.760  -1.888  34.827  1.00  0.00    -0.000 C 
BRANCH  30  31
ATOM     31  C   UNL     1      19.991  -1.656  35.719  1.00  0.00    -0.003 C 
ATOM     32  C   UNL     1      20.125  -0.184  36.101  1.00  0.00     0.004 C 
ENDBRANCH  30  31
ENDBRANCH  29  30
ENDBRANCH  28  29
ENDBRANCH  27  28
ENDBRANCH  26  27
ENDBRANCH  25  26
ENDBRANCH  24  25
ENDBRANCH  23  24
ENDBRANCH  22  23
ENDBRANCH  21  22
ENDBRANCH  20  21
ENDBRANCH  19  20
ENDBRANCH  18  19
ENDBRANCH   1  18
TORSDOF 28
ENDMDL
MODEL 5
REMARK VINA RESULT:    -4.988      8.356     15.124
REMARK INTER + INTRA:         -16.506
REMARK INTER:                 -13.083
REMARK INTRA:                  -3.423
REMARK UNBOUND:                -3.354
REMARK SMILES CCCCCCCCCCCCCCCCCCCCCCCCCCCCCC(=O)[O-]
REMARK SMILES IDX 16 1 17 2 18 3 19 4 20 5 21 6 22 7 23 8 24 9 25 10 26 11
REMARK SMILES IDX 27 12 28 13 29 14 30 15 31 16 32 17 15 18 14 19 13 20 12 21
REMARK SMILES IDX 11 22 10 23 9 24 8 25 7 26 6 27 5 28 4 29 3 30 2 31 1 32
REMARK H PARENT
REMARK Flexibility Score: inf
ROOT
ATOM      1  C   UNL     1      11.441   9.078  22.181  1.00  0.00     0.000 C 
ENDROOT
BRANCH   1   2
ATOM      2  C   UNL     1      10.706   8.186  21.171  1.00  0.00     0.000 C 
BRANCH   2   3
ATOM      3  C   UNL     1       9.895   7.060  21.842  1.00  0.00     0.000 C 
BRANCH   3   4
ATOM      4  C   UNL     1       9.997   5.682  21.159  1.00  0.00     0.000 C 
BRANCH   4   5
ATOM      5  C   UNL     1      11.436   5.147  21.089  1.00  0.00     0.000 C 
BRANCH   5   6
ATOM      6  C   UNL     1      12.157   5.310  22.434  1.00  0.00     0.000 C 
BRANCH   6   7
ATOM      7  C   UNL     1      13.098   4.126  22.695  1.00  0.00     0.000 C 
BRANCH   7   8
ATOM      8  C   UNL     1      13.693   4.184  24.113  1.00  0.00     0.000 C 
BRANCH   8   9
ATOM      9  C   UNL     1      13.800   2.794  24.759  1.00  0.00     0.000 C 
BRANCH   9  10
ATOM     10  C   UNL     1      15.217   2.205  24.661  1.00  0.00     0.000 C 
BRANCH  10  11
ATOM     11  C   UNL     1      15.621   1.433  25.928  1.00  0.00     0.000 C 
BRANCH  11  12
ATOM     12  C   UNL     1      14.585   1.481  27.068  1.00  0.00     0.000 C 
BRANCH  12  13
ATOM     13  C   UNL     1      13.924   0.115  27.363  1.00  0.00     0.006 C 
BRANCH  13  14
ATOM     14  C   UNL     1      14.434  -1.021  26.461  1.00  0.00     0.053 C 
BRANCH  14  15
ATOM     15  C   UNL     1      15.459  -1.869  27.156  1.00  0.00     0.041 C 
ATOM     16  O   UNL     1      16.368  -2.436  26.492  1.00  0.00    -0.550 OA
ATOM     17  O   UNL     1      15.369  -2.093  28.524  1.00  0.00    -0.550 OA
ENDBRANCH  14  15
ENDBRANCH  13  14
ENDBRANCH  12  13
ENDBRANCH  11  12
ENDBRANCH  10  11
ENDBRANCH   9  10
ENDBRANCH   8   9
ENDBRANCH   7   8
ENDBRANCH   6   7
ENDBRANCH   5   6
ENDBRANCH   4   5
ENDBRANCH   3   4
ENDBRANCH   2   3
ENDBRANCH   1   2
BRANCH   1  18
ATOM     18  C   UNL     1      12.726   9.657  21.573  1.00  0.00     0.000 C 
BRANCH  18  19
ATOM     19  C   UNL     1      13.604   8.589  20.891  1.00  0.00     0.000 C 
BRANCH  19  20
ATOM     20  C   UNL     1      13.511   8.599  19.350  1.00  0.00     0.000 C 
BRANCH  20  21
ATOM     21  C   UNL     1      13.415   7.184  18.749  1.00  0.00     0.000 C 
BRANCH  21  22
ATOM     22  C   UNL     1      11.998   6.871  18.234  1.00  0.00     0.000 C 
BRANCH  22  23
ATOM     23  C   UNL     1      11.310   8.108  17.638  1.00  0.00     0.000 C 
BRANCH  23  24
ATOM     24  C   UNL     1       9.940   7.754  17.037  1.00  0.00    -0.000 C 
BRANCH  24  25
ATOM     25  C   UNL     1       8.950   7.219  18.094  1.00  0.00    -0.000 C 
BRANCH  25  26
ATOM     26  C   UNL     1       8.147   5.979  17.643  1.00  0.00    -0.000 C 
BRANCH  26  27
ATOM     27  C   UNL     1       8.631   4.626  18.206  1.00  0.00    -0.000 C 
BRANCH  27  28
ATOM     28  C   UNL     1       9.946   4.110  17.595  1.00  0.00    -0.000 C 
BRANCH  28  29
ATOM     29  C   UNL     1      10.209   2.627  17.915  1.00  0.00    -0.000 C 
BRANCH  29  30
ATOM     30  C   UNL     1       9.332   2.123  19.073  1.00  0.00    -0.000 C 
BRANCH  30  31
ATOM     31  C   UNL     1       8.221   1.179  18.585  1.00  0.00    -0.003 C 
ATOM     32  C   UNL     1       8.677   0.376  17.368  1.00  0.00     0.004 C 
ENDBRANCH  30  31
ENDBRANCH  29  30
ENDBRANCH  28  29
ENDBRANCH  27  28
ENDBRANCH  26  27
ENDBRANCH  25  26
ENDBRANCH  24  25
ENDBRANCH  23  24
ENDBRANCH  22  23
ENDBRANCH  21  22
ENDBRANCH  20  21
ENDBRANCH  19  20
ENDBRANCH  18  19
ENDBRANCH   1  18
TORSDOF 28
ENDMDL
MODEL 6
REMARK VINA RESULT:    -4.972      7.733     15.180
REMARK INTER + INTRA:         -16.464
REMARK INTER:                 -13.332
REMARK INTRA:                  -3.132
REMARK UNBOUND:                -3.354
REMARK SMILES CCCCCCCCCCCCCCCCCCCCCCCCCCCCCC(=O)[O-]
REMARK SMILES IDX 16 1 17 2 18 3 19 4 20 5 21 6 22 7 23 8 24 9 25 10 26 11
REMARK SMILES IDX 27 12 28 13 29 14 30 15 31 16 32 17 15 18 14 19 13 20 12 21
REMARK SMILES IDX 11 22 10 23 9 24 8 25 7 26 6 27 5 28 4 29 3 30 2 31 1 32
REMARK H PARENT
REMARK Flexibility Score: inf
ROOT
ATOM      1  C   UNL     1      13.637   3.457  24.264  1.00  0.00     0.000 C 
ENDROOT
BRANCH   1   2
ATOM      2  C   UNL     1      13.636   4.880  23.688  1.00  0.00     0.000 C 
BRANCH   2   3
ATOM      3  C   UNL     1      12.586   5.078  22.577  1.00  0.00     0.000 C 
BRANCH   3   4
ATOM      4  C   UNL     1      12.481   6.513  22.023  1.00  0.00     0.000 C 
BRANCH   4   5
ATOM      5  C   UNL     1      11.073   6.863  21.516  1.00  0.00     0.000 C 
BRANCH   5   6
ATOM      6  C   UNL     1      11.134   7.764  20.276  1.00  0.00     0.000 C 
BRANCH   6   7
ATOM      7  C   UNL     1      10.172   7.265  19.190  1.00  0.00     0.000 C 
BRANCH   7   8
ATOM      8  C   UNL     1      10.935   6.723  17.969  1.00  0.00     0.000 C 
BRANCH   8   9
ATOM      9  C   UNL     1      12.263   6.055  18.359  1.00  0.00     0.000 C 
BRANCH   9  10
ATOM     10  C   UNL     1      12.176   4.519  18.353  1.00  0.00     0.000 C 
BRANCH  10  11
ATOM     11  C   UNL     1      11.402   3.970  19.562  1.00  0.00     0.000 C 
BRANCH  11  12
ATOM     12  C   UNL     1      10.200   3.076  19.204  1.00  0.00     0.000 C 
BRANCH  12  13
ATOM     13  C   UNL     1      10.033   2.839  17.685  1.00  0.00     0.006 C 
BRANCH  13  14
ATOM     14  C   UNL     1       9.344   1.507  17.344  1.00  0.00     0.053 C 
BRANCH  14  15
ATOM     15  C   UNL     1       8.334   1.117  18.383  1.00  0.00     0.041 C 
ATOM     16  O   UNL     1       8.504   0.078  19.076  1.00  0.00    -0.550 OA
ATOM     17  O   UNL     1       7.171   1.861  18.539  1.00  0.00    -0.550 OA
ENDBRANCH  14  15
ENDBRANCH  13  14
ENDBRANCH  12  13
ENDBRANCH  11  12
ENDBRANCH  10  11
ENDBRANCH   9  10
ENDBRANCH   8   9
ENDBRANCH   7   8
ENDBRANCH   6   7
ENDBRANCH   5   6
ENDBRANCH   4   5
ENDBRANCH   3   4
ENDBRANCH   2   3
ENDBRANCH   1   2
BRANCH   1  18
ATOM     18  C   UNL     1      15.061   2.892  24.335  1.00  0.00     0.000 C 
BRANCH  18  19
ATOM     19  C   UNL     1      15.259   1.899  25.498  1.00  0.00     0.000 C 
BRANCH  19  20
ATOM     20  C   UNL     1      14.432   2.242  26.756  1.00  0.00     0.000 C 
BRANCH  20  21
ATOM     21  C   UNL     1      14.884   1.456  28.000  1.00  0.00     0.000 C 
BRANCH  21  22
ATOM     22  C   UNL     1      13.699   1.077  28.907  1.00  0.00     0.000 C 
BRANCH  22  23
ATOM     23  C   UNL     1      14.088   0.033  29.963  1.00  0.00     0.000 C 
BRANCH  23  24
ATOM     24  C   UNL     1      15.403  -0.673  29.596  1.00  0.00    -0.000 C 
BRANCH  24  25
ATOM     25  C   UNL     1      15.172  -1.995  28.830  1.00  0.00    -0.000 C 
BRANCH  25  26
ATOM     26  C   UNL     1      15.456  -1.909  27.315  1.00  0.00    -0.000 C 
BRANCH  26  27
ATOM     27  C   UNL     1      14.270  -2.253  26.390  1.00  0.00    -0.000 C 
BRANCH  27  28
ATOM     28  C   UNL     1      13.511  -1.032  25.839  1.00  0.00    -0.000 C 
BRANCH  28  29
ATOM     29  C   UNL     1      12.223  -0.729  26.626  1.00  0.00    -0.000 C 
BRANCH  29  30
ATOM     30  C   UNL     1      11.276   0.199  25.847  1.00  0.00    -0.000 C 
BRANCH  30  31
ATOM     31  C   UNL     1      11.940   0.766  24.581  1.00  0.00    -0.003 C 
ATOM     32  C   UNL     1      10.967   0.767  23.403  1.00  0.00     0.004 C 
ENDBRANCH  30  31
ENDBRANCH  29  30
ENDBRANCH  28  29
ENDBRANCH  27  28
ENDBRANCH  26  27
ENDBRANCH  25  26
ENDBRANCH  24  25
ENDBRANCH  23  24
ENDBRANCH  22  23
ENDBRANCH  21  22
ENDBRANCH  20  21
ENDBRANCH  19  20
ENDBRANCH  18  19
ENDBRANCH   1  18
TORSDOF 28
ENDMDL
MODEL 7
REMARK VINA RESULT:    -4.734      7.723     15.367
REMARK INTER + INTRA:         -15.836
REMARK INTER:                 -13.544
REMARK INTRA:                  -2.292
REMARK UNBOUND:                -3.354
REMARK SMILES CCCCCCCCCCCCCCCCCCCCCCCCCCCCCC(=O)[O-]
REMARK SMILES IDX 16 1 17 2 18 3 19 4 20 5 21 6 22 7 23 8 24 9 25 10 26 11
REMARK SMILES IDX 27 12 28 13 29 14 30 15 31 16 32 17 15 18 14 19 13 20 12 21
REMARK SMILES IDX 11 22 10 23 9 24 8 25 7 26 6 27 5 28 4 29 3 30 2 31 1 32
REMARK H PARENT
REMARK Flexibility Score: inf
ROOT
ATOM      1  C   UNL     1      15.085   2.857  24.335  1.00  0.00     0.000 C 
ENDROOT
BRANCH   1   2
ATOM      2  C   UNL     1      13.660   3.429  24.325  1.00  0.00     0.000 C 
BRANCH   2   3
ATOM      3  C   UNL     1      13.570   4.806  23.638  1.00  0.00     0.000 C 
BRANCH   3   4
ATOM      4  C   UNL     1      12.502   4.919  22.532  1.00  0.00     0.000 C 
BRANCH   4   5
ATOM      5  C   UNL     1      12.422   6.321  21.910  1.00  0.00     0.000 C 
BRANCH   5   6
ATOM      6  C   UNL     1      10.968   6.794  21.784  1.00  0.00     0.000 C 
BRANCH   6   7
ATOM      7  C   UNL     1      10.659   7.232  20.346  1.00  0.00     0.000 C 
BRANCH   7   8
ATOM      8  C   UNL     1      11.906   7.137  19.450  1.00  0.00     0.000 C 
BRANCH   8   9
ATOM      9  C   UNL     1      11.634   6.362  18.151  1.00  0.00     0.000 C 
BRANCH   9  10
ATOM     10  C   UNL     1      10.525   7.004  17.301  1.00  0.00     0.000 C 
BRANCH  10  11
ATOM     11  C   UNL     1       9.338   6.055  17.071  1.00  0.00     0.000 C 
BRANCH  11  12
ATOM     12  C   UNL     1       8.315   6.013  18.223  1.00  0.00     0.000 C 
BRANCH  12  13
ATOM     13  C   UNL     1       8.039   4.588  18.756  1.00  0.00     0.006 C 
BRANCH  13  14
ATOM     14  C   UNL     1       9.296   3.875  19.281  1.00  0.00     0.053 C 
BRANCH  14  15
ATOM     15  C   UNL     1       9.622   2.652  18.475  1.00  0.00     0.041 C 
ATOM     16  O   UNL     1      10.406   2.731  17.491  1.00  0.00    -0.550 OA
ATOM     17  O   UNL     1       9.008   1.440  18.766  1.00  0.00    -0.550 OA
ENDBRANCH  14  15
ENDBRANCH  13  14
ENDBRANCH  12  13
ENDBRANCH  11  12
ENDBRANCH  10  11
ENDBRANCH   9  10
ENDBRANCH   8   9
ENDBRANCH   7   8
ENDBRANCH   6   7
ENDBRANCH   5   6
ENDBRANCH   4   5
ENDBRANCH   3   4
ENDBRANCH   2   3
ENDBRANCH   1   2
BRANCH   1  18
ATOM     18  C   UNL     1      15.161   1.582  25.185  1.00  0.00     0.000 C 
BRANCH  18  19
ATOM     19  C   UNL     1      14.781   1.817  26.661  1.00  0.00     0.000 C 
BRANCH  19  20
ATOM     20  C   UNL     1      14.246   0.556  27.374  1.00  0.00     0.000 C 
BRANCH  20  21
ATOM     21  C   UNL     1      13.495  -0.393  26.423  1.00  0.00     0.000 C 
BRANCH  21  22
ATOM     22  C   UNL     1      14.029  -1.836  26.507  1.00  0.00     0.000 C 
BRANCH  22  23
ATOM     23  C   UNL     1      15.558  -1.896  26.378  1.00  0.00     0.000 C 
BRANCH  23  24
ATOM     24  C   UNL     1      16.170  -2.864  27.404  1.00  0.00    -0.000 C 
BRANCH  24  25
ATOM     25  C   UNL     1      15.209  -3.173  28.573  1.00  0.00    -0.000 C 
BRANCH  25  26
ATOM     26  C   UNL     1      15.480  -4.520  29.278  1.00  0.00    -0.000 C 
BRANCH  26  27
ATOM     27  C   UNL     1      16.228  -4.432  30.626  1.00  0.00    -0.000 C 
BRANCH  27  28
ATOM     28  C   UNL     1      16.114  -5.691  31.506  1.00  0.00    -0.000 C 
BRANCH  28  29
ATOM     29  C   UNL     1      16.905  -5.571  32.820  1.00  0.00    -0.000 C 
BRANCH  29  30
ATOM     30  C   UNL     1      18.302  -4.968  32.600  1.00  0.00    -0.000 C 
BRANCH  30  31
ATOM     31  C   UNL     1      19.418  -5.912  33.079  1.00  0.00    -0.003 C 
ATOM     32  C   UNL     1      18.843  -7.244  33.558  1.00  0.00     0.004 C 
ENDBRANCH  30  31
ENDBRANCH  29  30
ENDBRANCH  28  29
ENDBRANCH  27  28
ENDBRANCH  26  27
ENDBRANCH  25  26
ENDBRANCH  24  25
ENDBRANCH  23  24
ENDBRANCH  22  23
ENDBRANCH  21  22
ENDBRANCH  20  21
ENDBRANCH  19  20
ENDBRANCH  18  19
ENDBRANCH   1  18
TORSDOF 28
ENDMDL
MODEL 8
REMARK VINA RESULT:    -4.726      1.154      3.366
REMARK INTER + INTRA:         -15.817
REMARK INTER:                 -12.207
REMARK INTRA:                  -3.610
REMARK UNBOUND:                -3.354
REMARK SMILES CCCCCCCCCCCCCCCCCCCCCCCCCCCCCC(=O)[O-]
REMARK SMILES IDX 16 1 17 2 18 3 19 4 20 5 21 6 22 7 23 8 24 9 25 10 26 11
REMARK SMILES IDX 27 12 28 13 29 14 30 15 31 16 32 17 15 18 14 19 13 20 12 21
REMARK SMILES IDX 11 22 10 23 9 24 8 25 7 26 6 27 5 28 4 29 3 30 2 31 1 32
REMARK H PARENT
REMARK Flexibility Score: inf
ROOT
ATOM      1  C   UNL     1      15.512  -5.499  29.854  1.00  0.00     0.000 C 
ENDROOT
BRANCH   1   2
ATOM      2  C   UNL     1      16.325  -4.816  30.963  1.00  0.00     0.000 C 
BRANCH   2   3
ATOM      3  C   UNL     1      16.287  -5.586  32.297  1.00  0.00     0.000 C 
BRANCH   3   4
ATOM      4  C   UNL     1      16.317  -4.706  33.563  1.00  0.00     0.000 C 
BRANCH   4   5
ATOM      5  C   UNL     1      15.948  -5.475  34.842  1.00  0.00     0.000 C 
BRANCH   5   6
ATOM      6  C   UNL     1      15.898  -6.987  34.589  1.00  0.00     0.000 C 
BRANCH   6   7
ATOM      7  C   UNL     1      17.147  -7.677  35.153  1.00  0.00     0.000 C 
BRANCH   7   8
ATOM      8  C   UNL     1      18.169  -6.650  35.672  1.00  0.00     0.000 C 
BRANCH   8   9
ATOM      9  C   UNL     1      19.531  -6.776  34.970  1.00  0.00     0.000 C 
BRANCH   9  10
ATOM     10  C   UNL     1      19.453  -6.462  33.467  1.00  0.00     0.000 C 
BRANCH  10  11
ATOM     11  C   UNL     1      20.349  -5.279  33.067  1.00  0.00     0.000 C 
BRANCH  11  12
ATOM     12  C   UNL     1      19.693  -3.894  33.220  1.00  0.00     0.000 C 
BRANCH  12  13
ATOM     13  C   UNL     1      20.101  -3.153  34.514  1.00  0.00     0.006 C 
BRANCH  13  14
ATOM     14  C   UNL     1      18.932  -2.422  35.197  1.00  0.00     0.053 C 
BRANCH  14  15
ATOM     15  C   UNL     1      19.287  -1.008  35.551  1.00  0.00     0.041 C 
ATOM     16  O   UNL     1      18.492  -0.068  35.281  1.00  0.00    -0.550 OA
ATOM     17  O   UNL     1      20.524  -0.718  36.113  1.00  0.00    -0.550 OA
ENDBRANCH  14  15
ENDBRANCH  13  14
ENDBRANCH  12  13
ENDBRANCH  11  12
ENDBRANCH  10  11
ENDBRANCH   9  10
ENDBRANCH   8   9
ENDBRANCH   7   8
ENDBRANCH   6   7
ENDBRANCH   5   6
ENDBRANCH   4   5
ENDBRANCH   3   4
ENDBRANCH   2   3
ENDBRANCH   1   2
BRANCH   1  18
ATOM     18  C   UNL     1      14.945  -4.467  28.870  1.00  0.00     0.000 C 
BRANCH  18  19
ATOM     19  C   UNL     1      15.995  -3.436  28.407  1.00  0.00     0.000 C 
BRANCH  19  20
ATOM     20  C   UNL     1      15.384  -2.179  27.751  1.00  0.00     0.000 C 
BRANCH  20  21
ATOM     21  C   UNL     1      15.603  -2.135  26.227  1.00  0.00     0.000 C 
BRANCH  21  22
ATOM     22  C   UNL     1      14.376  -1.574  25.484  1.00  0.00     0.000 C 
BRANCH  22  23
ATOM     23  C   UNL     1      13.131  -1.516  26.382  1.00  0.00     0.000 C 
BRANCH  23  24
ATOM     24  C   UNL     1      12.266  -0.286  26.061  1.00  0.00    -0.000 C 
BRANCH  24  25
ATOM     25  C   UNL     1      12.620   0.348  24.698  1.00  0.00    -0.000 C 
BRANCH  25  26
ATOM     26  C   UNL     1      12.534   1.890  24.674  1.00  0.00    -0.000 C 
BRANCH  26  27
ATOM     27  C   UNL     1      13.874   2.639  24.825  1.00  0.00    -0.000 C 
BRANCH  27  28
ATOM     28  C   UNL     1      15.121   1.735  24.797  1.00  0.00    -0.000 C 
BRANCH  28  29
ATOM     29  C   UNL     1      15.710   1.492  26.198  1.00  0.00    -0.000 C 
BRANCH  29  30
ATOM     30  C   UNL     1      14.717   1.859  27.313  1.00  0.00    -0.000 C 
BRANCH  30  31
ATOM     31  C   UNL     1      14.856   0.934  28.534  1.00  0.00    -0.003 C 
ATOM     32  C   UNL     1      13.519   0.768  29.253  1.00  0.00     0.004 C 
ENDBRANCH  30  31
ENDBRANCH  29  30
ENDBRANCH  28  29
ENDBRANCH  27  28
ENDBRANCH  26  27
ENDBRANCH  25  26
ENDBRANCH  24  25
ENDBRANCH  23  24
ENDBRANCH  22  23
ENDBRANCH  21  22
ENDBRANCH  20  21
ENDBRANCH  19  20
ENDBRANCH  18  19
ENDBRANCH   1  18
TORSDOF 28
ENDMDL
MODEL 9
REMARK VINA RESULT:    -4.622      6.175     13.128
REMARK INTER + INTRA:         -15.541
REMARK INTER:                 -13.094
REMARK INTRA:                  -2.448
REMARK UNBOUND:                -3.354
REMARK SMILES CCCCCCCCCCCCCCCCCCCCCCCCCCCCCC(=O)[O-]
REMARK SMILES IDX 16 1 17 2 18 3 19 4 20 5 21 6 22 7 23 8 24 9 25 10 26 11
REMARK SMILES IDX 27 12 28 13 29 14 30 15 31 16 32 17 15 18 14 19 13 20 12 21
REMARK SMILES IDX 11 22 10 23 9 24 8 25 7 26 6 27 5 28 4 29 3 30 2 31 1 32
REMARK H PARENT
REMARK Flexibility Score: inf
ROOT
ATOM      1  C   UNL     1      15.854  -2.617  27.662  1.00  0.00     0.000 C 
ENDROOT
BRANCH   1   2
ATOM      2  C   UNL     1      14.945  -1.380  27.614  1.00  0.00     0.000 C 
BRANCH   2   3
ATOM      3  C   UNL     1      15.215  -0.483  26.390  1.00  0.00     0.000 C 
BRANCH   3   4
ATOM      4  C   UNL     1      14.366   0.801  26.318  1.00  0.00     0.000 C 
BRANCH   4   5
ATOM      5  C   UNL     1      13.067   0.622  25.517  1.00  0.00     0.000 C 
BRANCH   5   6
ATOM      6  C   UNL     1      12.758   1.864  24.670  1.00  0.00     0.000 C 
BRANCH   6   7
ATOM      7  C   UNL     1      14.013   2.729  24.491  1.00  0.00     0.000 C 
BRANCH   7   8
ATOM      8  C   UNL     1      13.649   4.181  24.137  1.00  0.00     0.000 C 
BRANCH   8   9
ATOM      9  C   UNL     1      12.872   4.283  22.815  1.00  0.00     0.000 C 
BRANCH   9  10
ATOM     10  C   UNL     1      12.455   5.726  22.484  1.00  0.00     0.000 C 
BRANCH  10  11
ATOM     11  C   UNL     1      11.981   5.881  21.031  1.00  0.00     0.000 C 
BRANCH  11  12
ATOM     12  C   UNL     1      11.789   4.554  20.271  1.00  0.00     0.000 C 
BRANCH  12  13
ATOM     13  C   UNL     1      10.330   4.043  20.271  1.00  0.00     0.006 C 
BRANCH  13  14
ATOM     14  C   UNL     1      10.191   2.584  19.805  1.00  0.00     0.053 C 
BRANCH  14  15
ATOM     15  C   UNL     1       9.322   2.467  18.587  1.00  0.00     0.041 C 
ATOM     16  O   UNL     1       8.067   2.464  18.702  1.00  0.00    -0.550 OA
ATOM     17  O   UNL     1       9.895   2.289  17.335  1.00  0.00    -0.550 OA
ENDBRANCH  14  15
ENDBRANCH  13  14
ENDBRANCH  12  13
ENDBRANCH  11  12
ENDBRANCH  10  11
ENDBRANCH   9  10
ENDBRANCH   8   9
ENDBRANCH   7   8
ENDBRANCH   6   7
ENDBRANCH   5   6
ENDBRANCH   4   5
ENDBRANCH   3   4
ENDBRANCH   2   3
ENDBRANCH   1   2
BRANCH   1  18
ATOM     18  C   UNL     1      15.220  -3.735  28.499  1.00  0.00     0.000 C 
BRANCH  18  19
ATOM     19  C   UNL     1      15.872  -3.893  29.887  1.00  0.00     0.000 C 
BRANCH  19  20
ATOM     20  C   UNL     1      15.838  -5.339  30.429  1.00  0.00     0.000 C 
BRANCH  20  21
ATOM     21  C   UNL     1      16.338  -5.443  31.882  1.00  0.00     0.000 C 
BRANCH  21  22
ATOM     22  C   UNL     1      15.890  -6.755  32.553  1.00  0.00     0.000 C 
BRANCH  22  23
ATOM     23  C   UNL     1      15.521  -6.553  34.030  1.00  0.00     0.000 C 
BRANCH  23  24
ATOM     24  C   UNL     1      16.135  -5.259  34.590  1.00  0.00    -0.000 C 
BRANCH  24  25
ATOM     25  C   UNL     1      17.108  -5.523  35.760  1.00  0.00    -0.000 C 
BRANCH  25  26
ATOM     26  C   UNL     1      17.806  -6.900  35.707  1.00  0.00    -0.000 C 
BRANCH  26  27
ATOM     27  C   UNL     1      19.227  -6.909  35.105  1.00  0.00    -0.000 C 
BRANCH  27  28
ATOM     28  C   UNL     1      19.274  -7.040  33.571  1.00  0.00    -0.000 C 
BRANCH  28  29
ATOM     29  C   UNL     1      20.089  -5.918  32.903  1.00  0.00    -0.000 C 
BRANCH  29  30
ATOM     30  C   UNL     1      19.377  -4.558  32.989  1.00  0.00    -0.000 C 
BRANCH  30  31
ATOM     31  C   UNL     1      20.008  -3.645  34.053  1.00  0.00    -0.003 C 
ATOM     32  C   UNL     1      19.025  -2.568  34.507  1.00  0.00     0.004 C 
ENDBRANCH  30  31
ENDBRANCH  29  30
ENDBRANCH  28  29
ENDBRANCH  27  28
ENDBRANCH  26  27
ENDBRANCH  25  26
ENDBRANCH  24  25
ENDBRANCH  23  24
ENDBRANCH  22  23
ENDBRANCH  21  22
ENDBRANCH  20  21
ENDBRANCH  19  20
ENDBRANCH  18  19
ENDBRANCH   1  18
TORSDOF 28
ENDMDL
