MODEL 1
REMARK VINA RESULT:    -4.557      0.000      0.000
REMARK INTER + INTRA:          -6.371
REMARK INTER:                  -6.156
REMARK INTRA:                  -0.215
REMARK UNBOUND:                -0.215
REMARK SMILES C=C1C(=O)O[C@@H]2[C@H]1CCC(C)=CCC[C@@]1(C)O[C@@H]21
REMARK SMILES IDX 6 1 7 2 2 3 1 4 3 5 4 6 5 7 8 8 9 9 10 10 11 11 12 12 18 14
REMARK SMILES IDX 15 15 17 16 16 17 14 18 13 19
REMARK H PARENT
REMARK Flexibility Score: 70.00
ROOT
ATOM      1  C   UNL     1       6.586  -8.582 -35.442  1.00  0.00     0.216 C 
ATOM      2  C   UNL     1       5.750  -7.621 -36.358  1.00  0.00     0.070 C 
ATOM      3  C   UNL     1       6.713  -6.468 -36.485  1.00  0.00     0.037 C 
ATOM      4  C   UNL     1       6.667  -5.499 -37.398  1.00  0.00     0.021 C 
ATOM      5  C   UNL     1       7.661  -6.572 -35.388  1.00  0.00     0.334 C 
ATOM      6  O   UNL     1       8.518  -5.706 -35.071  1.00  0.00    -0.247 OA
ATOM      7  O   UNL     1       7.473  -7.756 -34.698  1.00  0.00    -0.455 OA
ENDROOT
BRANCH   2   8
ATOM      8  C   UNL     1       4.377  -7.123 -35.841  1.00  0.00     0.017 C 
BRANCH   8   9
ATOM      9  C   UNL     1       3.143  -7.948 -36.298  1.00  0.00     0.031 C 
BRANCH   9  10
ATOM     10  C   UNL     1       3.337  -8.615 -37.642  1.00  0.00    -0.077 C 
ATOM     11  C   UNL     1       3.447  -7.765 -38.881  1.00  0.00     0.039 C 
ATOM     12  C   UNL     1       3.327  -9.958 -37.778  1.00  0.00    -0.028 CG0
ATOM     13  G   UNL     1       3.348 -10.922 -36.617  1.00  0.00     0.000 G0
ENDBRANCH   9  10
ENDBRANCH   8   9
ENDBRANCH   2   8
BRANCH   1  14
ATOM     14  C   UNL     1       6.143  -9.873 -34.693  1.00  0.00     0.192 C 
ATOM     15  C   UNL     1       5.392 -11.121 -35.082  1.00  0.00     0.096 C 
ATOM     16  O   UNL     1       6.797 -11.009 -35.205  1.00  0.00    -0.362 OA
ATOM     17  C   UNL     1       5.038 -12.075 -33.933  1.00  0.00     0.045 C 
BRANCH  15  18
ATOM     18  C   UNL     1       4.757 -11.476 -36.439  1.00  0.00     0.042 C 
BRANCH  18  19
ATOM     19  C   UNL     1       3.340 -10.931 -36.624  1.00  0.00     0.030 CG0
ATOM     20  G   UNL     1       3.328  -9.954 -37.773  1.00  0.00     0.000 G0
ENDBRANCH  18  19
ENDBRANCH  15  18
ENDBRANCH   1  14
TORSDOF 0
ENDMDL
MODEL 2
REMARK VINA RESULT:    -4.457      2.300      4.902
REMARK INTER + INTRA:          -6.236
REMARK INTER:                  -6.196
REMARK INTRA:                  -0.040
REMARK UNBOUND:                -0.215
REMARK SMILES C=C1C(=O)O[C@@H]2[C@H]1CCC(C)=CCC[C@@]1(C)O[C@@H]21
REMARK SMILES IDX 6 1 7 2 2 3 1 4 3 5 4 6 5 7 8 8 9 9 10 10 11 11 12 12 18 14
REMARK SMILES IDX 15 15 17 16 16 17 14 18 13 19
REMARK H PARENT
REMARK Flexibility Score: 70.00
ROOT
ATOM      1  C   UNL     1       6.582  -8.266 -35.473  1.00  0.00     0.216 C 
ATOM      2  C   UNL     1       5.076  -8.338 -35.905  1.00  0.00     0.070 C 
ATOM      3  C   UNL     1       4.809  -9.808 -35.704  1.00  0.00     0.037 C 
ATOM      4  C   UNL     1       3.612 -10.387 -35.617  1.00  0.00     0.021 C 
ATOM      5  C   UNL     1       6.095 -10.483 -35.687  1.00  0.00     0.334 C 
ATOM      6  O   UNL     1       6.272 -11.730 -35.695  1.00  0.00    -0.247 OA
ATOM      7  O   UNL     1       7.126  -9.561 -35.700  1.00  0.00    -0.455 OA
ENDROOT
BRANCH   2   8
ATOM      8  C   UNL     1       4.704  -7.915 -37.349  1.00  0.00     0.017 C 
BRANCH   8   9
ATOM      9  C   UNL     1       3.689  -6.746 -37.471  1.00  0.00     0.031 C 
BRANCH   9  10
ATOM     10  C   UNL     1       3.308  -6.146 -36.135  1.00  0.00    -0.077 C 
ATOM     11  C   UNL     1       2.079  -6.647 -35.422  1.00  0.00     0.039 C 
ATOM     12  C   UNL     1       3.990  -5.110 -35.600  1.00  0.00    -0.028 CG0
ATOM     13  G   UNL     1       5.300  -4.596 -36.142  1.00  0.00     0.000 G0
ENDBRANCH   9  10
ENDBRANCH   8   9
ENDBRANCH   2   8
BRANCH   1  14
ATOM     14  C   UNL     1       7.610  -7.109 -35.643  1.00  0.00     0.192 C 
ATOM     15  C   UNL     1       7.565  -5.614 -35.453  1.00  0.00     0.096 C 
ATOM     16  O   UNL     1       7.905  -6.504 -34.407  1.00  0.00    -0.362 OA
ATOM     17  C   UNL     1       8.810  -4.843 -35.914  1.00  0.00     0.045 C 
BRANCH  15  18
ATOM     18  C   UNL     1       6.370  -4.733 -35.046  1.00  0.00     0.042 C 
BRANCH  18  19
ATOM     19  C   UNL     1       5.299  -4.599 -36.130  1.00  0.00     0.030 CG0
ATOM     20  G   UNL     1       3.984  -5.111 -35.598  1.00  0.00     0.000 G0
ENDBRANCH  18  19
ENDBRANCH  15  18
ENDBRANCH   1  14
TORSDOF 0
ENDMDL
MODEL 3
REMARK VINA RESULT:    -4.318      1.623      2.216
REMARK INTER + INTRA:          -6.048
REMARK INTER:                  -6.441
REMARK INTRA:                   0.393
REMARK UNBOUND:                -0.215
REMARK SMILES C=C1C(=O)O[C@@H]2[C@H]1CCC(C)=CCC[C@@]1(C)O[C@@H]21
REMARK SMILES IDX 6 1 7 2 2 3 1 4 3 5 4 6 5 7 8 8 9 9 10 10 11 11 12 12 18 14
REMARK SMILES IDX 15 15 17 16 16 17 14 18 13 19
REMARK H PARENT
REMARK Flexibility Score: 70.00
ROOT
ATOM      1  C   UNL     1       7.576  -6.986 -35.152  1.00  0.00     0.216 C 
ATOM      2  C   UNL     1       7.952  -6.627 -36.632  1.00  0.00     0.070 C 
ATOM      3  C   UNL     1       7.965  -5.122 -36.548  1.00  0.00     0.037 C 
ATOM      4  C   UNL     1       8.523  -4.288 -37.424  1.00  0.00     0.021 C 
ATOM      5  C   UNL     1       7.201  -4.747 -35.370  1.00  0.00     0.334 C 
ATOM      6  O   UNL     1       6.859  -3.577 -35.056  1.00  0.00    -0.247 OA
ATOM      7  O   UNL     1       6.856  -5.871 -34.640  1.00  0.00    -0.455 OA
ENDROOT
BRANCH   2   8
ATOM      8  C   UNL     1       7.006  -7.096 -37.766  1.00  0.00     0.017 C 
BRANCH   8   9
ATOM      9  C   UNL     1       5.622  -6.393 -37.826  1.00  0.00     0.031 C 
BRANCH   9  10
ATOM     10  C   UNL     1       4.534  -7.269 -38.407  1.00  0.00    -0.077 C 
ATOM     11  C   UNL     1       4.158  -7.118 -39.859  1.00  0.00     0.039 C 
ATOM     12  C   UNL     1       3.825  -8.126 -37.642  1.00  0.00    -0.028 CG0
ATOM     13  G   UNL     1       4.174  -8.464 -36.213  1.00  0.00     0.000 G0
ENDBRANCH   9  10
ENDBRANCH   8   9
ENDBRANCH   2   8
BRANCH   1  14
ATOM     14  C   UNL     1       7.147  -8.351 -34.540  1.00  0.00     0.192 C 
ATOM     15  C   UNL     1       6.205  -9.452 -34.958  1.00  0.00     0.096 C 
ATOM     16  O   UNL     1       7.565  -9.426 -35.348  1.00  0.00    -0.362 OA
ATOM     17  C   UNL     1       5.975 -10.565 -33.925  1.00  0.00     0.045 C 
BRANCH  15  18
ATOM     18  C   UNL     1       5.290  -9.515 -36.194  1.00  0.00     0.042 C 
BRANCH  18  19
ATOM     19  C   UNL     1       4.180  -8.463 -36.199  1.00  0.00     0.030 CG0
ATOM     20  G   UNL     1       3.822  -8.123 -37.625  1.00  0.00     0.000 G0
ENDBRANCH  18  19
ENDBRANCH  15  18
ENDBRANCH   1  14
TORSDOF 0
ENDMDL
MODEL 4
REMARK VINA RESULT:    -4.116     10.586     12.775
REMARK INTER + INTRA:          -5.776
REMARK INTER:                  -5.523
REMARK INTRA:                  -0.253
REMARK UNBOUND:                -0.215
REMARK SMILES C=C1C(=O)O[C@@H]2[C@H]1CCC(C)=CCC[C@@]1(C)O[C@@H]21
REMARK SMILES IDX 6 1 7 2 2 3 1 4 3 5 4 6 5 7 8 8 9 9 10 10 11 11 12 12 18 14
REMARK SMILES IDX 15 15 17 16 16 17 14 18 13 19
REMARK H PARENT
REMARK Flexibility Score: 70.00
ROOT
ATOM      1  C   UNL     1       5.908   1.591 -37.751  1.00  0.00     0.216 C 
ATOM      2  C   UNL     1       7.103   2.608 -37.775  1.00  0.00     0.070 C 
ATOM      3  C   UNL     1       8.192   1.728 -38.332  1.00  0.00     0.037 C 
ATOM      4  C   UNL     1       9.344   2.139 -38.860  1.00  0.00     0.021 C 
ATOM      5  C   UNL     1       7.783   0.349 -38.128  1.00  0.00     0.334 C 
ATOM      6  O   UNL     1       8.500  -0.669 -38.321  1.00  0.00    -0.247 OA
ATOM      7  O   UNL     1       6.487   0.295 -37.646  1.00  0.00    -0.455 OA
ENDROOT
BRANCH   2   8
ATOM      8  C   UNL     1       7.554   3.243 -36.436  1.00  0.00     0.017 C 
BRANCH   8   9
ATOM      9  C   UNL     1       6.717   4.457 -35.947  1.00  0.00     0.031 C 
BRANCH   9  10
ATOM     10  C   UNL     1       6.450   5.473 -37.035  1.00  0.00    -0.077 C 
ATOM     11  C   UNL     1       7.610   6.100 -37.765  1.00  0.00     0.039 C 
ATOM     12  C   UNL     1       5.201   5.903 -37.317  1.00  0.00    -0.028 CG0
ATOM     13  G   UNL     1       3.949   5.277 -36.755  1.00  0.00     0.000 G0
ENDBRANCH   9  10
ENDBRANCH   8   9
ENDBRANCH   2   8
BRANCH   1  14
ATOM     14  C   UNL     1       4.511   1.716 -37.076  1.00  0.00     0.192 C 
ATOM     15  C   UNL     1       3.441   2.778 -37.040  1.00  0.00     0.096 C 
ATOM     16  O   UNL     1       3.484   1.774 -38.037  1.00  0.00    -0.362 OA
ATOM     17  C   UNL     1       2.271   2.519 -36.081  1.00  0.00     0.045 C 
BRANCH  15  18
ATOM     18  C   UNL     1       3.456   4.178 -37.682  1.00  0.00     0.042 C 
BRANCH  18  19
ATOM     19  C   UNL     1       3.939   5.286 -36.745  1.00  0.00     0.030 CG0
ATOM     20  G   UNL     1       5.198   5.899 -37.306  1.00  0.00     0.000 G0
ENDBRANCH  18  19
ENDBRANCH  15  18
ENDBRANCH   1  14
TORSDOF 0
ENDMDL
MODEL 5
REMARK VINA RESULT:    -4.108      2.707      4.085
REMARK INTER + INTRA:          -5.764
REMARK INTER:                  -5.507
REMARK INTRA:                  -0.257
REMARK UNBOUND:                -0.215
REMARK SMILES C=C1C(=O)O[C@@H]2[C@H]1CCC(C)=CCC[C@@]1(C)O[C@@H]21
REMARK SMILES IDX 6 1 7 2 2 3 1 4 3 5 4 6 5 7 8 8 9 9 10 10 11 11 12 12 18 14
REMARK SMILES IDX 15 15 17 16 16 17 14 18 13 19
REMARK H PARENT
REMARK Flexibility Score: 70.00
ROOT
ATOM      1  C   UNL     1       2.909  -7.036 -35.624  1.00  0.00     0.216 C 
ATOM      2  C   UNL     1       3.957  -8.038 -36.224  1.00  0.00     0.070 C 
ATOM      3  C   UNL     1       5.198  -7.182 -36.187  1.00  0.00     0.037 C 
ATOM      4  C   UNL     1       6.455  -7.610 -36.285  1.00  0.00     0.021 C 
ATOM      5  C   UNL     1       4.765  -5.797 -36.091  1.00  0.00     0.334 C 
ATOM      6  O   UNL     1       5.508  -4.785 -36.193  1.00  0.00    -0.247 OA
ATOM      7  O   UNL     1       3.396  -5.730 -35.907  1.00  0.00    -0.455 OA
ENDROOT
BRANCH   2   8
ATOM      8  C   UNL     1       3.719  -8.582 -37.655  1.00  0.00     0.017 C 
BRANCH   8   9
ATOM      9  C   UNL     1       2.823  -9.846 -37.758  1.00  0.00     0.031 C 
BRANCH   9  10
ATOM     10  C   UNL     1       3.078 -10.847 -36.653  1.00  0.00    -0.077 C 
ATOM     11  C   UNL     1       4.447 -11.463 -36.512  1.00  0.00     0.039 C 
ATOM     12  C   UNL     1       2.090 -11.276 -35.838  1.00  0.00    -0.028 CG0
ATOM     13  G   UNL     1       0.714 -10.660 -35.789  1.00  0.00     0.000 G0
ENDBRANCH   9  10
ENDBRANCH   8   9
ENDBRANCH   2   8
BRANCH   1  14
ATOM     14  C   UNL     1       1.356  -7.137 -35.575  1.00  0.00     0.192 C 
ATOM     15  C   UNL     1       0.375  -8.202 -35.158  1.00  0.00     0.096 C 
ATOM     16  O   UNL     1       0.895  -7.249 -34.250  1.00  0.00    -0.362 OA
ATOM     17  C   UNL     1      -1.103  -7.902 -35.447  1.00  0.00     0.045 C 
BRANCH  15  18
ATOM     18  C   UNL     1       0.662  -9.632 -34.664  1.00  0.00     0.042 C 
BRANCH  18  19
ATOM     19  C   UNL     1       0.709 -10.677 -35.780  1.00  0.00     0.030 CG0
ATOM     20  G   UNL     1       2.093 -11.275 -35.843  1.00  0.00     0.000 G0
ENDBRANCH  18  19
ENDBRANCH  15  18
ENDBRANCH   1  14
TORSDOF 0
ENDMDL
MODEL 6
REMARK VINA RESULT:    -4.104      2.004      3.778
REMARK INTER + INTRA:          -5.759
REMARK INTER:                  -6.143
REMARK INTRA:                   0.385
REMARK UNBOUND:                -0.215
REMARK SMILES C=C1C(=O)O[C@@H]2[C@H]1CCC(C)=CCC[C@@]1(C)O[C@@H]21
REMARK SMILES IDX 6 1 7 2 2 3 1 4 3 5 4 6 5 7 8 8 9 9 10 10 11 11 12 12 18 14
REMARK SMILES IDX 15 15 17 16 16 17 14 18 13 19
REMARK H PARENT
REMARK Flexibility Score: 70.00
ROOT
ATOM      1  C   UNL     1       5.242  -5.820 -36.689  1.00  0.00     0.216 C 
ATOM      2  C   UNL     1       5.987  -6.153 -35.349  1.00  0.00     0.070 C 
ATOM      3  C   UNL     1       7.415  -5.919 -35.772  1.00  0.00     0.037 C 
ATOM      4  C   UNL     1       8.459  -5.749 -34.963  1.00  0.00     0.021 C 
ATOM      5  C   UNL     1       7.453  -5.979 -37.224  1.00  0.00     0.334 C 
ATOM      6  O   UNL     1       8.493  -5.986 -37.934  1.00  0.00    -0.247 OA
ATOM      7  O   UNL     1       6.171  -6.069 -37.737  1.00  0.00    -0.455 OA
ENDROOT
BRANCH   2   8
ATOM      8  C   UNL     1       5.827  -7.574 -34.752  1.00  0.00     0.017 C 
BRANCH   8   9
ATOM      9  C   UNL     1       6.327  -8.743 -35.644  1.00  0.00     0.031 C 
BRANCH   9  10
ATOM     10  C   UNL     1       5.638 -10.056 -35.346  1.00  0.00    -0.077 C 
ATOM     11  C   UNL     1       6.250 -11.003 -34.346  1.00  0.00     0.039 C 
ATOM     12  C   UNL     1       4.533 -10.448 -36.015  1.00  0.00    -0.028 CG0
ATOM     13  G   UNL     1       3.752  -9.553 -36.946  1.00  0.00     0.000 G0
ENDBRANCH   9  10
ENDBRANCH   8   9
ENDBRANCH   2   8
BRANCH   1  14
ATOM     14  C   UNL     1       3.758  -6.068 -37.087  1.00  0.00     0.192 C 
ATOM     15  C   UNL     1       2.767  -7.180 -36.850  1.00  0.00     0.096 C 
ATOM     16  O   UNL     1       2.924  -6.097 -35.953  1.00  0.00    -0.362 OA
ATOM     17  C   UNL     1       1.431  -7.057 -37.596  1.00  0.00     0.045 C 
BRANCH  15  18
ATOM     18  C   UNL     1       2.983  -8.520 -36.122  1.00  0.00     0.042 C 
BRANCH  18  19
ATOM     19  C   UNL     1       3.741  -9.560 -36.948  1.00  0.00     0.030 CG0
ATOM     20  G   UNL     1       4.541 -10.444 -36.024  1.00  0.00     0.000 G0
ENDBRANCH  18  19
ENDBRANCH  15  18
ENDBRANCH   1  14
TORSDOF 0
ENDMDL
MODEL 7
REMARK VINA RESULT:    -4.092      4.068      5.188
REMARK INTER + INTRA:          -5.742
REMARK INTER:                  -5.484
REMARK INTRA:                  -0.258
REMARK UNBOUND:                -0.215
REMARK SMILES C=C1C(=O)O[C@@H]2[C@H]1CCC(C)=CCC[C@@]1(C)O[C@@H]21
REMARK SMILES IDX 6 1 7 2 2 3 1 4 3 5 4 6 5 7 8 8 9 9 10 10 11 11 12 12 18 14
REMARK SMILES IDX 15 15 17 16 16 17 14 18 13 19
REMARK H PARENT
REMARK Flexibility Score: 70.00
ROOT
ATOM      1  C   UNL     1       1.609  -7.271 -35.551  1.00  0.00     0.216 C 
ATOM      2  C   UNL     1       1.814  -7.737 -37.035  1.00  0.00     0.070 C 
ATOM      3  C   UNL     1       3.221  -7.252 -37.276  1.00  0.00     0.037 C 
ATOM      4  C   UNL     1       4.032  -7.640 -38.259  1.00  0.00     0.021 C 
ATOM      5  C   UNL     1       3.505  -6.234 -36.277  1.00  0.00     0.334 C 
ATOM      6  O   UNL     1       4.521  -5.489 -36.254  1.00  0.00    -0.247 OA
ATOM      7  O   UNL     1       2.476  -6.160 -35.356  1.00  0.00    -0.455 OA
ENDROOT
BRANCH   2   8
ATOM      8  C   UNL     1       0.858  -7.180 -38.119  1.00  0.00     0.017 C 
BRANCH   8   9
ATOM      9  C   UNL     1      -0.457  -7.977 -38.335  1.00  0.00     0.031 C 
BRANCH   9  10
ATOM     10  C   UNL     1      -0.268  -9.474 -38.238  1.00  0.00    -0.077 C 
ATOM     11  C   UNL     1       0.653 -10.169 -39.207  1.00  0.00     0.039 C 
ATOM     12  C   UNL     1      -0.969 -10.226 -37.361  1.00  0.00    -0.028 CG0
ATOM     13  G   UNL     1      -1.826  -9.652 -36.260  1.00  0.00     0.000 G0
ENDBRANCH   9  10
ENDBRANCH   8   9
ENDBRANCH   2   8
BRANCH   1  14
ATOM     14  C   UNL     1       0.307  -7.215 -34.699  1.00  0.00     0.192 C 
ATOM     15  C   UNL     1      -0.812  -8.182 -34.408  1.00  0.00     0.096 C 
ATOM     16  O   UNL     1       0.363  -8.120 -33.622  1.00  0.00    -0.362 OA
ATOM     17  C   UNL     1      -2.002  -7.612 -33.621  1.00  0.00     0.045 C 
BRANCH  15  18
ATOM     18  C   UNL     1      -1.020  -9.605 -34.958  1.00  0.00     0.042 C 
BRANCH  18  19
ATOM     19  C   UNL     1      -1.838  -9.658 -36.250  1.00  0.00     0.030 CG0
ATOM     20  G   UNL     1      -0.981 -10.216 -37.359  1.00  0.00     0.000 G0
ENDBRANCH  18  19
ENDBRANCH  15  18
ENDBRANCH   1  14
TORSDOF 0
ENDMDL
MODEL 8
REMARK VINA RESULT:    -4.040      2.580      4.824
REMARK INTER + INTRA:          -5.672
REMARK INTER:                  -6.028
REMARK INTRA:                   0.356
REMARK UNBOUND:                -0.215
REMARK SMILES C=C1C(=O)O[C@@H]2[C@H]1CCC(C)=CCC[C@@]1(C)O[C@@H]21
REMARK SMILES IDX 6 1 7 2 2 3 1 4 3 5 4 6 5 7 8 8 9 9 10 10 11 11 12 12 18 14
REMARK SMILES IDX 15 15 17 16 16 17 14 18 13 19
REMARK H PARENT
REMARK Flexibility Score: 70.00
ROOT
ATOM      1  C   UNL     1       4.194  -5.905 -36.382  1.00  0.00     0.216 C 
ATOM      2  C   UNL     1       3.663  -7.025 -37.344  1.00  0.00     0.070 C 
ATOM      3  C   UNL     1       2.242  -7.147 -36.855  1.00  0.00     0.037 C 
ATOM      4  C   UNL     1       1.232  -7.724 -37.503  1.00  0.00     0.021 C 
ATOM      5  C   UNL     1       2.194  -6.577 -35.519  1.00  0.00     0.334 C 
ATOM      6  O   UNL     1       1.215  -6.638 -34.728  1.00  0.00    -0.247 OA
ATOM      7  O   UNL     1       3.401  -5.980 -35.204  1.00  0.00    -0.455 OA
ENDROOT
BRANCH   2   8
ATOM      8  C   UNL     1       4.362  -8.408 -37.319  1.00  0.00     0.017 C 
BRANCH   8   9
ATOM      9  C   UNL     1       4.261  -9.193 -35.983  1.00  0.00     0.031 C 
BRANCH   9  10
ATOM     10  C   UNL     1       5.407 -10.158 -35.771  1.00  0.00    -0.077 C 
ATOM     11  C   UNL     1       5.251 -11.597 -36.191  1.00  0.00     0.039 C 
ATOM     12  C   UNL     1       6.539  -9.789 -35.134  1.00  0.00    -0.028 CG0
ATOM     13  G   UNL     1       6.875  -8.363 -34.774  1.00  0.00     0.000 G0
ENDBRANCH   9  10
ENDBRANCH   8   9
ENDBRANCH   2   8
BRANCH   1  14
ATOM     14  C   UNL     1       5.651  -5.418 -36.135  1.00  0.00     0.192 C 
ATOM     15  C   UNL     1       6.990  -6.100 -36.007  1.00  0.00     0.096 C 
ATOM     16  O   UNL     1       6.470  -5.673 -37.252  1.00  0.00    -0.362 OA
ATOM     17  C   UNL     1       8.163  -5.200 -35.590  1.00  0.00     0.045 C 
BRANCH  15  18
ATOM     18  C   UNL     1       7.309  -7.606 -36.042  1.00  0.00     0.042 C 
BRANCH  18  19
ATOM     19  C   UNL     1       6.895  -8.357 -34.776  1.00  0.00     0.030 CG0
ATOM     20  G   UNL     1       6.537  -9.778 -35.135  1.00  0.00     0.000 G0
ENDBRANCH  18  19
ENDBRANCH  15  18
ENDBRANCH   1  14
TORSDOF 0
ENDMDL
MODEL 9
REMARK VINA RESULT:    -3.969      9.747     12.543
REMARK INTER + INTRA:          -5.576
REMARK INTER:                  -5.734
REMARK INTRA:                   0.157
REMARK UNBOUND:                -0.215
REMARK SMILES C=C1C(=O)O[C@@H]2[C@H]1CCC(C)=CCC[C@@]1(C)O[C@@H]21
REMARK SMILES IDX 6 1 7 2 2 3 1 4 3 5 4 6 5 7 8 8 9 9 10 10 11 11 12 12 18 14
REMARK SMILES IDX 15 15 17 16 16 17 14 18 13 19
REMARK H PARENT
REMARK Flexibility Score: 70.00
ROOT
ATOM      1  C   UNL     1       8.099   2.732 -37.670  1.00  0.00     0.216 C 
ATOM      2  C   UNL     1       7.171   1.496 -37.401  1.00  0.00     0.070 C 
ATOM      3  C   UNL     1       8.031   0.389 -37.955  1.00  0.00     0.037 C 
ATOM      4  C   UNL     1       7.889  -0.914 -37.717  1.00  0.00     0.021 C 
ATOM      5  C   UNL     1       9.002   1.000 -38.847  1.00  0.00     0.334 C 
ATOM      6  O   UNL     1       9.788   0.383 -39.613  1.00  0.00    -0.247 OA
ATOM      7  O   UNL     1       8.925   2.379 -38.774  1.00  0.00    -0.455 OA
ENDROOT
BRANCH   2   8
ATOM      8  C   UNL     1       5.769   1.472 -38.061  1.00  0.00     0.017 C 
BRANCH   8   9
ATOM      9  C   UNL     1       4.576   1.811 -37.127  1.00  0.00     0.031 C 
BRANCH   9  10
ATOM     10  C   UNL     1       3.345   2.271 -37.876  1.00  0.00    -0.077 C 
ATOM     11  C   UNL     1       2.306   1.260 -38.286  1.00  0.00     0.039 C 
ATOM     12  C   UNL     1       3.188   3.554 -38.269  1.00  0.00    -0.028 CG0
ATOM     13  G   UNL     1       4.083   4.685 -37.825  1.00  0.00     0.000 G0
ENDBRANCH   9  10
ENDBRANCH   8   9
ENDBRANCH   2   8
BRANCH   1  14
ATOM     14  C   UNL     1       7.778   4.252 -37.580  1.00  0.00     0.192 C 
ATOM     15  C   UNL     1       6.615   5.118 -37.993  1.00  0.00     0.096 C 
ATOM     16  O   UNL     1       6.686   4.493 -36.726  1.00  0.00    -0.362 OA
ATOM     17  C   UNL     1       6.821   6.632 -37.846  1.00  0.00     0.045 C 
BRANCH  15  18
ATOM     18  C   UNL     1       5.326   4.707 -38.727  1.00  0.00     0.042 C 
BRANCH  18  19
ATOM     19  C   UNL     1       4.085   4.680 -37.834  1.00  0.00     0.030 CG0
ATOM     20  G   UNL     1       3.186   3.547 -38.264  1.00  0.00     0.000 G0
ENDBRANCH  18  19
ENDBRANCH  15  18
ENDBRANCH   1  14
TORSDOF 0
ENDMDL
