MODEL 1
REMARK VINA RESULT:    -1.292      0.000      0.000
REMARK INTER + INTRA:          -7.711
REMARK INTER:                  -2.954
REMARK INTRA:                  -4.758
REMARK UNBOUND:                -4.758
REMARK SMILES CCCCCCCCCCCCCCCCCCCCCCCC(=O)[O-]
REMARK SMILES IDX 13 1 14 2 15 3 16 4 17 5 18 6 19 7 20 8 21 9 22 10 23 11
REMARK SMILES IDX 24 12 25 13 26 14 12 15 11 16 10 17 9 18 8 19 7 20 6 21 5 22
REMARK SMILES IDX 4 23 3 24 2 25 1 26
REMARK H PARENT
REMARK Flexibility Score: inf
ROOT
ATOM      1  C   UNL     1      23.462  27.279  16.599  1.00  0.00     0.000 C 
ENDROOT
BRANCH   1   2
ATOM      2  C   UNL     1      24.733  26.746  15.918  1.00  0.00     0.000 C 
BRANCH   2   3
ATOM      3  C   UNL     1      25.366  27.774  14.964  1.00  0.00     0.000 C 
BRANCH   3   4
ATOM      4  C   UNL     1      24.407  28.923  14.582  1.00  0.00     0.000 C 
BRANCH   4   5
ATOM      5  C   UNL     1      24.600  29.380  13.129  1.00  0.00     0.000 C 
BRANCH   5   6
ATOM      6  C   UNL     1      23.775  28.517  12.168  1.00  0.00     0.000 C 
BRANCH   6   7
ATOM      7  C   UNL     1      22.376  28.236  12.735  1.00  0.00     0.000 C 
BRANCH   7   8
ATOM      8  C   UNL     1      21.978  26.749  12.589  1.00  0.00     0.000 C 
BRANCH   8   9
ATOM      9  C   UNL     1      23.182  25.787  12.603  1.00  0.00     0.000 C 
BRANCH   9  10
ATOM     10  C   UNL     1      22.874  24.389  13.181  1.00  0.00     0.006 C 
BRANCH  10  11
ATOM     11  C   UNL     1      24.011  23.807  14.038  1.00  0.00     0.053 C 
BRANCH  11  12
ATOM     12  C   UNL     1      24.702  22.657  13.374  1.00  0.00     0.041 C 
ATOM     13  O   UNL     1      24.194  22.111  12.360  1.00  0.00    -0.550 OA
ATOM     14  O   UNL     1      25.908  22.190  13.876  1.00  0.00    -0.550 OA
ENDBRANCH  11  12
ENDBRANCH  10  11
ENDBRANCH   9  10
ENDBRANCH   8   9
ENDBRANCH   7   8
ENDBRANCH   6   7
ENDBRANCH   5   6
ENDBRANCH   4   5
ENDBRANCH   3   4
ENDBRANCH   2   3
ENDBRANCH   1   2
BRANCH   1  15
ATOM     15  C   UNL     1      22.232  26.391  16.342  1.00  0.00     0.000 C 
BRANCH  15  16
ATOM     16  C   UNL     1      20.901  27.143  16.160  1.00  0.00     0.000 C 
BRANCH  16  17
ATOM     17  C   UNL     1      19.788  26.302  15.500  1.00  0.00     0.000 C 
BRANCH  17  18
ATOM     18  C   UNL     1      20.075  24.789  15.555  1.00  0.00    -0.000 C 
BRANCH  18  19
ATOM     19  C   UNL     1      19.145  23.980  14.638  1.00  0.00    -0.000 C 
BRANCH  19  20
ATOM     20  C   UNL     1      19.158  24.488  13.185  1.00  0.00    -0.000 C 
BRANCH  20  21
ATOM     21  C   UNL     1      17.758  24.499  12.548  1.00  0.00    -0.000 C 
BRANCH  21  22
ATOM     22  C   UNL     1      17.025  25.837  12.753  1.00  0.00    -0.000 C 
BRANCH  22  23
ATOM     23  C   UNL     1      17.868  27.051  12.328  1.00  0.00    -0.000 C 
BRANCH  23  24
ATOM     24  C   UNL     1      17.721  28.267  13.267  1.00  0.00    -0.000 C 
BRANCH  24  25
ATOM     25  C   UNL     1      18.915  29.229  13.161  1.00  0.00    -0.003 C 
ATOM     26  C   UNL     1      19.116  30.000  14.463  1.00  0.00     0.004 C 
ENDBRANCH  24  25
ENDBRANCH  23  24
ENDBRANCH  22  23
ENDBRANCH  21  22
ENDBRANCH  20  21
ENDBRANCH  19  20
ENDBRANCH  18  19
ENDBRANCH  17  18
ENDBRANCH  16  17
ENDBRANCH  15  16
ENDBRANCH   1  15
TORSDOF 22
ENDMDL
MODEL 2
REMARK VINA RESULT:    -1.267      2.377      4.734
REMARK INTER + INTRA:          -7.654
REMARK INTER:                  -2.553
REMARK INTRA:                  -5.101
REMARK UNBOUND:                -4.758
REMARK SMILES CCCCCCCCCCCCCCCCCCCCCCCC(=O)[O-]
REMARK SMILES IDX 13 1 14 2 15 3 16 4 17 5 18 6 19 7 20 8 21 9 22 10 23 11
REMARK SMILES IDX 24 12 25 13 26 14 12 15 11 16 10 17 9 18 8 19 7 20 6 21 5 22
REMARK SMILES IDX 4 23 3 24 2 25 1 26
REMARK H PARENT
REMARK Flexibility Score: inf
ROOT
ATOM      1  C   UNL     1      21.564  26.563  14.793  1.00  0.00     0.000 C 
ENDROOT
BRANCH   1   2
ATOM      2  C   UNL     1      22.023  25.666  13.632  1.00  0.00     0.000 C 
BRANCH   2   3
ATOM      3  C   UNL     1      23.393  26.083  13.070  1.00  0.00     0.000 C 
BRANCH   3   4
ATOM      4  C   UNL     1      23.295  27.130  11.938  1.00  0.00     0.000 C 
BRANCH   4   5
ATOM      5  C   UNL     1      23.519  28.559  12.452  1.00  0.00     0.000 C 
BRANCH   5   6
ATOM      6  C   UNL     1      24.736  28.625  13.380  1.00  0.00     0.000 C 
BRANCH   6   7
ATOM      7  C   UNL     1      24.360  29.208  14.750  1.00  0.00     0.000 C 
BRANCH   7   8
ATOM      8  C   UNL     1      24.711  28.245  15.907  1.00  0.00     0.000 C 
BRANCH   8   9
ATOM      9  C   UNL     1      25.898  27.314  15.593  1.00  0.00     0.000 C 
BRANCH   9  10
ATOM     10  C   UNL     1      25.609  25.814  15.815  1.00  0.00     0.006 C 
BRANCH  10  11
ATOM     11  C   UNL     1      24.418  25.543  16.749  1.00  0.00     0.053 C 
BRANCH  11  12
ATOM     12  C   UNL     1      24.077  24.088  16.841  1.00  0.00     0.041 C 
ATOM     13  O   UNL     1      24.057  23.374  15.804  1.00  0.00    -0.550 OA
ATOM     14  O   UNL     1      23.784  23.521  18.073  1.00  0.00    -0.550 OA
ENDBRANCH  11  12
ENDBRANCH  10  11
ENDBRANCH   9  10
ENDBRANCH   8   9
ENDBRANCH   7   8
ENDBRANCH   6   7
ENDBRANCH   5   6
ENDBRANCH   4   5
ENDBRANCH   3   4
ENDBRANCH   2   3
ENDBRANCH   1   2
BRANCH   1  15
ATOM     15  C   UNL     1      20.453  27.544  14.385  1.00  0.00     0.000 C 
BRANCH  15  16
ATOM     16  C   UNL     1      20.649  28.997  14.856  1.00  0.00     0.000 C 
BRANCH  16  17
ATOM     17  C   UNL     1      20.347  29.220  16.353  1.00  0.00     0.000 C 
BRANCH  17  18
ATOM     18  C   UNL     1      21.459  30.006  17.072  1.00  0.00    -0.000 C 
BRANCH  18  19
ATOM     19  C   UNL     1      21.983  29.277  18.320  1.00  0.00    -0.000 C 
BRANCH  19  20
ATOM     20  C   UNL     1      21.769  27.755  18.249  1.00  0.00    -0.000 C 
BRANCH  20  21
ATOM     21  C   UNL     1      21.014  27.204  19.470  1.00  0.00    -0.000 C 
BRANCH  21  22
ATOM     22  C   UNL     1      19.488  27.349  19.337  1.00  0.00    -0.000 C 
BRANCH  22  23
ATOM     23  C   UNL     1      18.809  26.069  18.820  1.00  0.00    -0.000 C 
BRANCH  23  24
ATOM     24  C   UNL     1      18.662  26.022  17.285  1.00  0.00    -0.000 C 
BRANCH  24  25
ATOM     25  C   UNL     1      19.064  24.658  16.704  1.00  0.00    -0.003 C 
ATOM     26  C   UNL     1      20.381  24.173  17.302  1.00  0.00     0.004 C 
ENDBRANCH  24  25
ENDBRANCH  23  24
ENDBRANCH  22  23
ENDBRANCH  21  22
ENDBRANCH  20  21
ENDBRANCH  19  20
ENDBRANCH  18  19
ENDBRANCH  17  18
ENDBRANCH  16  17
ENDBRANCH  15  16
ENDBRANCH   1  15
TORSDOF 22
ENDMDL
MODEL 3
REMARK VINA RESULT:    -1.249     19.684     22.573
REMARK INTER + INTRA:          -7.613
REMARK INTER:                  -2.928
REMARK INTRA:                  -4.685
REMARK UNBOUND:                -4.758
REMARK SMILES CCCCCCCCCCCCCCCCCCCCCCCC(=O)[O-]
REMARK SMILES IDX 13 1 14 2 15 3 16 4 17 5 18 6 19 7 20 8 21 9 22 10 23 11
REMARK SMILES IDX 24 12 25 13 26 14 12 15 11 16 10 17 9 18 8 19 7 20 6 21 5 22
REMARK SMILES IDX 4 23 3 24 2 25 1 26
REMARK H PARENT
REMARK Flexibility Score: inf
ROOT
ATOM      1  C   UNL     1      12.704  12.740  25.512  1.00  0.00     0.000 C 
ENDROOT
BRANCH   1   2
ATOM      2  C   UNL     1      12.436  11.244  25.747  1.00  0.00     0.000 C 
BRANCH   2   3
ATOM      3  C   UNL     1      13.356  10.641  26.821  1.00  0.00     0.000 C 
BRANCH   3   4
ATOM      4  C   UNL     1      12.590   9.876  27.922  1.00  0.00     0.000 C 
BRANCH   4   5
ATOM      5  C   UNL     1      11.109  10.279  27.984  1.00  0.00     0.000 C 
BRANCH   5   6
ATOM      6  C   UNL     1      10.711  10.689  29.405  1.00  0.00     0.000 C 
BRANCH   6   7
ATOM      7  C   UNL     1      11.640  11.785  29.949  1.00  0.00     0.000 C 
BRANCH   7   8
ATOM      8  C   UNL     1      11.626  13.051  29.062  1.00  0.00     0.000 C 
BRANCH   8   9
ATOM      9  C   UNL     1      10.387  13.940  29.282  1.00  0.00     0.000 C 
BRANCH   9  10
ATOM     10  C   UNL     1      10.386  15.247  28.461  1.00  0.00     0.006 C 
BRANCH  10  11
ATOM     11  C   UNL     1      11.347  16.321  29.001  1.00  0.00     0.053 C 
BRANCH  11  12
ATOM     12  C   UNL     1      12.344  16.768  27.979  1.00  0.00     0.041 C 
ATOM     13  O   UNL     1      13.127  15.937  27.449  1.00  0.00    -0.550 OA
ATOM     14  O   UNL     1      12.406  18.105  27.611  1.00  0.00    -0.550 OA
ENDBRANCH  11  12
ENDBRANCH  10  11
ENDBRANCH   9  10
ENDBRANCH   8   9
ENDBRANCH   7   8
ENDBRANCH   6   7
ENDBRANCH   5   6
ENDBRANCH   4   5
ENDBRANCH   3   4
ENDBRANCH   2   3
ENDBRANCH   1   2
BRANCH   1  15
ATOM     15  C   UNL     1      11.412  13.567  25.404  1.00  0.00     0.000 C 
BRANCH  15  16
ATOM     16  C   UNL     1      10.107  12.786  25.644  1.00  0.00     0.000 C 
BRANCH  16  17
ATOM     17  C   UNL     1       9.107  12.857  24.470  1.00  0.00     0.000 C 
BRANCH  17  18
ATOM     18  C   UNL     1       8.609  11.468  24.029  1.00  0.00    -0.000 C 
BRANCH  18  19
ATOM     19  C   UNL     1       8.694  10.427  25.157  1.00  0.00    -0.000 C 
BRANCH  19  20
ATOM     20  C   UNL     1       7.364  10.265  25.914  1.00  0.00    -0.000 C 
BRANCH  20  21
ATOM     21  C   UNL     1       7.492  10.583  27.413  1.00  0.00    -0.000 C 
BRANCH  21  22
ATOM     22  C   UNL     1       7.062  12.021  27.753  1.00  0.00    -0.000 C 
BRANCH  22  23
ATOM     23  C   UNL     1       5.876  12.506  26.901  1.00  0.00    -0.000 C 
BRANCH  23  24
ATOM     24  C   UNL     1       6.061  13.929  26.333  1.00  0.00    -0.000 C 
BRANCH  24  25
ATOM     25  C   UNL     1       7.125  14.727  27.103  1.00  0.00    -0.003 C 
ATOM     26  C   UNL     1       6.579  16.080  27.551  1.00  0.00     0.004 C 
ENDBRANCH  24  25
ENDBRANCH  23  24
ENDBRANCH  22  23
ENDBRANCH  21  22
ENDBRANCH  20  21
ENDBRANCH  19  20
ENDBRANCH  18  19
ENDBRANCH  17  18
ENDBRANCH  16  17
ENDBRANCH  15  16
ENDBRANCH   1  15
TORSDOF 22
ENDMDL
MODEL 4
REMARK VINA RESULT:    -1.231      2.571      6.158
REMARK INTER + INTRA:          -7.573
REMARK INTER:                  -2.939
REMARK INTRA:                  -4.634
REMARK UNBOUND:                -4.758
REMARK SMILES CCCCCCCCCCCCCCCCCCCCCCCC(=O)[O-]
REMARK SMILES IDX 13 1 14 2 15 3 16 4 17 5 18 6 19 7 20 8 21 9 22 10 23 11
REMARK SMILES IDX 24 12 25 13 26 14 12 15 11 16 10 17 9 18 8 19 7 20 6 21 5 22
REMARK SMILES IDX 4 23 3 24 2 25 1 26
REMARK H PARENT
REMARK Flexibility Score: inf
ROOT
ATOM      1  C   UNL     1      20.484  28.266  15.807  1.00  0.00     0.000 C 
ENDROOT
BRANCH   1   2
ATOM      2  C   UNL     1      20.770  26.837  15.317  1.00  0.00     0.000 C 
BRANCH   2   3
ATOM      3  C   UNL     1      21.802  26.108  16.194  1.00  0.00     0.000 C 
BRANCH   3   4
ATOM      4  C   UNL     1      22.237  26.924  17.431  1.00  0.00     0.000 C 
BRANCH   4   5
ATOM      5  C   UNL     1      22.527  26.029  18.643  1.00  0.00     0.000 C 
BRANCH   5   6
ATOM      6  C   UNL     1      21.310  25.165  18.991  1.00  0.00     0.000 C 
BRANCH   6   7
ATOM      7  C   UNL     1      21.712  23.699  19.208  1.00  0.00     0.000 C 
BRANCH   7   8
ATOM      8  C   UNL     1      23.210  23.458  18.913  1.00  0.00     0.000 C 
BRANCH   8   9
ATOM      9  C   UNL     1      23.458  22.434  17.788  1.00  0.00     0.000 C 
BRANCH   9  10
ATOM     10  C   UNL     1      23.968  23.050  16.467  1.00  0.00     0.006 C 
BRANCH  10  11
ATOM     11  C   UNL     1      25.469  22.827  16.216  1.00  0.00     0.053 C 
BRANCH  11  12
ATOM     12  C   UNL     1      25.734  22.059  14.959  1.00  0.00     0.041 C 
ATOM     13  O   UNL     1      26.125  22.654  13.922  1.00  0.00    -0.550 OA
ATOM     14  O   UNL     1      25.552  20.683  14.937  1.00  0.00    -0.550 OA
ENDBRANCH  11  12
ENDBRANCH  10  11
ENDBRANCH   9  10
ENDBRANCH   8   9
ENDBRANCH   7   8
ENDBRANCH   6   7
ENDBRANCH   5   6
ENDBRANCH   4   5
ENDBRANCH   3   4
ENDBRANCH   2   3
ENDBRANCH   1   2
BRANCH   1  15
ATOM     15  C   UNL     1      21.088  29.342  14.889  1.00  0.00     0.000 C 
BRANCH  15  16
ATOM     16  C   UNL     1      22.280  30.119  15.478  1.00  0.00     0.000 C 
BRANCH  16  17
ATOM     17  C   UNL     1      23.605  29.915  14.712  1.00  0.00     0.000 C 
BRANCH  17  18
ATOM     18  C   UNL     1      23.467  28.926  13.540  1.00  0.00    -0.000 C 
BRANCH  18  19
ATOM     19  C   UNL     1      24.199  27.600  13.799  1.00  0.00    -0.000 C 
BRANCH  19  20
ATOM     20  C   UNL     1      25.289  27.727  14.877  1.00  0.00    -0.000 C 
BRANCH  20  21
ATOM     21  C   UNL     1      25.486  26.429  15.678  1.00  0.00    -0.000 C 
BRANCH  21  22
ATOM     22  C   UNL     1      25.902  26.690  17.136  1.00  0.00    -0.000 C 
BRANCH  22  23
ATOM     23  C   UNL     1      26.049  28.188  17.456  1.00  0.00    -0.000 C 
BRANCH  23  24
ATOM     24  C   UNL     1      25.238  28.642  18.687  1.00  0.00    -0.000 C 
BRANCH  24  25
ATOM     25  C   UNL     1      24.636  30.044  18.501  1.00  0.00    -0.003 C 
ATOM     26  C   UNL     1      23.217  30.112  19.058  1.00  0.00     0.004 C 
ENDBRANCH  24  25
ENDBRANCH  23  24
ENDBRANCH  22  23
ENDBRANCH  21  22
ENDBRANCH  20  21
ENDBRANCH  19  20
ENDBRANCH  18  19
ENDBRANCH  17  18
ENDBRANCH  16  17
ENDBRANCH  15  16
ENDBRANCH   1  15
TORSDOF 22
ENDMDL
MODEL 5
REMARK VINA RESULT:    -1.205      2.098      4.794
REMARK INTER + INTRA:          -7.513
REMARK INTER:                  -3.428
REMARK INTRA:                  -4.085
REMARK UNBOUND:                -4.758
REMARK SMILES CCCCCCCCCCCCCCCCCCCCCCCC(=O)[O-]
REMARK SMILES IDX 13 1 14 2 15 3 16 4 17 5 18 6 19 7 20 8 21 9 22 10 23 11
REMARK SMILES IDX 24 12 25 13 26 14 12 15 11 16 10 17 9 18 8 19 7 20 6 21 5 22
REMARK SMILES IDX 4 23 3 24 2 25 1 26
REMARK H PARENT
REMARK Flexibility Score: inf
ROOT
ATOM      1  C   UNL     1      24.435  26.643  16.555  1.00  0.00     0.000 C 
ENDROOT
BRANCH   1   2
ATOM      2  C   UNL     1      23.039  26.334  15.988  1.00  0.00     0.000 C 
BRANCH   2   3
ATOM      3  C   UNL     1      23.026  25.071  15.110  1.00  0.00     0.000 C 
BRANCH   3   4
ATOM      4  C   UNL     1      22.067  23.977  15.629  1.00  0.00     0.000 C 
BRANCH   4   5
ATOM      5  C   UNL     1      22.357  23.597  17.088  1.00  0.00     0.000 C 
BRANCH   5   6
ATOM      6  C   UNL     1      23.278  22.375  17.164  1.00  0.00     0.000 C 
BRANCH   6   7
ATOM      7  C   UNL     1      24.542  22.680  17.981  1.00  0.00     0.000 C 
BRANCH   7   8
ATOM      8  C   UNL     1      25.670  23.272  17.106  1.00  0.00     0.000 C 
BRANCH   8   9
ATOM      9  C   UNL     1      26.124  22.333  15.972  1.00  0.00     0.000 C 
BRANCH   9  10
ATOM     10  C   UNL     1      26.046  22.953  14.560  1.00  0.00     0.006 C 
BRANCH  10  11
ATOM     11  C   UNL     1      25.954  21.914  13.430  1.00  0.00     0.053 C 
BRANCH  11  12
ATOM     12  C   UNL     1      24.544  21.656  12.998  1.00  0.00     0.041 C 
ATOM     13  O   UNL     1      24.073  20.489  13.031  1.00  0.00    -0.550 OA
ATOM     14  O   UNL     1      23.751  22.707  12.560  1.00  0.00    -0.550 OA
ENDBRANCH  11  12
ENDBRANCH  10  11
ENDBRANCH   9  10
ENDBRANCH   8   9
ENDBRANCH   7   8
ENDBRANCH   6   7
ENDBRANCH   5   6
ENDBRANCH   4   5
ENDBRANCH   3   4
ENDBRANCH   2   3
ENDBRANCH   1   2
BRANCH   1  15
ATOM     15  C   UNL     1      24.985  27.997  16.075  1.00  0.00     0.000 C 
BRANCH  15  16
ATOM     16  C   UNL     1      23.954  29.138  15.996  1.00  0.00     0.000 C 
BRANCH  16  17
ATOM     17  C   UNL     1      23.779  29.731  14.582  1.00  0.00     0.000 C 
BRANCH  17  18
ATOM     18  C   UNL     1      24.661  29.032  13.531  1.00  0.00    -0.000 C 
BRANCH  18  19
ATOM     19  C   UNL     1      23.877  28.644  12.268  1.00  0.00    -0.000 C 
BRANCH  19  20
ATOM     20  C   UNL     1      23.546  27.142  12.214  1.00  0.00    -0.000 C 
BRANCH  20  21
ATOM     21  C   UNL     1      22.062  26.871  11.916  1.00  0.00    -0.000 C 
BRANCH  21  22
ATOM     22  C   UNL     1      21.130  27.922  12.545  1.00  0.00    -0.000 C 
BRANCH  22  23
ATOM     23  C   UNL     1      20.396  27.399  13.792  1.00  0.00    -0.000 C 
BRANCH  23  24
ATOM     24  C   UNL     1      20.369  28.404  14.963  1.00  0.00    -0.000 C 
BRANCH  24  25
ATOM     25  C   UNL     1      19.114  28.243  15.836  1.00  0.00    -0.003 C 
ATOM     26  C   UNL     1      18.998  26.821  16.375  1.00  0.00     0.004 C 
ENDBRANCH  24  25
ENDBRANCH  23  24
ENDBRANCH  22  23
ENDBRANCH  21  22
ENDBRANCH  20  21
ENDBRANCH  19  20
ENDBRANCH  18  19
ENDBRANCH  17  18
ENDBRANCH  16  17
ENDBRANCH  15  16
ENDBRANCH   1  15
TORSDOF 22
ENDMDL
MODEL 6
REMARK VINA RESULT:    -1.204      2.563      5.699
REMARK INTER + INTRA:          -7.511
REMARK INTER:                  -2.971
REMARK INTRA:                  -4.540
REMARK UNBOUND:                -4.758
REMARK SMILES CCCCCCCCCCCCCCCCCCCCCCCC(=O)[O-]
REMARK SMILES IDX 13 1 14 2 15 3 16 4 17 5 18 6 19 7 20 8 21 9 22 10 23 11
REMARK SMILES IDX 24 12 25 13 26 14 12 15 11 16 10 17 9 18 8 19 7 20 6 21 5 22
REMARK SMILES IDX 4 23 3 24 2 25 1 26
REMARK H PARENT
REMARK Flexibility Score: inf
ROOT
ATOM      1  C   UNL     1      22.415  24.568  14.109  1.00  0.00     0.000 C 
ENDROOT
BRANCH   1   2
ATOM      2  C   UNL     1      23.343  23.672  13.273  1.00  0.00     0.000 C 
BRANCH   2   3
ATOM      3  C   UNL     1      24.597  23.236  14.049  1.00  0.00     0.000 C 
BRANCH   3   4
ATOM      4  C   UNL     1      25.204  24.364  14.912  1.00  0.00     0.000 C 
BRANCH   4   5
ATOM      5  C   UNL     1      25.796  23.834  16.225  1.00  0.00     0.000 C 
BRANCH   5   6
ATOM      6  C   UNL     1      25.326  24.673  17.418  1.00  0.00     0.000 C 
BRANCH   6   7
ATOM      7  C   UNL     1      24.320  23.897  18.282  1.00  0.00     0.000 C 
BRANCH   7   8
ATOM      8  C   UNL     1      22.858  24.186  17.873  1.00  0.00     0.000 C 
BRANCH   8   9
ATOM      9  C   UNL     1      22.113  22.946  17.341  1.00  0.00     0.000 C 
BRANCH   9  10
ATOM     10  C   UNL     1      22.755  21.599  17.737  1.00  0.00     0.006 C 
BRANCH  10  11
ATOM     11  C   UNL     1      23.216  20.754  16.537  1.00  0.00     0.053 C 
BRANCH  11  12
ATOM     12  C   UNL     1      24.648  20.333  16.646  1.00  0.00     0.041 C 
ATOM     13  O   UNL     1      25.155  20.091  17.773  1.00  0.00    -0.550 OA
ATOM     14  O   UNL     1      25.422  20.205  15.501  1.00  0.00    -0.550 OA
ENDBRANCH  11  12
ENDBRANCH  10  11
ENDBRANCH   9  10
ENDBRANCH   8   9
ENDBRANCH   7   8
ENDBRANCH   6   7
ENDBRANCH   5   6
ENDBRANCH   4   5
ENDBRANCH   3   4
ENDBRANCH   2   3
ENDBRANCH   1   2
BRANCH   1  15
ATOM     15  C   UNL     1      22.059  25.885  13.398  1.00  0.00     0.000 C 
BRANCH  15  16
ATOM     16  C   UNL     1      22.705  26.084  12.015  1.00  0.00     0.000 C 
BRANCH  16  17
ATOM     17  C   UNL     1      23.502  27.398  11.875  1.00  0.00     0.000 C 
BRANCH  17  18
ATOM     18  C   UNL     1      22.898  28.549  12.701  1.00  0.00    -0.000 C 
BRANCH  18  19
ATOM     19  C   UNL     1      23.964  29.341  13.475  1.00  0.00    -0.000 C 
BRANCH  19  20
ATOM     20  C   UNL     1      25.272  28.551  13.658  1.00  0.00    -0.000 C 
BRANCH  20  21
ATOM     21  C   UNL     1      25.384  27.899  15.046  1.00  0.00    -0.000 C 
BRANCH  21  22
ATOM     22  C   UNL     1      24.399  28.502  16.063  1.00  0.00    -0.000 C 
BRANCH  22  23
ATOM     23  C   UNL     1      23.246  27.547  16.417  1.00  0.00    -0.000 C 
BRANCH  23  24
ATOM     24  C   UNL     1      22.388  28.024  17.607  1.00  0.00    -0.000 C 
BRANCH  24  25
ATOM     25  C   UNL     1      21.186  28.867  17.154  1.00  0.00    -0.003 C 
ATOM     26  C   UNL     1      20.704  28.439  15.771  1.00  0.00     0.004 C 
ENDBRANCH  24  25
ENDBRANCH  23  24
ENDBRANCH  22  23
ENDBRANCH  21  22
ENDBRANCH  20  21
ENDBRANCH  19  20
ENDBRANCH  18  19
ENDBRANCH  17  18
ENDBRANCH  16  17
ENDBRANCH  15  16
ENDBRANCH   1  15
TORSDOF 22
ENDMDL
MODEL 7
REMARK VINA RESULT:    -1.194      3.372      6.659
REMARK INTER + INTRA:          -7.487
REMARK INTER:                  -2.570
REMARK INTRA:                  -4.917
REMARK UNBOUND:                -4.758
REMARK SMILES CCCCCCCCCCCCCCCCCCCCCCCC(=O)[O-]
REMARK SMILES IDX 13 1 14 2 15 3 16 4 17 5 18 6 19 7 20 8 21 9 22 10 23 11
REMARK SMILES IDX 24 12 25 13 26 14 12 15 11 16 10 17 9 18 8 19 7 20 6 21 5 22
REMARK SMILES IDX 4 23 3 24 2 25 1 26
REMARK H PARENT
REMARK Flexibility Score: inf
ROOT
ATOM      1  C   UNL     1      22.713  24.776  15.899  1.00  0.00     0.000 C 
ENDROOT
BRANCH   1   2
ATOM      2  C   UNL     1      22.626  24.019  14.563  1.00  0.00     0.000 C 
BRANCH   2   3
ATOM      3  C   UNL     1      23.921  24.123  13.741  1.00  0.00     0.000 C 
BRANCH   3   4
ATOM      4  C   UNL     1      24.917  22.976  14.022  1.00  0.00     0.000 C 
BRANCH   4   5
ATOM      5  C   UNL     1      26.125  23.446  14.845  1.00  0.00     0.000 C 
BRANCH   5   6
ATOM      6  C   UNL     1      26.089  22.856  16.258  1.00  0.00     0.000 C 
BRANCH   6   7
ATOM      7  C   UNL     1      25.306  21.535  16.290  1.00  0.00     0.000 C 
BRANCH   7   8
ATOM      8  C   UNL     1      24.537  21.348  17.617  1.00  0.00     0.000 C 
BRANCH   8   9
ATOM      9  C   UNL     1      24.644  22.558  18.565  1.00  0.00     0.000 C 
BRANCH   9  10
ATOM     10  C   UNL     1      23.388  22.805  19.429  1.00  0.00     0.006 C 
BRANCH  10  11
ATOM     11  C   UNL     1      22.064  22.614  18.669  1.00  0.00     0.053 C 
BRANCH  11  12
ATOM     12  C   UNL     1      21.272  21.449  19.177  1.00  0.00     0.041 C 
ATOM     13  O   UNL     1      20.992  21.357  20.400  1.00  0.00    -0.550 OA
ATOM     14  O   UNL     1      20.841  20.468  18.295  1.00  0.00    -0.550 OA
ENDBRANCH  11  12
ENDBRANCH  10  11
ENDBRANCH   9  10
ENDBRANCH   8   9
ENDBRANCH   7   8
ENDBRANCH   6   7
ENDBRANCH   5   6
ENDBRANCH   4   5
ENDBRANCH   3   4
ENDBRANCH   2   3
ENDBRANCH   1   2
BRANCH   1  15
ATOM     15  C   UNL     1      21.732  25.958  15.978  1.00  0.00     0.000 C 
BRANCH  15  16
ATOM     16  C   UNL     1      21.279  26.532  14.623  1.00  0.00     0.000 C 
BRANCH  16  17
ATOM     17  C   UNL     1      22.191  27.652  14.078  1.00  0.00     0.000 C 
BRANCH  17  18
ATOM     18  C   UNL     1      22.614  28.656  15.167  1.00  0.00    -0.000 C 
BRANCH  18  19
ATOM     19  C   UNL     1      24.139  28.817  15.259  1.00  0.00    -0.000 C 
BRANCH  19  20
ATOM     20  C   UNL     1      24.898  27.637  14.627  1.00  0.00    -0.000 C 
BRANCH  20  21
ATOM     21  C   UNL     1      25.935  27.019  15.579  1.00  0.00    -0.000 C 
BRANCH  21  22
ATOM     22  C   UNL     1      25.670  27.374  17.053  1.00  0.00    -0.000 C 
BRANCH  22  23
ATOM     23  C   UNL     1      25.365  26.139  17.919  1.00  0.00    -0.000 C 
BRANCH  23  24
ATOM     24  C   UNL     1      24.220  26.359  18.930  1.00  0.00    -0.000 C 
BRANCH  24  25
ATOM     25  C   UNL     1      23.966  27.849  19.204  1.00  0.00    -0.003 C 
ATOM     26  C   UNL     1      22.554  28.252  18.788  1.00  0.00     0.004 C 
ENDBRANCH  24  25
ENDBRANCH  23  24
ENDBRANCH  22  23
ENDBRANCH  21  22
ENDBRANCH  20  21
ENDBRANCH  19  20
ENDBRANCH  18  19
ENDBRANCH  17  18
ENDBRANCH  16  17
ENDBRANCH  15  16
ENDBRANCH   1  15
TORSDOF 22
ENDMDL
MODEL 8
REMARK VINA RESULT:    -1.185      3.066      6.216
REMARK INTER + INTRA:          -7.466
REMARK INTER:                  -2.979
REMARK INTRA:                  -4.487
REMARK UNBOUND:                -4.758
REMARK SMILES CCCCCCCCCCCCCCCCCCCCCCCC(=O)[O-]
REMARK SMILES IDX 13 1 14 2 15 3 16 4 17 5 18 6 19 7 20 8 21 9 22 10 23 11
REMARK SMILES IDX 24 12 25 13 26 14 12 15 11 16 10 17 9 18 8 19 7 20 6 21 5 22
REMARK SMILES IDX 4 23 3 24 2 25 1 26
REMARK H PARENT
REMARK Flexibility Score: inf
ROOT
ATOM      1  C   UNL     1      21.569  27.133  15.587  1.00  0.00     0.000 C 
ENDROOT
BRANCH   1   2
ATOM      2  C   UNL     1      21.092  28.356  14.787  1.00  0.00     0.000 C 
BRANCH   2   3
ATOM      3  C   UNL     1      21.358  28.215  13.279  1.00  0.00     0.000 C 
BRANCH   3   4
ATOM      4  C   UNL     1      22.052  26.887  12.904  1.00  0.00     0.000 C 
BRANCH   4   5
ATOM      5  C   UNL     1      23.383  27.115  12.173  1.00  0.00     0.000 C 
BRANCH   5   6
ATOM      6  C   UNL     1      23.776  28.596  12.198  1.00  0.00     0.000 C 
BRANCH   6   7
ATOM      7  C   UNL     1      25.068  28.815  13.000  1.00  0.00     0.000 C 
BRANCH   7   8
ATOM      8  C   UNL     1      24.851  28.613  14.517  1.00  0.00     0.000 C 
BRANCH   8   9
ATOM      9  C   UNL     1      25.762  27.531  15.129  1.00  0.00     0.000 C 
BRANCH   9  10
ATOM     10  C   UNL     1      25.072  26.167  15.349  1.00  0.00     0.006 C 
BRANCH  10  11
ATOM     11  C   UNL     1      25.834  25.233  16.305  1.00  0.00     0.053 C 
BRANCH  11  12
ATOM     12  C   UNL     1      25.708  23.791  15.923  1.00  0.00     0.041 C 
ATOM     13  O   UNL     1      25.544  22.912  16.808  1.00  0.00    -0.550 OA
ATOM     14  O   UNL     1      25.770  23.421  14.587  1.00  0.00    -0.550 OA
ENDBRANCH  11  12
ENDBRANCH  10  11
ENDBRANCH   9  10
ENDBRANCH   8   9
ENDBRANCH   7   8
ENDBRANCH   6   7
ENDBRANCH   5   6
ENDBRANCH   4   5
ENDBRANCH   3   4
ENDBRANCH   2   3
ENDBRANCH   1   2
BRANCH   1  15
ATOM     15  C   UNL     1      21.950  27.481  17.036  1.00  0.00     0.000 C 
BRANCH  15  16
ATOM     16  C   UNL     1      22.393  28.937  17.271  1.00  0.00     0.000 C 
BRANCH  16  17
ATOM     17  C   UNL     1      23.752  29.073  17.989  1.00  0.00     0.000 C 
BRANCH  17  18
ATOM     18  C   UNL     1      24.249  27.739  18.579  1.00  0.00    -0.000 C 
BRANCH  18  19
ATOM     19  C   UNL     1      25.250  27.940  19.727  1.00  0.00    -0.000 C 
BRANCH  19  20
ATOM     20  C   UNL     1      24.758  28.959  20.770  1.00  0.00    -0.000 C 
BRANCH  20  21
ATOM     21  C   UNL     1      24.233  28.291  22.051  1.00  0.00    -0.000 C 
BRANCH  21  22
ATOM     22  C   UNL     1      22.836  28.796  22.453  1.00  0.00    -0.000 C 
BRANCH  22  23
ATOM     23  C   UNL     1      22.035  29.347  21.261  1.00  0.00    -0.000 C 
BRANCH  23  24
ATOM     24  C   UNL     1      21.049  28.329  20.651  1.00  0.00    -0.000 C 
BRANCH  24  25
ATOM     25  C   UNL     1      21.101  26.971  21.368  1.00  0.00    -0.003 C 
ATOM     26  C   UNL     1      21.585  25.871  20.427  1.00  0.00     0.004 C 
ENDBRANCH  24  25
ENDBRANCH  23  24
ENDBRANCH  22  23
ENDBRANCH  21  22
ENDBRANCH  20  21
ENDBRANCH  19  20
ENDBRANCH  18  19
ENDBRANCH  17  18
ENDBRANCH  16  17
ENDBRANCH  15  16
ENDBRANCH   1  15
TORSDOF 22
ENDMDL
