MODEL 1
REMARK VINA RESULT:    -4.077      0.000      0.000
REMARK INTER + INTRA:         -10.063
REMARK INTER:                  -7.413
REMARK INTRA:                  -2.650
REMARK UNBOUND:                -2.650
REMARK SMILES CCCCCCCCCCCCCCCC(=O)[O-]
REMARK SMILES IDX 9 1 10 2 11 3 12 4 13 5 14 6 15 7 16 8 17 9 18 10 8 11 7 12
REMARK SMILES IDX 6 13 5 14 4 15 3 16 2 17 1 18
REMARK H PARENT
REMARK Flexibility Score: inf
ROOT
ATOM      1  C   UNL     1       3.551   3.743  27.548  1.00  0.00     0.000 C 
ENDROOT
BRANCH   1   2
ATOM      2  C   UNL     1       2.117   3.217  27.734  1.00  0.00     0.000 C 
BRANCH   2   3
ATOM      3  C   UNL     1       1.302   4.059  28.729  1.00  0.00     0.000 C 
BRANCH   3   4
ATOM      4  C   UNL     1       1.936   4.090  30.130  1.00  0.00     0.000 C 
BRANCH   4   5
ATOM      5  C   UNL     1       1.970   5.503  30.732  1.00  0.00     0.000 C 
BRANCH   5   6
ATOM      6  C   UNL     1       3.396   6.077  30.821  1.00  0.00     0.006 C 
BRANCH   6   7
ATOM      7  C   UNL     1       4.463   4.975  30.845  1.00  0.00     0.053 C 
BRANCH   7   8
ATOM      8  C   UNL     1       5.832   5.524  30.588  1.00  0.00     0.041 C 
ATOM      9  O   UNL     1       6.001   6.762  30.430  1.00  0.00    -0.550 OA
ATOM     10  O   UNL     1       6.918   4.663  30.486  1.00  0.00    -0.550 OA
ENDBRANCH   7   8
ENDBRANCH   6   7
ENDBRANCH   5   6
ENDBRANCH   4   5
ENDBRANCH   3   4
ENDBRANCH   2   3
ENDBRANCH   1   2
BRANCH   1  11
ATOM     11  C   UNL     1       3.844   4.156  26.089  1.00  0.00     0.000 C 
BRANCH  11  12
ATOM     12  C   UNL     1       4.078   5.667  25.907  1.00  0.00    -0.000 C 
BRANCH  12  13
ATOM     13  C   UNL     1       3.818   6.526  27.159  1.00  0.00    -0.000 C 
BRANCH  13  14
ATOM     14  C   UNL     1       2.435   7.203  27.211  1.00  0.00    -0.000 C 
BRANCH  14  15
ATOM     15  C   UNL     1       1.694   7.150  25.864  1.00  0.00    -0.000 C 
BRANCH  15  16
ATOM     16  C   UNL     1       0.409   6.308  25.930  1.00  0.00    -0.000 C 
BRANCH  16  17
ATOM     17  C   UNL     1       0.445   5.095  24.989  1.00  0.00    -0.003 C 
ATOM     18  C   UNL     1      -0.659   4.100  25.334  1.00  0.00     0.004 C 
ENDBRANCH  16  17
ENDBRANCH  15  16
ENDBRANCH  14  15
ENDBRANCH  13  14
ENDBRANCH  12  13
ENDBRANCH  11  12
ENDBRANCH   1  11
TORSDOF 14
ENDMDL
MODEL 2
REMARK VINA RESULT:    -4.005      3.858      5.975
REMARK INTER + INTRA:          -9.932
REMARK INTER:                  -7.734
REMARK INTRA:                  -2.198
REMARK UNBOUND:                -2.650
REMARK SMILES CCCCCCCCCCCCCCCC(=O)[O-]
REMARK SMILES IDX 9 1 10 2 11 3 12 4 13 5 14 6 15 7 16 8 17 9 18 10 8 11 7 12
REMARK SMILES IDX 6 13 5 14 4 15 3 16 2 17 1 18
REMARK H PARENT
REMARK Flexibility Score: inf
ROOT
ATOM      1  C   UNL     1       1.363   6.863  31.595  1.00  0.00     0.000 C 
ENDROOT
BRANCH   1   2
ATOM      2  C   UNL     1       0.119   7.366  30.841  1.00  0.00     0.000 C 
BRANCH   2   3
ATOM      3  C   UNL     1       0.393   7.620  29.350  1.00  0.00     0.000 C 
BRANCH   3   4
ATOM      4  C   UNL     1      -0.261   6.563  28.444  1.00  0.00     0.000 C 
BRANCH   4   5
ATOM      5  C   UNL     1      -1.292   5.701  29.190  1.00  0.00     0.000 C 
BRANCH   5   6
ATOM      6  C   UNL     1      -1.842   4.552  28.327  1.00  0.00     0.006 C 
BRANCH   6   7
ATOM      7  C   UNL     1      -1.048   4.373  27.026  1.00  0.00     0.053 C 
BRANCH   7   8
ATOM      8  C   UNL     1      -1.953   4.200  25.845  1.00  0.00     0.041 C 
ATOM      9  O   UNL     1      -1.794   3.225  25.062  1.00  0.00    -0.550 OA
ATOM     10  O   UNL     1      -2.948   5.134  25.589  1.00  0.00    -0.550 OA
ENDBRANCH   7   8
ENDBRANCH   6   7
ENDBRANCH   5   6
ENDBRANCH   4   5
ENDBRANCH   3   4
ENDBRANCH   2   3
ENDBRANCH   1   2
BRANCH   1  11
ATOM     11  C   UNL     1       1.271   5.363  31.952  1.00  0.00     0.000 C 
BRANCH  11  12
ATOM     12  C   UNL     1       2.345   4.495  31.271  1.00  0.00    -0.000 C 
BRANCH  12  13
ATOM     13  C   UNL     1       1.984   3.994  29.860  1.00  0.00    -0.000 C 
BRANCH  13  14
ATOM     14  C   UNL     1       2.846   4.574  28.722  1.00  0.00    -0.000 C 
BRANCH  14  15
ATOM     15  C   UNL     1       2.625   3.853  27.380  1.00  0.00    -0.000 C 
BRANCH  15  16
ATOM     16  C   UNL     1       3.553   4.374  26.271  1.00  0.00    -0.000 C 
BRANCH  16  17
ATOM     17  C   UNL     1       3.331   5.861  25.960  1.00  0.00    -0.003 C 
ATOM     18  C   UNL     1       1.940   6.098  25.378  1.00  0.00     0.004 C 
ENDBRANCH  16  17
ENDBRANCH  15  16
ENDBRANCH  14  15
ENDBRANCH  13  14
ENDBRANCH  12  13
ENDBRANCH  11  12
ENDBRANCH   1  11
TORSDOF 14
ENDMDL
MODEL 3
REMARK VINA RESULT:    -4.001      2.709      4.476
REMARK INTER + INTRA:          -9.926
REMARK INTER:                  -7.483
REMARK INTRA:                  -2.442
REMARK UNBOUND:                -2.650
REMARK SMILES CCCCCCCCCCCCCCCC(=O)[O-]
REMARK SMILES IDX 9 1 10 2 11 3 12 4 13 5 14 6 15 7 16 8 17 9 18 10 8 11 7 12
REMARK SMILES IDX 6 13 5 14 4 15 3 16 2 17 1 18
REMARK H PARENT
REMARK Flexibility Score: inf
ROOT
ATOM      1  C   UNL     1       1.423   4.177  28.177  1.00  0.00     0.000 C 
ENDROOT
BRANCH   1   2
ATOM      2  C   UNL     1       1.195   5.021  29.443  1.00  0.00     0.000 C 
BRANCH   2   3
ATOM      3  C   UNL     1       1.762   4.356  30.708  1.00  0.00     0.000 C 
BRANCH   3   4
ATOM      4  C   UNL     1       1.658   5.264  31.946  1.00  0.00     0.000 C 
BRANCH   4   5
ATOM      5  C   UNL     1       0.880   6.559  31.665  1.00  0.00     0.000 C 
BRANCH   5   6
ATOM      6  C   UNL     1       1.643   7.819  32.111  1.00  0.00     0.006 C 
BRANCH   6   7
ATOM      7  C   UNL     1       0.860   9.105  31.815  1.00  0.00     0.053 C 
BRANCH   7   8
ATOM      8  C   UNL     1       0.718   9.341  30.343  1.00  0.00     0.041 C 
ATOM      9  O   UNL     1       1.735   9.338  29.599  1.00  0.00    -0.550 OA
ATOM     10  O   UNL     1      -0.532   9.601  29.798  1.00  0.00    -0.550 OA
ENDBRANCH   7   8
ENDBRANCH   6   7
ENDBRANCH   5   6
ENDBRANCH   4   5
ENDBRANCH   3   4
ENDBRANCH   2   3
ENDBRANCH   1   2
BRANCH   1  11
ATOM     11  C   UNL     1       2.748   3.383  28.228  1.00  0.00     0.000 C 
BRANCH  11  12
ATOM     12  C   UNL     1       3.804   3.873  27.220  1.00  0.00    -0.000 C 
BRANCH  12  13
ATOM     13  C   UNL     1       3.296   4.891  26.181  1.00  0.00    -0.000 C 
BRANCH  13  14
ATOM     14  C   UNL     1       3.985   6.268  26.226  1.00  0.00    -0.000 C 
BRANCH  14  15
ATOM     15  C   UNL     1       3.485   7.147  27.386  1.00  0.00    -0.000 C 
BRANCH  15  16
ATOM     16  C   UNL     1       4.600   7.494  28.386  1.00  0.00    -0.000 C 
BRANCH  16  17
ATOM     17  C   UNL     1       4.312   6.972  29.802  1.00  0.00    -0.003 C 
ATOM     18  C   UNL     1       5.145   5.732  30.109  1.00  0.00     0.004 C 
ENDBRANCH  16  17
ENDBRANCH  15  16
ENDBRANCH  14  15
ENDBRANCH  13  14
ENDBRANCH  12  13
ENDBRANCH  11  12
ENDBRANCH   1  11
TORSDOF 14
ENDMDL
MODEL 4
REMARK VINA RESULT:    -4.001      4.965      8.086
REMARK INTER + INTRA:          -9.926
REMARK INTER:                  -7.747
REMARK INTRA:                  -2.179
REMARK UNBOUND:                -2.650
REMARK SMILES CCCCCCCCCCCCCCCC(=O)[O-]
REMARK SMILES IDX 9 1 10 2 11 3 12 4 13 5 14 6 15 7 16 8 17 9 18 10 8 11 7 12
REMARK SMILES IDX 6 13 5 14 4 15 3 16 2 17 1 18
REMARK H PARENT
REMARK Flexibility Score: inf
ROOT
ATOM      1  C   UNL     1      -0.483   5.528  25.296  1.00  0.00     0.000 C 
ENDROOT
BRANCH   1   2
ATOM      2  C   UNL     1       0.461   5.138  24.145  1.00  0.00     0.000 C 
BRANCH   2   3
ATOM      3  C   UNL     1      -0.280   4.486  22.967  1.00  0.00     0.000 C 
BRANCH   3   4
ATOM      4  C   UNL     1      -0.967   5.521  22.059  1.00  0.00     0.000 C 
BRANCH   4   5
ATOM      5  C   UNL     1      -2.498   5.382  22.060  1.00  0.00     0.000 C 
BRANCH   5   6
ATOM      6  C   UNL     1      -2.964   3.945  22.352  1.00  0.00     0.006 C 
BRANCH   6   7
ATOM      7  C   UNL     1      -4.447   3.886  22.741  1.00  0.00     0.053 C 
BRANCH   7   8
ATOM      8  C   UNL     1      -4.636   3.337  24.122  1.00  0.00     0.041 C 
ATOM      9  O   UNL     1      -5.396   3.922  24.940  1.00  0.00    -0.550 OA
ATOM     10  O   UNL     1      -3.944   2.199  24.518  1.00  0.00    -0.550 OA
ENDBRANCH   7   8
ENDBRANCH   6   7
ENDBRANCH   5   6
ENDBRANCH   4   5
ENDBRANCH   3   4
ENDBRANCH   2   3
ENDBRANCH   1   2
BRANCH   1  11
ATOM     11  C   UNL     1      -1.436   4.379  25.693  1.00  0.00     0.000 C 
BRANCH  11  12
ATOM     12  C   UNL     1      -2.418   4.747  26.821  1.00  0.00    -0.000 C 
BRANCH  12  13
ATOM     13  C   UNL     1      -1.889   4.521  28.250  1.00  0.00    -0.000 C 
BRANCH  13  14
ATOM     14  C   UNL     1      -1.444   5.796  28.991  1.00  0.00    -0.000 C 
BRANCH  14  15
ATOM     15  C   UNL     1       0.085   5.905  29.125  1.00  0.00    -0.000 C 
BRANCH  15  16
ATOM     16  C   UNL     1       0.779   4.534  29.091  1.00  0.00    -0.000 C 
BRANCH  16  17
ATOM     17  C   UNL     1       1.848   4.437  27.993  1.00  0.00    -0.003 C 
ATOM     18  C   UNL     1       1.718   3.131  27.215  1.00  0.00     0.004 C 
ENDBRANCH  16  17
ENDBRANCH  15  16
ENDBRANCH  14  15
ENDBRANCH  13  14
ENDBRANCH  12  13
ENDBRANCH  11  12
ENDBRANCH   1  11
TORSDOF 14
ENDMDL
MODEL 5
REMARK VINA RESULT:    -3.995      2.947      5.450
REMARK INTER + INTRA:          -9.914
REMARK INTER:                  -7.059
REMARK INTRA:                  -2.855
REMARK UNBOUND:                -2.650
REMARK SMILES CCCCCCCCCCCCCCCC(=O)[O-]
REMARK SMILES IDX 9 1 10 2 11 3 12 4 13 5 14 6 15 7 16 8 17 9 18 10 8 11 7 12
REMARK SMILES IDX 6 13 5 14 4 15 3 16 2 17 1 18
REMARK H PARENT
REMARK Flexibility Score: inf
ROOT
ATOM      1  C   UNL     1       2.171   5.794  31.605  1.00  0.00     0.000 C 
ENDROOT
BRANCH   1   2
ATOM      2  C   UNL     1       2.337   4.515  30.766  1.00  0.00     0.000 C 
BRANCH   2   3
ATOM      3  C   UNL     1       3.672   4.476  30.005  1.00  0.00     0.000 C 
BRANCH   3   4
ATOM      4  C   UNL     1       3.489   4.140  28.514  1.00  0.00     0.000 C 
BRANCH   4   5
ATOM      5  C   UNL     1       2.191   3.366  28.239  1.00  0.00     0.000 C 
BRANCH   5   6
ATOM      6  C   UNL     1       1.714   3.505  26.782  1.00  0.00     0.006 C 
BRANCH   6   7
ATOM      7  C   UNL     1       2.511   4.564  26.010  1.00  0.00     0.053 C 
BRANCH   7   8
ATOM      8  C   UNL     1       1.663   5.262  24.992  1.00  0.00     0.041 C 
ATOM      9  O   UNL     1       1.002   4.596  24.151  1.00  0.00    -0.550 OA
ATOM     10  O   UNL     1       1.630   6.651  24.949  1.00  0.00    -0.550 OA
ENDBRANCH   7   8
ENDBRANCH   6   7
ENDBRANCH   5   6
ENDBRANCH   4   5
ENDBRANCH   3   4
ENDBRANCH   2   3
ENDBRANCH   1   2
BRANCH   1  11
ATOM     11  C   UNL     1       1.219   6.814  30.943  1.00  0.00     0.000 C 
BRANCH  11  12
ATOM     12  C   UNL     1       0.564   6.303  29.646  1.00  0.00    -0.000 C 
BRANCH  12  13
ATOM     13  C   UNL     1       0.999   7.033  28.361  1.00  0.00    -0.000 C 
BRANCH  13  14
ATOM     14  C   UNL     1       2.140   8.052  28.543  1.00  0.00    -0.000 C 
BRANCH  14  15
ATOM     15  C   UNL     1       3.433   7.634  27.820  1.00  0.00    -0.000 C 
BRANCH  15  16
ATOM     16  C   UNL     1       4.694   8.196  28.496  1.00  0.00    -0.000 C 
BRANCH  16  17
ATOM     17  C   UNL     1       4.611   8.161  30.030  1.00  0.00    -0.003 C 
ATOM     18  C   UNL     1       5.772   7.370  30.624  1.00  0.00     0.004 C 
ENDBRANCH  16  17
ENDBRANCH  15  16
ENDBRANCH  14  15
ENDBRANCH  13  14
ENDBRANCH  12  13
ENDBRANCH  11  12
ENDBRANCH   1  11
TORSDOF 14
ENDMDL
MODEL 6
REMARK VINA RESULT:    -3.991      3.104      4.635
REMARK INTER + INTRA:          -9.906
REMARK INTER:                  -7.891
REMARK INTRA:                  -2.015
REMARK UNBOUND:                -2.650
REMARK SMILES CCCCCCCCCCCCCCCC(=O)[O-]
REMARK SMILES IDX 9 1 10 2 11 3 12 4 13 5 14 6 15 7 16 8 17 9 18 10 8 11 7 12
REMARK SMILES IDX 6 13 5 14 4 15 3 16 2 17 1 18
REMARK H PARENT
REMARK Flexibility Score: inf
ROOT
ATOM      1  C   UNL     1       4.905   5.827  30.066  1.00  0.00     0.000 C 
ENDROOT
BRANCH   1   2
ATOM      2  C   UNL     1       4.147   4.825  30.953  1.00  0.00     0.000 C 
BRANCH   2   3
ATOM      3  C   UNL     1       2.686   4.633  30.516  1.00  0.00     0.000 C 
BRANCH   3   4
ATOM      4  C   UNL     1       1.685   5.116  31.580  1.00  0.00     0.000 C 
BRANCH   4   5
ATOM      5  C   UNL     1       0.970   6.413  31.171  1.00  0.00     0.000 C 
BRANCH   5   6
ATOM      6  C   UNL     1       0.527   6.409  29.697  1.00  0.00     0.006 C 
BRANCH   6   7
ATOM      7  C   UNL     1      -0.947   6.017  29.537  1.00  0.00     0.053 C 
BRANCH   7   8
ATOM      8  C   UNL     1      -1.226   5.453  28.178  1.00  0.00     0.041 C 
ATOM      9  O   UNL     1      -2.040   6.027  27.406  1.00  0.00    -0.550 OA
ATOM     10  O   UNL     1      -0.613   4.273  27.776  1.00  0.00    -0.550 OA
ENDBRANCH   7   8
ENDBRANCH   6   7
ENDBRANCH   5   6
ENDBRANCH   4   5
ENDBRANCH   3   4
ENDBRANCH   2   3
ENDBRANCH   1   2
BRANCH   1  11
ATOM     11  C   UNL     1       4.556   7.294  30.402  1.00  0.00     0.000 C 
BRANCH  11  12
ATOM     12  C   UNL     1       3.906   8.061  29.235  1.00  0.00    -0.000 C 
BRANCH  12  13
ATOM     13  C   UNL     1       4.469   7.731  27.840  1.00  0.00    -0.000 C 
BRANCH  13  14
ATOM     14  C   UNL     1       3.547   6.875  26.950  1.00  0.00    -0.000 C 
BRANCH  14  15
ATOM     15  C   UNL     1       4.302   6.174  25.807  1.00  0.00    -0.000 C 
BRANCH  15  16
ATOM     16  C   UNL     1       3.782   4.753  25.541  1.00  0.00    -0.000 C 
BRANCH  16  17
ATOM     17  C   UNL     1       3.128   4.118  26.777  1.00  0.00    -0.003 C 
ATOM     18  C   UNL     1       4.088   3.160  27.475  1.00  0.00     0.004 C 
ENDBRANCH  16  17
ENDBRANCH  15  16
ENDBRANCH  14  15
ENDBRANCH  13  14
ENDBRANCH  12  13
ENDBRANCH  11  12
ENDBRANCH   1  11
TORSDOF 14
ENDMDL
MODEL 7
REMARK VINA RESULT:    -3.980      2.707      5.221
REMARK INTER + INTRA:          -9.887
REMARK INTER:                  -7.101
REMARK INTRA:                  -2.786
REMARK UNBOUND:                -2.650
REMARK SMILES CCCCCCCCCCCCCCCC(=O)[O-]
REMARK SMILES IDX 9 1 10 2 11 3 12 4 13 5 14 6 15 7 16 8 17 9 18 10 8 11 7 12
REMARK SMILES IDX 6 13 5 14 4 15 3 16 2 17 1 18
REMARK H PARENT
REMARK Flexibility Score: inf
ROOT
ATOM      1  C   UNL     1       1.690   7.687  32.272  1.00  0.00     0.000 C 
ENDROOT
BRANCH   1   2
ATOM      2  C   UNL     1       0.895   6.552  31.603  1.00  0.00     0.000 C 
BRANCH   2   3
ATOM      3  C   UNL     1       1.642   5.209  31.633  1.00  0.00     0.000 C 
BRANCH   3   4
ATOM      4  C   UNL     1       1.649   4.510  30.262  1.00  0.00     0.000 C 
BRANCH   4   5
ATOM      5  C   UNL     1       0.501   4.978  29.354  1.00  0.00     0.000 C 
BRANCH   5   6
ATOM      6  C   UNL     1       0.981   5.382  27.949  1.00  0.00     0.006 C 
BRANCH   6   7
ATOM      7  C   UNL     1       1.929   4.340  27.339  1.00  0.00     0.053 C 
BRANCH   7   8
ATOM      8  C   UNL     1       2.673   4.891  26.162  1.00  0.00     0.041 C 
ATOM      9  O   UNL     1       3.837   4.486  25.901  1.00  0.00    -0.550 OA
ATOM     10  O   UNL     1       2.095   5.878  25.374  1.00  0.00    -0.550 OA
ENDBRANCH   7   8
ENDBRANCH   6   7
ENDBRANCH   5   6
ENDBRANCH   4   5
ENDBRANCH   3   4
ENDBRANCH   2   3
ENDBRANCH   1   2
BRANCH   1  11
ATOM     11  C   UNL     1       2.064   8.810  31.281  1.00  0.00     0.000 C 
BRANCH  11  12
ATOM     12  C   UNL     1       1.443   8.637  29.882  1.00  0.00    -0.000 C 
BRANCH  12  13
ATOM     13  C   UNL     1       2.454   8.437  28.737  1.00  0.00    -0.000 C 
BRANCH  13  14
ATOM     14  C   UNL     1       3.923   8.298  29.180  1.00  0.00    -0.000 C 
BRANCH  14  15
ATOM     15  C   UNL     1       4.418   6.841  29.155  1.00  0.00    -0.000 C 
BRANCH  15  16
ATOM     16  C   UNL     1       4.994   6.391  30.507  1.00  0.00    -0.000 C 
BRANCH  16  17
ATOM     17  C   UNL     1       5.468   4.930  30.494  1.00  0.00    -0.003 C 
ATOM     18  C   UNL     1       5.080   4.239  29.190  1.00  0.00     0.004 C 
ENDBRANCH  16  17
ENDBRANCH  15  16
ENDBRANCH  14  15
ENDBRANCH  13  14
ENDBRANCH  12  13
ENDBRANCH  11  12
ENDBRANCH   1  11
TORSDOF 14
ENDMDL
MODEL 8
REMARK VINA RESULT:    -3.963      2.756      4.301
REMARK INTER + INTRA:          -9.856
REMARK INTER:                  -7.038
REMARK INTRA:                  -2.818
REMARK UNBOUND:                -2.650
REMARK SMILES CCCCCCCCCCCCCCCC(=O)[O-]
REMARK SMILES IDX 9 1 10 2 11 3 12 4 13 5 14 6 15 7 16 8 17 9 18 10 8 11 7 12
REMARK SMILES IDX 6 13 5 14 4 15 3 16 2 17 1 18
REMARK H PARENT
REMARK Flexibility Score: inf
ROOT
ATOM      1  C   UNL     1       1.577   8.970  31.665  1.00  0.00     0.000 C 
ENDROOT
BRANCH   1   2
ATOM      2  C   UNL     1       1.346   7.565  32.248  1.00  0.00     0.000 C 
BRANCH   2   3
ATOM      3  C   UNL     1       2.276   6.508  31.631  1.00  0.00     0.000 C 
BRANCH   3   4
ATOM      4  C   UNL     1       1.607   5.127  31.525  1.00  0.00     0.000 C 
BRANCH   4   5
ATOM      5  C   UNL     1       2.349   4.183  30.565  1.00  0.00     0.000 C 
BRANCH   5   6
ATOM      6  C   UNL     1       3.494   4.883  29.811  1.00  0.00     0.006 C 
BRANCH   6   7
ATOM      7  C   UNL     1       4.134   3.972  28.755  1.00  0.00     0.053 C 
BRANCH   7   8
ATOM      8  C   UNL     1       3.490   4.142  27.414  1.00  0.00     0.041 C 
ATOM      9  O   UNL     1       2.519   3.412  27.078  1.00  0.00    -0.550 OA
ATOM     10  O   UNL     1       3.985   5.083  26.520  1.00  0.00    -0.550 OA
ENDBRANCH   7   8
ENDBRANCH   6   7
ENDBRANCH   5   6
ENDBRANCH   4   5
ENDBRANCH   3   4
ENDBRANCH   2   3
ENDBRANCH   1   2
BRANCH   1  11
ATOM     11  C   UNL     1       2.994   9.138  31.072  1.00  0.00     0.000 C 
BRANCH  11  12
ATOM     12  C   UNL     1       3.003   9.641  29.617  1.00  0.00    -0.000 C 
BRANCH  12  13
ATOM     13  C   UNL     1       1.876   9.086  28.725  1.00  0.00    -0.000 C 
BRANCH  13  14
ATOM     14  C   UNL     1       2.189   7.744  28.037  1.00  0.00    -0.000 C 
BRANCH  14  15
ATOM     15  C   UNL     1       0.944   6.854  27.871  1.00  0.00    -0.000 C 
BRANCH  15  16
ATOM     16  C   UNL     1      -0.173   7.211  28.865  1.00  0.00    -0.000 C 
BRANCH  16  17
ATOM     17  C   UNL     1      -1.132   6.040  29.126  1.00  0.00    -0.003 C 
ATOM     18  C   UNL     1      -0.634   4.763  28.456  1.00  0.00     0.004 C 
ENDBRANCH  16  17
ENDBRANCH  15  16
ENDBRANCH  14  15
ENDBRANCH  13  14
ENDBRANCH  12  13
ENDBRANCH  11  12
ENDBRANCH   1  11
TORSDOF 14
ENDMDL
MODEL 9
REMARK VINA RESULT:    -3.958      3.771      5.780
REMARK INTER + INTRA:          -9.848
REMARK INTER:                  -7.185
REMARK INTRA:                  -2.663
REMARK UNBOUND:                -2.650
REMARK SMILES CCCCCCCCCCCCCCCC(=O)[O-]
REMARK SMILES IDX 9 1 10 2 11 3 12 4 13 5 14 6 15 7 16 8 17 9 18 10 8 11 7 12
REMARK SMILES IDX 6 13 5 14 4 15 3 16 2 17 1 18
REMARK H PARENT
REMARK Flexibility Score: inf
ROOT
ATOM      1  C   UNL     1       2.417   5.005  31.255  1.00  0.00     0.000 C 
ENDROOT
BRANCH   1   2
ATOM      2  C   UNL     1       1.781   6.390  31.464  1.00  0.00     0.000 C 
BRANCH   2   3
ATOM      3  C   UNL     1       0.308   6.437  31.029  1.00  0.00     0.000 C 
BRANCH   3   4
ATOM      4  C   UNL     1       0.039   7.529  29.978  1.00  0.00     0.000 C 
BRANCH   4   5
ATOM      5  C   UNL     1      -0.871   7.041  28.840  1.00  0.00     0.000 C 
BRANCH   5   6
ATOM      6  C   UNL     1      -1.416   5.622  29.081  1.00  0.00     0.006 C 
BRANCH   6   7
ATOM      7  C   UNL     1      -1.006   4.648  27.969  1.00  0.00     0.053 C 
BRANCH   7   8
ATOM      8  C   UNL     1      -2.086   4.491  26.944  1.00  0.00     0.041 C 
ATOM      9  O   UNL     1      -3.261   4.871  27.196  1.00  0.00    -0.550 OA
ATOM     10  O   UNL     1      -1.804   3.893  25.722  1.00  0.00    -0.550 OA
ENDBRANCH   7   8
ENDBRANCH   6   7
ENDBRANCH   5   6
ENDBRANCH   4   5
ENDBRANCH   3   4
ENDBRANCH   2   3
ENDBRANCH   1   2
BRANCH   1  11
ATOM     11  C   UNL     1       2.158   4.444  29.839  1.00  0.00     0.000 C 
BRANCH  11  12
ATOM     12  C   UNL     1       3.442   4.177  29.032  1.00  0.00    -0.000 C 
BRANCH  12  13
ATOM     13  C   UNL     1       3.627   5.060  27.783  1.00  0.00    -0.000 C 
BRANCH  13  14
ATOM     14  C   UNL     1       2.486   6.061  27.518  1.00  0.00    -0.000 C 
BRANCH  14  15
ATOM     15  C   UNL     1       2.963   7.525  27.530  1.00  0.00    -0.000 C 
BRANCH  15  16
ATOM     16  C   UNL     1       4.394   7.674  28.069  1.00  0.00    -0.000 C 
BRANCH  16  17
ATOM     17  C   UNL     1       4.433   8.107  29.542  1.00  0.00    -0.003 C 
ATOM     18  C   UNL     1       5.454   7.289  30.327  1.00  0.00     0.004 C 
ENDBRANCH  16  17
ENDBRANCH  15  16
ENDBRANCH  14  15
ENDBRANCH  13  14
ENDBRANCH  12  13
ENDBRANCH  11  12
ENDBRANCH   1  11
TORSDOF 14
ENDMDL
