MODEL 1
REMARK VINA RESULT:    -2.601      0.000      0.000
REMARK INTER + INTRA:          -5.594
REMARK INTER:                  -4.121
REMARK INTRA:                  -1.472
REMARK UNBOUND:                -1.472
REMARK SMILES CCCCCCCCCCCC=O
REMARK SMILES IDX 7 1 6 2 5 3 4 4 3 5 2 6 1 7 8 8 9 9 10 10 11 11 12 12 13 13
REMARK H PARENT
REMARK Flexibility Score: inf
ROOT
ATOM      1  C   UNL     1     142.253 134.596 146.442  1.00  0.00     0.000 C 
ENDROOT
BRANCH   1   2
ATOM      2  C   UNL     1     141.770 135.203 145.114  1.00  0.00     0.000 C 
BRANCH   2   3
ATOM      3  C   UNL     1     142.570 136.451 144.706  1.00  0.00    -0.000 C 
BRANCH   3   4
ATOM      4  C   UNL     1     143.343 136.203 143.401  1.00  0.00    -0.000 C 
BRANCH   4   5
ATOM      5  C   UNL     1     144.865 136.184 143.610  1.00  0.00    -0.000 C 
BRANCH   5   6
ATOM      6  C   UNL     1     145.270 136.524 145.052  1.00  0.00    -0.003 C 
ATOM      7  C   UNL     1     146.219 137.718 145.089  1.00  0.00     0.004 C 
ENDBRANCH   5   6
ENDBRANCH   4   5
ENDBRANCH   3   4
ENDBRANCH   2   3
ENDBRANCH   1   2
BRANCH   1   8
ATOM      8  C   UNL     1     143.249 133.442 146.234  1.00  0.00     0.000 C 
BRANCH   8   9
ATOM      9  C   UNL     1     143.117 132.790 144.849  1.00  0.00     0.000 C 
BRANCH   9  10
ATOM     10  C   UNL     1     144.449 132.229 144.325  1.00  0.00     0.008 C 
BRANCH  10  11
ATOM     11  C   UNL     1     145.632 132.815 145.101  1.00  0.00     0.072 C 
BRANCH  11  12
ATOM     12  C   UNL     1     146.815 132.987 144.198  1.00  0.00     0.224 C 
ATOM     13  O   UNL     1     146.665 133.088 142.991  1.00  0.00    -0.303 OA
ENDBRANCH  11  12
ENDBRANCH  10  11
ENDBRANCH   9  10
ENDBRANCH   8   9
ENDBRANCH   1   8
TORSDOF 10
ENDMDL
MODEL 2
REMARK VINA RESULT:    -2.504      1.672      3.941
REMARK INTER + INTRA:          -5.440
REMARK INTER:                  -3.989
REMARK INTRA:                  -1.451
REMARK UNBOUND:                -1.472
REMARK SMILES CCCCCCCCCCCC=O
REMARK SMILES IDX 7 1 6 2 5 3 4 4 3 5 2 6 1 7 8 8 9 9 10 10 11 11 12 12 13 13
REMARK H PARENT
REMARK Flexibility Score: inf
ROOT
ATOM      1  C   UNL     1     142.365 134.073 144.853  1.00  0.00     0.000 C 
ENDROOT
BRANCH   1   2
ATOM      2  C   UNL     1     143.273 132.990 145.460  1.00  0.00     0.000 C 
BRANCH   2   3
ATOM      3  C   UNL     1     143.887 132.065 144.397  1.00  0.00    -0.000 C 
BRANCH   3   4
ATOM      4  C   UNL     1     145.389 131.864 144.648  1.00  0.00    -0.000 C 
BRANCH   4   5
ATOM      5  C   UNL     1     146.261 132.814 143.812  1.00  0.00    -0.000 C 
BRANCH   5   6
ATOM      6  C   UNL     1     147.273 133.594 144.664  1.00  0.00    -0.003 C 
ATOM      7  C   UNL     1     146.824 133.666 146.121  1.00  0.00     0.004 C 
ENDBRANCH   5   6
ENDBRANCH   4   5
ENDBRANCH   3   4
ENDBRANCH   2   3
ENDBRANCH   1   2
BRANCH   1   8
ATOM      8  C   UNL     1     142.868 134.564 143.483  1.00  0.00     0.000 C 
BRANCH   8   9
ATOM      9  C   UNL     1     143.297 136.040 143.507  1.00  0.00     0.000 C 
BRANCH   9  10
ATOM     10  C   UNL     1     144.800 136.218 143.774  1.00  0.00     0.008 C 
BRANCH  10  11
ATOM     11  C   UNL     1     145.041 136.843 145.151  1.00  0.00     0.072 C 
BRANCH  11  12
ATOM     12  C   UNL     1     146.309 137.642 145.149  1.00  0.00     0.224 C 
ATOM     13  O   UNL     1     147.301 137.232 145.733  1.00  0.00    -0.303 OA
ENDBRANCH  11  12
ENDBRANCH  10  11
ENDBRANCH   9  10
ENDBRANCH   8   9
ENDBRANCH   1   8
TORSDOF 10
ENDMDL
MODEL 3
REMARK VINA RESULT:    -2.502      8.470     10.705
REMARK INTER + INTRA:          -5.437
REMARK INTER:                  -3.974
REMARK INTRA:                  -1.463
REMARK UNBOUND:                -1.472
REMARK SMILES CCCCCCCCCCCC=O
REMARK SMILES IDX 7 1 6 2 5 3 4 4 3 5 2 6 1 7 8 8 9 9 10 10 11 11 12 12 13 13
REMARK H PARENT
REMARK Flexibility Score: inf
ROOT
ATOM      1  C   UNL     1     134.198 139.279 144.906  1.00  0.00     0.000 C 
ENDROOT
BRANCH   1   2
ATOM      2  C   UNL     1     134.699 138.777 143.541  1.00  0.00     0.000 C 
BRANCH   2   3
ATOM      3  C   UNL     1     136.134 138.228 143.601  1.00  0.00    -0.000 C 
BRANCH   3   4
ATOM      4  C   UNL     1     136.141 136.698 143.463  1.00  0.00    -0.000 C 
BRANCH   4   5
ATOM      5  C   UNL     1     136.786 135.998 144.670  1.00  0.00    -0.000 C 
BRANCH   5   6
ATOM      6  C   UNL     1     136.996 136.945 145.861  1.00  0.00    -0.003 C 
ATOM      7  C   UNL     1     136.064 136.588 147.016  1.00  0.00     0.004 C 
ENDBRANCH   5   6
ENDBRANCH   4   5
ENDBRANCH   3   4
ENDBRANCH   2   3
ENDBRANCH   1   2
BRANCH   1   8
ATOM      8  C   UNL     1     133.108 138.373 145.504  1.00  0.00     0.000 C 
BRANCH   8   9
ATOM      9  C   UNL     1     132.079 137.918 144.457  1.00  0.00     0.000 C 
BRANCH   9  10
ATOM     10  C   UNL     1     131.718 136.430 144.584  1.00  0.00     0.008 C 
BRANCH  10  11
ATOM     11  C   UNL     1     132.919 135.616 145.075  1.00  0.00     0.072 C 
BRANCH  11  12
ATOM     12  C   UNL     1     133.154 134.437 144.180  1.00  0.00     0.224 C 
ATOM     13  O   UNL     1     133.371 133.333 144.654  1.00  0.00    -0.303 OA
ENDBRANCH  11  12
ENDBRANCH  10  11
ENDBRANCH   9  10
ENDBRANCH   8   9
ENDBRANCH   1   8
TORSDOF 10
ENDMDL
MODEL 4
REMARK VINA RESULT:    -2.465      8.803     10.920
REMARK INTER + INTRA:          -5.378
REMARK INTER:                  -3.798
REMARK INTRA:                  -1.580
REMARK UNBOUND:                -1.472
REMARK SMILES CCCCCCCCCCCC=O
REMARK SMILES IDX 7 1 6 2 5 3 4 4 3 5 2 6 1 7 8 8 9 9 10 10 11 11 12 12 13 13
REMARK H PARENT
REMARK Flexibility Score: inf
ROOT
ATOM      1  C   UNL     1     134.322 138.797 146.855  1.00  0.00     0.000 C 
ENDROOT
BRANCH   1   2
ATOM      2  C   UNL     1     134.529 140.196 146.250  1.00  0.00     0.000 C 
BRANCH   2   3
ATOM      3  C   UNL     1     135.888 140.343 145.546  1.00  0.00    -0.000 C 
BRANCH   3   4
ATOM      4  C   UNL     1     136.506 138.967 145.255  1.00  0.00    -0.000 C 
BRANCH   4   5
ATOM      5  C   UNL     1     136.394 138.568 143.776  1.00  0.00    -0.000 C 
BRANCH   5   6
ATOM      6  C   UNL     1     136.147 137.065 143.584  1.00  0.00    -0.003 C 
ATOM      7  C   UNL     1     136.358 136.303 144.889  1.00  0.00     0.004 C 
ENDBRANCH   5   6
ENDBRANCH   4   5
ENDBRANCH   3   4
ENDBRANCH   2   3
ENDBRANCH   1   2
BRANCH   1   8
ATOM      8  C   UNL     1     133.083 138.085 146.284  1.00  0.00     0.000 C 
BRANCH   8   9
ATOM      9  C   UNL     1     132.720 138.575 144.873  1.00  0.00     0.000 C 
BRANCH   9  10
ATOM     10  C   UNL     1     132.522 137.422 143.875  1.00  0.00     0.008 C 
BRANCH  10  11
ATOM     11  C   UNL     1     132.069 136.149 144.594  1.00  0.00     0.072 C 
BRANCH  11  12
ATOM     12  C   UNL     1     132.884 134.975 144.144  1.00  0.00     0.224 C 
ATOM     13  O   UNL     1     133.347 134.938 143.014  1.00  0.00    -0.303 OA
ENDBRANCH  11  12
ENDBRANCH  10  11
ENDBRANCH   9  10
ENDBRANCH   8   9
ENDBRANCH   1   8
TORSDOF 10
ENDMDL
MODEL 5
REMARK VINA RESULT:    -2.465     12.947     15.263
REMARK INTER + INTRA:          -5.378
REMARK INTER:                  -3.969
REMARK INTRA:                  -1.409
REMARK UNBOUND:                -1.472
REMARK SMILES CCCCCCCCCCCC=O
REMARK SMILES IDX 7 1 6 2 5 3 4 4 3 5 2 6 1 7 8 8 9 9 10 10 11 11 12 12 13 13
REMARK H PARENT
REMARK Flexibility Score: inf
ROOT
ATOM      1  C   UNL     1     138.806 148.114 145.417  1.00  0.00     0.000 C 
ENDROOT
BRANCH   1   2
ATOM      2  C   UNL     1     139.748 147.064 144.803  1.00  0.00     0.000 C 
BRANCH   2   3
ATOM      3  C   UNL     1     139.100 145.674 144.699  1.00  0.00    -0.000 C 
BRANCH   3   4
ATOM      4  C   UNL     1     138.298 145.540 143.396  1.00  0.00    -0.000 C 
BRANCH   4   5
ATOM      5  C   UNL     1     136.789 145.385 143.643  1.00  0.00    -0.000 C 
BRANCH   5   6
ATOM      6  C   UNL     1     136.472 144.804 145.028  1.00  0.00    -0.003 C 
ATOM      7  C   UNL     1     135.308 143.820 144.958  1.00  0.00     0.004 C 
ENDBRANCH   5   6
ENDBRANCH   4   5
ENDBRANCH   3   4
ENDBRANCH   2   3
ENDBRANCH   1   2
BRANCH   1   8
ATOM      8  C   UNL     1     138.337 149.158 144.388  1.00  0.00     0.000 C 
BRANCH   8   9
ATOM      9  C   UNL     1     136.813 149.362 144.409  1.00  0.00     0.000 C 
BRANCH   9  10
ATOM     10  C   UNL     1     136.120 148.553 145.517  1.00  0.00     0.008 C 
BRANCH  10  11
ATOM     11  C   UNL     1     134.702 148.154 145.097  1.00  0.00     0.072 C 
BRANCH  11  12
ATOM     12  C   UNL     1     134.037 147.365 146.184  1.00  0.00     0.224 C 
ATOM     13  O   UNL     1     133.190 146.528 145.913  1.00  0.00    -0.303 OA
ENDBRANCH  11  12
ENDBRANCH  10  11
ENDBRANCH   9  10
ENDBRANCH   8   9
ENDBRANCH   1   8
TORSDOF 10
ENDMDL
MODEL 6
REMARK VINA RESULT:    -2.463      7.726     10.031
REMARK INTER + INTRA:          -5.375
REMARK INTER:                  -3.888
REMARK INTRA:                  -1.487
REMARK UNBOUND:                -1.472
REMARK SMILES CCCCCCCCCCCC=O
REMARK SMILES IDX 7 1 6 2 5 3 4 4 3 5 2 6 1 7 8 8 9 9 10 10 11 11 12 12 13 13
REMARK H PARENT
REMARK Flexibility Score: inf
ROOT
ATOM      1  C   UNL     1     135.112 138.701 144.933  1.00  0.00     0.000 C 
ENDROOT
BRANCH   1   2
ATOM      2  C   UNL     1     133.651 139.175 144.849  1.00  0.00     0.000 C 
BRANCH   2   3
ATOM      3  C   UNL     1     132.817 138.358 143.849  1.00  0.00    -0.000 C 
BRANCH   3   4
ATOM      4  C   UNL     1     132.095 137.201 144.556  1.00  0.00    -0.000 C 
BRANCH   4   5
ATOM      5  C   UNL     1     132.608 135.822 144.111  1.00  0.00    -0.000 C 
BRANCH   5   6
ATOM      6  C   UNL     1     133.179 134.998 145.274  1.00  0.00    -0.003 C 
ATOM      7  C   UNL     1     133.266 135.834 146.548  1.00  0.00     0.004 C 
ENDBRANCH   5   6
ENDBRANCH   4   5
ENDBRANCH   3   4
ENDBRANCH   2   3
ENDBRANCH   1   2
BRANCH   1   8
ATOM      8  C   UNL     1     135.634 138.161 143.590  1.00  0.00     0.000 C 
BRANCH   8   9
ATOM      9  C   UNL     1     136.196 136.735 143.706  1.00  0.00     0.000 C 
BRANCH   9  10
ATOM     10  C   UNL     1     137.049 136.533 144.970  1.00  0.00     0.008 C 
BRANCH  10  11
ATOM     11  C   UNL     1     136.837 135.135 145.555  1.00  0.00     0.072 C 
BRANCH  11  12
ATOM     12  C   UNL     1     138.134 134.386 145.606  1.00  0.00     0.224 C 
ATOM     13  O   UNL     1     138.675 134.013 144.577  1.00  0.00    -0.303 OA
ENDBRANCH  11  12
ENDBRANCH  10  11
ENDBRANCH   9  10
ENDBRANCH   8   9
ENDBRANCH   1   8
TORSDOF 10
ENDMDL
MODEL 7
REMARK VINA RESULT:    -2.460      8.185     10.591
REMARK INTER + INTRA:          -5.371
REMARK INTER:                  -3.626
REMARK INTRA:                  -1.745
REMARK UNBOUND:                -1.472
REMARK SMILES CCCCCCCCCCCC=O
REMARK SMILES IDX 7 1 6 2 5 3 4 4 3 5 2 6 1 7 8 8 9 9 10 10 11 11 12 12 13 13
REMARK H PARENT
REMARK Flexibility Score: inf
ROOT
ATOM      1  C   UNL     1     145.300 142.501 144.712  1.00  0.00     0.000 C 
ENDROOT
BRANCH   1   2
ATOM      2  C   UNL     1     146.460 141.672 145.289  1.00  0.00     0.000 C 
BRANCH   2   3
ATOM      3  C   UNL     1     147.837 142.284 144.983  1.00  0.00    -0.000 C 
BRANCH   3   4
ATOM      4  C   UNL     1     148.353 143.096 146.180  1.00  0.00    -0.000 C 
BRANCH   4   5
ATOM      5  C   UNL     1     149.233 144.282 145.756  1.00  0.00    -0.000 C 
BRANCH   5   6
ATOM      6  C   UNL     1     149.172 144.555 144.246  1.00  0.00    -0.003 C 
ATOM      7  C   UNL     1     149.030 146.048 143.963  1.00  0.00     0.004 C 
ENDBRANCH   5   6
ENDBRANCH   4   5
ENDBRANCH   3   4
ENDBRANCH   2   3
ENDBRANCH   1   2
BRANCH   1   8
ATOM      8  C   UNL     1     145.719 143.324 143.481  1.00  0.00     0.000 C 
BRANCH   8   9
ATOM      9  C   UNL     1     145.447 144.827 143.656  1.00  0.00     0.000 C 
BRANCH   9  10
ATOM     10  C   UNL     1     144.883 145.171 145.044  1.00  0.00     0.008 C 
BRANCH  10  11
ATOM     11  C   UNL     1     145.888 145.997 145.853  1.00  0.00     0.072 C 
BRANCH  11  12
ATOM     12  C   UNL     1     145.835 145.613 147.301  1.00  0.00     0.224 C 
ATOM     13  O   UNL     1     145.439 144.507 147.635  1.00  0.00    -0.303 OA
ENDBRANCH  11  12
ENDBRANCH  10  11
ENDBRANCH   9  10
ENDBRANCH   8   9
ENDBRANCH   1   8
TORSDOF 10
ENDMDL
MODEL 8
REMARK VINA RESULT:    -2.426      1.928      4.164
REMARK INTER + INTRA:          -5.317
REMARK INTER:                  -3.564
REMARK INTRA:                  -1.753
REMARK UNBOUND:                -1.472
REMARK SMILES CCCCCCCCCCCC=O
REMARK SMILES IDX 7 1 6 2 5 3 4 4 3 5 2 6 1 7 8 8 9 9 10 10 11 11 12 12 13 13
REMARK H PARENT
REMARK Flexibility Score: inf
ROOT
ATOM      1  C   UNL     1     144.560 134.560 147.124  1.00  0.00     0.000 C 
ENDROOT
BRANCH   1   2
ATOM      2  C   UNL     1     144.360 133.110 146.651  1.00  0.00     0.000 C 
BRANCH   2   3
ATOM      3  C   UNL     1     143.323 132.992 145.522  1.00  0.00    -0.000 C 
BRANCH   3   4
ATOM      4  C   UNL     1     143.985 132.525 144.217  1.00  0.00    -0.000 C 
BRANCH   4   5
ATOM      5  C   UNL     1     145.440 132.074 144.420  1.00  0.00    -0.000 C 
BRANCH   5   6
ATOM      6  C   UNL     1     146.429 132.845 143.533  1.00  0.00    -0.003 C 
ATOM      7  C   UNL     1     147.816 132.886 144.166  1.00  0.00     0.004 C 
ENDBRANCH   5   6
ENDBRANCH   4   5
ENDBRANCH   3   4
ENDBRANCH   2   3
ENDBRANCH   1   2
BRANCH   1   8
ATOM      8  C   UNL     1     146.020 135.027 146.992  1.00  0.00     0.000 C 
BRANCH   8   9
ATOM      9  C   UNL     1     146.265 135.842 145.711  1.00  0.00     0.000 C 
BRANCH   9  10
ATOM     10  C   UNL     1     144.991 136.524 145.187  1.00  0.00     0.008 C 
BRANCH  10  11
ATOM     11  C   UNL     1     144.758 136.188 143.711  1.00  0.00     0.072 C 
BRANCH  11  12
ATOM     12  C   UNL     1     143.294 136.206 143.395  1.00  0.00     0.224 C 
ATOM     13  O   UNL     1     142.465 136.176 144.292  1.00  0.00    -0.303 OA
ENDBRANCH  11  12
ENDBRANCH  10  11
ENDBRANCH   9  10
ENDBRANCH   8   9
ENDBRANCH   1   8
TORSDOF 10
ENDMDL
MODEL 9
REMARK VINA RESULT:    -2.404     12.673     14.849
REMARK INTER + INTRA:          -5.282
REMARK INTER:                  -3.737
REMARK INTRA:                  -1.545
REMARK UNBOUND:                -1.472
REMARK SMILES CCCCCCCCCCCC=O
REMARK SMILES IDX 7 1 6 2 5 3 4 4 3 5 2 6 1 7 8 8 9 9 10 10 11 11 12 12 13 13
REMARK H PARENT
REMARK Flexibility Score: inf
ROOT
ATOM      1  C   UNL     1     136.849 149.685 144.992  1.00  0.00     0.000 C 
ENDROOT
BRANCH   1   2
ATOM      2  C   UNL     1     135.495 149.314 144.363  1.00  0.00     0.000 C 
BRANCH   2   3
ATOM      3  C   UNL     1     135.442 147.853 143.886  1.00  0.00    -0.000 C 
BRANCH   3   4
ATOM      4  C   UNL     1     135.326 146.892 145.078  1.00  0.00    -0.000 C 
BRANCH   4   5
ATOM      5  C   UNL     1     136.196 145.636 144.913  1.00  0.00    -0.000 C 
BRANCH   5   6
ATOM      6  C   UNL     1     136.838 145.539 143.522  1.00  0.00    -0.003 C 
ATOM      7  C   UNL     1     138.317 145.175 143.625  1.00  0.00     0.004 C 
ENDBRANCH   5   6
ENDBRANCH   4   5
ENDBRANCH   3   4
ENDBRANCH   2   3
ENDBRANCH   1   2
BRANCH   1   8
ATOM      8  C   UNL     1     138.041 149.276 144.109  1.00  0.00     0.000 C 
BRANCH   8   9
ATOM      9  C   UNL     1     139.062 148.408 144.863  1.00  0.00     0.000 C 
BRANCH   9  10
ATOM     10  C   UNL     1     138.635 148.106 146.308  1.00  0.00     0.008 C 
BRANCH  10  11
ATOM     11  C   UNL     1     139.373 146.880 146.852  1.00  0.00     0.072 C 
BRANCH  11  12
ATOM     12  C   UNL     1     140.475 147.300 147.777  1.00  0.00     0.224 C 
ATOM     13  O   UNL     1     141.386 146.532 148.044  1.00  0.00    -0.303 OA
ENDBRANCH  11  12
ENDBRANCH  10  11
ENDBRANCH   9  10
ENDBRANCH   8   9
ENDBRANCH   1   8
TORSDOF 10
ENDMDL
