MODEL 1
REMARK VINA RESULT:    -2.039      0.000      0.000
REMARK INTER + INTRA:          -2.687
REMARK INTER:                  -2.516
REMARK INTRA:                  -0.171
REMARK UNBOUND:                -0.171
REMARK SMILES CCCCCC(=O)[O-]
REMARK SMILES IDX 4 1 5 2 6 3 7 4 8 5 3 6 2 7 1 8
REMARK H PARENT
REMARK Flexibility Score: inf
ROOT
ATOM      1  C   UNL     1      32.095  24.009  27.878  1.00  0.00     0.006 C 
ENDROOT
BRANCH   1   2
ATOM      2  C   UNL     1      32.027  23.701  29.377  1.00  0.00     0.053 C 
BRANCH   2   3
ATOM      3  C   UNL     1      30.657  23.980  29.909  1.00  0.00     0.041 C 
ATOM      4  O   UNL     1      29.688  24.125  29.118  1.00  0.00    -0.550 OA
ATOM      5  O   UNL     1      30.440  24.029  31.280  1.00  0.00    -0.550 OA
ENDBRANCH   2   3
ENDBRANCH   1   2
BRANCH   1   6
ATOM      6  C   UNL     1      32.383  22.737  27.068  1.00  0.00     0.000 C 
BRANCH   6   7
ATOM      7  C   UNL     1      31.583  21.525  27.565  1.00  0.00    -0.003 C 
ATOM      8  C   UNL     1      30.201  21.423  26.918  1.00  0.00     0.004 C 
ENDBRANCH   6   7
ENDBRANCH   1   6
TORSDOF 4
ENDMDL
MODEL 2
REMARK VINA RESULT:    -1.974      2.109      3.467
REMARK INTER + INTRA:          -2.606
REMARK INTER:                  -2.486
REMARK INTRA:                  -0.120
REMARK UNBOUND:                -0.171
REMARK SMILES CCCCCC(=O)[O-]
REMARK SMILES IDX 4 1 5 2 6 3 7 4 8 5 3 6 2 7 1 8
REMARK H PARENT
REMARK Flexibility Score: inf
ROOT
ATOM      1  C   UNL     1      32.453  23.238  27.502  1.00  0.00     0.006 C 
ENDROOT
BRANCH   1   2
ATOM      2  C   UNL     1      31.826  21.844  27.416  1.00  0.00     0.053 C 
BRANCH   2   3
ATOM      3  C   UNL     1      30.334  21.934  27.478  1.00  0.00     0.041 C 
ATOM      4  O   UNL     1      29.622  21.041  26.948  1.00  0.00    -0.550 OA
ATOM      5  O   UNL     1      29.729  22.979  28.165  1.00  0.00    -0.550 OA
ENDBRANCH   2   3
ENDBRANCH   1   2
BRANCH   1   6
ATOM      6  C   UNL     1      33.119  23.459  28.868  1.00  0.00     0.000 C 
BRANCH   6   7
ATOM      7  C   UNL     1      34.514  24.090  28.751  1.00  0.00    -0.003 C 
ATOM      8  C   UNL     1      35.373  23.430  27.671  1.00  0.00     0.004 C 
ENDBRANCH   6   7
ENDBRANCH   1   6
TORSDOF 4
ENDMDL
MODEL 3
REMARK VINA RESULT:    -1.463     19.325     20.872
REMARK INTER + INTRA:          -1.976
REMARK INTER:                  -1.911
REMARK INTRA:                  -0.065
REMARK UNBOUND:                -0.171
REMARK SMILES CCCCCC(=O)[O-]
REMARK SMILES IDX 4 1 5 2 6 3 7 4 8 5 3 6 2 7 1 8
REMARK H PARENT
REMARK Flexibility Score: inf
ROOT
ATOM      1  C   UNL     1      20.244  22.209  46.108  1.00  0.00     0.006 C 
ENDROOT
BRANCH   1   2
ATOM      2  C   UNL     1      19.438  23.025  47.124  1.00  0.00     0.053 C 
BRANCH   2   3
ATOM      3  C   UNL     1      18.345  23.782  46.440  1.00  0.00     0.041 C 
ATOM      4  O   UNL     1      18.461  24.108  45.228  1.00  0.00    -0.550 OA
ATOM      5  O   UNL     1      17.175  24.086  47.125  1.00  0.00    -0.550 OA
ENDBRANCH   2   3
ENDBRANCH   1   2
BRANCH   1   6
ATOM      6  C   UNL     1      21.714  22.095  46.537  1.00  0.00     0.000 C 
BRANCH   6   7
ATOM      7  C   UNL     1      22.683  22.633  45.474  1.00  0.00    -0.003 C 
ATOM      8  C   UNL     1      24.107  22.801  46.003  1.00  0.00     0.004 C 
ENDBRANCH   6   7
ENDBRANCH   1   6
TORSDOF 4
ENDMDL
MODEL 4
REMARK VINA RESULT:    -1.461     19.051     20.506
REMARK INTER + INTRA:          -1.973
REMARK INTER:                  -1.815
REMARK INTRA:                  -0.158
REMARK UNBOUND:                -0.171
REMARK SMILES CCCCCC(=O)[O-]
REMARK SMILES IDX 4 1 5 2 6 3 7 4 8 5 3 6 2 7 1 8
REMARK H PARENT
REMARK Flexibility Score: inf
ROOT
ATOM      1  C   UNL     1      20.014  22.137  46.059  1.00  0.00     0.006 C 
ENDROOT
BRANCH   1   2
ATOM      2  C   UNL     1      21.462  21.915  46.504  1.00  0.00     0.053 C 
BRANCH   2   3
ATOM      3  C   UNL     1      22.404  22.673  45.624  1.00  0.00     0.041 C 
ATOM      4  O   UNL     1      21.971  23.291  44.616  1.00  0.00    -0.550 OA
ATOM      5  O   UNL     1      23.755  22.739  45.945  1.00  0.00    -0.550 OA
ENDBRANCH   2   3
ENDBRANCH   1   2
BRANCH   1   6
ATOM      6  C   UNL     1      19.222  22.908  47.125  1.00  0.00     0.000 C 
BRANCH   6   7
ATOM      7  C   UNL     1      18.471  24.115  46.545  1.00  0.00    -0.003 C 
ATOM      8  C   UNL     1      18.088  23.924  45.077  1.00  0.00     0.004 C 
ENDBRANCH   6   7
ENDBRANCH   1   6
TORSDOF 4
ENDMDL
MODEL 5
REMARK VINA RESULT:    -0.398      1.757      3.287
REMARK INTER + INTRA:          -0.662
REMARK INTER:                  -0.526
REMARK INTRA:                  -0.136
REMARK UNBOUND:                -0.171
REMARK SMILES CCCCCC(=O)[O-]
REMARK SMILES IDX 4 1 5 2 6 3 7 4 8 5 3 6 2 7 1 8
REMARK H PARENT
REMARK Flexibility Score: inf
ROOT
ATOM      1  C   UNL     1      31.211  23.148  27.036  1.00  0.00     0.006 C 
ENDROOT
BRANCH   1   2
ATOM      2  C   UNL     1      30.496  21.803  26.876  1.00  0.00     0.053 C 
BRANCH   2   3
ATOM      3  C   UNL     1      29.238  21.777  27.685  1.00  0.00     0.041 C 
ATOM      4  O   UNL     1      28.987  22.707  28.495  1.00  0.00    -0.550 OA
ATOM      5  O   UNL     1      28.319  20.750  27.508  1.00  0.00    -0.550 OA
ENDBRANCH   2   3
ENDBRANCH   1   2
BRANCH   1   6
ATOM      6  C   UNL     1      32.735  22.966  27.022  1.00  0.00     0.000 C 
BRANCH   6   7
ATOM      7  C   UNL     1      33.445  23.845  28.061  1.00  0.00    -0.003 C 
ATOM      8  C   UNL     1      32.586  24.109  29.298  1.00  0.00     0.004 C 
ENDBRANCH   6   7
ENDBRANCH   1   6
TORSDOF 4
ENDMDL
MODEL 6
REMARK VINA RESULT:    -0.272     16.729     17.345
REMARK INTER + INTRA:          -0.506
REMARK INTER:                  -0.427
REMARK INTRA:                  -0.079
REMARK UNBOUND:                -0.171
REMARK SMILES CCCCCC(=O)[O-]
REMARK SMILES IDX 4 1 5 2 6 3 7 4 8 5 3 6 2 7 1 8
REMARK H PARENT
REMARK Flexibility Score: inf
ROOT
ATOM      1  C   UNL     1      35.139  12.811  41.045  1.00  0.00     0.006 C 
ENDROOT
BRANCH   1   2
ATOM      2  C   UNL     1      34.923  12.963  42.553  1.00  0.00     0.053 C 
BRANCH   2   3
ATOM      3  C   UNL     1      35.721  14.111  43.085  1.00  0.00     0.041 C 
ATOM      4  O   UNL     1      35.154  15.200  43.365  1.00  0.00    -0.550 OA
ATOM      5  O   UNL     1      37.082  13.963  43.319  1.00  0.00    -0.550 OA
ENDBRANCH   2   3
ENDBRANCH   1   2
BRANCH   1   6
ATOM      6  C   UNL     1      33.882  12.249  40.363  1.00  0.00     0.000 C 
BRANCH   6   7
ATOM      7  C   UNL     1      33.413  10.926  40.986  1.00  0.00    -0.003 C 
ATOM      8  C   UNL     1      33.421   9.767  39.989  1.00  0.00     0.004 C 
ENDBRANCH   6   7
ENDBRANCH   1   6
TORSDOF 4
ENDMDL
MODEL 7
REMARK VINA RESULT:    -0.098     16.794     17.613
REMARK INTER + INTRA:          -0.292
REMARK INTER:                  -0.229
REMARK INTRA:                  -0.062
REMARK UNBOUND:                -0.171
REMARK SMILES CCCCCC(=O)[O-]
REMARK SMILES IDX 4 1 5 2 6 3 7 4 8 5 3 6 2 7 1 8
REMARK H PARENT
REMARK Flexibility Score: inf
ROOT
ATOM      1  C   UNL     1      35.117  12.568  41.005  1.00  0.00     0.006 C 
ENDROOT
BRANCH   1   2
ATOM      2  C   UNL     1      33.806  12.237  40.286  1.00  0.00     0.053 C 
BRANCH   2   3
ATOM      3  C   UNL     1      33.316  10.881  40.684  1.00  0.00     0.041 C 
ATOM      4  O   UNL     1      32.415  10.764  41.556  1.00  0.00    -0.550 OA
ATOM      5  O   UNL     1      33.819   9.748  40.056  1.00  0.00    -0.550 OA
ENDBRANCH   2   3
ENDBRANCH   1   2
BRANCH   1   6
ATOM      6  C   UNL     1      34.860  12.947  42.471  1.00  0.00     0.000 C 
BRANCH   6   7
ATOM      7  C   UNL     1      35.869  13.976  43.000  1.00  0.00    -0.003 C 
ATOM      8  C   UNL     1      35.208  15.288  43.424  1.00  0.00     0.004 C 
ENDBRANCH   6   7
ENDBRANCH   1   6
TORSDOF 4
ENDMDL
MODEL 8
REMARK VINA RESULT:    -0.024     17.055     17.737
REMARK INTER + INTRA:          -0.200
REMARK INTER:                  -0.136
REMARK INTRA:                  -0.065
REMARK UNBOUND:                -0.171
REMARK SMILES CCCCCC(=O)[O-]
REMARK SMILES IDX 4 1 5 2 6 3 7 4 8 5 3 6 2 7 1 8
REMARK H PARENT
REMARK Flexibility Score: inf
ROOT
ATOM      1  C   UNL     1      34.263  12.767  41.185  1.00  0.00     0.006 C 
ENDROOT
BRANCH   1   2
ATOM      2  C   UNL     1      34.239  11.506  40.317  1.00  0.00     0.053 C 
BRANCH   2   3
ATOM      3  C   UNL     1      33.068  10.646  40.672  1.00  0.00     0.041 C 
ATOM      4  O   UNL     1      32.808   9.617  39.993  1.00  0.00    -0.550 OA
ATOM      5  O   UNL     1      32.291  10.953  41.782  1.00  0.00    -0.550 OA
ENDBRANCH   2   3
ENDBRANCH   1   2
BRANCH   1   6
ATOM      6  C   UNL     1      35.608  12.910  41.912  1.00  0.00     0.000 C 
BRANCH   6   7
ATOM      7  C   UNL     1      35.582  13.998  42.995  1.00  0.00    -0.003 C 
ATOM      8  C   UNL     1      36.964  14.274  43.589  1.00  0.00     0.004 C 
ENDBRANCH   6   7
ENDBRANCH   1   6
TORSDOF 4
ENDMDL
MODEL 9
REMARK VINA RESULT:     0.104     16.978     17.751
REMARK INTER + INTRA:          -0.042
REMARK INTER:                   0.044
REMARK INTRA:                  -0.086
REMARK UNBOUND:                -0.171
REMARK SMILES CCCCCC(=O)[O-]
REMARK SMILES IDX 4 1 5 2 6 3 7 4 8 5 3 6 2 7 1 8
REMARK H PARENT
REMARK Flexibility Score: inf
ROOT
ATOM      1  C   UNL     1      34.130  12.453  40.660  1.00  0.00     0.006 C 
ENDROOT
BRANCH   1   2
ATOM      2  C   UNL     1      33.317  11.295  41.245  1.00  0.00     0.053 C 
BRANCH   2   3
ATOM      3  C   UNL     1      33.369  10.106  40.340  1.00  0.00     0.041 C 
ATOM      4  O   UNL     1      32.303   9.564  39.943  1.00  0.00    -0.550 OA
ATOM      5  O   UNL     1      34.593   9.626  39.892  1.00  0.00    -0.550 OA
ENDBRANCH   2   3
ENDBRANCH   1   2
BRANCH   1   6
ATOM      6  C   UNL     1      35.391  12.717  41.495  1.00  0.00     0.000 C 
BRANCH   6   7
ATOM      7  C   UNL     1      35.161  13.757  42.601  1.00  0.00    -0.003 C 
ATOM      8  C   UNL     1      36.440  14.103  43.364  1.00  0.00     0.004 C 
ENDBRANCH   6   7
ENDBRANCH   1   6
TORSDOF 4
ENDMDL
