MODEL 1
REMARK VINA RESULT:    -1.982      0.000      0.000
REMARK INTER + INTRA:          -2.694
REMARK INTER:                  -2.561
REMARK INTRA:                  -0.133
REMARK UNBOUND:                -0.133
REMARK SMILES CCCCCCC(=O)[O-]
REMARK SMILES IDX 5 1 6 2 7 3 8 4 9 5 4 6 3 7 2 8 1 9
REMARK H PARENT
REMARK Flexibility Score: inf
ROOT
ATOM      1  C   UNL     1       2.131  -6.960  11.256  1.00  0.00     0.006 C 
ENDROOT
BRANCH   1   2
ATOM      2  C   UNL     1       0.774  -7.415  11.813  1.00  0.00     0.053 C 
BRANCH   2   3
ATOM      3  C   UNL     1      -0.073  -7.986  10.721  1.00  0.00     0.041 C 
ATOM      4  O   UNL     1       0.048  -9.196  10.392  1.00  0.00    -0.550 OA
ATOM      5  O   UNL     1      -1.033  -7.197  10.099  1.00  0.00    -0.550 OA
ENDBRANCH   2   3
ENDBRANCH   1   2
BRANCH   1   6
ATOM      6  C   UNL     1       3.134  -8.116  11.124  1.00  0.00     0.000 C 
BRANCH   6   7
ATOM      7  C   UNL     1       4.132  -8.170  12.291  1.00  0.00    -0.000 C 
BRANCH   7   8
ATOM      8  C   UNL     1       4.818  -6.813  12.487  1.00  0.00    -0.003 C 
ATOM      9  C   UNL     1       6.302  -6.891  12.139  1.00  0.00     0.004 C 
ENDBRANCH   7   8
ENDBRANCH   6   7
ENDBRANCH   1   6
TORSDOF 5
ENDMDL
MODEL 2
REMARK VINA RESULT:    -1.774      2.823      5.009
REMARK INTER + INTRA:          -2.426
REMARK INTER:                  -2.204
REMARK INTRA:                  -0.222
REMARK UNBOUND:                -0.133
REMARK SMILES CCCCCCC(=O)[O-]
REMARK SMILES IDX 5 1 6 2 7 3 8 4 9 5 4 6 3 7 2 8 1 9
REMARK H PARENT
REMARK Flexibility Score: inf
ROOT
ATOM      1  C   UNL     1       2.219  -6.799  11.368  1.00  0.00     0.006 C 
ENDROOT
BRANCH   1   2
ATOM      2  C   UNL     1       3.282  -7.878  11.117  1.00  0.00     0.053 C 
BRANCH   2   3
ATOM      3  C   UNL     1       4.326  -7.840  12.186  1.00  0.00     0.041 C 
ATOM      4  O   UNL     1       4.201  -8.550  13.219  1.00  0.00    -0.550 OA
ATOM      5  O   UNL     1       5.464  -7.059  12.022  1.00  0.00    -0.550 OA
ENDBRANCH   2   3
ENDBRANCH   1   2
BRANCH   1   6
ATOM      6  C   UNL     1       0.864  -7.390  11.787  1.00  0.00     0.000 C 
BRANCH   6   7
ATOM      7  C   UNL     1       0.418  -8.549  10.883  1.00  0.00    -0.000 C 
BRANCH   7   8
ATOM      8  C   UNL     1      -1.027  -8.351  10.410  1.00  0.00    -0.003 C 
ATOM      9  C   UNL     1      -1.124  -7.215   9.395  1.00  0.00     0.004 C 
ENDBRANCH   7   8
ENDBRANCH   6   7
ENDBRANCH   1   6
TORSDOF 5
ENDMDL
MODEL 3
REMARK VINA RESULT:    -1.070      1.022      1.482
REMARK INTER + INTRA:          -1.516
REMARK INTER:                  -1.262
REMARK INTRA:                  -0.254
REMARK UNBOUND:                -0.133
REMARK SMILES CCCCCCC(=O)[O-]
REMARK SMILES IDX 5 1 6 2 7 3 8 4 9 5 4 6 3 7 2 8 1 9
REMARK H PARENT
REMARK Flexibility Score: inf
ROOT
ATOM      1  C   UNL     1       1.839  -6.480  11.151  1.00  0.00     0.006 C 
ENDROOT
BRANCH   1   2
ATOM      2  C   UNL     1       0.977  -7.641  11.667  1.00  0.00     0.053 C 
BRANCH   2   3
ATOM      3  C   UNL     1      -0.095  -7.973  10.679  1.00  0.00     0.041 C 
ATOM      4  O   UNL     1      -0.467  -9.167  10.524  1.00  0.00    -0.550 OA
ATOM      5  O   UNL     1      -0.721  -6.959   9.964  1.00  0.00    -0.550 OA
ENDBRANCH   2   3
ENDBRANCH   1   2
BRANCH   1   6
ATOM      6  C   UNL     1       3.284  -6.539  11.672  1.00  0.00     0.000 C 
BRANCH   6   7
ATOM      7  C   UNL     1       3.901  -7.940  11.546  1.00  0.00    -0.000 C 
BRANCH   7   8
ATOM      8  C   UNL     1       4.735  -8.284  12.786  1.00  0.00    -0.003 C 
ATOM      9  C   UNL     1       3.889  -8.990  13.842  1.00  0.00     0.004 C 
ENDBRANCH   7   8
ENDBRANCH   6   7
ENDBRANCH   1   6
TORSDOF 5
ENDMDL
MODEL 4
REMARK VINA RESULT:    -0.928      1.129      1.816
REMARK INTER + INTRA:          -1.332
REMARK INTER:                  -1.200
REMARK INTRA:                  -0.133
REMARK UNBOUND:                -0.133
REMARK SMILES CCCCCCC(=O)[O-]
REMARK SMILES IDX 5 1 6 2 7 3 8 4 9 5 4 6 3 7 2 8 1 9
REMARK H PARENT
REMARK Flexibility Score: inf
ROOT
ATOM      1  C   UNL     1       1.552  -7.679  11.563  1.00  0.00     0.006 C 
ENDROOT
BRANCH   1   2
ATOM      2  C   UNL     1       0.058  -7.333  11.631  1.00  0.00     0.053 C 
BRANCH   2   3
ATOM      3  C   UNL     1      -0.682  -7.993  10.512  1.00  0.00     0.041 C 
ATOM      4  O   UNL     1      -1.125  -7.306   9.553  1.00  0.00    -0.550 OA
ATOM      5  O   UNL     1      -0.841  -9.374  10.500  1.00  0.00    -0.550 OA
ENDBRANCH   2   3
ENDBRANCH   1   2
BRANCH   1   6
ATOM      6  C   UNL     1       2.448  -6.431  11.547  1.00  0.00     0.000 C 
BRANCH   6   7
ATOM      7  C   UNL     1       3.898  -6.738  11.954  1.00  0.00    -0.000 C 
BRANCH   7   8
ATOM      8  C   UNL     1       4.138  -8.250  12.027  1.00  0.00    -0.003 C 
ATOM      9  C   UNL     1       4.376  -8.702  13.465  1.00  0.00     0.004 C 
ENDBRANCH   7   8
ENDBRANCH   6   7
ENDBRANCH   1   6
TORSDOF 5
ENDMDL
