MODEL 1
REMARK VINA RESULT:    -3.405      0.000      0.000
REMARK INTER + INTRA:          -5.016
REMARK INTER:                  -4.600
REMARK INTRA:                  -0.416
REMARK UNBOUND:                -0.416
REMARK SMILES CCCCCCC=CC(=O)[O-]
REMARK SMILES IDX 5 1 6 2 7 3 8 4 9 5 10 6 11 7 4 8 3 9 2 10 1 11
REMARK H PARENT
REMARK Flexibility Score: inf
ROOT
ATOM      1  C   UNL     1      24.354  -5.553 -28.814  1.00  0.00     0.004 C 
ENDROOT
BRANCH   1   2
ATOM      2  C   UNL     1      23.946  -6.021 -30.216  1.00  0.00     0.027 C 
BRANCH   2   3
ATOM      3  C   UNL     1      24.830  -5.418 -31.270  1.00  0.00    -0.025 C 
ATOM      4  C   UNL     1      24.388  -5.203 -32.514  1.00  0.00     0.020 C 
BRANCH   4   5
ATOM      5  C   UNL     1      25.241  -4.627 -33.565  1.00  0.00     0.064 C 
ATOM      6  O   UNL     1      26.489  -4.798 -33.559  1.00  0.00    -0.545 OA
ATOM      7  O   UNL     1      24.659  -3.879 -34.581  1.00  0.00    -0.545 OA
ENDBRANCH   4   5
ENDBRANCH   2   3
ENDBRANCH   1   2
BRANCH   1   8
ATOM      8  C   UNL     1      24.001  -6.610 -27.758  1.00  0.00     0.000 C 
BRANCH   8   9
ATOM      9  C   UNL     1      24.711  -7.951 -28.001  1.00  0.00    -0.000 C 
BRANCH   9  10
ATOM     10  C   UNL     1      26.218  -7.882 -27.716  1.00  0.00    -0.003 C 
ATOM     11  C   UNL     1      27.025  -7.917 -29.011  1.00  0.00     0.004 C 
ENDBRANCH   9  10
ENDBRANCH   8   9
ENDBRANCH   1   8
TORSDOF 6
ENDMDL
MODEL 2
REMARK VINA RESULT:    -3.326      1.940      3.056
REMARK INTER + INTRA:          -4.909
REMARK INTER:                  -4.161
REMARK INTRA:                  -0.748
REMARK UNBOUND:                -0.416
REMARK SMILES CCCCCCC=CC(=O)[O-]
REMARK SMILES IDX 5 1 6 2 7 3 8 4 9 5 10 6 11 7 4 8 3 9 2 10 1 11
REMARK H PARENT
REMARK Flexibility Score: inf
ROOT
ATOM      1  C   UNL     1      24.656  -7.981 -27.960  1.00  0.00     0.004 C 
ENDROOT
BRANCH   1   2
ATOM      2  C   UNL     1      25.789  -7.736 -28.964  1.00  0.00     0.027 C 
BRANCH   2   3
ATOM      3  C   UNL     1      25.550  -6.485 -29.760  1.00  0.00    -0.025 C 
ATOM      4  C   UNL     1      24.355  -6.217 -30.299  1.00  0.00     0.020 C 
BRANCH   4   5
ATOM      5  C   UNL     1      24.103  -5.006 -31.094  1.00  0.00     0.064 C 
ATOM      6  O   UNL     1      24.093  -3.865 -30.560  1.00  0.00    -0.545 OA
ATOM      7  O   UNL     1      23.871  -5.122 -32.459  1.00  0.00    -0.545 OA
ENDBRANCH   4   5
ENDBRANCH   2   3
ENDBRANCH   1   2
BRANCH   1   8
ATOM      8  C   UNL     1      25.171  -7.887 -26.517  1.00  0.00     0.000 C 
BRANCH   8   9
ATOM      9  C   UNL     1      24.810  -6.554 -25.843  1.00  0.00    -0.000 C 
BRANCH   9  10
ATOM     10  C   UNL     1      23.641  -5.840 -26.537  1.00  0.00    -0.003 C 
ATOM     11  C   UNL     1      24.044  -4.439 -26.991  1.00  0.00     0.004 C 
ENDBRANCH   9  10
ENDBRANCH   8   9
ENDBRANCH   1   8
TORSDOF 6
ENDMDL
MODEL 3
REMARK VINA RESULT:    -3.298     14.113     15.636
REMARK INTER + INTRA:          -4.871
REMARK INTER:                  -4.274
REMARK INTRA:                  -0.597
REMARK UNBOUND:                -0.416
REMARK SMILES CCCCCCC=CC(=O)[O-]
REMARK SMILES IDX 5 1 6 2 7 3 8 4 9 5 10 6 11 7 4 8 3 9 2 10 1 11
REMARK H PARENT
REMARK Flexibility Score: inf
ROOT
ATOM      1  C   UNL     1      35.229   5.162 -31.693  1.00  0.00     0.004 C 
ENDROOT
BRANCH   1   2
ATOM      2  C   UNL     1      35.790   6.579 -31.516  1.00  0.00     0.027 C 
BRANCH   2   3
ATOM      3  C   UNL     1      34.695   7.606 -31.548  1.00  0.00    -0.025 C 
ATOM      4  C   UNL     1      33.640   7.528 -30.729  1.00  0.00     0.020 C 
BRANCH   4   5
ATOM      5  C   UNL     1      32.550   8.515 -30.753  1.00  0.00     0.064 C 
ATOM      6  O   UNL     1      32.767   9.733 -30.514  1.00  0.00    -0.545 OA
ATOM      7  O   UNL     1      31.257   8.097 -31.043  1.00  0.00    -0.545 OA
ENDBRANCH   4   5
ENDBRANCH   2   3
ENDBRANCH   1   2
BRANCH   1   8
ATOM      8  C   UNL     1      34.937   4.868 -33.172  1.00  0.00     0.000 C 
BRANCH   8   9
ATOM      9  C   UNL     1      33.985   3.677 -33.363  1.00  0.00    -0.000 C 
BRANCH   9  10
ATOM     10  C   UNL     1      32.710   3.798 -32.515  1.00  0.00    -0.003 C 
ATOM     11  C   UNL     1      31.808   4.913 -33.037  1.00  0.00     0.004 C 
ENDBRANCH   9  10
ENDBRANCH   8   9
ENDBRANCH   1   8
TORSDOF 6
ENDMDL
MODEL 4
REMARK VINA RESULT:    -3.278     11.963     13.357
REMARK INTER + INTRA:          -4.844
REMARK INTER:                  -4.519
REMARK INTRA:                  -0.325
REMARK UNBOUND:                -0.416
REMARK SMILES CCCCCCC=CC(=O)[O-]
REMARK SMILES IDX 5 1 6 2 7 3 8 4 9 5 10 6 11 7 4 8 3 9 2 10 1 11
REMARK H PARENT
REMARK Flexibility Score: inf
ROOT
ATOM      1  C   UNL     1      33.004   0.254 -34.534  1.00  0.00     0.004 C 
ENDROOT
BRANCH   1   2
ATOM      2  C   UNL     1      32.612   1.725 -34.344  1.00  0.00     0.027 C 
BRANCH   2   3
ATOM      3  C   UNL     1      33.720   2.504 -33.694  1.00  0.00    -0.025 C 
ATOM      4  C   UNL     1      33.572   3.793 -33.370  1.00  0.00     0.020 C 
BRANCH   4   5
ATOM      5  C   UNL     1      34.648   4.577 -32.746  1.00  0.00     0.064 C 
ATOM      6  O   UNL     1      34.845   4.542 -31.502  1.00  0.00    -0.545 OA
ATOM      7  O   UNL     1      35.462   5.373 -33.544  1.00  0.00    -0.545 OA
ENDBRANCH   4   5
ENDBRANCH   2   3
ENDBRANCH   1   2
BRANCH   1   8
ATOM      8  C   UNL     1      34.004   0.098 -35.689  1.00  0.00     0.000 C 
BRANCH   8   9
ATOM      9  C   UNL     1      33.457  -0.772 -36.832  1.00  0.00    -0.000 C 
BRANCH   9  10
ATOM     10  C   UNL     1      33.325   0.002 -38.152  1.00  0.00    -0.003 C 
ATOM     11  C   UNL     1      31.883   0.442 -38.389  1.00  0.00     0.004 C 
ENDBRANCH   9  10
ENDBRANCH   8   9
ENDBRANCH   1   8
TORSDOF 6
ENDMDL
MODEL 5
REMARK VINA RESULT:    -3.260     16.320     17.538
REMARK INTER + INTRA:          -4.820
REMARK INTER:                  -4.553
REMARK INTRA:                  -0.266
REMARK UNBOUND:                -0.416
REMARK SMILES CCCCCCC=CC(=O)[O-]
REMARK SMILES IDX 5 1 6 2 7 3 8 4 9 5 10 6 11 7 4 8 3 9 2 10 1 11
REMARK H PARENT
REMARK Flexibility Score: inf
ROOT
ATOM      1  C   UNL     1      33.546   7.682 -30.444  1.00  0.00     0.004 C 
ENDROOT
BRANCH   1   2
ATOM      2  C   UNL     1      32.566   8.823 -30.743  1.00  0.00     0.027 C 
BRANCH   2   3
ATOM      3  C   UNL     1      32.663   9.909 -29.711  1.00  0.00    -0.025 C 
ATOM      4  C   UNL     1      32.800   9.627 -28.411  1.00  0.00     0.020 C 
BRANCH   4   5
ATOM      5  C   UNL     1      32.882  10.675 -27.382  1.00  0.00     0.064 C 
ATOM      6  O   UNL     1      33.995  11.111 -26.982  1.00  0.00    -0.545 OA
ATOM      7  O   UNL     1      31.712  11.192 -26.840  1.00  0.00    -0.545 OA
ENDBRANCH   4   5
ENDBRANCH   2   3
ENDBRANCH   1   2
BRANCH   1   8
ATOM      8  C   UNL     1      34.657   7.621 -31.503  1.00  0.00     0.000 C 
BRANCH   8   9
ATOM      9  C   UNL     1      35.682   6.510 -31.223  1.00  0.00    -0.000 C 
BRANCH   9  10
ATOM     10  C   UNL     1      35.298   5.174 -31.874  1.00  0.00    -0.003 C 
ATOM     11  C   UNL     1      35.066   5.340 -33.374  1.00  0.00     0.004 C 
ENDBRANCH   9  10
ENDBRANCH   8   9
ENDBRANCH   1   8
TORSDOF 6
ENDMDL
MODEL 6
REMARK VINA RESULT:    -3.234      1.296      2.049
REMARK INTER + INTRA:          -4.785
REMARK INTER:                  -4.151
REMARK INTRA:                  -0.634
REMARK UNBOUND:                -0.416
REMARK SMILES CCCCCCC=CC(=O)[O-]
REMARK SMILES IDX 5 1 6 2 7 3 8 4 9 5 10 6 11 7 4 8 3 9 2 10 1 11
REMARK H PARENT
REMARK Flexibility Score: inf
ROOT
ATOM      1  C   UNL     1      24.616  -7.659 -28.558  1.00  0.00     0.004 C 
ENDROOT
BRANCH   1   2
ATOM      2  C   UNL     1      24.181  -6.233 -28.917  1.00  0.00     0.027 C 
BRANCH   2   3
ATOM      3  C   UNL     1      24.049  -6.062 -30.403  1.00  0.00    -0.025 C 
ATOM      4  C   UNL     1      24.680  -5.077 -31.051  1.00  0.00     0.020 C 
BRANCH   4   5
ATOM      5  C   UNL     1      24.554  -4.882 -32.504  1.00  0.00     0.064 C 
ATOM      6  O   UNL     1      25.504  -5.159 -33.284  1.00  0.00    -0.545 OA
ATOM      7  O   UNL     1      23.366  -4.384 -33.025  1.00  0.00    -0.545 OA
ENDBRANCH   4   5
ENDBRANCH   2   3
ENDBRANCH   1   2
BRANCH   1   8
ATOM      8  C   UNL     1      25.932  -8.025 -29.260  1.00  0.00     0.000 C 
BRANCH   8   9
ATOM      9  C   UNL     1      27.169  -7.701 -28.407  1.00  0.00    -0.000 C 
BRANCH   9  10
ATOM     10  C   UNL     1      28.162  -6.781 -29.131  1.00  0.00    -0.003 C 
ATOM     11  C   UNL     1      27.794  -5.312 -28.934  1.00  0.00     0.004 C 
ENDBRANCH   9  10
ENDBRANCH   8   9
ENDBRANCH   1   8
TORSDOF 6
ENDMDL
MODEL 7
REMARK VINA RESULT:    -3.201      2.189      3.372
REMARK INTER + INTRA:          -4.741
REMARK INTER:                  -4.112
REMARK INTRA:                  -0.628
REMARK UNBOUND:                -0.416
REMARK SMILES CCCCCCC=CC(=O)[O-]
REMARK SMILES IDX 5 1 6 2 7 3 8 4 9 5 10 6 11 7 4 8 3 9 2 10 1 11
REMARK H PARENT
REMARK Flexibility Score: inf
ROOT
ATOM      1  C   UNL     1      25.394  -7.424 -26.328  1.00  0.00     0.004 C 
ENDROOT
BRANCH   1   2
ATOM      2  C   UNL     1      24.736  -8.125 -27.523  1.00  0.00     0.027 C 
BRANCH   2   3
ATOM      3  C   UNL     1      24.039  -7.139 -28.416  1.00  0.00    -0.025 C 
ATOM      4  C   UNL     1      24.680  -6.534 -29.423  1.00  0.00     0.020 C 
BRANCH   4   5
ATOM      5  C   UNL     1      24.021  -5.554 -30.300  1.00  0.00     0.064 C 
ATOM      6  O   UNL     1      23.582  -4.464 -29.847  1.00  0.00    -0.545 OA
ATOM      7  O   UNL     1      23.880  -5.838 -31.653  1.00  0.00    -0.545 OA
ENDBRANCH   4   5
ENDBRANCH   2   3
ENDBRANCH   1   2
BRANCH   1   8
ATOM      8  C   UNL     1      26.748  -8.067 -25.993  1.00  0.00     0.000 C 
BRANCH   8   9
ATOM      9  C   UNL     1      27.701  -8.103 -27.198  1.00  0.00    -0.000 C 
BRANCH   9  10
ATOM     10  C   UNL     1      28.075  -6.701 -27.699  1.00  0.00    -0.003 C 
ATOM     11  C   UNL     1      28.368  -6.711 -29.197  1.00  0.00     0.004 C 
ENDBRANCH   9  10
ENDBRANCH   8   9
ENDBRANCH   1   8
TORSDOF 6
ENDMDL
MODEL 8
REMARK VINA RESULT:    -3.152     16.491     17.474
REMARK INTER + INTRA:          -4.674
REMARK INTER:                  -4.439
REMARK INTRA:                  -0.235
REMARK UNBOUND:                -0.416
REMARK SMILES CCCCCCC=CC(=O)[O-]
REMARK SMILES IDX 5 1 6 2 7 3 8 4 9 5 10 6 11 7 4 8 3 9 2 10 1 11
REMARK H PARENT
REMARK Flexibility Score: inf
ROOT
ATOM      1  C   UNL     1      31.986   9.771 -29.425  1.00  0.00     0.004 C 
ENDROOT
BRANCH   1   2
ATOM      2  C   UNL     1      32.807   9.639 -30.713  1.00  0.00     0.027 C 
BRANCH   2   3
ATOM      3  C   UNL     1      33.310   8.236 -30.897  1.00  0.00    -0.025 C 
ATOM      4  C   UNL     1      34.480   7.985 -31.496  1.00  0.00     0.020 C 
BRANCH   4   5
ATOM      5  C   UNL     1      34.985   6.619 -31.698  1.00  0.00     0.064 C 
ATOM      6  O   UNL     1      36.125   6.277 -31.286  1.00  0.00    -0.545 OA
ATOM      7  O   UNL     1      34.190   5.689 -32.357  1.00  0.00    -0.545 OA
ENDBRANCH   4   5
ENDBRANCH   2   3
ENDBRANCH   1   2
BRANCH   1   8
ATOM      8  C   UNL     1      32.828   9.397 -28.196  1.00  0.00     0.000 C 
BRANCH   8   9
ATOM      9  C   UNL     1      33.220  10.620 -27.352  1.00  0.00    -0.000 C 
BRANCH   9  10
ATOM     10  C   UNL     1      33.528  10.255 -25.892  1.00  0.00    -0.003 C 
ATOM     11  C   UNL     1      33.548  11.499 -25.008  1.00  0.00     0.004 C 
ENDBRANCH   9  10
ENDBRANCH   8   9
ENDBRANCH   1   8
TORSDOF 6
ENDMDL
MODEL 9
REMARK VINA RESULT:    -3.147     13.078     14.753
REMARK INTER + INTRA:          -4.667
REMARK INTER:                  -4.149
REMARK INTRA:                  -0.518
REMARK UNBOUND:                -0.416
REMARK SMILES CCCCCCC=CC(=O)[O-]
REMARK SMILES IDX 5 1 6 2 7 3 8 4 9 5 10 6 11 7 4 8 3 9 2 10 1 11
REMARK H PARENT
REMARK Flexibility Score: inf
ROOT
ATOM      1  C   UNL     1      35.538   5.438 -31.736  1.00  0.00     0.004 C 
ENDROOT
BRANCH   1   2
ATOM      2  C   UNL     1      35.194   5.283 -33.222  1.00  0.00     0.027 C 
BRANCH   2   3
ATOM      3  C   UNL     1      33.903   4.538 -33.407  1.00  0.00    -0.025 C 
ATOM      4  C   UNL     1      33.868   3.201 -33.454  1.00  0.00     0.020 C 
BRANCH   4   5
ATOM      5  C   UNL     1      32.616   2.452 -33.648  1.00  0.00     0.064 C 
ATOM      6  O   UNL     1      31.660   2.939 -34.309  1.00  0.00    -0.545 OA
ATOM      7  O   UNL     1      32.487   1.186 -33.093  1.00  0.00    -0.545 OA
ENDBRANCH   4   5
ENDBRANCH   2   3
ENDBRANCH   1   2
BRANCH   1   8
ATOM      8  C   UNL     1      35.808   6.909 -31.386  1.00  0.00     0.000 C 
BRANCH   8   9
ATOM      9  C   UNL     1      34.562   7.795 -31.545  1.00  0.00    -0.000 C 
BRANCH   9  10
ATOM     10  C   UNL     1      33.543   7.591 -30.415  1.00  0.00    -0.003 C 
ATOM     11  C   UNL     1      32.221   7.054 -30.955  1.00  0.00     0.004 C 
ENDBRANCH   9  10
ENDBRANCH   8   9
ENDBRANCH   1   8
TORSDOF 6
ENDMDL
