MODEL 1
REMARK VINA RESULT:    -4.182      0.000      0.000
REMARK INTER + INTRA:          -4.549
REMARK INTER:                  -4.549
REMARK INTRA:                   0.000
REMARK UNBOUND:                 0.000
REMARK SMILES Cc1cc(O)c2c(c1)C(=O)c1cc(O)cc(O)c1C2=O
REMARK SMILES IDX 1 1 2 2 8 3 7 4 6 5 4 6 3 7 19 8 20 9 18 10 11 11 9 12 10 13
REMARK SMILES IDX 12 14 13 15 15 16 16 17 5 18 17 20 14 22
REMARK H PARENT 5 19 17 21 14 23
REMARK Flexibility Score: inf
ROOT
ATOM      1  C   UNL     1     -22.883  59.671  45.021  1.00  0.00     0.044 C 
ATOM      2  C   UNL     1     -23.711  58.420  44.963  1.00  0.00    -0.047 A 
ATOM      3  C   UNL     1     -23.608  57.559  43.865  1.00  0.00     0.016 A 
ATOM      4  C   UNL     1     -24.351  56.367  43.815  1.00  0.00     0.038 A 
ATOM      5  C   UNL     1     -25.203  56.023  44.888  1.00  0.00     0.076 A 
ATOM      6  C   UNL     1     -25.286  56.890  46.005  1.00  0.00     0.127 A 
ATOM      7  C   UNL     1     -24.537  58.073  46.035  1.00  0.00     0.050 A 
ATOM      8  C   UNL     1     -25.988  54.758  44.822  1.00  0.00     0.201 C 
ATOM      9  O   UNL     1     -26.756  54.448  45.773  1.00  0.00    -0.288 OA
ATOM     10  C   UNL     1     -25.875  53.857  43.641  1.00  0.00     0.076 A 
ATOM     11  C   UNL     1     -25.015  54.215  42.577  1.00  0.00     0.041 A 
ATOM     12  C   UNL     1     -24.239  55.473  42.639  1.00  0.00     0.194 C 
ATOM     13  O   UNL     1     -23.475  55.786  41.684  1.00  0.00    -0.289 OA
ATOM     14  C   UNL     1     -24.900  53.370  41.458  1.00  0.00     0.059 A 
ATOM     15  C   UNL     1     -25.628  52.180  41.386  1.00  0.00     0.120 A 
ATOM     16  C   UNL     1     -26.477  51.823  42.432  1.00  0.00     0.093 A 
ATOM     17  C   UNL     1     -26.607  52.647  43.558  1.00  0.00     0.131 A 
ENDROOT
BRANCH   6  18
ATOM     18  O   UNL     1     -26.108  56.581  47.091  1.00  0.00    -0.507 OA
ATOM     19  H   UNL     1     -27.076  56.877  47.129  1.00  0.00     0.293 HD
ENDBRANCH   6  18
BRANCH  17  20
ATOM     20  O   UNL     1     -27.465  52.258  44.587  1.00  0.00    -0.507 OA
ATOM     21  H   UNL     1     -27.115  51.932  45.480  1.00  0.00     0.293 HD
ENDBRANCH  17  20
BRANCH  15  22
ATOM     22  O   UNL     1     -25.515  51.344  40.277  1.00  0.00    -0.508 OA
ATOM     23  H   UNL     1     -24.834  51.519  39.548  1.00  0.00     0.293 HD
ENDBRANCH  15  22
TORSDOF 3
ENDMDL
MODEL 2
REMARK VINA RESULT:    -4.146      1.848      5.718
REMARK INTER + INTRA:          -4.509
REMARK INTER:                  -4.509
REMARK INTRA:                   0.000
REMARK UNBOUND:                 0.000
REMARK SMILES Cc1cc(O)c2c(c1)C(=O)c1cc(O)cc(O)c1C2=O
REMARK SMILES IDX 1 1 2 2 8 3 7 4 6 5 4 6 3 7 19 8 20 9 18 10 11 11 9 12 10 13
REMARK SMILES IDX 12 14 13 15 15 16 16 17 5 18 17 20 14 22
REMARK H PARENT 5 19 17 21 14 23
REMARK Flexibility Score: inf
ROOT
ATOM      1  C   UNL     1     -22.183  52.454  37.747  1.00  0.00     0.044 C 
ATOM      2  C   UNL     1     -23.085  52.377  38.944  1.00  0.00    -0.047 A 
ATOM      3  C   UNL     1     -23.164  53.452  39.836  1.00  0.00     0.016 A 
ATOM      4  C   UNL     1     -24.032  53.407  40.941  1.00  0.00     0.038 A 
ATOM      5  C   UNL     1     -24.844  52.271  41.152  1.00  0.00     0.076 A 
ATOM      6  C   UNL     1     -24.774  51.195  40.233  1.00  0.00     0.127 A 
ATOM      7  C   UNL     1     -23.903  51.260  39.139  1.00  0.00     0.050 A 
ATOM      8  C   UNL     1     -25.758  52.234  42.328  1.00  0.00     0.201 C 
ATOM      9  O   UNL     1     -26.482  51.220  42.527  1.00  0.00    -0.288 OA
ATOM     10  C   UNL     1     -25.823  53.383  43.274  1.00  0.00     0.076 A 
ATOM     11  C   UNL     1     -25.005  54.513  43.047  1.00  0.00     0.041 A 
ATOM     12  C   UNL     1     -24.094  54.550  41.882  1.00  0.00     0.194 C 
ATOM     13  O   UNL     1     -23.365  55.562  41.687  1.00  0.00    -0.289 OA
ATOM     14  C   UNL     1     -25.059  55.605  43.934  1.00  0.00     0.059 A 
ATOM     15  C   UNL     1     -25.914  55.582  45.038  1.00  0.00     0.120 A 
ATOM     16  C   UNL     1     -26.723  54.471  45.266  1.00  0.00     0.093 A 
ATOM     17  C   UNL     1     -26.687  53.373  44.397  1.00  0.00     0.131 A 
ENDROOT
BRANCH   6  18
ATOM     18  O   UNL     1     -25.569  50.060  40.400  1.00  0.00    -0.507 OA
ATOM     19  H   UNL     1     -26.523  50.120  40.736  1.00  0.00     0.293 HD
ENDBRANCH   6  18
BRANCH  17  20
ATOM     20  O   UNL     1     -27.511  52.277  44.656  1.00  0.00    -0.507 OA
ATOM     21  H   UNL     1     -28.258  52.009  44.024  1.00  0.00     0.293 HD
ENDBRANCH  17  20
BRANCH  15  22
ATOM     22  O   UNL     1     -25.968  56.663  45.917  1.00  0.00    -0.508 OA
ATOM     23  H   UNL     1     -25.666  57.589  45.638  1.00  0.00     0.293 HD
ENDBRANCH  15  22
TORSDOF 3
ENDMDL
MODEL 3
REMARK VINA RESULT:    -4.139      1.418      6.711
REMARK INTER + INTRA:          -4.502
REMARK INTER:                  -4.502
REMARK INTRA:                   0.000
REMARK UNBOUND:                 0.000
REMARK SMILES Cc1cc(O)c2c(c1)C(=O)c1cc(O)cc(O)c1C2=O
REMARK SMILES IDX 1 1 2 2 8 3 7 4 6 5 4 6 3 7 19 8 20 9 18 10 11 11 9 12 10 13
REMARK SMILES IDX 12 14 13 15 15 16 16 17 5 18 17 20 14 22
REMARK H PARENT 5 19 17 21 14 23
REMARK Flexibility Score: inf
ROOT
ATOM      1  C   UNL     1     -27.020  48.410  41.148  1.00  0.00     0.044 C 
ATOM      2  C   UNL     1     -26.409  49.777  41.256  1.00  0.00    -0.047 A 
ATOM      3  C   UNL     1     -26.671  50.579  42.371  1.00  0.00     0.016 A 
ATOM      4  C   UNL     1     -26.077  51.847  42.501  1.00  0.00     0.038 A 
ATOM      5  C   UNL     1     -25.196  52.316  41.503  1.00  0.00     0.076 A 
ATOM      6  C   UNL     1     -24.919  51.490  40.386  1.00  0.00     0.127 A 
ATOM      7  C   UNL     1     -25.521  50.230  40.276  1.00  0.00     0.050 A 
ATOM      8  C   UNL     1     -24.574  53.662  41.650  1.00  0.00     0.201 C 
ATOM      9  O   UNL     1     -23.791  54.091  40.759  1.00  0.00    -0.288 OA
ATOM     10  C   UNL     1     -24.872  54.508  42.839  1.00  0.00     0.076 A 
ATOM     11  C   UNL     1     -25.755  54.022  43.831  1.00  0.00     0.041 A 
ATOM     12  C   UNL     1     -26.376  52.687  43.684  1.00  0.00     0.194 C 
ATOM     13  O   UNL     1     -27.165  52.262  44.572  1.00  0.00    -0.289 OA
ATOM     14  C   UNL     1     -26.042  54.813  44.959  1.00  0.00     0.059 A 
ATOM     15  C   UNL     1     -25.463  56.075  45.109  1.00  0.00     0.120 A 
ATOM     16  C   UNL     1     -24.592  56.559  44.135  1.00  0.00     0.093 A 
ATOM     17  C   UNL     1     -24.290  55.789  43.004  1.00  0.00     0.131 A 
ENDROOT
BRANCH   6  18
ATOM     18  O   UNL     1     -24.044  51.912  39.383  1.00  0.00    -0.507 OA
ATOM     19  H   UNL     1     -23.627  51.260  38.728  1.00  0.00     0.293 HD
ENDBRANCH   6  18
BRANCH  17  20
ATOM     20  O   UNL     1     -23.413  56.305  42.049  1.00  0.00    -0.507 OA
ATOM     21  H   UNL     1     -22.522  56.715  42.307  1.00  0.00     0.293 HD
ENDBRANCH  17  20
BRANCH  15  22
ATOM     22  O   UNL     1     -25.748  56.859  46.226  1.00  0.00    -0.508 OA
ATOM     23  H   UNL     1     -25.210  57.689  46.443  1.00  0.00     0.293 HD
ENDBRANCH  15  22
TORSDOF 3
ENDMDL
MODEL 4
REMARK VINA RESULT:    -4.090      2.184      4.879
REMARK INTER + INTRA:          -4.448
REMARK INTER:                  -4.448
REMARK INTRA:                   0.000
REMARK UNBOUND:                 0.000
REMARK SMILES Cc1cc(O)c2c(c1)C(=O)c1cc(O)cc(O)c1C2=O
REMARK SMILES IDX 1 1 2 2 8 3 7 4 6 5 4 6 3 7 19 8 20 9 18 10 11 11 9 12 10 13
REMARK SMILES IDX 12 14 13 15 15 16 16 17 5 18 17 20 14 22
REMARK H PARENT 5 19 17 21 14 23
REMARK Flexibility Score: inf
ROOT
ATOM      1  C   UNL     1     -21.052  57.027  38.988  1.00  0.00     0.044 C 
ATOM      2  C   UNL     1     -22.023  56.123  39.690  1.00  0.00    -0.047 A 
ATOM      3  C   UNL     1     -22.593  56.512  40.907  1.00  0.00     0.016 A 
ATOM      4  C   UNL     1     -23.530  55.690  41.557  1.00  0.00     0.038 A 
ATOM      5  C   UNL     1     -23.913  54.463  40.973  1.00  0.00     0.076 A 
ATOM      6  C   UNL     1     -23.347  54.085  39.731  1.00  0.00     0.127 A 
ATOM      7  C   UNL     1     -22.415  54.918  39.101  1.00  0.00     0.050 A 
ATOM      8  C   UNL     1     -24.906  53.599  41.673  1.00  0.00     0.201 C 
ATOM      9  O   UNL     1     -25.248  52.498  41.162  1.00  0.00    -0.288 OA
ATOM     10  C   UNL     1     -25.497  54.024  42.973  1.00  0.00     0.076 A 
ATOM     11  C   UNL     1     -25.104  55.257  43.542  1.00  0.00     0.041 A 
ATOM     12  C   UNL     1     -24.115  56.114  42.851  1.00  0.00     0.194 C 
ATOM     13  O   UNL     1     -23.768  57.212  43.366  1.00  0.00    -0.289 OA
ATOM     14  C   UNL     1     -25.656  55.668  44.769  1.00  0.00     0.059 A 
ATOM     15  C   UNL     1     -26.590  54.868  45.433  1.00  0.00     0.120 A 
ATOM     16  C   UNL     1     -26.981  53.652  44.876  1.00  0.00     0.093 A 
ATOM     17  C   UNL     1     -26.445  53.222  43.655  1.00  0.00     0.131 A 
ENDROOT
BRANCH   6  18
ATOM     18  O   UNL     1     -23.708  52.885  39.116  1.00  0.00    -0.507 OA
ATOM     19  H   UNL     1     -23.161  52.040  39.231  1.00  0.00     0.293 HD
ENDBRANCH   6  18
BRANCH  17  20
ATOM     20  O   UNL     1     -26.860  51.999  43.127  1.00  0.00    -0.507 OA
ATOM     21  H   UNL     1     -26.939  51.168  43.703  1.00  0.00     0.293 HD
ENDBRANCH  17  20
BRANCH  15  22
ATOM     22  O   UNL     1     -27.136  55.275  46.648  1.00  0.00    -0.508 OA
ATOM     23  H   UNL     1     -26.852  56.138  47.096  1.00  0.00     0.293 HD
ENDBRANCH  15  22
TORSDOF 3
ENDMDL
MODEL 5
REMARK VINA RESULT:    -4.024      1.156      5.484
REMARK INTER + INTRA:          -4.376
REMARK INTER:                  -4.376
REMARK INTRA:                   0.000
REMARK UNBOUND:                 0.000
REMARK SMILES Cc1cc(O)c2c(c1)C(=O)c1cc(O)cc(O)c1C2=O
REMARK SMILES IDX 1 1 2 2 8 3 7 4 6 5 4 6 3 7 19 8 20 9 18 10 11 11 9 12 10 13
REMARK SMILES IDX 12 14 13 15 15 16 16 17 5 18 17 20 14 22
REMARK H PARENT 5 19 17 21 14 23
REMARK Flexibility Score: inf
ROOT
ATOM      1  C   UNL     1     -25.530  50.866  40.485  1.00  0.00     0.044 C 
ATOM      2  C   UNL     1     -25.623  51.853  41.612  1.00  0.00    -0.047 A 
ATOM      3  C   UNL     1     -24.873  53.033  41.577  1.00  0.00     0.016 A 
ATOM      4  C   UNL     1     -24.978  53.982  42.609  1.00  0.00     0.038 A 
ATOM      5  C   UNL     1     -25.858  53.752  43.689  1.00  0.00     0.076 A 
ATOM      6  C   UNL     1     -26.629  52.564  43.707  1.00  0.00     0.127 A 
ATOM      7  C   UNL     1     -26.509  51.632  42.669  1.00  0.00     0.050 A 
ATOM      8  C   UNL     1     -25.959  54.764  44.778  1.00  0.00     0.201 C 
ATOM      9  O   UNL     1     -26.737  54.563  45.750  1.00  0.00    -0.288 OA
ATOM     10  C   UNL     1     -25.146  56.012  44.731  1.00  0.00     0.076 A 
ATOM     11  C   UNL     1     -24.272  56.228  43.641  1.00  0.00     0.041 A 
ATOM     12  C   UNL     1     -24.167  55.222  42.560  1.00  0.00     0.194 C 
ATOM     13  O   UNL     1     -23.383  55.420  41.592  1.00  0.00    -0.289 OA
ATOM     14  C   UNL     1     -23.500  57.403  43.586  1.00  0.00     0.059 A 
ATOM     15  C   UNL     1     -23.588  58.360  44.599  1.00  0.00     0.120 A 
ATOM     16  C   UNL     1     -24.448  58.153  45.676  1.00  0.00     0.093 A 
ATOM     17  C   UNL     1     -25.227  56.991  45.752  1.00  0.00     0.131 A 
ENDROOT
BRANCH   6  18
ATOM     18  O   UNL     1     -27.519  52.305  44.751  1.00  0.00    -0.507 OA
ATOM     19  H   UNL     1     -27.399  51.512  45.371  1.00  0.00     0.293 HD
ENDBRANCH   6  18
BRANCH  17  20
ATOM     20  O   UNL     1     -26.078  56.816  46.844  1.00  0.00    -0.507 OA
ATOM     21  H   UNL     1     -25.787  56.308  47.672  1.00  0.00     0.293 HD
ENDBRANCH  17  20
BRANCH  15  22
ATOM     22  O   UNL     1     -22.824  59.524  44.545  1.00  0.00    -0.508 OA
ATOM     23  H   UNL     1     -23.198  60.419  44.838  1.00  0.00     0.293 HD
ENDBRANCH  15  22
TORSDOF 3
ENDMDL
MODEL 6
REMARK VINA RESULT:    -4.014      2.424      6.400
REMARK INTER + INTRA:          -4.366
REMARK INTER:                  -4.366
REMARK INTRA:                   0.000
REMARK UNBOUND:                 0.000
REMARK SMILES Cc1cc(O)c2c(c1)C(=O)c1cc(O)cc(O)c1C2=O
REMARK SMILES IDX 1 1 2 2 8 3 7 4 6 5 4 6 3 7 19 8 20 9 18 10 11 11 9 12 10 13
REMARK SMILES IDX 12 14 13 15 15 16 16 17 5 18 17 20 14 22
REMARK H PARENT 5 19 17 21 14 23
REMARK Flexibility Score: inf
ROOT
ATOM      1  C   UNL     1     -26.638  48.922  40.210  1.00  0.00     0.044 C 
ATOM      2  C   UNL     1     -26.318  49.554  41.534  1.00  0.00    -0.047 A 
ATOM      3  C   UNL     1     -26.325  50.946  41.669  1.00  0.00     0.016 A 
ATOM      4  C   UNL     1     -26.062  51.549  42.912  1.00  0.00     0.038 A 
ATOM      5  C   UNL     1     -25.798  50.744  44.042  1.00  0.00     0.076 A 
ATOM      6  C   UNL     1     -25.812  49.335  43.902  1.00  0.00     0.127 A 
ATOM      7  C   UNL     1     -26.076  48.755  42.655  1.00  0.00     0.050 A 
ATOM      8  C   UNL     1     -25.517  51.395  45.353  1.00  0.00     0.201 C 
ATOM      9  O   UNL     1     -25.274  50.683  46.365  1.00  0.00    -0.288 OA
ATOM     10  C   UNL     1     -25.520  52.879  45.478  1.00  0.00     0.076 A 
ATOM     11  C   UNL     1     -25.789  53.670  44.338  1.00  0.00     0.041 A 
ATOM     12  C   UNL     1     -26.063  53.026  43.034  1.00  0.00     0.194 C 
ATOM     13  O   UNL     1     -26.300  53.738  42.020  1.00  0.00    -0.289 OA
ATOM     14  C   UNL     1     -25.794  55.073  44.445  1.00  0.00     0.059 A 
ATOM     15  C   UNL     1     -25.536  55.693  45.669  1.00  0.00     0.120 A 
ATOM     16  C   UNL     1     -25.270  54.919  46.797  1.00  0.00     0.093 A 
ATOM     17  C   UNL     1     -25.261  53.521  46.715  1.00  0.00     0.131 A 
ENDROOT
BRANCH   6  18
ATOM     18  O   UNL     1     -25.567  48.505  44.997  1.00  0.00    -0.507 OA
ATOM     19  H   UNL     1     -24.758  47.896  45.036  1.00  0.00     0.293 HD
ENDBRANCH   6  18
BRANCH  17  20
ATOM     20  O   UNL     1     -24.991  52.777  47.864  1.00  0.00    -0.507 OA
ATOM     21  H   UNL     1     -25.162  51.778  47.906  1.00  0.00     0.293 HD
ENDBRANCH  17  20
BRANCH  15  22
ATOM     22  O   UNL     1     -25.540  57.083  45.776  1.00  0.00    -0.508 OA
ATOM     23  H   UNL     1     -26.338  57.635  45.483  1.00  0.00     0.293 HD
ENDBRANCH  15  22
TORSDOF 3
ENDMDL
MODEL 7
REMARK VINA RESULT:    -4.013      5.269      7.993
REMARK INTER + INTRA:          -4.364
REMARK INTER:                  -4.364
REMARK INTRA:                   0.000
REMARK UNBOUND:                 0.000
REMARK SMILES Cc1cc(O)c2c(c1)C(=O)c1cc(O)cc(O)c1C2=O
REMARK SMILES IDX 1 1 2 2 8 3 7 4 6 5 4 6 3 7 19 8 20 9 18 10 11 11 9 12 10 13
REMARK SMILES IDX 12 14 13 15 15 16 16 17 5 18 17 20 14 22
REMARK H PARENT 5 19 17 21 14 23
REMARK Flexibility Score: inf
ROOT
ATOM      1  C   UNL     1     -23.455  51.071  44.477  1.00  0.00     0.044 C 
ATOM      2  C   UNL     1     -24.478  50.492  43.543  1.00  0.00    -0.047 A 
ATOM      3  C   UNL     1     -25.119  49.290  43.859  1.00  0.00     0.016 A 
ATOM      4  C   UNL     1     -26.105  48.756  43.010  1.00  0.00     0.038 A 
ATOM      5  C   UNL     1     -26.463  49.443  41.830  1.00  0.00     0.076 A 
ATOM      6  C   UNL     1     -25.824  50.671  41.527  1.00  0.00     0.127 A 
ATOM      7  C   UNL     1     -24.845  51.185  42.386  1.00  0.00     0.050 A 
ATOM      8  C   UNL     1     -27.507  48.866  40.937  1.00  0.00     0.201 C 
ATOM      9  O   UNL     1     -27.829  49.470  39.878  1.00  0.00    -0.288 OA
ATOM     10  C   UNL     1     -28.174  47.580  41.283  1.00  0.00     0.076 A 
ATOM     11  C   UNL     1     -27.805  46.906  42.470  1.00  0.00     0.041 A 
ATOM     12  C   UNL     1     -26.765  47.476  43.356  1.00  0.00     0.194 C 
ATOM     13  O   UNL     1     -26.439  46.868  44.412  1.00  0.00    -0.289 OA
ATOM     14  C   UNL     1     -28.429  45.691  42.807  1.00  0.00     0.059 A 
ATOM     15  C   UNL     1     -29.411  45.142  41.979  1.00  0.00     0.120 A 
ATOM     16  C   UNL     1     -29.779  45.802  40.808  1.00  0.00     0.093 A 
ATOM     17  C   UNL     1     -29.173  47.014  40.453  1.00  0.00     0.131 A 
ENDROOT
BRANCH   6  18
ATOM     18  O   UNL     1     -26.159  51.386  40.376  1.00  0.00    -0.507 OA
ATOM     19  H   UNL     1     -27.122  51.524  40.093  1.00  0.00     0.293 HD
ENDBRANCH   6  18
BRANCH  17  20
ATOM     20  O   UNL     1     -29.566  47.647  39.273  1.00  0.00    -0.507 OA
ATOM     21  H   UNL     1     -30.509  47.563  38.910  1.00  0.00     0.293 HD
ENDBRANCH  17  20
BRANCH  15  22
ATOM     22  O   UNL     1     -30.029  43.938  42.312  1.00  0.00    -0.508 OA
ATOM     23  H   UNL     1     -30.508  43.378  41.618  1.00  0.00     0.293 HD
ENDBRANCH  15  22
TORSDOF 3
ENDMDL
MODEL 8
REMARK VINA RESULT:    -3.995      1.942      2.899
REMARK INTER + INTRA:          -4.345
REMARK INTER:                  -4.345
REMARK INTRA:                   0.000
REMARK UNBOUND:                 0.000
REMARK SMILES Cc1cc(O)c2c(c1)C(=O)c1cc(O)cc(O)c1C2=O
REMARK SMILES IDX 1 1 2 2 8 3 7 4 6 5 4 6 3 7 19 8 20 9 18 10 11 11 9 12 10 13
REMARK SMILES IDX 12 14 13 15 15 16 16 17 5 18 17 20 14 22
REMARK H PARENT 5 19 17 21 14 23
REMARK Flexibility Score: inf
ROOT
ATOM      1  C   UNL     1     -24.813  57.368  45.588  1.00  0.00     0.044 C 
ATOM      2  C   UNL     1     -25.072  55.900  45.404  1.00  0.00    -0.047 A 
ATOM      3  C   UNL     1     -25.234  55.370  44.120  1.00  0.00     0.016 A 
ATOM      4  C   UNL     1     -25.441  53.992  43.932  1.00  0.00     0.038 A 
ATOM      5  C   UNL     1     -25.475  53.128  45.048  1.00  0.00     0.076 A 
ATOM      6  C   UNL     1     -25.289  53.669  46.344  1.00  0.00     0.127 A 
ATOM      7  C   UNL     1     -25.084  55.045  46.509  1.00  0.00     0.050 A 
ATOM      8  C   UNL     1     -25.697  51.669  44.837  1.00  0.00     0.201 C 
ATOM      9  O   UNL     1     -25.736  50.892  45.829  1.00  0.00    -0.288 OA
ATOM     10  C   UNL     1     -25.878  51.122  43.463  1.00  0.00     0.076 A 
ATOM     11  C   UNL     1     -25.839  52.001  42.357  1.00  0.00     0.041 A 
ATOM     12  C   UNL     1     -25.622  53.450  42.565  1.00  0.00     0.194 C 
ATOM     13  O   UNL     1     -25.591  54.229  41.573  1.00  0.00    -0.289 OA
ATOM     14  C   UNL     1     -26.008  51.494  41.055  1.00  0.00     0.059 A 
ATOM     15  C   UNL     1     -26.214  50.129  40.844  1.00  0.00     0.120 A 
ATOM     16  C   UNL     1     -26.253  49.258  41.931  1.00  0.00     0.093 A 
ATOM     17  C   UNL     1     -26.087  49.739  43.236  1.00  0.00     0.131 A 
ENDROOT
BRANCH   6  18
ATOM     18  O   UNL     1     -25.304  52.846  47.472  1.00  0.00    -0.507 OA
ATOM     19  H   UNL     1     -25.530  53.205  48.392  1.00  0.00     0.293 HD
ENDBRANCH   6  18
BRANCH  17  20
ATOM     20  O   UNL     1     -26.131  48.838  44.301  1.00  0.00    -0.507 OA
ATOM     21  H   UNL     1     -25.289  48.432  44.693  1.00  0.00     0.293 HD
ENDBRANCH  17  20
BRANCH  15  22
ATOM     22  O   UNL     1     -26.382  49.627  39.555  1.00  0.00    -0.508 OA
ATOM     23  H   UNL     1     -25.983  50.092  38.749  1.00  0.00     0.293 HD
ENDBRANCH  15  22
TORSDOF 3
ENDMDL
MODEL 9
REMARK VINA RESULT:    -3.859      3.210      5.723
REMARK INTER + INTRA:          -4.197
REMARK INTER:                  -4.197
REMARK INTRA:                   0.000
REMARK UNBOUND:                 0.000
REMARK SMILES Cc1cc(O)c2c(c1)C(=O)c1cc(O)cc(O)c1C2=O
REMARK SMILES IDX 1 1 2 2 8 3 7 4 6 5 4 6 3 7 19 8 20 9 18 10 11 11 9 12 10 13
REMARK SMILES IDX 12 14 13 15 15 16 16 17 5 18 17 20 14 22
REMARK H PARENT 5 19 17 21 14 23
REMARK Flexibility Score: inf
ROOT
ATOM      1  C   UNL     1     -25.448  55.001  45.719  1.00  0.00     0.044 C 
ATOM      2  C   UNL     1     -25.601  53.875  44.738  1.00  0.00    -0.047 A 
ATOM      3  C   UNL     1     -25.614  52.550  45.184  1.00  0.00     0.016 A 
ATOM      4  C   UNL     1     -25.792  51.488  44.279  1.00  0.00     0.038 A 
ATOM      5  C   UNL     1     -25.972  51.758  42.905  1.00  0.00     0.076 A 
ATOM      6  C   UNL     1     -25.979  53.104  42.463  1.00  0.00     0.127 A 
ATOM      7  C   UNL     1     -25.800  54.147  43.381  1.00  0.00     0.050 A 
ATOM      8  C   UNL     1     -26.158  50.625  41.955  1.00  0.00     0.201 C 
ATOM      9  O   UNL     1     -26.312  50.858  40.726  1.00  0.00    -0.288 OA
ATOM     10  C   UNL     1     -26.159  49.218  42.446  1.00  0.00     0.076 A 
ATOM     11  C   UNL     1     -25.979  48.966  43.825  1.00  0.00     0.041 A 
ATOM     12  C   UNL     1     -25.791  50.090  44.769  1.00  0.00     0.194 C 
ATOM     13  O   UNL     1     -25.629  49.856  45.998  1.00  0.00    -0.289 OA
ATOM     14  C   UNL     1     -25.980  47.641  44.299  1.00  0.00     0.059 A 
ATOM     15  C   UNL     1     -26.155  46.571  43.418  1.00  0.00     0.120 A 
ATOM     16  C   UNL     1     -26.333  46.814  42.058  1.00  0.00     0.093 A 
ATOM     17  C   UNL     1     -26.337  48.124  41.563  1.00  0.00     0.131 A 
ENDROOT
BRANCH   6  18
ATOM     18  O   UNL     1     -26.166  53.414  41.115  1.00  0.00    -0.507 OA
ATOM     19  H   UNL     1     -26.318  52.694  40.417  1.00  0.00     0.293 HD
ENDBRANCH   6  18
BRANCH  17  20
ATOM     20  O   UNL     1     -26.518  48.331  40.195  1.00  0.00    -0.507 OA
ATOM     21  H   UNL     1     -27.370  48.736  39.824  1.00  0.00     0.293 HD
ENDBRANCH  17  20
BRANCH  15  22
ATOM     22  O   UNL     1     -26.155  45.258  43.887  1.00  0.00    -0.508 OA
ATOM     23  H   UNL     1     -26.031  45.046  44.870  1.00  0.00     0.293 HD
ENDBRANCH  15  22
TORSDOF 3
ENDMDL
