MODEL 1
REMARK VINA RESULT:    -7.907      0.000      0.000
REMARK INTER + INTRA:         -10.061
REMARK INTER:                  -9.756
REMARK INTRA:                  -0.305
REMARK UNBOUND:                -0.305
REMARK SMILES COc1cc(-c2oc3cc(O)cc(O)c3c(=O)c2O)ccc1O
REMARK SMILES IDX 6 1 18 2 16 3 17 4 15 5 13 6 12 7 10 8 9 9 8 10 7 11 5 12
REMARK SMILES IDX 3 13 22 14 4 15 21 16 20 17 2 18 1 19 23 20 19 22 14 24
REMARK SMILES IDX 11 26
REMARK H PARENT 23 21 19 23 14 25 11 27
REMARK Flexibility Score: inf
ROOT
ATOM      1  C   UNL     1     -36.882  39.384  43.666  1.00  0.00     0.180 A 
ATOM      2  C   UNL     1     -37.612  39.710  42.511  1.00  0.00     0.208 A 
ATOM      3  C   UNL     1     -36.987  40.456  41.498  1.00  0.00     0.238 A 
ATOM      4  O   UNL     1     -37.630  40.697  40.443  1.00  0.00    -0.285 OA
ATOM      5  C   UNL     1     -35.647  40.880  41.660  1.00  0.00     0.111 A 
ATOM      6  C   UNL     1     -34.928  41.674  40.718  1.00  0.00     0.134 A 
ATOM      7  C   UNL     1     -33.565  41.924  40.922  1.00  0.00     0.093 A 
ATOM      8  C   UNL     1     -32.913  41.465  42.070  1.00  0.00     0.123 A 
ATOM      9  C   UNL     1     -33.621  40.740  43.025  1.00  0.00     0.094 A 
ATOM     10  C   UNL     1     -34.972  40.443  42.831  1.00  0.00     0.146 A 
ATOM     11  O   UNL     1     -35.607  39.740  43.761  1.00  0.00    -0.452 OA
ENDROOT
BRANCH   1  12
ATOM     12  C   UNL     1     -37.480  38.622  44.787  1.00  0.00     0.025 A 
ATOM     13  C   UNL     1     -37.550  36.587  46.142  1.00  0.00     0.161 A 
ATOM     14  C   UNL     1     -38.545  37.163  46.944  1.00  0.00     0.157 A 
ATOM     15  C   UNL     1     -37.015  37.326  45.067  1.00  0.00     0.062 A 
ATOM     16  C   UNL     1     -38.995  38.462  46.680  1.00  0.00     0.051 A 
ATOM     17  C   UNL     1     -38.463  39.190  45.614  1.00  0.00     0.016 A 
BRANCH  13  18
ATOM     18  O   UNL     1     -37.119  35.285  46.443  1.00  0.00    -0.493 OA
ATOM     19  C   UNL     1     -36.674  34.340  45.476  1.00  0.00     0.278 C 
ENDBRANCH  13  18
BRANCH  14  20
ATOM     20  O   UNL     1     -39.079  36.437  48.008  1.00  0.00    -0.504 OA
ATOM     21  H   UNL     1     -38.607  36.383  48.902  1.00  0.00     0.293 HD
ENDBRANCH  14  20
ENDBRANCH   1  12
BRANCH   2  22
ATOM     22  O   UNL     1     -38.928  39.262  42.361  1.00  0.00    -0.502 OA
ATOM     23  H   UNL     1     -39.170  38.278  42.348  1.00  0.00     0.293 HD
ENDBRANCH   2  22
BRANCH   6  24
ATOM     24  O   UNL     1     -35.507  42.258  39.587  1.00  0.00    -0.507 OA
ATOM     25  H   UNL     1     -35.057  42.945  39.001  1.00  0.00     0.293 HD
ENDBRANCH   6  24
BRANCH   8  26
ATOM     26  O   UNL     1     -31.560  41.732  42.272  1.00  0.00    -0.508 OA
ATOM     27  H   UNL     1     -31.181  41.872  43.200  1.00  0.00     0.293 HD
ENDBRANCH   8  26
TORSDOF 6
ENDMDL
MODEL 2
REMARK VINA RESULT:    -7.843      1.978      7.269
REMARK INTER + INTRA:          -9.981
REMARK INTER:                  -9.665
REMARK INTRA:                  -0.316
REMARK UNBOUND:                -0.305
REMARK SMILES COc1cc(-c2oc3cc(O)cc(O)c3c(=O)c2O)ccc1O
REMARK SMILES IDX 6 1 18 2 16 3 17 4 15 5 13 6 12 7 10 8 9 9 8 10 7 11 5 12
REMARK SMILES IDX 3 13 22 14 4 15 21 16 20 17 2 18 1 19 23 20 19 22 14 24
REMARK SMILES IDX 11 26
REMARK H PARENT 23 21 19 23 14 25 11 27
REMARK Flexibility Score: inf
ROOT
ATOM      1  C   UNL     1     -35.366  41.079  43.552  1.00  0.00     0.180 A 
ATOM      2  C   UNL     1     -35.726  41.752  44.731  1.00  0.00     0.208 A 
ATOM      3  C   UNL     1     -36.352  41.032  45.762  1.00  0.00     0.238 A 
ATOM      4  O   UNL     1     -36.623  41.629  46.837  1.00  0.00    -0.285 OA
ATOM      5  C   UNL     1     -36.624  39.654  45.594  1.00  0.00     0.111 A 
ATOM      6  C   UNL     1     -37.290  38.836  46.555  1.00  0.00     0.134 A 
ATOM      7  C   UNL     1     -37.389  37.455  46.338  1.00  0.00     0.093 A 
ATOM      8  C   UNL     1     -36.905  36.875  45.162  1.00  0.00     0.123 A 
ATOM      9  C   UNL     1     -36.307  37.674  44.191  1.00  0.00     0.094 A 
ATOM     10  C   UNL     1     -36.161  39.049  44.396  1.00  0.00     0.146 A 
ATOM     11  O   UNL     1     -35.575  39.772  43.449  1.00  0.00    -0.452 OA
ENDROOT
BRANCH   1  12
ATOM     12  C   UNL     1     -34.725  41.775  42.411  1.00  0.00     0.025 A 
ATOM     13  C   UNL     1     -32.759  42.120  40.998  1.00  0.00     0.161 A 
ATOM     14  C   UNL     1     -33.488  43.028  40.218  1.00  0.00     0.157 A 
ATOM     15  C   UNL     1     -33.387  41.490  42.092  1.00  0.00     0.062 A 
ATOM     16  C   UNL     1     -34.828  43.299  40.522  1.00  0.00     0.051 A 
ATOM     17  C   UNL     1     -35.445  42.672  41.606  1.00  0.00     0.016 A 
BRANCH  13  18
ATOM     18  O   UNL     1     -31.421  41.869  40.657  1.00  0.00    -0.493 OA
ATOM     19  C   UNL     1     -30.435  41.386  41.564  1.00  0.00     0.278 C 
ENDBRANCH  13  18
BRANCH  14  20
ATOM     20  O   UNL     1     -32.873  43.656  39.136  1.00  0.00    -0.504 OA
ATOM     21  H   UNL     1     -31.966  43.360  38.796  1.00  0.00     0.293 HD
ENDBRANCH  14  20
ENDBRANCH   1  12
BRANCH   2  22
ATOM     22  O   UNL     1     -35.428  43.109  44.885  1.00  0.00    -0.502 OA
ATOM     23  H   UNL     1     -36.004  43.734  45.437  1.00  0.00     0.293 HD
ENDBRANCH   2  22
BRANCH   6  24
ATOM     24  O   UNL     1     -37.890  39.329  47.718  1.00  0.00    -0.507 OA
ATOM     25  H   UNL     1     -38.660  38.888  48.199  1.00  0.00     0.293 HD
ENDBRANCH   6  24
BRANCH   8  26
ATOM     26  O   UNL     1     -37.022  35.503  44.948  1.00  0.00    -0.508 OA
ATOM     27  H   UNL     1     -36.207  34.911  44.852  1.00  0.00     0.293 HD
ENDBRANCH   8  26
TORSDOF 6
ENDMDL
MODEL 3
REMARK VINA RESULT:    -7.757      2.307      3.322
REMARK INTER + INTRA:          -9.876
REMARK INTER:                  -9.510
REMARK INTRA:                  -0.366
REMARK UNBOUND:                -0.305
REMARK SMILES COc1cc(-c2oc3cc(O)cc(O)c3c(=O)c2O)ccc1O
REMARK SMILES IDX 6 1 18 2 16 3 17 4 15 5 13 6 12 7 10 8 9 9 8 10 7 11 5 12
REMARK SMILES IDX 3 13 22 14 4 15 21 16 20 17 2 18 1 19 23 20 19 22 14 24
REMARK SMILES IDX 11 26
REMARK H PARENT 23 21 19 23 14 25 11 27
REMARK Flexibility Score: inf
ROOT
ATOM      1  C   UNL     1     -35.256  40.666  43.295  1.00  0.00     0.180 A 
ATOM      2  C   UNL     1     -34.659  39.965  42.232  1.00  0.00     0.208 A 
ATOM      3  C   UNL     1     -34.373  40.650  41.041  1.00  0.00     0.238 A 
ATOM      4  O   UNL     1     -33.788  40.030  40.114  1.00  0.00    -0.285 OA
ATOM      5  C   UNL     1     -34.700  42.021  40.919  1.00  0.00     0.111 A 
ATOM      6  C   UNL     1     -34.493  42.804  39.745  1.00  0.00     0.134 A 
ATOM      7  C   UNL     1     -34.734  44.183  39.781  1.00  0.00     0.093 A 
ATOM      8  C   UNL     1     -35.240  44.795  40.931  1.00  0.00     0.123 A 
ATOM      9  C   UNL     1     -35.503  44.029  42.064  1.00  0.00     0.094 A 
ATOM     10  C   UNL     1     -35.237  42.657  42.070  1.00  0.00     0.146 A 
ATOM     11  O   UNL     1     -35.492  41.966  43.174  1.00  0.00    -0.452 OA
ENDROOT
BRANCH   1  12
ATOM     12  C   UNL     1     -35.610  40.007  44.573  1.00  0.00     0.025 A 
ATOM     13  C   UNL     1     -37.204  38.703  45.892  1.00  0.00     0.161 A 
ATOM     14  C   UNL     1     -36.298  38.691  46.962  1.00  0.00     0.157 A 
ATOM     15  C   UNL     1     -36.850  39.359  44.695  1.00  0.00     0.062 A 
ATOM     16  C   UNL     1     -35.053  39.318  46.835  1.00  0.00     0.051 A 
ATOM     17  C   UNL     1     -34.707  39.965  45.648  1.00  0.00     0.016 A 
BRANCH  13  18
ATOM     18  O   UNL     1     -38.440  38.057  46.055  1.00  0.00    -0.493 OA
ATOM     19  C   UNL     1     -39.614  38.680  46.566  1.00  0.00     0.278 C 
ENDBRANCH  13  18
BRANCH  14  20
ATOM     20  O   UNL     1     -36.642  38.046  48.149  1.00  0.00    -0.504 OA
ATOM     21  H   UNL     1     -36.169  37.203  48.451  1.00  0.00     0.293 HD
ENDBRANCH  14  20
ENDBRANCH   1  12
BRANCH   2  22
ATOM     22  O   UNL     1     -34.323  38.616  42.381  1.00  0.00    -0.502 OA
ATOM     23  H   UNL     1     -33.393  38.313  42.646  1.00  0.00     0.293 HD
ENDBRANCH   2  22
BRANCH   6  24
ATOM     24  O   UNL     1     -34.078  42.275  38.518  1.00  0.00    -0.507 OA
ATOM     25  H   UNL     1     -34.624  41.646  37.950  1.00  0.00     0.293 HD
ENDBRANCH   6  24
BRANCH   8  26
ATOM     26  O   UNL     1     -35.492  46.165  40.953  1.00  0.00    -0.508 OA
ATOM     27  H   UNL     1     -35.959  46.606  41.736  1.00  0.00     0.293 HD
ENDBRANCH   8  26
TORSDOF 6
ENDMDL
MODEL 4
REMARK VINA RESULT:    -7.756      2.100      7.466
REMARK INTER + INTRA:          -9.874
REMARK INTER:                  -9.479
REMARK INTRA:                  -0.395
REMARK UNBOUND:                -0.305
REMARK SMILES COc1cc(-c2oc3cc(O)cc(O)c3c(=O)c2O)ccc1O
REMARK SMILES IDX 6 1 18 2 16 3 17 4 15 5 13 6 12 7 10 8 9 9 8 10 7 11 5 12
REMARK SMILES IDX 3 13 22 14 4 15 21 16 20 17 2 18 1 19 23 20 19 22 14 24
REMARK SMILES IDX 11 26
REMARK H PARENT 23 21 19 23 14 25 11 27
REMARK Flexibility Score: inf
ROOT
ATOM      1  C   UNL     1     -36.470  39.259  44.117  1.00  0.00     0.180 A 
ATOM      2  C   UNL     1     -35.663  38.799  45.171  1.00  0.00     0.208 A 
ATOM      3  C   UNL     1     -36.265  38.462  46.394  1.00  0.00     0.238 A 
ATOM      4  O   UNL     1     -35.543  37.999  47.315  1.00  0.00    -0.285 OA
ATOM      5  C   UNL     1     -37.664  38.604  46.553  1.00  0.00     0.111 A 
ATOM      6  C   UNL     1     -38.375  38.331  47.759  1.00  0.00     0.134 A 
ATOM      7  C   UNL     1     -39.775  38.381  47.764  1.00  0.00     0.093 A 
ATOM      8  C   UNL     1     -40.485  38.761  46.621  1.00  0.00     0.123 A 
ATOM      9  C   UNL     1     -39.797  39.087  45.455  1.00  0.00     0.094 A 
ATOM     10  C   UNL     1     -38.403  39.011  45.410  1.00  0.00     0.146 A 
ATOM     11  O   UNL     1     -37.787  39.320  44.275  1.00  0.00    -0.452 OA
ENDROOT
BRANCH   1  12
ATOM     12  C   UNL     1     -35.905  39.657  42.807  1.00  0.00     0.025 A 
ATOM     13  C   UNL     1     -34.817  41.349  41.416  1.00  0.00     0.161 A 
ATOM     14  C   UNL     1     -34.767  40.434  40.355  1.00  0.00     0.157 A 
ATOM     15  C   UNL     1     -35.382  40.951  42.644  1.00  0.00     0.062 A 
ATOM     16  C   UNL     1     -35.269  39.137  40.520  1.00  0.00     0.051 A 
ATOM     17  C   UNL     1     -35.827  38.748  41.739  1.00  0.00     0.016 A 
BRANCH  13  18
ATOM     18  O   UNL     1     -34.297  42.637  41.213  1.00  0.00    -0.493 OA
ATOM     19  C   UNL     1     -35.089  43.809  41.055  1.00  0.00     0.278 C 
ENDBRANCH  13  18
BRANCH  14  20
ATOM     20  O   UNL     1     -34.211  40.821  39.136  1.00  0.00    -0.504 OA
ATOM     21  H   UNL     1     -34.284  40.239  38.310  1.00  0.00     0.293 HD
ENDBRANCH  14  20
ENDBRANCH   1  12
BRANCH   2  22
ATOM     22  O   UNL     1     -34.285  38.645  44.985  1.00  0.00    -0.502 OA
ATOM     23  H   UNL     1     -33.894  38.182  44.174  1.00  0.00     0.293 HD
ENDBRANCH   2  22
BRANCH   6  24
ATOM     24  O   UNL     1     -37.758  38.034  48.978  1.00  0.00    -0.507 OA
ATOM     25  H   UNL     1     -36.854  38.379  49.264  1.00  0.00     0.293 HD
ENDBRANCH   6  24
BRANCH   8  26
ATOM     26  O   UNL     1     -41.877  38.823  46.639  1.00  0.00    -0.508 OA
ATOM     27  H   UNL     1     -42.442  37.998  46.792  1.00  0.00     0.293 HD
ENDBRANCH   8  26
TORSDOF 6
ENDMDL
MODEL 5
REMARK VINA RESULT:    -7.719      0.976      1.946
REMARK INTER + INTRA:          -9.829
REMARK INTER:                  -9.438
REMARK INTRA:                  -0.391
REMARK UNBOUND:                -0.305
REMARK SMILES COc1cc(-c2oc3cc(O)cc(O)c3c(=O)c2O)ccc1O
REMARK SMILES IDX 6 1 18 2 16 3 17 4 15 5 13 6 12 7 10 8 9 9 8 10 7 11 5 12
REMARK SMILES IDX 3 13 22 14 4 15 21 16 20 17 2 18 1 19 23 20 19 22 14 24
REMARK SMILES IDX 11 26
REMARK H PARENT 23 21 19 23 14 25 11 27
REMARK Flexibility Score: inf
ROOT
ATOM      1  C   UNL     1     -36.171  39.006  43.043  1.00  0.00     0.180 A 
ATOM      2  C   UNL     1     -37.098  39.537  42.129  1.00  0.00     0.208 A 
ATOM      3  C   UNL     1     -36.666  40.501  41.204  1.00  0.00     0.238 A 
ATOM      4  O   UNL     1     -37.488  40.932  40.353  1.00  0.00    -0.285 OA
ATOM      5  C   UNL     1     -35.319  40.934  41.214  1.00  0.00     0.111 A 
ATOM      6  C   UNL     1     -34.781  41.934  40.350  1.00  0.00     0.134 A 
ATOM      7  C   UNL     1     -33.404  42.190  40.360  1.00  0.00     0.093 A 
ATOM      8  C   UNL     1     -32.556  41.527  41.251  1.00  0.00     0.123 A 
ATOM      9  C   UNL     1     -33.080  40.593  42.140  1.00  0.00     0.094 A 
ATOM     10  C   UNL     1     -34.444  40.290  42.129  1.00  0.00     0.146 A 
ATOM     11  O   UNL     1     -34.900  39.384  42.985  1.00  0.00    -0.452 OA
ENDROOT
BRANCH   1  12
ATOM     12  C   UNL     1     -36.557  38.005  44.064  1.00  0.00     0.025 A 
ATOM     13  C   UNL     1     -37.528  37.504  46.252  1.00  0.00     0.161 A 
ATOM     14  C   UNL     1     -37.360  36.134  46.005  1.00  0.00     0.157 A 
ATOM     15  C   UNL     1     -37.130  38.436  45.272  1.00  0.00     0.062 A 
ATOM     16  C   UNL     1     -36.809  35.701  44.793  1.00  0.00     0.051 A 
ATOM     17  C   UNL     1     -36.416  36.628  43.826  1.00  0.00     0.016 A 
BRANCH  13  18
ATOM     18  O   UNL     1     -38.091  37.898  47.476  1.00  0.00    -0.493 OA
ATOM     19  C   UNL     1     -39.429  38.357  47.636  1.00  0.00     0.278 C 
ENDBRANCH  13  18
BRANCH  14  20
ATOM     20  O   UNL     1     -37.750  35.207  46.970  1.00  0.00    -0.504 OA
ATOM     21  H   UNL     1     -37.151  34.971  47.752  1.00  0.00     0.293 HD
ENDBRANCH  14  20
ENDBRANCH   1  12
BRANCH   2  22
ATOM     22  O   UNL     1     -38.419  39.080  42.121  1.00  0.00    -0.502 OA
ATOM     23  H   UNL     1     -38.945  38.922  42.973  1.00  0.00     0.293 HD
ENDBRANCH   2  22
BRANCH   6  24
ATOM     24  O   UNL     1     -35.555  42.718  39.488  1.00  0.00    -0.507 OA
ATOM     25  H   UNL     1     -36.481  43.059  39.697  1.00  0.00     0.293 HD
ENDBRANCH   6  24
BRANCH   8  26
ATOM     26  O   UNL     1     -31.189  41.799  41.265  1.00  0.00    -0.508 OA
ATOM     27  H   UNL     1     -30.838  42.743  41.370  1.00  0.00     0.293 HD
ENDBRANCH   8  26
TORSDOF 6
ENDMDL
MODEL 6
REMARK VINA RESULT:    -7.675      0.979      1.172
REMARK INTER + INTRA:          -9.774
REMARK INTER:                  -9.402
REMARK INTRA:                  -0.372
REMARK UNBOUND:                -0.305
REMARK SMILES COc1cc(-c2oc3cc(O)cc(O)c3c(=O)c2O)ccc1O
REMARK SMILES IDX 6 1 18 2 16 3 17 4 15 5 13 6 12 7 10 8 9 9 8 10 7 11 5 12
REMARK SMILES IDX 3 13 22 14 4 15 21 16 20 17 2 18 1 19 23 20 19 22 14 24
REMARK SMILES IDX 11 26
REMARK H PARENT 23 21 19 23 14 25 11 27
REMARK Flexibility Score: inf
ROOT
ATOM      1  C   UNL     1     -36.255  39.045  43.055  1.00  0.00     0.180 A 
ATOM      2  C   UNL     1     -37.145  39.565  42.100  1.00  0.00     0.208 A 
ATOM      3  C   UNL     1     -36.672  40.501  41.167  1.00  0.00     0.238 A 
ATOM      4  O   UNL     1     -37.462  40.921  40.280  1.00  0.00    -0.285 OA
ATOM      5  C   UNL     1     -35.321  40.918  41.209  1.00  0.00     0.111 A 
ATOM      6  C   UNL     1     -34.744  41.891  40.339  1.00  0.00     0.134 A 
ATOM      7  C   UNL     1     -33.365  42.130  40.386  1.00  0.00     0.093 A 
ATOM      8  C   UNL     1     -32.554  41.479  41.320  1.00  0.00     0.123 A 
ATOM      9  C   UNL     1     -33.117  40.572  42.213  1.00  0.00     0.094 A 
ATOM     10  C   UNL     1     -34.483  40.285  42.166  1.00  0.00     0.146 A 
ATOM     11  O   UNL     1     -34.978  39.406  43.029  1.00  0.00    -0.452 OA
ENDROOT
BRANCH   1  12
ATOM     12  C   UNL     1     -36.685  38.073  44.086  1.00  0.00     0.025 A 
ATOM     13  C   UNL     1     -36.704  35.778  44.931  1.00  0.00     0.161 A 
ATOM     14  C   UNL     1     -37.428  36.204  46.053  1.00  0.00     0.157 A 
ATOM     15  C   UNL     1     -36.329  36.720  43.952  1.00  0.00     0.062 A 
ATOM     16  C   UNL     1     -37.767  37.555  46.199  1.00  0.00     0.051 A 
ATOM     17  C   UNL     1     -37.392  38.485  45.228  1.00  0.00     0.016 A 
BRANCH  13  18
ATOM     18  O   UNL     1     -36.378  34.416  44.824  1.00  0.00    -0.493 OA
ATOM     19  C   UNL     1     -35.118  33.860  45.184  1.00  0.00     0.278 C 
ENDBRANCH  13  18
BRANCH  14  20
ATOM     20  O   UNL     1     -37.804  35.277  47.024  1.00  0.00    -0.504 OA
ATOM     21  H   UNL     1     -37.499  35.363  47.986  1.00  0.00     0.293 HD
ENDBRANCH  14  20
ENDBRANCH   1  12
BRANCH   2  22
ATOM     22  O   UNL     1     -38.471  39.123  42.061  1.00  0.00    -0.502 OA
ATOM     23  H   UNL     1     -38.789  38.310  42.576  1.00  0.00     0.293 HD
ENDBRANCH   2  22
BRANCH   6  24
ATOM     24  O   UNL     1     -35.480  42.663  39.435  1.00  0.00    -0.507 OA
ATOM     25  H   UNL     1     -35.699  42.388  38.489  1.00  0.00     0.293 HD
ENDBRANCH   6  24
BRANCH   8  26
ATOM     26  O   UNL     1     -31.184  41.735  41.370  1.00  0.00    -0.508 OA
ATOM     27  H   UNL     1     -30.656  41.960  40.536  1.00  0.00     0.293 HD
ENDBRANCH   8  26
TORSDOF 6
ENDMDL
MODEL 7
REMARK VINA RESULT:    -7.660      2.053      6.971
REMARK INTER + INTRA:          -9.756
REMARK INTER:                  -9.670
REMARK INTRA:                  -0.086
REMARK UNBOUND:                -0.305
REMARK SMILES COc1cc(-c2oc3cc(O)cc(O)c3c(=O)c2O)ccc1O
REMARK SMILES IDX 6 1 18 2 16 3 17 4 15 5 13 6 12 7 10 8 9 9 8 10 7 11 5 12
REMARK SMILES IDX 3 13 22 14 4 15 21 16 20 17 2 18 1 19 23 20 19 22 14 24
REMARK SMILES IDX 11 26
REMARK H PARENT 23 21 19 23 14 25 11 27
REMARK Flexibility Score: inf
ROOT
ATOM      1  C   UNL     1     -37.042  39.406  44.389  1.00  0.00     0.180 A 
ATOM      2  C   UNL     1     -38.283  39.680  43.790  1.00  0.00     0.208 A 
ATOM      3  C   UNL     1     -39.457  39.479  44.534  1.00  0.00     0.238 A 
ATOM      4  O   UNL     1     -40.563  39.778  44.010  1.00  0.00    -0.285 OA
ATOM      5  C   UNL     1     -39.377  38.992  45.860  1.00  0.00     0.111 A 
ATOM      6  C   UNL     1     -40.502  38.713  46.691  1.00  0.00     0.134 A 
ATOM      7  C   UNL     1     -40.302  38.359  48.032  1.00  0.00     0.093 A 
ATOM      8  C   UNL     1     -39.013  38.209  48.550  1.00  0.00     0.123 A 
ATOM      9  C   UNL     1     -37.908  38.421  47.731  1.00  0.00     0.094 A 
ATOM     10  C   UNL     1     -38.076  38.811  46.400  1.00  0.00     0.146 A 
ATOM     11  O   UNL     1     -36.995  39.013  45.656  1.00  0.00    -0.452 OA
ENDROOT
BRANCH   1  12
ATOM     12  C   UNL     1     -35.762  39.570  43.661  1.00  0.00     0.025 A 
ATOM     13  C   UNL     1     -34.237  40.999  42.391  1.00  0.00     0.161 A 
ATOM     14  C   UNL     1     -33.317  39.942  42.321  1.00  0.00     0.157 A 
ATOM     15  C   UNL     1     -35.457  40.808  43.071  1.00  0.00     0.062 A 
ATOM     16  C   UNL     1     -33.610  38.714  42.926  1.00  0.00     0.051 A 
ATOM     17  C   UNL     1     -34.820  38.530  43.598  1.00  0.00     0.016 A 
BRANCH  13  18
ATOM     18  O   UNL     1     -33.903  42.217  41.779  1.00  0.00    -0.493 OA
ATOM     19  C   UNL     1     -34.386  42.637  40.507  1.00  0.00     0.278 C 
ENDBRANCH  13  18
BRANCH  14  20
ATOM     20  O   UNL     1     -32.109  40.124  41.650  1.00  0.00    -0.504 OA
ATOM     21  H   UNL     1     -31.487  40.891  41.875  1.00  0.00     0.293 HD
ENDBRANCH  14  20
ENDBRANCH   1  12
BRANCH   2  22
ATOM     22  O   UNL     1     -38.339  40.181  42.486  1.00  0.00    -0.502 OA
ATOM     23  H   UNL     1     -37.533  40.194  41.873  1.00  0.00     0.293 HD
ENDBRANCH   2  22
BRANCH   6  24
ATOM     24  O   UNL     1     -41.828  38.743  46.246  1.00  0.00    -0.507 OA
ATOM     25  H   UNL     1     -42.558  38.129  46.573  1.00  0.00     0.293 HD
ENDBRANCH   6  24
BRANCH   8  26
ATOM     26  O   UNL     1     -38.822  37.841  49.881  1.00  0.00    -0.508 OA
ATOM     27  H   UNL     1     -37.941  37.999  50.354  1.00  0.00     0.293 HD
ENDBRANCH   8  26
TORSDOF 6
ENDMDL
MODEL 8
REMARK VINA RESULT:    -7.645      1.534      6.993
REMARK INTER + INTRA:          -9.737
REMARK INTER:                  -9.348
REMARK INTRA:                  -0.389
REMARK UNBOUND:                -0.305
REMARK SMILES COc1cc(-c2oc3cc(O)cc(O)c3c(=O)c2O)ccc1O
REMARK SMILES IDX 6 1 18 2 16 3 17 4 15 5 13 6 12 7 10 8 9 9 8 10 7 11 5 12
REMARK SMILES IDX 3 13 22 14 4 15 21 16 20 17 2 18 1 19 23 20 19 22 14 24
REMARK SMILES IDX 11 26
REMARK H PARENT 23 21 19 23 14 25 11 27
REMARK Flexibility Score: inf
ROOT
ATOM      1  C   UNL     1     -36.668  38.741  43.559  1.00  0.00     0.180 A 
ATOM      2  C   UNL     1     -37.492  39.001  44.667  1.00  0.00     0.208 A 
ATOM      3  C   UNL     1     -37.724  37.976  45.599  1.00  0.00     0.238 A 
ATOM      4  O   UNL     1     -38.418  38.233  46.618  1.00  0.00    -0.285 OA
ATOM      5  C   UNL     1     -37.144  36.701  45.403  1.00  0.00     0.111 A 
ATOM      6  C   UNL     1     -37.344  35.578  46.260  1.00  0.00     0.134 A 
ATOM      7  C   UNL     1     -36.615  34.402  46.041  1.00  0.00     0.093 A 
ATOM      8  C   UNL     1     -35.745  34.287  44.954  1.00  0.00     0.123 A 
ATOM      9  C   UNL     1     -35.588  35.356  44.077  1.00  0.00     0.094 A 
ATOM     10  C   UNL     1     -36.272  36.555  44.291  1.00  0.00     0.146 A 
ATOM     11  O   UNL     1     -36.086  37.554  43.436  1.00  0.00    -0.452 OA
ENDROOT
BRANCH   1  12
ATOM     12  C   UNL     1     -36.396  39.762  42.521  1.00  0.00     0.025 A 
ATOM     13  C   UNL     1     -34.893  41.439  41.567  1.00  0.00     0.161 A 
ATOM     14  C   UNL     1     -35.814  41.668  40.536  1.00  0.00     0.157 A 
ATOM     15  C   UNL     1     -35.188  40.477  42.555  1.00  0.00     0.062 A 
ATOM     16  C   UNL     1     -37.010  40.942  40.488  1.00  0.00     0.051 A 
ATOM     17  C   UNL     1     -37.298  39.991  41.468  1.00  0.00     0.016 A 
BRANCH  13  18
ATOM     18  O   UNL     1     -33.701  42.181  41.577  1.00  0.00    -0.493 OA
ATOM     19  C   UNL     1     -32.473  41.740  41.008  1.00  0.00     0.278 C 
ENDBRANCH  13  18
BRANCH  14  20
ATOM     20  O   UNL     1     -35.529  42.618  39.556  1.00  0.00    -0.504 OA
ATOM     21  H   UNL     1     -35.802  42.483  38.590  1.00  0.00     0.293 HD
ENDBRANCH  14  20
ENDBRANCH   1  12
BRANCH   2  22
ATOM     22  O   UNL     1     -38.037  40.275  44.854  1.00  0.00    -0.502 OA
ATOM     23  H   UNL     1     -38.955  40.420  45.255  1.00  0.00     0.293 HD
ENDBRANCH   2  22
BRANCH   6  24
ATOM     24  O   UNL     1     -38.258  35.558  47.318  1.00  0.00    -0.507 OA
ATOM     25  H   UNL     1     -38.007  35.517  48.294  1.00  0.00     0.293 HD
ENDBRANCH   6  24
BRANCH   8  26
ATOM     26  O   UNL     1     -35.036  33.107  44.735  1.00  0.00    -0.508 OA
ATOM     27  H   UNL     1     -34.035  33.111  44.582  1.00  0.00     0.293 HD
ENDBRANCH   8  26
TORSDOF 6
ENDMDL
MODEL 9
REMARK VINA RESULT:    -7.577      2.274      3.316
REMARK INTER + INTRA:          -9.653
REMARK INTER:                  -9.284
REMARK INTRA:                  -0.369
REMARK UNBOUND:                -0.305
REMARK SMILES COc1cc(-c2oc3cc(O)cc(O)c3c(=O)c2O)ccc1O
REMARK SMILES IDX 6 1 18 2 16 3 17 4 15 5 13 6 12 7 10 8 9 9 8 10 7 11 5 12
REMARK SMILES IDX 3 13 22 14 4 15 21 16 20 17 2 18 1 19 23 20 19 22 14 24
REMARK SMILES IDX 11 26
REMARK H PARENT 23 21 19 23 14 25 11 27
REMARK Flexibility Score: inf
ROOT
ATOM      1  C   UNL     1     -34.381  40.959  43.553  1.00  0.00     0.180 A 
ATOM      2  C   UNL     1     -34.661  41.853  42.506  1.00  0.00     0.208 A 
ATOM      3  C   UNL     1     -33.649  42.157  41.581  1.00  0.00     0.238 A 
ATOM      4  O   UNL     1     -33.923  42.916  40.614  1.00  0.00    -0.285 OA
ATOM      5  C   UNL     1     -32.367  41.577  41.724  1.00  0.00     0.111 A 
ATOM      6  C   UNL     1     -31.255  41.845  40.870  1.00  0.00     0.134 A 
ATOM      7  C   UNL     1     -30.071  41.114  41.026  1.00  0.00     0.093 A 
ATOM      8  C   UNL     1     -29.936  40.173  42.050  1.00  0.00     0.123 A 
ATOM      9  C   UNL     1     -30.994  39.947  42.926  1.00  0.00     0.094 A 
ATOM     10  C   UNL     1     -32.201  40.634  42.772  1.00  0.00     0.146 A 
ATOM     11  O   UNL     1     -33.189  40.381  43.623  1.00  0.00    -0.452 OA
ENDROOT
BRANCH   1  12
ATOM     12  C   UNL     1     -35.389  40.609  44.581  1.00  0.00     0.025 A 
ATOM     13  C   UNL     1     -36.965  38.985  45.509  1.00  0.00     0.161 A 
ATOM     14  C   UNL     1     -37.263  39.879  46.547  1.00  0.00     0.157 A 
ATOM     15  C   UNL     1     -36.019  39.354  44.531  1.00  0.00     0.062 A 
ATOM     16  C   UNL     1     -36.622  41.121  46.610  1.00  0.00     0.051 A 
ATOM     17  C   UNL     1     -35.686  41.482  45.639  1.00  0.00     0.016 A 
BRANCH  13  18
ATOM     18  O   UNL     1     -37.624  37.746  45.483  1.00  0.00    -0.493 OA
ATOM     19  C   UNL     1     -37.077  36.532  45.987  1.00  0.00     0.278 C 
ENDBRANCH  13  18
BRANCH  14  20
ATOM     20  O   UNL     1     -38.199  39.521  47.517  1.00  0.00    -0.504 OA
ATOM     21  H   UNL     1     -38.866  38.775  47.360  1.00  0.00     0.293 HD
ENDBRANCH  14  20
ENDBRANCH   1  12
BRANCH   2  22
ATOM     22  O   UNL     1     -35.942  42.398  42.370  1.00  0.00    -0.502 OA
ATOM     23  H   UNL     1     -36.369  42.564  41.467  1.00  0.00     0.293 HD
ENDBRANCH   2  22
BRANCH   6  24
ATOM     24  O   UNL     1     -31.254  42.829  39.876  1.00  0.00    -0.507 OA
ATOM     25  H   UNL     1     -30.662  42.821  39.060  1.00  0.00     0.293 HD
ENDBRANCH   6  24
BRANCH   8  26
ATOM     26  O   UNL     1     -28.748  39.461  42.208  1.00  0.00    -0.508 OA
ATOM     27  H   UNL     1     -27.877  39.791  41.812  1.00  0.00     0.293 HD
ENDBRANCH   8  26
TORSDOF 6
ENDMDL
