MODEL 1
REMARK VINA RESULT:    -6.679      0.000      0.000
REMARK INTER + INTRA:         -10.082
REMARK INTER:                  -9.022
REMARK INTRA:                  -1.060
REMARK UNBOUND:                -1.060
REMARK SMILES O=c1c(-c2ccc(O)cc2)coc2c([C@@H]3O[C@@H](CO)[C@H](O)[C@@H](O)[C@@H]3O)c(O)ccc12
REMARK SMILES IDX 3 1 11 2 12 3 13 4 30 5 2 6 1 7 29 8 28 9 26 10 14 11 4 12
REMARK SMILES IDX 5 13 6 14 7 15 10 16 9 17 8 18 15 20 24 21 16 22 22 23 17 24
REMARK SMILES IDX 20 25 25 26 23 28 18 30 19 31 21 33 27 35
REMARK H PARENT 8 19 25 27 23 29 19 32 21 34 27 36
REMARK Flexibility Score: inf
ROOT
ATOM      1  C   UNL     1     124.496 132.900 111.395  1.00  0.00     0.065 A 
ATOM      2  C   UNL     1     124.872 134.185 110.982  1.00  0.00     0.208 A 
ATOM      3  O   UNL     1     126.146 134.489 110.770  1.00  0.00    -0.463 OA
ATOM      4  C   UNL     1     127.139 133.617 110.927  1.00  0.00     0.147 A 
ATOM      5  C   UNL     1     126.850 132.295 111.344  1.00  0.00     0.066 A 
ATOM      6  C   UNL     1     125.508 131.938 111.570  1.00  0.00     0.200 A 
ATOM      7  O   UNL     1     125.212 130.759 111.908  1.00  0.00    -0.288 OA
ATOM      8  C   UNL     1     127.898 131.381 111.522  1.00  0.00     0.020 A 
ATOM      9  C   UNL     1     129.217 131.774 111.309  1.00  0.00     0.047 A 
ATOM     10  C   UNL     1     129.517 133.080 110.904  1.00  0.00     0.125 A 
ATOM     11  C   UNL     1     128.475 134.013 110.681  1.00  0.00     0.069 A 
ENDROOT
BRANCH   1  12
ATOM     12  C   UNL     1     123.065 132.586 111.632  1.00  0.00    -0.011 A 
ATOM     13  C   UNL     1     122.545 132.597 112.939  1.00  0.00     0.013 A 
ATOM     14  C   UNL     1     121.199 132.292 113.167  1.00  0.00     0.047 A 
ATOM     15  C   UNL     1     120.359 131.968 112.099  1.00  0.00     0.115 A 
ATOM     16  C   UNL     1     122.216 132.252 110.563  1.00  0.00     0.013 A 
ATOM     17  C   UNL     1     120.872 131.947 110.794  1.00  0.00     0.047 A 
BRANCH  15  18
ATOM     18  O   UNL     1     119.021 131.667 112.341  1.00  0.00    -0.508 OA
ATOM     19  H   UNL     1     118.358 131.556 111.584  1.00  0.00     0.293 HD
ENDBRANCH  15  18
ENDBRANCH   1  12
BRANCH  11  20
ATOM     20  C   UNL     1     128.771 135.448 110.258  1.00  0.00     0.188 C 
ATOM     21  C   UNL     1     128.825 136.374 111.493  1.00  0.00     0.179 C 
ATOM     22  O   UNL     1     129.979 135.503 109.516  1.00  0.00    -0.362 OA
ATOM     23  C   UNL     1     129.082 137.822 111.044  1.00  0.00     0.177 C 
ATOM     24  C   UNL     1     130.250 136.798 108.994  1.00  0.00     0.176 C 
ATOM     25  C   UNL     1     130.293 137.895 110.096  1.00  0.00     0.177 C 
BRANCH  21  26
ATOM     26  O   UNL     1     129.847 135.973 112.370  1.00  0.00    -0.387 OA
ATOM     27  H   UNL     1     130.121 136.774 112.888  1.00  0.00     0.211 HD
ENDBRANCH  21  26
BRANCH  23  28
ATOM     28  O   UNL     1     127.946 138.347 110.406  1.00  0.00    -0.387 OA
ATOM     29  H   UNL     1     127.153 137.959 110.859  1.00  0.00     0.211 HD
ENDBRANCH  23  28
BRANCH  24  30
ATOM     30  C   UNL     1     129.343 137.148 107.795  1.00  0.00     0.191 C 
BRANCH  30  31
ATOM     31  O   UNL     1     129.342 138.533 107.587  1.00  0.00    -0.394 OA
ATOM     32  H   UNL     1     129.401 138.665 106.605  1.00  0.00     0.210 HD
ENDBRANCH  30  31
ENDBRANCH  24  30
BRANCH  25  33
ATOM     33  O   UNL     1     131.469 137.750 110.853  1.00  0.00    -0.388 OA
ATOM     34  H   UNL     1     131.436 136.850 111.270  1.00  0.00     0.211 HD
ENDBRANCH  25  33
ENDBRANCH  11  20
BRANCH  10  35
ATOM     35  O   UNL     1     130.852 133.450 110.732  1.00  0.00    -0.507 OA
ATOM     36  H   UNL     1     131.199 133.796 109.847  1.00  0.00     0.293 HD
ENDBRANCH  10  35
TORSDOF 9
ENDMDL
MODEL 2
REMARK VINA RESULT:    -5.929     11.758     15.089
REMARK INTER + INTRA:          -9.068
REMARK INTER:                  -7.904
REMARK INTRA:                  -1.164
REMARK UNBOUND:                -1.060
REMARK SMILES O=c1c(-c2ccc(O)cc2)coc2c([C@@H]3O[C@@H](CO)[C@H](O)[C@@H](O)[C@@H]3O)c(O)ccc12
REMARK SMILES IDX 3 1 11 2 12 3 13 4 30 5 2 6 1 7 29 8 28 9 26 10 14 11 4 12
REMARK SMILES IDX 5 13 6 14 7 15 10 16 9 17 8 18 15 20 24 21 16 22 22 23 17 24
REMARK SMILES IDX 20 25 25 26 23 28 18 30 19 31 21 33 27 35
REMARK H PARENT 8 19 25 27 23 29 19 32 21 34 27 36
REMARK Flexibility Score: inf
ROOT
ATOM      1  C   UNL     1     134.659 124.586 110.115  1.00  0.00     0.065 A 
ATOM      2  C   UNL     1     133.860 123.999 111.105  1.00  0.00     0.208 A 
ATOM      3  O   UNL     1     132.814 123.248 110.782  1.00  0.00    -0.463 OA
ATOM      4  C   UNL     1     132.456 123.001 109.524  1.00  0.00     0.147 A 
ATOM      5  C   UNL     1     133.207 123.556 108.461  1.00  0.00     0.066 A 
ATOM      6  C   UNL     1     134.327 124.350 108.768  1.00  0.00     0.200 A 
ATOM      7  O   UNL     1     135.039 124.831 107.844  1.00  0.00    -0.288 OA
ATOM      8  C   UNL     1     132.821 123.305 107.136  1.00  0.00     0.020 A 
ATOM      9  C   UNL     1     131.695 122.531 106.867  1.00  0.00     0.047 A 
ATOM     10  C   UNL     1     130.939 121.982 107.911  1.00  0.00     0.125 A 
ATOM     11  C   UNL     1     131.329 122.190 109.256  1.00  0.00     0.069 A 
ENDROOT
BRANCH   1  12
ATOM     12  C   UNL     1     135.820 125.428 110.502  1.00  0.00    -0.011 A 
ATOM     13  C   UNL     1     137.118 124.885 110.504  1.00  0.00     0.013 A 
ATOM     14  C   UNL     1     138.212 125.672 110.876  1.00  0.00     0.047 A 
ATOM     15  C   UNL     1     138.025 127.005 111.256  1.00  0.00     0.115 A 
ATOM     16  C   UNL     1     135.638 126.766 110.891  1.00  0.00     0.013 A 
ATOM     17  C   UNL     1     136.734 127.550 111.264  1.00  0.00     0.047 A 
BRANCH  15  18
ATOM     18  O   UNL     1     139.124 127.777 111.624  1.00  0.00    -0.508 OA
ATOM     19  H   UNL     1     139.845 127.416 112.237  1.00  0.00     0.293 HD
ENDBRANCH  15  18
ENDBRANCH   1  12
BRANCH  11  20
ATOM     20  C   UNL     1     130.515 121.621 110.414  1.00  0.00     0.188 C 
ATOM     21  C   UNL     1     129.317 122.542 110.735  1.00  0.00     0.179 C 
ATOM     22  O   UNL     1     130.089 120.301 110.115  1.00  0.00    -0.362 OA
ATOM     23  C   UNL     1     128.534 121.976 111.930  1.00  0.00     0.177 C 
ATOM     24  C   UNL     1     129.423 119.675 111.205  1.00  0.00     0.176 C 
ATOM     25  C   UNL     1     128.198 120.488 111.712  1.00  0.00     0.177 C 
BRANCH  21  26
ATOM     26  O   UNL     1     128.460 122.645 109.626  1.00  0.00    -0.387 OA
ATOM     27  H   UNL     1     128.179 121.724 109.385  1.00  0.00     0.211 HD
ENDBRANCH  21  26
BRANCH  23  28
ATOM     28  O   UNL     1     129.272 122.128 113.116  1.00  0.00    -0.387 OA
ATOM     29  H   UNL     1     130.231 122.067 112.871  1.00  0.00     0.211 HD
ENDBRANCH  23  28
BRANCH  24  30
ATOM     30  C   UNL     1     130.399 119.247 112.320  1.00  0.00     0.191 C 
BRANCH  30  31
ATOM     31  O   UNL     1     129.741 119.251 113.556  1.00  0.00    -0.394 OA
ATOM     32  H   UNL     1     129.649 120.205 113.818  1.00  0.00     0.210 HD
ENDBRANCH  30  31
ENDBRANCH  24  30
BRANCH  25  33
ATOM     33  O   UNL     1     127.154 120.393 110.776  1.00  0.00    -0.388 OA
ATOM     34  H   UNL     1     126.684 119.536 110.951  1.00  0.00     0.211 HD
ENDBRANCH  25  33
ENDBRANCH  11  20
BRANCH  10  35
ATOM     35  O   UNL     1     129.798 121.239 107.606  1.00  0.00    -0.507 OA
ATOM     36  H   UNL     1     128.867 121.596 107.783  1.00  0.00     0.293 HD
ENDBRANCH  10  35
TORSDOF 9
ENDMDL
MODEL 3
REMARK VINA RESULT:    -5.895      4.816      8.117
REMARK INTER + INTRA:          -9.023
REMARK INTER:                  -7.890
REMARK INTRA:                  -1.132
REMARK UNBOUND:                -1.060
REMARK SMILES O=c1c(-c2ccc(O)cc2)coc2c([C@@H]3O[C@@H](CO)[C@H](O)[C@@H](O)[C@@H]3O)c(O)ccc12
REMARK SMILES IDX 3 1 11 2 12 3 13 4 30 5 2 6 1 7 29 8 28 9 26 10 14 11 4 12
REMARK SMILES IDX 5 13 6 14 7 15 10 16 9 17 8 18 15 20 24 21 16 22 22 23 17 24
REMARK SMILES IDX 20 25 25 26 23 28 18 30 19 31 21 33 27 35
REMARK H PARENT 8 19 25 27 23 29 19 32 21 34 27 36
REMARK Flexibility Score: inf
ROOT
ATOM      1  C   UNL     1     126.383 130.510 111.622  1.00  0.00     0.065 A 
ATOM      2  C   UNL     1     125.951 130.840 110.331  1.00  0.00     0.208 A 
ATOM      3  O   UNL     1     124.768 131.408 110.132  1.00  0.00    -0.463 OA
ATOM      4  C   UNL     1     123.924 131.700 111.119  1.00  0.00     0.147 A 
ATOM      5  C   UNL     1     124.279 131.399 112.455  1.00  0.00     0.066 A 
ATOM      6  C   UNL     1     125.530 130.804 112.703  1.00  0.00     0.200 A 
ATOM      7  O   UNL     1     125.893 130.555 113.885  1.00  0.00    -0.288 OA
ATOM      8  C   UNL     1     123.384 131.696 113.494  1.00  0.00     0.020 A 
ATOM      9  C   UNL     1     122.145 132.266 113.211  1.00  0.00     0.047 A 
ATOM     10  C   UNL     1     121.779 132.562 111.892  1.00  0.00     0.125 A 
ATOM     11  C   UNL     1     122.679 132.306 110.830  1.00  0.00     0.069 A 
ENDROOT
BRANCH   1  12
ATOM     12  C   UNL     1     127.708 129.870 111.820  1.00  0.00    -0.011 A 
ATOM     13  C   UNL     1     127.895 128.514 111.493  1.00  0.00     0.013 A 
ATOM     14  C   UNL     1     129.139 127.906 111.687  1.00  0.00     0.047 A 
ATOM     15  C   UNL     1     130.207 128.637 112.213  1.00  0.00     0.115 A 
ATOM     16  C   UNL     1     128.784 130.598 112.356  1.00  0.00     0.013 A 
ATOM     17  C   UNL     1     130.026 129.986 112.549  1.00  0.00     0.047 A 
BRANCH  15  18
ATOM     18  O   UNL     1     131.440 128.018 112.400  1.00  0.00    -0.508 OA
ATOM     19  H   UNL     1     131.624 127.434 113.207  1.00  0.00     0.293 HD
ENDBRANCH  15  18
ENDBRANCH   1  12
BRANCH  11  20
ATOM     20  C   UNL     1     122.301 132.601 109.381  1.00  0.00     0.188 C 
ATOM     21  C   UNL     1     121.478 131.435 108.792  1.00  0.00     0.179 C 
ATOM     22  O   UNL     1     121.594 133.829 109.297  1.00  0.00    -0.362 OA
ATOM     23  C   UNL     1     121.142 131.729 107.321  1.00  0.00     0.177 C 
ATOM     24  C   UNL     1     121.315 134.214 107.956  1.00  0.00     0.176 C 
ATOM     25  C   UNL     1     120.524 133.132 107.169  1.00  0.00     0.177 C 
BRANCH  21  26
ATOM     26  O   UNL     1     120.284 131.255 109.512  1.00  0.00    -0.387 OA
ATOM     27  H   UNL     1     119.540 131.561 108.930  1.00  0.00     0.211 HD
ENDBRANCH  21  26
BRANCH  23  28
ATOM     28  O   UNL     1     122.296 131.629 106.525  1.00  0.00    -0.387 OA
ATOM     29  H   UNL     1     122.670 132.544 106.440  1.00  0.00     0.211 HD
ENDBRANCH  23  28
BRANCH  24  30
ATOM     30  C   UNL     1     122.570 134.734 107.223  1.00  0.00     0.191 C 
BRANCH  30  31
ATOM     31  O   UNL     1     122.412 134.576 105.840  1.00  0.00    -0.394 OA
ATOM     32  H   UNL     1     123.181 134.027 105.535  1.00  0.00     0.210 HD
ENDBRANCH  30  31
ENDBRANCH  24  30
BRANCH  25  33
ATOM     33  O   UNL     1     119.197 133.093 107.632  1.00  0.00    -0.388 OA
ATOM     34  H   UNL     1     118.651 132.681 106.913  1.00  0.00     0.211 HD
ENDBRANCH  25  33
ENDBRANCH  11  20
BRANCH  10  35
ATOM     35  O   UNL     1     120.517 133.102 111.642  1.00  0.00    -0.507 OA
ATOM     36  H   UNL     1     120.400 133.977 111.147  1.00  0.00     0.293 HD
ENDBRANCH  10  35
TORSDOF 9
ENDMDL
MODEL 4
REMARK VINA RESULT:    -5.799      4.638      7.598
REMARK INTER + INTRA:          -8.893
REMARK INTER:                  -7.925
REMARK INTRA:                  -0.968
REMARK UNBOUND:                -1.060
REMARK SMILES O=c1c(-c2ccc(O)cc2)coc2c([C@@H]3O[C@@H](CO)[C@H](O)[C@@H](O)[C@@H]3O)c(O)ccc12
REMARK SMILES IDX 3 1 11 2 12 3 13 4 30 5 2 6 1 7 29 8 28 9 26 10 14 11 4 12
REMARK SMILES IDX 5 13 6 14 7 15 10 16 9 17 8 18 15 20 24 21 16 22 22 23 17 24
REMARK SMILES IDX 20 25 25 26 23 28 18 30 19 31 21 33 27 35
REMARK H PARENT 8 19 25 27 23 29 19 32 21 34 27 36
REMARK Flexibility Score: inf
ROOT
ATOM      1  C   UNL     1     127.615 129.729 112.902  1.00  0.00     0.065 A 
ATOM      2  C   UNL     1     126.595 130.688 112.944  1.00  0.00     0.208 A 
ATOM      3  O   UNL     1     125.819 130.906 111.890  1.00  0.00    -0.463 OA
ATOM      4  C   UNL     1     125.947 130.245 110.742  1.00  0.00     0.147 A 
ATOM      5  C   UNL     1     126.954 129.260 110.610  1.00  0.00     0.066 A 
ATOM      6  C   UNL     1     127.789 128.998 111.712  1.00  0.00     0.200 A 
ATOM      7  O   UNL     1     128.674 128.101 111.641  1.00  0.00    -0.288 OA
ATOM      8  C   UNL     1     127.097 128.573 109.396  1.00  0.00     0.020 A 
ATOM      9  C   UNL     1     126.266 128.872 108.319  1.00  0.00     0.047 A 
ATOM     10  C   UNL     1     125.271 129.850 108.433  1.00  0.00     0.125 A 
ATOM     11  C   UNL     1     125.082 130.532 109.660  1.00  0.00     0.069 A 
ENDROOT
BRANCH   1  12
ATOM     12  C   UNL     1     128.475 129.508 114.092  1.00  0.00    -0.011 A 
ATOM     13  C   UNL     1     127.897 129.171 115.330  1.00  0.00     0.013 A 
ATOM     14  C   UNL     1     128.703 128.971 116.455  1.00  0.00     0.047 A 
ATOM     15  C   UNL     1     130.090 129.109 116.362  1.00  0.00     0.115 A 
ATOM     16  C   UNL     1     129.870 129.652 114.007  1.00  0.00     0.013 A 
ATOM     17  C   UNL     1     130.673 129.453 115.134  1.00  0.00     0.047 A 
BRANCH  15  18
ATOM     18  O   UNL     1     130.881 128.907 117.490  1.00  0.00    -0.508 OA
ATOM     19  H   UNL     1     131.684 129.492 117.687  1.00  0.00     0.293 HD
ENDBRANCH  15  18
ENDBRANCH   1  12
BRANCH  11  20
ATOM     20  C   UNL     1     124.019 131.616 109.809  1.00  0.00     0.188 C 
ATOM     21  C   UNL     1     124.545 132.965 109.274  1.00  0.00     0.179 C 
ATOM     22  O   UNL     1     122.823 131.227 109.151  1.00  0.00    -0.362 OA
ATOM     23  C   UNL     1     123.478 134.053 109.471  1.00  0.00     0.177 C 
ATOM     24  C   UNL     1     121.757 132.146 109.353  1.00  0.00     0.176 C 
ATOM     25  C   UNL     1     122.117 133.594 108.915  1.00  0.00     0.177 C 
BRANCH  21  26
ATOM     26  O   UNL     1     124.860 132.868 107.907  1.00  0.00    -0.387 OA
ATOM     27  H   UNL     1     124.620 131.950 107.614  1.00  0.00     0.211 HD
ENDBRANCH  21  26
BRANCH  23  28
ATOM     28  O   UNL     1     123.351 134.374 110.833  1.00  0.00    -0.387 OA
ATOM     29  H   UNL     1     123.228 133.520 111.323  1.00  0.00     0.211 HD
ENDBRANCH  23  28
BRANCH  24  30
ATOM     30  C   UNL     1     121.161 132.049 110.773  1.00  0.00     0.191 C 
BRANCH  30  31
ATOM     31  O   UNL     1     120.547 133.260 111.115  1.00  0.00    -0.394 OA
ATOM     32  H   UNL     1     119.838 133.412 110.436  1.00  0.00     0.210 HD
ENDBRANCH  30  31
ENDBRANCH  24  30
BRANCH  25  33
ATOM     33  O   UNL     1     122.157 133.661 107.511  1.00  0.00    -0.388 OA
ATOM     34  H   UNL     1     121.586 134.427 107.240  1.00  0.00     0.211 HD
ENDBRANCH  25  33
ENDBRANCH  11  20
BRANCH  10  35
ATOM     35  O   UNL     1     124.479 130.148 107.324  1.00  0.00    -0.507 OA
ATOM     36  H   UNL     1     124.790 130.787 106.602  1.00  0.00     0.293 HD
ENDBRANCH  10  35
TORSDOF 9
ENDMDL
MODEL 5
REMARK VINA RESULT:    -5.489      9.861     12.251
REMARK INTER + INTRA:          -8.474
REMARK INTER:                  -7.324
REMARK INTRA:                  -1.150
REMARK UNBOUND:                -1.060
REMARK SMILES O=c1c(-c2ccc(O)cc2)coc2c([C@@H]3O[C@@H](CO)[C@H](O)[C@@H](O)[C@@H]3O)c(O)ccc12
REMARK SMILES IDX 3 1 11 2 12 3 13 4 30 5 2 6 1 7 29 8 28 9 26 10 14 11 4 12
REMARK SMILES IDX 5 13 6 14 7 15 10 16 9 17 8 18 15 20 24 21 16 22 22 23 17 24
REMARK SMILES IDX 20 25 25 26 23 28 18 30 19 31 21 33 27 35
REMARK H PARENT 8 19 25 27 23 29 19 32 21 34 27 36
REMARK Flexibility Score: inf
ROOT
ATOM      1  C   UNL     1     131.451 123.626 110.480  1.00  0.00     0.065 A 
ATOM      2  C   UNL     1     132.797 123.448 110.823  1.00  0.00     0.208 A 
ATOM      3  O   UNL     1     133.700 124.382 110.552  1.00  0.00    -0.463 OA
ATOM      4  C   UNL     1     133.402 125.530 109.949  1.00  0.00     0.147 A 
ATOM      5  C   UNL     1     132.065 125.793 109.566  1.00  0.00     0.066 A 
ATOM      6  C   UNL     1     131.081 124.827 109.846  1.00  0.00     0.200 A 
ATOM      7  O   UNL     1     129.874 125.044 109.549  1.00  0.00    -0.288 OA
ATOM      8  C   UNL     1     131.754 126.998 108.919  1.00  0.00     0.020 A 
ATOM      9  C   UNL     1     132.757 127.923 108.639  1.00  0.00     0.047 A 
ATOM     10  C   UNL     1     134.085 127.672 109.007  1.00  0.00     0.125 A 
ATOM     11  C   UNL     1     134.419 126.480 109.693  1.00  0.00     0.069 A 
ENDROOT
BRANCH   1  12
ATOM     12  C   UNL     1     130.460 122.564 110.788  1.00  0.00    -0.011 A 
ATOM     13  C   UNL     1     129.718 122.613 111.982  1.00  0.00     0.013 A 
ATOM     14  C   UNL     1     128.791 121.609 112.280  1.00  0.00     0.047 A 
ATOM     15  C   UNL     1     128.596 120.545 111.395  1.00  0.00     0.115 A 
ATOM     16  C   UNL     1     130.264 121.487 109.906  1.00  0.00     0.013 A 
ATOM     17  C   UNL     1     129.337 120.485 110.207  1.00  0.00     0.047 A 
BRANCH  15  18
ATOM     18  O   UNL     1     127.669 119.553 111.704  1.00  0.00    -0.508 OA
ATOM     19  H   UNL     1     127.448 119.314 112.663  1.00  0.00     0.293 HD
ENDBRANCH  15  18
ENDBRANCH   1  12
BRANCH  11  20
ATOM     20  C   UNL     1     135.859 126.170 110.090  1.00  0.00     0.188 C 
ATOM     21  C   UNL     1     136.631 125.573 108.894  1.00  0.00     0.179 C 
ATOM     22  O   UNL     1     136.495 127.337 110.587  1.00  0.00    -0.362 OA
ATOM     23  C   UNL     1     138.066 125.228 109.323  1.00  0.00     0.177 C 
ATOM     24  C   UNL     1     137.804 127.085 111.082  1.00  0.00     0.176 C 
ATOM     25  C   UNL     1     138.733 126.427 110.022  1.00  0.00     0.177 C 
BRANCH  21  26
ATOM     26  O   UNL     1     136.674 126.485 107.825  1.00  0.00    -0.387 OA
ATOM     27  H   UNL     1     135.741 126.619 107.515  1.00  0.00     0.211 HD
ENDBRANCH  21  26
BRANCH  23  28
ATOM     28  O   UNL     1     138.067 124.116 110.182  1.00  0.00    -0.387 OA
ATOM     29  H   UNL     1     138.222 123.314 109.619  1.00  0.00     0.211 HD
ENDBRANCH  23  28
BRANCH  24  30
ATOM     30  C   UNL     1     137.787 126.357 112.442  1.00  0.00     0.191 C 
BRANCH  30  31
ATOM     31  O   UNL     1     139.056 125.833 112.718  1.00  0.00    -0.394 OA
ATOM     32  H   UNL     1     139.366 126.282 113.548  1.00  0.00     0.210 HD
ENDBRANCH  30  31
ENDBRANCH  24  30
BRANCH  25  33
ATOM     33  O   UNL     1     139.081 127.381 109.050  1.00  0.00    -0.388 OA
ATOM     34  H   UNL     1     139.584 126.902 108.340  1.00  0.00     0.211 HD
ENDBRANCH  25  33
ENDBRANCH  11  20
BRANCH  10  35
ATOM     35  O   UNL     1     135.069 128.606 108.680  1.00  0.00    -0.507 OA
ATOM     36  H   UNL     1     135.737 128.937 109.365  1.00  0.00     0.293 HD
ENDBRANCH  10  35
TORSDOF 9
ENDMDL
MODEL 6
REMARK VINA RESULT:    -5.373      4.133      8.251
REMARK INTER + INTRA:          -8.318
REMARK INTER:                  -7.413
REMARK INTRA:                  -0.905
REMARK UNBOUND:                -1.060
REMARK SMILES O=c1c(-c2ccc(O)cc2)coc2c([C@@H]3O[C@@H](CO)[C@H](O)[C@@H](O)[C@@H]3O)c(O)ccc12
REMARK SMILES IDX 3 1 11 2 12 3 13 4 30 5 2 6 1 7 29 8 28 9 26 10 14 11 4 12
REMARK SMILES IDX 5 13 6 14 7 15 10 16 9 17 8 18 15 20 24 21 16 22 22 23 17 24
REMARK SMILES IDX 20 25 25 26 23 28 18 30 19 31 21 33 27 35
REMARK H PARENT 8 19 25 27 23 29 19 32 21 34 27 36
REMARK Flexibility Score: inf
ROOT
ATOM      1  C   UNL     1     128.670 127.937 110.778  1.00  0.00     0.065 A 
ATOM      2  C   UNL     1     128.127 128.891 111.649  1.00  0.00     0.208 A 
ATOM      3  O   UNL     1     127.085 129.630 111.288  1.00  0.00    -0.463 OA
ATOM      4  C   UNL     1     126.492 129.522 110.102  1.00  0.00     0.147 A 
ATOM      5  C   UNL     1     126.977 128.585 109.159  1.00  0.00     0.066 A 
ATOM      6  C   UNL     1     128.075 127.779 109.513  1.00  0.00     0.200 A 
ATOM      7  O   UNL     1     128.511 126.909 108.710  1.00  0.00    -0.288 OA
ATOM      8  C   UNL     1     126.359 128.481 107.904  1.00  0.00     0.020 A 
ATOM      9  C   UNL     1     125.287 129.309 107.580  1.00  0.00     0.047 A 
ATOM     10  C   UNL     1     124.802 130.245 108.501  1.00  0.00     0.125 A 
ATOM     11  C   UNL     1     125.384 130.344 109.787  1.00  0.00     0.069 A 
ENDROOT
BRANCH   1  12
ATOM     12  C   UNL     1     129.840 127.126 111.202  1.00  0.00    -0.011 A 
ATOM     13  C   UNL     1     131.056 127.755 111.529  1.00  0.00     0.013 A 
ATOM     14  C   UNL     1     132.162 126.994 111.919  1.00  0.00     0.047 A 
ATOM     15  C   UNL     1     132.071 125.600 111.983  1.00  0.00     0.115 A 
ATOM     16  C   UNL     1     129.758 125.725 111.261  1.00  0.00     0.013 A 
ATOM     17  C   UNL     1     130.866 124.967 111.651  1.00  0.00     0.047 A 
BRANCH  15  18
ATOM     18  O   UNL     1     133.181 124.855 112.374  1.00  0.00    -0.508 OA
ATOM     19  H   UNL     1     133.968 125.284 112.846  1.00  0.00     0.293 HD
ENDBRANCH  15  18
ENDBRANCH   1  12
BRANCH  11  20
ATOM     20  C   UNL     1     124.891 131.368 110.805  1.00  0.00     0.188 C 
ATOM     21  C   UNL     1     125.700 132.677 110.689  1.00  0.00     0.179 C 
ATOM     22  O   UNL     1     123.501 131.600 110.635  1.00  0.00    -0.362 OA
ATOM     23  C   UNL     1     125.218 133.681 111.748  1.00  0.00     0.177 C 
ATOM     24  C   UNL     1     122.958 132.460 111.630  1.00  0.00     0.176 C 
ATOM     25  C   UNL     1     123.686 133.832 111.704  1.00  0.00     0.177 C 
BRANCH  21  26
ATOM     26  O   UNL     1     125.547 133.244 109.411  1.00  0.00    -0.387 OA
ATOM     27  H   UNL     1     125.849 134.188 109.470  1.00  0.00     0.211 HD
ENDBRANCH  21  26
BRANCH  23  28
ATOM     28  O   UNL     1     125.619 133.270 113.031  1.00  0.00    -0.387 OA
ATOM     29  H   UNL     1     125.891 132.319 112.959  1.00  0.00     0.211 HD
ENDBRANCH  23  28
BRANCH  24  30
ATOM     30  C   UNL     1     122.807 131.754 112.994  1.00  0.00     0.191 C 
BRANCH  30  31
ATOM     31  O   UNL     1     122.661 132.707 114.010  1.00  0.00    -0.394 OA
ATOM     32  H   UNL     1     122.980 132.274 114.844  1.00  0.00     0.210 HD
ENDBRANCH  30  31
ENDBRANCH  24  30
BRANCH  25  33
ATOM     33  O   UNL     1     123.340 134.605 110.582  1.00  0.00    -0.388 OA
ATOM     34  H   UNL     1     124.099 135.221 110.409  1.00  0.00     0.211 HD
ENDBRANCH  25  33
ENDBRANCH  11  20
BRANCH  10  35
ATOM     35  O   UNL     1     123.748 131.081 108.130  1.00  0.00    -0.507 OA
ATOM     36  H   UNL     1     122.914 130.721 107.683  1.00  0.00     0.293 HD
ENDBRANCH  10  35
TORSDOF 9
ENDMDL
MODEL 7
REMARK VINA RESULT:    -5.363      2.243      4.108
REMARK INTER + INTRA:          -8.305
REMARK INTER:                  -7.295
REMARK INTRA:                  -1.009
REMARK UNBOUND:                -1.060
REMARK SMILES O=c1c(-c2ccc(O)cc2)coc2c([C@@H]3O[C@@H](CO)[C@H](O)[C@@H](O)[C@@H]3O)c(O)ccc12
REMARK SMILES IDX 3 1 11 2 12 3 13 4 30 5 2 6 1 7 29 8 28 9 26 10 14 11 4 12
REMARK SMILES IDX 5 13 6 14 7 15 10 16 9 17 8 18 15 20 24 21 16 22 22 23 17 24
REMARK SMILES IDX 20 25 25 26 23 28 18 30 19 31 21 33 27 35
REMARK H PARENT 8 19 25 27 23 29 19 32 21 34 27 36
REMARK Flexibility Score: inf
ROOT
ATOM      1  C   UNL     1     124.736 133.820 110.747  1.00  0.00     0.065 A 
ATOM      2  C   UNL     1     125.729 133.051 110.126  1.00  0.00     0.208 A 
ATOM      3  O   UNL     1     126.866 133.604 109.721  1.00  0.00    -0.463 OA
ATOM      4  C   UNL     1     127.141 134.897 109.871  1.00  0.00     0.147 A 
ATOM      5  C   UNL     1     126.193 135.748 110.486  1.00  0.00     0.066 A 
ATOM      6  C   UNL     1     124.980 135.193 110.935  1.00  0.00     0.200 A 
ATOM      7  O   UNL     1     124.127 135.916 111.519  1.00  0.00    -0.288 OA
ATOM      8  C   UNL     1     126.479 137.113 110.632  1.00  0.00     0.020 A 
ATOM      9  C   UNL     1     127.681 137.633 110.158  1.00  0.00     0.047 A 
ATOM     10  C   UNL     1     128.625 136.803 109.541  1.00  0.00     0.125 A 
ATOM     11  C   UNL     1     128.376 135.415 109.414  1.00  0.00     0.069 A 
ENDROOT
BRANCH   1  12
ATOM     12  C   UNL     1     123.469 133.181 111.186  1.00  0.00    -0.011 A 
ATOM     13  C   UNL     1     122.345 133.183 110.341  1.00  0.00     0.013 A 
ATOM     14  C   UNL     1     121.148 132.590 110.755  1.00  0.00     0.047 A 
ATOM     15  C   UNL     1     121.056 131.995 112.016  1.00  0.00     0.115 A 
ATOM     16  C   UNL     1     123.368 132.586 112.455  1.00  0.00     0.013 A 
ATOM     17  C   UNL     1     122.170 131.995 112.867  1.00  0.00     0.047 A 
BRANCH  15  18
ATOM     18  O   UNL     1     119.858 131.408 112.415  1.00  0.00    -0.508 OA
ATOM     19  H   UNL     1     118.964 131.757 112.094  1.00  0.00     0.293 HD
ENDBRANCH  15  18
ENDBRANCH   1  12
BRANCH  11  20
ATOM     20  C   UNL     1     129.377 134.489 108.730  1.00  0.00     0.188 C 
ATOM     21  C   UNL     1     129.197 134.540 107.197  1.00  0.00     0.179 C 
ATOM     22  O   UNL     1     130.702 134.830 109.108  1.00  0.00    -0.362 OA
ATOM     23  C   UNL     1     130.184 133.571 106.527  1.00  0.00     0.177 C 
ATOM     24  C   UNL     1     131.673 133.928 108.593  1.00  0.00     0.176 C 
ATOM     25  C   UNL     1     131.617 133.801 107.044  1.00  0.00     0.177 C 
BRANCH  21  26
ATOM     26  O   UNL     1     129.425 135.840 106.713  1.00  0.00    -0.387 OA
ATOM     27  H   UNL     1     130.021 135.760 105.924  1.00  0.00     0.211 HD
ENDBRANCH  21  26
BRANCH  23  28
ATOM     28  O   UNL     1     129.801 132.240 106.764  1.00  0.00    -0.387 OA
ATOM     29  H   UNL     1     130.473 131.850 107.382  1.00  0.00     0.211 HD
ENDBRANCH  23  28
BRANCH  24  30
ATOM     30  C   UNL     1     131.668 132.575 109.335  1.00  0.00     0.191 C 
BRANCH  30  31
ATOM     31  O   UNL     1     132.790 131.824 108.961  1.00  0.00    -0.394 OA
ATOM     32  H   UNL     1     132.665 130.923 109.360  1.00  0.00     0.210 HD
ENDBRANCH  30  31
ENDBRANCH  24  30
BRANCH  25  33
ATOM     33  O   UNL     1     132.124 134.976 106.460  1.00  0.00    -0.388 OA
ATOM     34  H   UNL     1     133.079 134.805 106.249  1.00  0.00     0.211 HD
ENDBRANCH  25  33
ENDBRANCH  11  20
BRANCH  10  35
ATOM     35  O   UNL     1     129.804 137.364 109.047  1.00  0.00    -0.507 OA
ATOM     36  H   UNL     1     129.799 138.025 108.281  1.00  0.00     0.293 HD
ENDBRANCH  10  35
TORSDOF 9
ENDMDL
MODEL 8
REMARK VINA RESULT:    -5.324      8.306     11.962
REMARK INTER + INTRA:          -8.252
REMARK INTER:                  -7.351
REMARK INTRA:                  -0.901
REMARK UNBOUND:                -1.060
REMARK SMILES O=c1c(-c2ccc(O)cc2)coc2c([C@@H]3O[C@@H](CO)[C@H](O)[C@@H](O)[C@@H]3O)c(O)ccc12
REMARK SMILES IDX 3 1 11 2 12 3 13 4 30 5 2 6 1 7 29 8 28 9 26 10 14 11 4 12
REMARK SMILES IDX 5 13 6 14 7 15 10 16 9 17 8 18 15 20 24 21 16 22 22 23 17 24
REMARK SMILES IDX 20 25 25 26 23 28 18 30 19 31 21 33 27 35
REMARK H PARENT 8 19 25 27 23 29 19 32 21 34 27 36
REMARK Flexibility Score: inf
ROOT
ATOM      1  C   UNL     1     129.207 127.209 111.552  1.00  0.00     0.065 A 
ATOM      2  C   UNL     1     128.639 125.942 111.369  1.00  0.00     0.208 A 
ATOM      3  O   UNL     1     129.403 124.867 111.220  1.00  0.00    -0.463 OA
ATOM      4  C   UNL     1     130.733 124.910 111.233  1.00  0.00     0.147 A 
ATOM      5  C   UNL     1     131.391 126.150 111.411  1.00  0.00     0.066 A 
ATOM      6  C   UNL     1     130.611 127.309 111.581  1.00  0.00     0.200 A 
ATOM      7  O   UNL     1     131.165 128.426 111.776  1.00  0.00    -0.288 OA
ATOM      8  C   UNL     1     132.792 126.197 111.412  1.00  0.00     0.020 A 
ATOM      9  C   UNL     1     133.533 125.033 111.220  1.00  0.00     0.047 A 
ATOM     10  C   UNL     1     132.895 123.801 111.036  1.00  0.00     0.125 A 
ATOM     11  C   UNL     1     131.481 123.721 111.067  1.00  0.00     0.069 A 
ENDROOT
BRANCH   1  12
ATOM     12  C   UNL     1     128.332 128.398 111.711  1.00  0.00    -0.011 A 
ATOM     13  C   UNL     1     128.136 128.968 112.983  1.00  0.00     0.013 A 
ATOM     14  C   UNL     1     127.305 130.082 113.137  1.00  0.00     0.047 A 
ATOM     15  C   UNL     1     126.657 130.637 112.030  1.00  0.00     0.115 A 
ATOM     16  C   UNL     1     127.672 128.957 110.604  1.00  0.00     0.013 A 
ATOM     17  C   UNL     1     126.842 130.070 110.762  1.00  0.00     0.047 A 
BRANCH  15  18
ATOM     18  O   UNL     1     125.833 131.746 112.199  1.00  0.00    -0.508 OA
ATOM     19  H   UNL     1     125.646 132.389 111.439  1.00  0.00     0.293 HD
ENDBRANCH  15  18
ENDBRANCH   1  12
BRANCH  11  20
ATOM     20  C   UNL     1     130.757 122.396 110.851  1.00  0.00     0.188 C 
ATOM     21  C   UNL     1     130.662 122.073 109.344  1.00  0.00     0.179 C 
ATOM     22  O   UNL     1     131.408 121.356 111.564  1.00  0.00    -0.362 OA
ATOM     23  C   UNL     1     129.893 120.758 109.143  1.00  0.00     0.177 C 
ATOM     24  C   UNL     1     130.712 120.118 111.495  1.00  0.00     0.176 C 
ATOM     25  C   UNL     1     130.471 119.642 110.034  1.00  0.00     0.177 C 
BRANCH  21  26
ATOM     26  O   UNL     1     131.945 121.950 108.781  1.00  0.00    -0.387 OA
ATOM     27  H   UNL     1     131.928 122.419 107.906  1.00  0.00     0.211 HD
ENDBRANCH  21  26
BRANCH  23  28
ATOM     28  O   UNL     1     128.529 120.938 109.430  1.00  0.00    -0.387 OA
ATOM     29  H   UNL     1     128.384 120.619 110.358  1.00  0.00     0.211 HD
ENDBRANCH  23  28
BRANCH  24  30
ATOM     30  C   UNL     1     129.445 120.108 112.376  1.00  0.00     0.191 C 
BRANCH  30  31
ATOM     31  O   UNL     1     129.802 119.954 113.721  1.00  0.00    -0.394 OA
ATOM     32  H   UNL     1     130.362 120.741 113.951  1.00  0.00     0.210 HD
ENDBRANCH  30  31
ENDBRANCH  24  30
BRANCH  25  33
ATOM     33  O   UNL     1     131.686 119.204 109.479  1.00  0.00    -0.388 OA
ATOM     34  H   UNL     1     132.390 119.360 110.162  1.00  0.00     0.211 HD
ENDBRANCH  25  33
ENDBRANCH  11  20
BRANCH  10  35
ATOM     35  O   UNL     1     133.667 122.661 110.813  1.00  0.00    -0.507 OA
ATOM     36  H   UNL     1     134.672 122.711 110.702  1.00  0.00     0.293 HD
ENDBRANCH  10  35
TORSDOF 9
ENDMDL
MODEL 9
REMARK VINA RESULT:    -5.306      2.418      8.409
REMARK INTER + INTRA:          -8.227
REMARK INTER:                  -7.345
REMARK INTRA:                  -0.882
REMARK UNBOUND:                -1.060
REMARK SMILES O=c1c(-c2ccc(O)cc2)coc2c([C@@H]3O[C@@H](CO)[C@H](O)[C@@H](O)[C@@H]3O)c(O)ccc12
REMARK SMILES IDX 3 1 11 2 12 3 13 4 30 5 2 6 1 7 29 8 28 9 26 10 14 11 4 12
REMARK SMILES IDX 5 13 6 14 7 15 10 16 9 17 8 18 15 20 24 21 16 22 22 23 17 24
REMARK SMILES IDX 20 25 25 26 23 28 18 30 19 31 21 33 27 35
REMARK H PARENT 8 19 25 27 23 29 19 32 21 34 27 36
REMARK Flexibility Score: inf
ROOT
ATOM      1  C   UNL     1     127.041 134.961 110.279  1.00  0.00     0.065 A 
ATOM      2  C   UNL     1     125.734 135.191 110.727  1.00  0.00     0.208 A 
ATOM      3  O   UNL     1     124.749 134.359 110.414  1.00  0.00    -0.463 OA
ATOM      4  C   UNL     1     124.924 133.270 109.670  1.00  0.00     0.147 A 
ATOM      5  C   UNL     1     126.212 132.962 109.173  1.00  0.00     0.066 A 
ATOM      6  C   UNL     1     127.281 133.818 109.493  1.00  0.00     0.200 A 
ATOM      7  O   UNL     1     128.449 133.554 109.096  1.00  0.00    -0.288 OA
ATOM      8  C   UNL     1     126.393 131.820 108.378  1.00  0.00     0.020 A 
ATOM      9  C   UNL     1     125.309 131.005 108.064  1.00  0.00     0.047 A 
ATOM     10  C   UNL     1     124.027 131.303 108.543  1.00  0.00     0.125 A 
ATOM     11  C   UNL     1     123.825 132.429 109.377  1.00  0.00     0.069 A 
ENDROOT
BRANCH   1  12
ATOM     12  C   UNL     1     128.126 135.910 110.637  1.00  0.00    -0.011 A 
ATOM     13  C   UNL     1     128.680 136.754 109.657  1.00  0.00     0.013 A 
ATOM     14  C   UNL     1     129.708 137.642 109.989  1.00  0.00     0.047 A 
ATOM     15  C   UNL     1     130.199 137.694 111.296  1.00  0.00     0.115 A 
ATOM     16  C   UNL     1     128.629 135.962 111.948  1.00  0.00     0.013 A 
ATOM     17  C   UNL     1     129.658 136.851 112.276  1.00  0.00     0.047 A 
BRANCH  15  18
ATOM     18  O   UNL     1     131.223 138.584 111.613  1.00  0.00    -0.508 OA
ATOM     19  H   UNL     1     131.343 139.454 111.110  1.00  0.00     0.293 HD
ENDBRANCH  15  18
ENDBRANCH   1  12
BRANCH  11  20
ATOM     20  C   UNL     1     122.437 132.790 109.899  1.00  0.00     0.188 C 
ATOM     21  C   UNL     1     121.654 133.591 108.837  1.00  0.00     0.179 C 
ATOM     22  O   UNL     1     121.736 131.618 110.285  1.00  0.00    -0.362 OA
ATOM     23  C   UNL     1     120.276 133.983 109.395  1.00  0.00     0.177 C 
ATOM     24  C   UNL     1     120.479 131.899 110.888  1.00  0.00     0.176 C 
ATOM     25  C   UNL     1     119.552 132.755 109.979  1.00  0.00     0.177 C 
BRANCH  21  26
ATOM     26  O   UNL     1     121.481 132.830 107.668  1.00  0.00    -0.387 OA
ATOM     27  H   UNL     1     121.820 131.917 107.858  1.00  0.00     0.211 HD
ENDBRANCH  21  26
BRANCH  23  28
ATOM     28  O   UNL     1     120.410 134.971 110.384  1.00  0.00    -0.387 OA
ATOM     29  H   UNL     1     121.040 135.652 110.031  1.00  0.00     0.211 HD
ENDBRANCH  23  28
BRANCH  24  30
ATOM     30  C   UNL     1     120.627 132.443 112.325  1.00  0.00     0.191 C 
BRANCH  30  31
ATOM     31  O   UNL     1     121.587 131.696 113.020  1.00  0.00    -0.394 OA
ATOM     32  H   UNL     1     122.462 131.916 112.605  1.00  0.00     0.210 HD
ENDBRANCH  30  31
ENDBRANCH  24  30
BRANCH  25  33
ATOM     33  O   UNL     1     119.077 131.963 108.919  1.00  0.00    -0.388 OA
ATOM     34  H   UNL     1     118.157 131.678 109.159  1.00  0.00     0.211 HD
ENDBRANCH  25  33
ENDBRANCH  11  20
BRANCH  10  35
ATOM     35  O   UNL     1     122.958 130.483 108.180  1.00  0.00    -0.507 OA
ATOM     36  H   UNL     1     122.600 130.461 107.233  1.00  0.00     0.293 HD
ENDBRANCH  10  35
TORSDOF 9
ENDMDL
