MODEL 1
REMARK VINA RESULT:    -4.086      0.000      0.000
REMARK INTER + INTRA:          -4.086
REMARK INTER:                  -4.086
REMARK INTRA:                   0.000
REMARK UNBOUND:                 0.000
REMARK SMILES CC1=CC=CC(C)(C)[C@H]1C
REMARK SMILES IDX 10 1 9 2 2 3 3 4 4 5 5 6 6 7 7 8 8 9 1 10
REMARK H PARENT
REMARK Flexibility Score: inf
ROOT
ATOM      1  C   UNL     1      -0.863  15.563  17.058  1.00  0.00     0.013 C 
ATOM      2  C   UNL     1       0.202  14.821  17.887  1.00  0.00     0.021 C 
ATOM      3  C   UNL     1       0.016  13.325  17.676  1.00  0.00    -0.070 C 
ATOM      4  C   UNL     1       0.663  12.705  16.675  1.00  0.00    -0.001 C 
ATOM      5  C   UNL     1       1.650  13.428  15.851  1.00  0.00    -0.004 C 
ATOM      6  C   UNL     1       2.096  14.634  16.219  1.00  0.00    -0.020 C 
ATOM      7  C   UNL     1       1.675  15.249  17.543  1.00  0.00    -0.011 C 
ATOM      8  C   UNL     1       2.629  14.731  18.642  1.00  0.00     0.016 C 
ATOM      9  C   UNL     1       1.826  16.784  17.466  1.00  0.00     0.016 C 
ATOM     10  C   UNL     1      -0.954  12.553  18.524  1.00  0.00     0.040 C 
ENDROOT
TORSDOF 0
ENDMDL
MODEL 2
REMARK VINA RESULT:    -4.051      1.237      3.290
REMARK INTER + INTRA:          -4.051
REMARK INTER:                  -4.051
REMARK INTRA:                   0.000
REMARK UNBOUND:                 0.000
REMARK SMILES CC1=CC=CC(C)(C)[C@H]1C
REMARK SMILES IDX 10 1 9 2 2 3 3 4 4 5 5 6 6 7 7 8 8 9 1 10
REMARK H PARENT
REMARK Flexibility Score: inf
ROOT
ATOM      1  C   UNL     1       0.384  12.638  15.682  1.00  0.00     0.013 C 
ATOM      2  C   UNL     1       1.549  13.396  16.345  1.00  0.00     0.021 C 
ATOM      3  C   UNL     1       2.107  14.391  15.338  1.00  0.00    -0.070 C 
ATOM      4  C   UNL     1       1.605  15.636  15.278  1.00  0.00    -0.001 C 
ATOM      5  C   UNL     1       0.604  16.095  16.259  1.00  0.00    -0.004 C 
ATOM      6  C   UNL     1       0.346  15.379  17.358  1.00  0.00    -0.020 C 
ATOM      7  C   UNL     1       1.144  14.127  17.677  1.00  0.00    -0.011 C 
ATOM      8  C   UNL     1       2.422  14.548  18.438  1.00  0.00     0.016 C 
ATOM      9  C   UNL     1       0.316  13.213  18.607  1.00  0.00     0.016 C 
ATOM     10  C   UNL     1       3.155  13.965  14.350  1.00  0.00     0.040 C 
ENDROOT
TORSDOF 0
ENDMDL
MODEL 3
REMARK VINA RESULT:    -3.960      1.329      3.565
REMARK INTER + INTRA:          -3.960
REMARK INTER:                  -3.960
REMARK INTRA:                   0.000
REMARK UNBOUND:                 0.000
REMARK SMILES CC1=CC=CC(C)(C)[C@H]1C
REMARK SMILES IDX 10 1 9 2 2 3 3 4 4 5 5 6 6 7 7 8 8 9 1 10
REMARK H PARENT
REMARK Flexibility Score: inf
ROOT
ATOM      1  C   UNL     1      -0.980  15.336  16.434  1.00  0.00     0.013 C 
ATOM      2  C   UNL     1       0.430  15.336  15.813  1.00  0.00     0.021 C 
ATOM      3  C   UNL     1       1.055  16.704  16.043  1.00  0.00    -0.070 C 
ATOM      4  C   UNL     1       1.771  16.935  17.155  1.00  0.00    -0.001 C 
ATOM      5  C   UNL     1       2.067  15.845  18.103  1.00  0.00    -0.004 C 
ATOM      6  C   UNL     1       1.839  14.569  17.771  1.00  0.00    -0.020 C 
ATOM      7  C   UNL     1       1.362  14.202  16.377  1.00  0.00    -0.011 C 
ATOM      8  C   UNL     1       2.600  14.056  15.464  1.00  0.00     0.016 C 
ATOM      9  C   UNL     1       0.643  12.835  16.425  1.00  0.00     0.016 C 
ATOM     10  C   UNL     1       0.803  17.826  15.076  1.00  0.00     0.040 C 
ENDROOT
TORSDOF 0
ENDMDL
MODEL 4
REMARK VINA RESULT:    -3.916      0.974      3.343
REMARK INTER + INTRA:          -3.916
REMARK INTER:                  -3.916
REMARK INTRA:                   0.000
REMARK UNBOUND:                 0.000
REMARK SMILES CC1=CC=CC(C)(C)[C@H]1C
REMARK SMILES IDX 10 1 9 2 2 3 3 4 4 5 5 6 6 7 7 8 8 9 1 10
REMARK H PARENT
REMARK Flexibility Score: inf
ROOT
ATOM      1  C   UNL     1       2.487  14.524  18.617  1.00  0.00     0.013 C 
ATOM      2  C   UNL     1       1.195  14.770  17.817  1.00  0.00     0.021 C 
ATOM      3  C   UNL     1       1.534  15.642  16.616  1.00  0.00    -0.070 C 
ATOM      4  C   UNL     1       1.897  15.072  15.456  1.00  0.00    -0.001 C 
ATOM      5  C   UNL     1       1.854  13.608  15.287  1.00  0.00    -0.004 C 
ATOM      6  C   UNL     1       1.238  12.834  16.188  1.00  0.00    -0.020 C 
ATOM      7  C   UNL     1       0.483  13.447  17.354  1.00  0.00    -0.011 C 
ATOM      8  C   UNL     1      -0.952  13.775  16.883  1.00  0.00     0.016 C 
ATOM      9  C   UNL     1       0.383  12.415  18.499  1.00  0.00     0.016 C 
ATOM     10  C   UNL     1       1.550  17.139  16.745  1.00  0.00     0.040 C 
ENDROOT
TORSDOF 0
ENDMDL
MODEL 5
REMARK VINA RESULT:    -3.798      1.636      3.166
REMARK INTER + INTRA:          -3.798
REMARK INTER:                  -3.798
REMARK INTRA:                   0.000
REMARK UNBOUND:                 0.000
REMARK SMILES CC1=CC=CC(C)(C)[C@H]1C
REMARK SMILES IDX 10 1 9 2 2 3 3 4 4 5 5 6 6 7 7 8 8 9 1 10
REMARK H PARENT
REMARK Flexibility Score: inf
ROOT
ATOM      1  C   UNL     1       2.394  14.730  14.735  1.00  0.00     0.013 C 
ATOM      2  C   UNL     1       1.028  15.034  15.379  1.00  0.00     0.021 C 
ATOM      3  C   UNL     1       0.980  14.355  16.740  1.00  0.00    -0.070 C 
ATOM      4  C   UNL     1       1.407  15.012  17.831  1.00  0.00    -0.001 C 
ATOM      5  C   UNL     1       1.808  16.428  17.752  1.00  0.00    -0.004 C 
ATOM      6  C   UNL     1       1.540  17.155  16.662  1.00  0.00    -0.020 C 
ATOM      7  C   UNL     1       0.729  16.571  15.518  1.00  0.00    -0.011 C 
ATOM      8  C   UNL     1      -0.770  16.774  15.834  1.00  0.00     0.016 C 
ATOM      9  C   UNL     1       1.050  17.341  14.217  1.00  0.00     0.016 C 
ATOM     10  C   UNL     1       0.539  12.924  16.860  1.00  0.00     0.040 C 
ENDROOT
TORSDOF 0
ENDMDL
MODEL 6
REMARK VINA RESULT:    -3.770      1.980      4.026
REMARK INTER + INTRA:          -3.770
REMARK INTER:                  -3.770
REMARK INTRA:                   0.000
REMARK UNBOUND:                 0.000
REMARK SMILES CC1=CC=CC(C)(C)[C@H]1C
REMARK SMILES IDX 10 1 9 2 2 3 3 4 4 5 5 6 6 7 7 8 8 9 1 10
REMARK H PARENT
REMARK Flexibility Score: inf
ROOT
ATOM      1  C   UNL     1       1.361  14.730  14.418  1.00  0.00     0.013 C 
ATOM      2  C   UNL     1       1.589  15.923  15.365  1.00  0.00     0.021 C 
ATOM      3  C   UNL     1       0.762  17.098  14.863  1.00  0.00    -0.070 C 
ATOM      4  C   UNL     1      -0.499  17.262  15.296  1.00  0.00    -0.001 C 
ATOM      5  C   UNL     1      -1.056  16.392  16.349  1.00  0.00    -0.004 C 
ATOM      6  C   UNL     1      -0.261  15.582  17.057  1.00  0.00    -0.020 C 
ATOM      7  C   UNL     1       1.245  15.607  16.866  1.00  0.00    -0.011 C 
ATOM      8  C   UNL     1       1.829  16.715  17.770  1.00  0.00     0.016 C 
ATOM      9  C   UNL     1       1.842  14.257  17.322  1.00  0.00     0.016 C 
ATOM     10  C   UNL     1       1.315  18.025  13.819  1.00  0.00     0.040 C 
ENDROOT
TORSDOF 0
ENDMDL
MODEL 7
REMARK VINA RESULT:    -3.707      1.306      3.210
REMARK INTER + INTRA:          -3.707
REMARK INTER:                  -3.707
REMARK INTRA:                   0.000
REMARK UNBOUND:                 0.000
REMARK SMILES CC1=CC=CC(C)(C)[C@H]1C
REMARK SMILES IDX 10 1 9 2 2 3 3 4 4 5 5 6 6 7 7 8 8 9 1 10
REMARK H PARENT
REMARK Flexibility Score: inf
ROOT
ATOM      1  C   UNL     1      -0.408  15.695  15.361  1.00  0.00     0.013 C 
ATOM      2  C   UNL     1       1.081  15.358  15.561  1.00  0.00     0.021 C 
ATOM      3  C   UNL     1       1.405  15.485  17.043  1.00  0.00    -0.070 C 
ATOM      4  C   UNL     1       1.270  14.421  17.851  1.00  0.00    -0.001 C 
ATOM      5  C   UNL     1       0.930  13.094  17.303  1.00  0.00    -0.004 C 
ATOM      6  C   UNL     1       0.979  12.866  15.987  1.00  0.00    -0.020 C 
ATOM      7  C   UNL     1       1.478  13.933  15.029  1.00  0.00    -0.011 C 
ATOM      8  C   UNL     1       3.018  13.828  14.948  1.00  0.00     0.016 C 
ATOM      9  C   UNL     1       0.908  13.665  13.619  1.00  0.00     0.016 C 
ATOM     10  C   UNL     1       1.791  16.815  17.625  1.00  0.00     0.040 C 
ENDROOT
TORSDOF 0
ENDMDL
MODEL 8
REMARK VINA RESULT:    -3.700      1.196      2.715
REMARK INTER + INTRA:          -3.700
REMARK INTER:                  -3.700
REMARK INTRA:                   0.000
REMARK UNBOUND:                 0.000
REMARK SMILES CC1=CC=CC(C)(C)[C@H]1C
REMARK SMILES IDX 10 1 9 2 2 3 3 4 4 5 5 6 6 7 7 8 8 9 1 10
REMARK H PARENT
REMARK Flexibility Score: inf
ROOT
ATOM      1  C   UNL     1       2.146  14.559  18.178  1.00  0.00     0.013 C 
ATOM      2  C   UNL     1       1.292  13.497  17.461  1.00  0.00     0.021 C 
ATOM      3  C   UNL     1      -0.114  13.543  18.040  1.00  0.00    -0.070 C 
ATOM      4  C   UNL     1      -1.037  14.352  17.494  1.00  0.00    -0.001 C 
ATOM      5  C   UNL     1      -0.745  15.109  16.263  1.00  0.00    -0.004 C 
ATOM      6  C   UNL     1       0.343  14.836  15.534  1.00  0.00    -0.020 C 
ATOM      7  C   UNL     1       1.253  13.676  15.899  1.00  0.00    -0.011 C 
ATOM      8  C   UNL     1       0.685  12.393  15.251  1.00  0.00     0.016 C 
ATOM      9  C   UNL     1       2.660  13.923  15.311  1.00  0.00     0.016 C 
ATOM     10  C   UNL     1      -0.454  12.754  19.272  1.00  0.00     0.040 C 
ENDROOT
TORSDOF 0
ENDMDL
MODEL 9
REMARK VINA RESULT:    -3.694      1.153      1.280
REMARK INTER + INTRA:          -3.694
REMARK INTER:                  -3.694
REMARK INTRA:                   0.000
REMARK UNBOUND:                 0.000
REMARK SMILES CC1=CC=CC(C)(C)[C@H]1C
REMARK SMILES IDX 10 1 9 2 2 3 3 4 4 5 5 6 6 7 7 8 8 9 1 10
REMARK H PARENT
REMARK Flexibility Score: inf
ROOT
ATOM      1  C   UNL     1      -1.125  15.120  15.371  1.00  0.00     0.013 C 
ATOM      2  C   UNL     1      -0.174  15.011  16.578  1.00  0.00     0.021 C 
ATOM      3  C   UNL     1       0.093  13.537  16.844  1.00  0.00    -0.070 C 
ATOM      4  C   UNL     1       1.125  12.924  16.241  1.00  0.00    -0.001 C 
ATOM      5  C   UNL     1       2.081  13.688  15.418  1.00  0.00    -0.004 C 
ATOM      6  C   UNL     1       2.086  15.025  15.439  1.00  0.00    -0.020 C 
ATOM      7  C   UNL     1       1.177  15.791  16.384  1.00  0.00    -0.011 C 
ATOM      8  C   UNL     1       1.893  15.921  17.747  1.00  0.00     0.016 C 
ATOM      9  C   UNL     1       0.946  17.215  15.831  1.00  0.00     0.016 C 
ATOM     10  C   UNL     1      -0.840  12.740  17.710  1.00  0.00     0.040 C 
ENDROOT
TORSDOF 0
ENDMDL
