MODEL 1
REMARK VINA RESULT:    -6.088      0.000      0.000
REMARK INTER + INTRA:          -7.626
REMARK INTER:                  -7.334
REMARK INTRA:                  -0.292
REMARK UNBOUND:                -0.292
REMARK SMILES O=c1c(O)c(-c2ccc(O)c(O)c2)oc2cc(O)cc(O)c12
REMARK SMILES IDX 5 1 3 2 2 3 1 4 22 5 20 6 19 7 17 8 16 9 15 10 14 11 6 12
REMARK SMILES IDX 7 13 8 14 9 15 13 16 11 17 10 18 12 20 4 22 21 24 18 26
REMARK H PARENT 10 19 12 21 4 23 21 25 18 27
REMARK Flexibility Score: inf
ROOT
ATOM      1  C   UNL     1      70.466  54.629  17.306  1.00  0.00     0.180 A 
ATOM      2  C   UNL     1      71.402  54.486  18.345  1.00  0.00     0.208 A 
ATOM      3  C   UNL     1      71.122  53.600  19.397  1.00  0.00     0.238 A 
ATOM      4  O   UNL     1      71.939  53.517  20.352  1.00  0.00    -0.285 OA
ATOM      5  C   UNL     1      69.917  52.857  19.391  1.00  0.00     0.111 A 
ATOM      6  C   UNL     1      69.549  51.901  20.384  1.00  0.00     0.134 A 
ATOM      7  C   UNL     1      68.275  51.320  20.346  1.00  0.00     0.093 A 
ATOM      8  C   UNL     1      67.382  51.610  19.315  1.00  0.00     0.123 A 
ATOM      9  C   UNL     1      67.755  52.497  18.304  1.00  0.00     0.094 A 
ATOM     10  C   UNL     1      69.005  53.121  18.336  1.00  0.00     0.146 A 
ATOM     11  O   UNL     1      69.317  53.966  17.361  1.00  0.00    -0.452 OA
ENDROOT
BRANCH   1  12
ATOM     12  C   UNL     1      70.702  55.524  16.150  1.00  0.00     0.025 A 
ATOM     13  C   UNL     1      70.489  56.911  16.244  1.00  0.00     0.016 A 
ATOM     14  C   UNL     1      70.740  57.739  15.147  1.00  0.00     0.051 A 
ATOM     15  C   UNL     1      71.220  57.201  13.949  1.00  0.00     0.157 A 
ATOM     16  C   UNL     1      71.201  54.990  14.951  1.00  0.00     0.062 A 
ATOM     17  C   UNL     1      71.455  55.820  13.850  1.00  0.00     0.158 A 
BRANCH  15  18
ATOM     18  O   UNL     1      71.459  58.054  12.871  1.00  0.00    -0.504 OA
ATOM     19  H   UNL     1      72.342  58.059  12.376  1.00  0.00     0.293 HD
ENDBRANCH  15  18
BRANCH  17  20
ATOM     20  O   UNL     1      71.938  55.277  12.660  1.00  0.00    -0.504 OA
ATOM     21  H   UNL     1      72.760  54.684  12.642  1.00  0.00     0.293 HD
ENDBRANCH  17  20
ENDBRANCH   1  12
BRANCH   2  22
ATOM     22  O   UNL     1      72.576  55.246  18.343  1.00  0.00    -0.502 OA
ATOM     23  H   UNL     1      72.568  56.259  18.339  1.00  0.00     0.293 HD
ENDBRANCH   2  22
BRANCH   6  24
ATOM     24  O   UNL     1      70.401  51.470  21.407  1.00  0.00    -0.507 OA
ATOM     25  H   UNL     1      70.436  50.529  21.766  1.00  0.00     0.293 HD
ENDBRANCH   6  24
BRANCH   8  26
ATOM     26  O   UNL     1      66.130  51.002  19.299  1.00  0.00    -0.508 OA
ATOM     27  H   UNL     1      65.745  50.558  20.126  1.00  0.00     0.293 HD
ENDBRANCH   8  26
TORSDOF 6
ENDMDL
MODEL 2
REMARK VINA RESULT:    -5.546      1.513      6.922
REMARK INTER + INTRA:          -6.972
REMARK INTER:                  -6.682
REMARK INTRA:                  -0.290
REMARK UNBOUND:                -0.292
REMARK SMILES O=c1c(O)c(-c2ccc(O)c(O)c2)oc2cc(O)cc(O)c12
REMARK SMILES IDX 5 1 3 2 2 3 1 4 22 5 20 6 19 7 17 8 16 9 15 10 14 11 6 12
REMARK SMILES IDX 7 13 8 14 9 15 13 16 11 17 10 18 12 20 4 22 21 24 18 26
REMARK H PARENT 10 19 12 21 4 23 21 25 18 27
REMARK Flexibility Score: inf
ROOT
ATOM      1  C   UNL     1      69.896  54.558  18.062  1.00  0.00     0.180 A 
ATOM      2  C   UNL     1      69.794  55.893  18.492  1.00  0.00     0.208 A 
ATOM      3  C   UNL     1      70.112  56.924  17.593  1.00  0.00     0.238 A 
ATOM      4  O   UNL     1      70.071  58.115  18.001  1.00  0.00    -0.285 OA
ATOM      5  C   UNL     1      70.512  56.609  16.272  1.00  0.00     0.111 A 
ATOM      6  C   UNL     1      70.818  57.574  15.266  1.00  0.00     0.134 A 
ATOM      7  C   UNL     1      71.330  57.149  14.034  1.00  0.00     0.093 A 
ATOM      8  C   UNL     1      71.483  55.793  13.747  1.00  0.00     0.123 A 
ATOM      9  C   UNL     1      71.129  54.838  14.702  1.00  0.00     0.094 A 
ATOM     10  C   UNL     1      70.652  55.233  15.954  1.00  0.00     0.146 A 
ATOM     11  O   UNL     1      70.336  54.293  16.838  1.00  0.00    -0.452 OA
ENDROOT
BRANCH   1  12
ATOM     12  C   UNL     1      69.554  53.418  18.943  1.00  0.00     0.025 A 
ATOM     13  C   UNL     1      70.451  52.958  19.924  1.00  0.00     0.016 A 
ATOM     14  C   UNL     1      70.098  51.895  20.760  1.00  0.00     0.051 A 
ATOM     15  C   UNL     1      68.844  51.288  20.641  1.00  0.00     0.157 A 
ATOM     16  C   UNL     1      68.289  52.818  18.840  1.00  0.00     0.062 A 
ATOM     17  C   UNL     1      67.933  51.752  19.678  1.00  0.00     0.158 A 
BRANCH  15  18
ATOM     18  O   UNL     1      68.521  50.227  21.488  1.00  0.00    -0.504 OA
ATOM     19  H   UNL     1      69.204  49.534  21.767  1.00  0.00     0.293 HD
ENDBRANCH  15  18
BRANCH  17  20
ATOM     20  O   UNL     1      66.679  51.155  19.558  1.00  0.00    -0.504 OA
ATOM     21  H   UNL     1      66.482  50.246  19.961  1.00  0.00     0.293 HD
ENDBRANCH  17  20
ENDBRANCH   1  12
BRANCH   2  22
ATOM     22  O   UNL     1      69.418  56.181  19.807  1.00  0.00    -0.502 OA
ATOM     23  H   UNL     1      69.521  57.103  20.213  1.00  0.00     0.293 HD
ENDBRANCH   2  22
BRANCH   6  24
ATOM     24  O   UNL     1      70.615  58.949  15.417  1.00  0.00    -0.507 OA
ATOM     25  H   UNL     1      70.137  59.377  16.194  1.00  0.00     0.293 HD
ENDBRANCH   6  24
BRANCH   8  26
ATOM     26  O   UNL     1      71.979  55.405  12.505  1.00  0.00    -0.508 OA
ATOM     27  H   UNL     1      72.325  54.465  12.342  1.00  0.00     0.293 HD
ENDBRANCH   8  26
TORSDOF 6
ENDMDL
MODEL 3
REMARK VINA RESULT:    -5.405      4.181      7.362
REMARK INTER + INTRA:          -6.802
REMARK INTER:                  -6.506
REMARK INTRA:                  -0.296
REMARK UNBOUND:                -0.292
REMARK SMILES O=c1c(O)c(-c2ccc(O)c(O)c2)oc2cc(O)cc(O)c12
REMARK SMILES IDX 5 1 3 2 2 3 1 4 22 5 20 6 19 7 17 8 16 9 15 10 14 11 6 12
REMARK SMILES IDX 7 13 8 14 9 15 13 16 11 17 10 18 12 20 4 22 21 24 18 26
REMARK H PARENT 10 19 12 21 4 23 21 25 18 27
REMARK Flexibility Score: inf
ROOT
ATOM      1  C   UNL     1      68.605  54.228  22.180  1.00  0.00     0.180 A 
ATOM      2  C   UNL     1      69.850  53.890  21.623  1.00  0.00     0.208 A 
ATOM      3  C   UNL     1      69.884  53.213  20.392  1.00  0.00     0.238 A 
ATOM      4  O   UNL     1      71.001  52.865  19.925  1.00  0.00    -0.285 OA
ATOM      5  C   UNL     1      68.675  52.896  19.728  1.00  0.00     0.111 A 
ATOM      6  C   UNL     1      68.593  52.248  18.459  1.00  0.00     0.134 A 
ATOM      7  C   UNL     1      67.342  51.867  17.958  1.00  0.00     0.093 A 
ATOM      8  C   UNL     1      66.168  52.169  18.647  1.00  0.00     0.123 A 
ATOM      9  C   UNL     1      66.233  52.856  19.860  1.00  0.00     0.094 A 
ATOM     10  C   UNL     1      67.468  53.216  20.403  1.00  0.00     0.146 A 
ATOM     11  O   UNL     1      67.487  53.859  21.565  1.00  0.00    -0.452 OA
ENDROOT
BRANCH   1  12
ATOM     12  C   UNL     1      68.487  54.963  23.460  1.00  0.00     0.025 A 
ATOM     13  C   UNL     1      68.217  56.343  23.489  1.00  0.00     0.016 A 
ATOM     14  C   UNL     1      68.088  57.011  24.709  1.00  0.00     0.051 A 
ATOM     15  C   UNL     1      68.210  56.314  25.914  1.00  0.00     0.157 A 
ATOM     16  C   UNL     1      68.590  54.263  24.672  1.00  0.00     0.062 A 
ATOM     17  C   UNL     1      68.460  54.932  25.898  1.00  0.00     0.158 A 
BRANCH  15  18
ATOM     18  O   UNL     1      68.077  57.009  27.117  1.00  0.00    -0.504 OA
ATOM     19  H   UNL     1      68.267  58.001  27.188  1.00  0.00     0.293 HD
ENDBRANCH  15  18
BRANCH  17  20
ATOM     20  O   UNL     1      68.577  54.229  27.096  1.00  0.00    -0.504 OA
ATOM     21  H   UNL     1      68.037  54.481  27.915  1.00  0.00     0.293 HD
ENDBRANCH  17  20
ENDBRANCH   1  12
BRANCH   2  22
ATOM     22  O   UNL     1      71.032  54.193  22.305  1.00  0.00    -0.502 OA
ATOM     23  H   UNL     1      71.058  54.832  23.090  1.00  0.00     0.293 HD
ENDBRANCH   2  22
BRANCH   6  24
ATOM     24  O   UNL     1      69.699  51.983  17.646  1.00  0.00    -0.507 OA
ATOM     25  H   UNL     1      69.765  51.210  17.002  1.00  0.00     0.293 HD
ENDBRANCH   6  24
BRANCH   8  26
ATOM     26  O   UNL     1      64.940  51.789  18.111  1.00  0.00    -0.508 OA
ATOM     27  H   UNL     1      64.584  50.846  18.216  1.00  0.00     0.293 HD
ENDBRANCH   8  26
TORSDOF 6
ENDMDL
MODEL 4
REMARK VINA RESULT:    -5.322      2.542      6.500
REMARK INTER + INTRA:          -6.703
REMARK INTER:                  -6.391
REMARK INTRA:                  -0.312
REMARK UNBOUND:                -0.292
REMARK SMILES O=c1c(O)c(-c2ccc(O)c(O)c2)oc2cc(O)cc(O)c12
REMARK SMILES IDX 5 1 3 2 2 3 1 4 22 5 20 6 19 7 17 8 16 9 15 10 14 11 6 12
REMARK SMILES IDX 7 13 8 14 9 15 13 16 11 17 10 18 12 20 4 22 21 24 18 26
REMARK H PARENT 10 19 12 21 4 23 21 25 18 27
REMARK Flexibility Score: inf
ROOT
ATOM      1  C   UNL     1      71.021  54.184  18.243  1.00  0.00     0.180 A 
ATOM      2  C   UNL     1      71.410  54.988  17.158  1.00  0.00     0.208 A 
ATOM      3  C   UNL     1      72.733  55.458  17.099  1.00  0.00     0.238 A 
ATOM      4  O   UNL     1      73.059  56.223  16.153  1.00  0.00    -0.285 OA
ATOM      5  C   UNL     1      73.652  55.107  18.115  1.00  0.00     0.111 A 
ATOM      6  C   UNL     1      75.026  55.493  18.135  1.00  0.00     0.134 A 
ATOM      7  C   UNL     1      75.811  55.197  19.256  1.00  0.00     0.093 A 
ATOM      8  C   UNL     1      75.291  54.472  20.328  1.00  0.00     0.123 A 
ATOM      9  C   UNL     1      73.966  54.037  20.293  1.00  0.00     0.094 A 
ATOM     10  C   UNL     1      73.148  54.349  19.204  1.00  0.00     0.146 A 
ATOM     11  O   UNL     1      71.889  53.925  19.215  1.00  0.00    -0.452 OA
ENDROOT
BRANCH   1  12
ATOM     12  C   UNL     1      69.653  53.630  18.364  1.00  0.00     0.025 A 
ATOM     13  C   UNL     1      69.264  52.482  17.651  1.00  0.00     0.016 A 
ATOM     14  C   UNL     1      67.974  51.964  17.798  1.00  0.00     0.051 A 
ATOM     15  C   UNL     1      67.063  52.571  18.666  1.00  0.00     0.157 A 
ATOM     16  C   UNL     1      68.741  54.226  19.249  1.00  0.00     0.062 A 
ATOM     17  C   UNL     1      67.447  53.707  19.398  1.00  0.00     0.158 A 
BRANCH  15  18
ATOM     18  O   UNL     1      65.782  52.032  18.791  1.00  0.00    -0.504 OA
ATOM     19  H   UNL     1      65.627  51.082  19.103  1.00  0.00     0.293 HD
ENDBRANCH  15  18
BRANCH  17  20
ATOM     20  O   UNL     1      66.544  54.315  20.270  1.00  0.00    -0.504 OA
ATOM     21  H   UNL     1      66.555  54.121  21.265  1.00  0.00     0.293 HD
ENDBRANCH  17  20
ENDBRANCH   1  12
BRANCH   2  22
ATOM     22  O   UNL     1      70.480  55.342  16.176  1.00  0.00    -0.502 OA
ATOM     23  H   UNL     1      69.689  55.944  16.368  1.00  0.00     0.293 HD
ENDBRANCH   2  22
BRANCH   6  24
ATOM     24  O   UNL     1      75.670  56.140  17.075  1.00  0.00    -0.507 OA
ATOM     25  H   UNL     1      76.560  55.866  16.691  1.00  0.00     0.293 HD
ENDBRANCH   6  24
BRANCH   8  26
ATOM     26  O   UNL     1      76.105  54.182  21.420  1.00  0.00    -0.508 OA
ATOM     27  H   UNL     1      75.856  54.472  22.359  1.00  0.00     0.293 HD
ENDBRANCH   8  26
TORSDOF 6
ENDMDL
MODEL 5
REMARK VINA RESULT:    -5.274      3.088      6.587
REMARK INTER + INTRA:          -6.645
REMARK INTER:                  -6.323
REMARK INTRA:                  -0.322
REMARK UNBOUND:                -0.292
REMARK SMILES O=c1c(O)c(-c2ccc(O)c(O)c2)oc2cc(O)cc(O)c12
REMARK SMILES IDX 5 1 3 2 2 3 1 4 22 5 20 6 19 7 17 8 16 9 15 10 14 11 6 12
REMARK SMILES IDX 7 13 8 14 9 15 13 16 11 17 10 18 12 20 4 22 21 24 18 26
REMARK H PARENT 10 19 12 21 4 23 21 25 18 27
REMARK Flexibility Score: inf
ROOT
ATOM      1  C   UNL     1      70.765  53.544  20.013  1.00  0.00     0.180 A 
ATOM      2  C   UNL     1      71.451  53.121  21.165  1.00  0.00     0.208 A 
ATOM      3  C   UNL     1      72.807  53.455  21.311  1.00  0.00     0.238 A 
ATOM      4  O   UNL     1      73.429  53.027  22.319  1.00  0.00    -0.285 OA
ATOM      5  C   UNL     1      73.456  54.220  20.313  1.00  0.00     0.111 A 
ATOM      6  C   UNL     1      74.815  54.650  20.376  1.00  0.00     0.134 A 
ATOM      7  C   UNL     1      75.390  55.291  19.272  1.00  0.00     0.093 A 
ATOM      8  C   UNL     1      74.638  55.576  18.133  1.00  0.00     0.123 A 
ATOM      9  C   UNL     1      73.290  55.214  18.084  1.00  0.00     0.094 A 
ATOM     10  C   UNL     1      72.699  54.541  19.155  1.00  0.00     0.146 A 
ATOM     11  O   UNL     1      71.418  54.204  19.064  1.00  0.00    -0.452 OA
ENDROOT
BRANCH   1  12
ATOM     12  C   UNL     1      69.329  53.253  19.799  1.00  0.00     0.025 A 
ATOM     13  C   UNL     1      68.908  52.054  19.195  1.00  0.00     0.016 A 
ATOM     14  C   UNL     1      67.546  51.790  19.025  1.00  0.00     0.051 A 
ATOM     15  C   UNL     1      66.587  52.707  19.466  1.00  0.00     0.157 A 
ATOM     16  C   UNL     1      68.362  54.162  20.259  1.00  0.00     0.062 A 
ATOM     17  C   UNL     1      66.995  53.898  20.089  1.00  0.00     0.158 A 
BRANCH  15  18
ATOM     18  O   UNL     1      65.235  52.416  19.280  1.00  0.00    -0.504 OA
ATOM     19  H   UNL     1      64.853  52.197  18.369  1.00  0.00     0.293 HD
ENDBRANCH  15  18
BRANCH  17  20
ATOM     20  O   UNL     1      66.044  54.814  20.537  1.00  0.00    -0.504 OA
ATOM     21  H   UNL     1      65.368  55.228  19.906  1.00  0.00     0.293 HD
ENDBRANCH  17  20
ENDBRANCH   1  12
BRANCH   2  22
ATOM     22  O   UNL     1      70.797  52.348  22.129  1.00  0.00    -0.502 OA
ATOM     23  H   UNL     1      70.580  51.369  21.985  1.00  0.00     0.293 HD
ENDBRANCH   2  22
BRANCH   6  24
ATOM     24  O   UNL     1      75.630  54.497  21.503  1.00  0.00    -0.507 OA
ATOM     25  H   UNL     1      76.458  53.924  21.539  1.00  0.00     0.293 HD
ENDBRANCH   6  24
BRANCH   8  26
ATOM     26  O   UNL     1      75.237  56.229  17.059  1.00  0.00    -0.508 OA
ATOM     27  H   UNL     1      76.239  56.190  16.906  1.00  0.00     0.293 HD
ENDBRANCH   8  26
TORSDOF 6
ENDMDL
MODEL 6
REMARK VINA RESULT:    -5.268      4.338      7.850
REMARK INTER + INTRA:          -6.637
REMARK INTER:                  -6.437
REMARK INTRA:                  -0.201
REMARK UNBOUND:                -0.292
REMARK SMILES O=c1c(O)c(-c2ccc(O)c(O)c2)oc2cc(O)cc(O)c12
REMARK SMILES IDX 5 1 3 2 2 3 1 4 22 5 20 6 19 7 17 8 16 9 15 10 14 11 6 12
REMARK SMILES IDX 7 13 8 14 9 15 13 16 11 17 10 18 12 20 4 22 21 24 18 26
REMARK H PARENT 10 19 12 21 4 23 21 25 18 27
REMARK Flexibility Score: inf
ROOT
ATOM      1  C   UNL     1      68.910  53.003  21.689  1.00  0.00     0.180 A 
ATOM      2  C   UNL     1      68.952  53.217  20.300  1.00  0.00     0.208 A 
ATOM      3  C   UNL     1      68.316  54.349  19.766  1.00  0.00     0.238 A 
ATOM      4  O   UNL     1      68.311  54.505  18.516  1.00  0.00    -0.285 OA
ATOM      5  C   UNL     1      67.658  55.260  20.626  1.00  0.00     0.111 A 
ATOM      6  C   UNL     1      67.015  56.460  20.199  1.00  0.00     0.134 A 
ATOM      7  C   UNL     1      66.284  57.219  21.121  1.00  0.00     0.093 A 
ATOM      8  C   UNL     1      66.228  56.859  22.467  1.00  0.00     0.123 A 
ATOM      9  C   UNL     1      66.904  55.720  22.907  1.00  0.00     0.094 A 
ATOM     10  C   UNL     1      67.610  54.922  22.004  1.00  0.00     0.146 A 
ATOM     11  O   UNL     1      68.230  53.841  22.463  1.00  0.00    -0.452 OA
ENDROOT
BRANCH   1  12
ATOM     12  C   UNL     1      69.578  51.847  22.329  1.00  0.00     0.025 A 
ATOM     13  C   UNL     1      70.690  52.020  23.173  1.00  0.00     0.016 A 
ATOM     14  C   UNL     1      71.290  50.917  23.785  1.00  0.00     0.051 A 
ATOM     15  C   UNL     1      70.784  49.631  23.578  1.00  0.00     0.157 A 
ATOM     16  C   UNL     1      69.061  50.556  22.139  1.00  0.00     0.062 A 
ATOM     17  C   UNL     1      69.662  49.447  22.753  1.00  0.00     0.158 A 
BRANCH  15  18
ATOM     18  O   UNL     1      71.405  48.548  24.201  1.00  0.00    -0.504 OA
ATOM     19  H   UNL     1      72.387  48.341  24.067  1.00  0.00     0.293 HD
ENDBRANCH  15  18
BRANCH  17  20
ATOM     20  O   UNL     1      69.147  48.168  22.546  1.00  0.00    -0.504 OA
ATOM     21  H   UNL     1      68.401  47.997  21.882  1.00  0.00     0.293 HD
ENDBRANCH  17  20
ENDBRANCH   1  12
BRANCH   2  22
ATOM     22  O   UNL     1      69.588  52.293  19.465  1.00  0.00    -0.502 OA
ATOM     23  H   UNL     1      69.755  52.472  18.483  1.00  0.00     0.293 HD
ENDBRANCH   2  22
BRANCH   6  24
ATOM     24  O   UNL     1      67.086  56.961  18.894  1.00  0.00    -0.507 OA
ATOM     25  H   UNL     1      67.828  57.546  18.544  1.00  0.00     0.293 HD
ENDBRANCH   6  24
BRANCH   8  26
ATOM     26  O   UNL     1      65.505  57.646  23.359  1.00  0.00    -0.508 OA
ATOM     27  H   UNL     1      65.420  58.648  23.234  1.00  0.00     0.293 HD
ENDBRANCH   8  26
TORSDOF 6
ENDMDL
MODEL 7
REMARK VINA RESULT:    -5.252      5.250      8.057
REMARK INTER + INTRA:          -6.618
REMARK INTER:                  -6.299
REMARK INTRA:                  -0.319
REMARK UNBOUND:                -0.292
REMARK SMILES O=c1c(O)c(-c2ccc(O)c(O)c2)oc2cc(O)cc(O)c12
REMARK SMILES IDX 5 1 3 2 2 3 1 4 22 5 20 6 19 7 17 8 16 9 15 10 14 11 6 12
REMARK SMILES IDX 7 13 8 14 9 15 13 16 11 17 10 18 12 20 4 22 21 24 18 26
REMARK H PARENT 10 19 12 21 4 23 21 25 18 27
REMARK Flexibility Score: inf
ROOT
ATOM      1  C   UNL     1      68.723  54.651  23.736  1.00  0.00     0.180 A 
ATOM      2  C   UNL     1      69.547  53.563  24.071  1.00  0.00     0.208 A 
ATOM      3  C   UNL     1      69.689  52.508  23.154  1.00  0.00     0.238 A 
ATOM      4  O   UNL     1      70.386  51.512  23.484  1.00  0.00    -0.285 OA
ATOM      5  C   UNL     1      69.019  52.561  21.909  1.00  0.00     0.111 A 
ATOM      6  C   UNL     1      69.123  51.569  20.889  1.00  0.00     0.134 A 
ATOM      7  C   UNL     1      68.313  51.660  19.751  1.00  0.00     0.093 A 
ATOM      8  C   UNL     1      67.452  52.741  19.564  1.00  0.00     0.123 A 
ATOM      9  C   UNL     1      67.387  53.749  20.528  1.00  0.00     0.094 A 
ATOM     10  C   UNL     1      68.155  53.666  21.691  1.00  0.00     0.146 A 
ATOM     11  O   UNL     1      68.055  54.641  22.587  1.00  0.00    -0.452 OA
ENDROOT
BRANCH   1  12
ATOM     12  C   UNL     1      68.542  55.811  24.638  1.00  0.00     0.025 A 
ATOM     13  C   UNL     1      69.315  56.977  24.493  1.00  0.00     0.016 A 
ATOM     14  C   UNL     1      69.111  58.069  25.341  1.00  0.00     0.051 A 
ATOM     15  C   UNL     1      68.128  58.019  26.334  1.00  0.00     0.157 A 
ATOM     16  C   UNL     1      67.543  55.773  25.623  1.00  0.00     0.062 A 
ATOM     17  C   UNL     1      67.337  56.867  26.475  1.00  0.00     0.158 A 
BRANCH  15  18
ATOM     18  O   UNL     1      67.949  59.124  27.167  1.00  0.00    -0.504 OA
ATOM     19  H   UNL     1      67.162  59.752  27.066  1.00  0.00     0.293 HD
ENDBRANCH  15  18
BRANCH  17  20
ATOM     20  O   UNL     1      66.350  56.813  27.459  1.00  0.00    -0.504 OA
ATOM     21  H   UNL     1      66.394  57.395  28.287  1.00  0.00     0.293 HD
ENDBRANCH  17  20
ENDBRANCH   1  12
BRANCH   2  22
ATOM     22  O   UNL     1      70.183  53.520  25.315  1.00  0.00    -0.502 OA
ATOM     23  H   UNL     1      70.934  52.872  25.520  1.00  0.00     0.293 HD
ENDBRANCH   2  22
BRANCH   6  24
ATOM     24  O   UNL     1      70.019  50.496  20.933  1.00  0.00    -0.507 OA
ATOM     25  H   UNL     1      70.981  50.563  21.227  1.00  0.00     0.293 HD
ENDBRANCH   6  24
BRANCH   8  26
ATOM     26  O   UNL     1      66.672  52.808  18.412  1.00  0.00    -0.508 OA
ATOM     27  H   UNL     1      66.565  52.009  17.797  1.00  0.00     0.293 HD
ENDBRANCH   8  26
TORSDOF 6
ENDMDL
MODEL 8
REMARK VINA RESULT:    -5.245      2.437      3.853
REMARK INTER + INTRA:          -6.610
REMARK INTER:                  -6.468
REMARK INTRA:                  -0.142
REMARK UNBOUND:                -0.292
REMARK SMILES O=c1c(O)c(-c2ccc(O)c(O)c2)oc2cc(O)cc(O)c12
REMARK SMILES IDX 5 1 3 2 2 3 1 4 22 5 20 6 19 7 17 8 16 9 15 10 14 11 6 12
REMARK SMILES IDX 7 13 8 14 9 15 13 16 11 17 10 18 12 20 4 22 21 24 18 26
REMARK H PARENT 10 19 12 21 4 23 21 25 18 27
REMARK Flexibility Score: inf
ROOT
ATOM      1  C   UNL     1      71.513  53.889  18.375  1.00  0.00     0.180 A 
ATOM      2  C   UNL     1      70.469  53.718  17.449  1.00  0.00     0.208 A 
ATOM      3  C   UNL     1      69.342  52.969  17.825  1.00  0.00     0.238 A 
ATOM      4  O   UNL     1      68.436  52.773  16.973  1.00  0.00    -0.285 OA
ATOM      5  C   UNL     1      69.266  52.413  19.125  1.00  0.00     0.111 A 
ATOM      6  C   UNL     1      68.155  51.671  19.626  1.00  0.00     0.134 A 
ATOM      7  C   UNL     1      68.243  51.058  20.881  1.00  0.00     0.093 A 
ATOM      8  C   UNL     1      69.374  51.215  21.682  1.00  0.00     0.123 A 
ATOM      9  C   UNL     1      70.443  51.989  21.227  1.00  0.00     0.094 A 
ATOM     10  C   UNL     1      70.399  52.582  19.963  1.00  0.00     0.146 A 
ATOM     11  O   UNL     1      71.441  53.302  19.564  1.00  0.00    -0.452 OA
ENDROOT
BRANCH   1  12
ATOM     12  C   UNL     1      72.721  54.686  18.062  1.00  0.00     0.025 A 
ATOM     13  C   UNL     1      73.992  54.089  17.984  1.00  0.00     0.016 A 
ATOM     14  C   UNL     1      75.114  54.857  17.664  1.00  0.00     0.051 A 
ATOM     15  C   UNL     1      74.985  56.224  17.403  1.00  0.00     0.157 A 
ATOM     16  C   UNL     1      72.593  56.056  17.780  1.00  0.00     0.062 A 
ATOM     17  C   UNL     1      73.719  56.828  17.458  1.00  0.00     0.158 A 
BRANCH  15  18
ATOM     18  O   UNL     1      76.125  56.965  17.088  1.00  0.00    -0.504 OA
ATOM     19  H   UNL     1      76.079  57.815  16.540  1.00  0.00     0.293 HD
ENDBRANCH  15  18
BRANCH  17  20
ATOM     20  O   UNL     1      73.581  58.190  17.193  1.00  0.00    -0.504 OA
ATOM     21  H   UNL     1      72.925  58.533  16.502  1.00  0.00     0.293 HD
ENDBRANCH  17  20
ENDBRANCH   1  12
BRANCH   2  22
ATOM     22  O   UNL     1      70.574  54.256  16.163  1.00  0.00    -0.502 OA
ATOM     23  H   UNL     1      70.616  53.678  15.333  1.00  0.00     0.293 HD
ENDBRANCH   2  22
BRANCH   6  24
ATOM     24  O   UNL     1      66.941  51.530  18.946  1.00  0.00    -0.507 OA
ATOM     25  H   UNL     1      66.540  50.649  18.664  1.00  0.00     0.293 HD
ENDBRANCH   6  24
BRANCH   8  26
ATOM     26  O   UNL     1      69.421  50.604  22.932  1.00  0.00    -0.508 OA
ATOM     27  H   UNL     1      68.933  49.735  23.117  1.00  0.00     0.293 HD
ENDBRANCH   8  26
TORSDOF 6
ENDMDL
MODEL 9
REMARK VINA RESULT:    -5.092      5.094      6.938
REMARK INTER + INTRA:          -6.426
REMARK INTER:                  -6.095
REMARK INTRA:                  -0.331
REMARK UNBOUND:                -0.292
REMARK SMILES O=c1c(O)c(-c2ccc(O)c(O)c2)oc2cc(O)cc(O)c12
REMARK SMILES IDX 5 1 3 2 2 3 1 4 22 5 20 6 19 7 17 8 16 9 15 10 14 11 6 12
REMARK SMILES IDX 7 13 8 14 9 15 13 16 11 17 10 18 12 20 4 22 21 24 18 26
REMARK H PARENT 10 19 12 21 4 23 21 25 18 27
REMARK Flexibility Score: inf
ROOT
ATOM      1  C   UNL     1      69.162  54.051  22.907  1.00  0.00     0.180 A 
ATOM      2  C   UNL     1      69.947  53.647  24.000  1.00  0.00     0.208 A 
ATOM      3  C   UNL     1      69.687  54.198  25.266  1.00  0.00     0.238 A 
ATOM      4  O   UNL     1      70.429  53.872  26.230  1.00  0.00    -0.285 OA
ATOM      5  C   UNL     1      68.638  55.134  25.425  1.00  0.00     0.111 A 
ATOM      6  C   UNL     1      68.260  55.725  26.668  1.00  0.00     0.134 A 
ATOM      7  C   UNL     1      67.292  56.736  26.687  1.00  0.00     0.093 A 
ATOM      8  C   UNL     1      66.641  57.131  25.519  1.00  0.00     0.123 A 
ATOM      9  C   UNL     1      66.959  56.517  24.306  1.00  0.00     0.094 A 
ATOM     10  C   UNL     1      67.947  55.531  24.251  1.00  0.00     0.146 A 
ATOM     11  O   UNL     1      68.227  54.979  23.076  1.00  0.00    -0.452 OA
ENDROOT
BRANCH   1  12
ATOM     12  C   UNL     1      69.359  53.498  21.548  1.00  0.00     0.025 A 
ATOM     13  C   UNL     1      68.671  52.348  21.120  1.00  0.00     0.016 A 
ATOM     14  C   UNL     1      68.855  51.856  19.825  1.00  0.00     0.051 A 
ATOM     15  C   UNL     1      69.712  52.510  18.935  1.00  0.00     0.157 A 
ATOM     16  C   UNL     1      70.203  54.163  20.645  1.00  0.00     0.062 A 
ATOM     17  C   UNL     1      70.388  53.671  19.344  1.00  0.00     0.158 A 
BRANCH  15  18
ATOM     18  O   UNL     1      69.876  51.995  17.649  1.00  0.00    -0.504 OA
ATOM     19  H   UNL     1      70.565  51.284  17.439  1.00  0.00     0.293 HD
ENDBRANCH  15  18
BRANCH  17  20
ATOM     20  O   UNL     1      71.240  54.332  18.461  1.00  0.00    -0.504 OA
ATOM     21  H   UNL     1      71.368  54.013  17.508  1.00  0.00     0.293 HD
ENDBRANCH  17  20
ENDBRANCH   1  12
BRANCH   2  22
ATOM     22  O   UNL     1      70.993  52.738  23.817  1.00  0.00    -0.502 OA
ATOM     23  H   UNL     1      70.865  51.737  23.897  1.00  0.00     0.293 HD
ENDBRANCH   2  22
BRANCH   6  24
ATOM     24  O   UNL     1      68.783  55.338  27.907  1.00  0.00    -0.507 OA
ATOM     25  H   UNL     1      68.369  54.649  28.514  1.00  0.00     0.293 HD
ENDBRANCH   6  24
BRANCH   8  26
ATOM     26  O   UNL     1      65.671  58.129  25.576  1.00  0.00    -0.508 OA
ATOM     27  H   UNL     1      65.877  59.048  25.951  1.00  0.00     0.293 HD
ENDBRANCH   8  26
TORSDOF 6
ENDMDL
