MODEL 1
REMARK VINA RESULT:    -6.827      0.000      0.000
REMARK INTER + INTRA:         -12.728
REMARK INTER:                 -10.819
REMARK INTRA:                  -1.909
REMARK UNBOUND:                -1.909
REMARK SMILES C[C@H]1O[C@H](O[C@H]2[C@@H](Oc3cc(O)c4c(c3)O[C@@H](c3ccc(O)cc3)CC4=O)O[C@@H](CO)[C@@H](O)[C@@H]2O)[C@H](O)[C@@H](O)[C@@H]1O
REMARK SMILES IDX 6 1 34 2 32 3 29 4 28 5 7 6 5 7 4 8 1 9 2 10 40 11 3 12
REMARK SMILES IDX 38 13 36 14 41 15 39 17 37 19 35 21 8 23 9 24 10 25 15 26
REMARK SMILES IDX 11 27 14 28 13 29 16 30 26 31 17 32 27 33 25 34 12 35 18 37
REMARK SMILES IDX 19 38 24 39 20 40 23 41 21 42 22 43 33 45 30 47 31 48
REMARK H PARENT 41 16 39 18 37 20 35 22 12 36 22 44 33 46 31 49
REMARK Flexibility Score: inf
ROOT
ATOM      1  C   UNL     1     171.293 168.757 164.649  1.00  0.00     0.221 C 
ATOM      2  C   UNL     1     172.418 169.352 163.786  1.00  0.00     0.181 C 
ATOM      3  C   UNL     1     172.213 170.871 163.647  1.00  0.00     0.177 C 
ATOM      4  C   UNL     1     172.028 171.551 165.025  1.00  0.00     0.179 C 
ATOM      5  O   UNL     1     170.991 170.943 165.783  1.00  0.00    -0.332 OA
ATOM      6  C   UNL     1     171.150 169.541 165.967  1.00  0.00     0.339 C 
ENDROOT
BRANCH   1   7
ATOM      7  O   UNL     1     171.608 167.419 164.990  1.00  0.00    -0.337 OA
BRANCH   7   8
ATOM      8  C   UNL     1     170.620 166.478 164.595  1.00  0.00     0.282 C 
ATOM      9  C   UNL     1     172.454 164.960 161.784  1.00  0.00     0.041 C 
ATOM     10  C   UNL     1     172.186 165.368 163.235  1.00  0.00     0.150 C 
ATOM     11  C   UNL     1     172.258 164.139 164.169  1.00  0.00     0.174 C 
ATOM     12  O   UNL     1     170.905 165.979 163.296  1.00  0.00    -0.344 OA
ATOM     13  C   UNL     1     171.898 164.549 165.607  1.00  0.00     0.179 C 
ATOM     14  C   UNL     1     170.568 165.322 165.616  1.00  0.00     0.202 C 
BRANCH  11  15
ATOM     15  O   UNL     1     173.558 163.608 164.142  1.00  0.00    -0.388 OA
ATOM     16  H   UNL     1     174.053 164.089 163.429  1.00  0.00     0.211 HD
ENDBRANCH  11  15
BRANCH  13  17
ATOM     17  O   UNL     1     171.785 163.397 166.403  1.00  0.00    -0.387 OA
ATOM     18  H   UNL     1     171.141 162.792 165.948  1.00  0.00     0.211 HD
ENDBRANCH  13  17
BRANCH  14  19
ATOM     19  O   UNL     1     170.330 165.827 166.905  1.00  0.00    -0.385 OA
ATOM     20  H   UNL     1     170.996 166.546 167.059  1.00  0.00     0.211 HD
ENDBRANCH  14  19
ENDBRANCH   7   8
ENDBRANCH   1   7
BRANCH   2  21
ATOM     21  O   UNL     1     172.391 168.756 162.513  1.00  0.00    -0.387 OA
ATOM     22  H   UNL     1     172.424 167.775 162.649  1.00  0.00     0.211 HD
ENDBRANCH   2  21
BRANCH   6  23
ATOM     23  O   UNL     1     172.240 169.236 166.839  1.00  0.00    -0.462 OA
BRANCH  23  24
ATOM     24  C   UNL     1     172.212 169.385 168.230  1.00  0.00     0.130 A 
ATOM     25  C   UNL     1     171.089 169.052 169.002  1.00  0.00     0.093 A 
ATOM     26  C   UNL     1     173.351 169.885 168.859  1.00  0.00     0.094 A 
ATOM     27  C   UNL     1     171.096 169.221 170.395  1.00  0.00     0.133 A 
ATOM     28  C   UNL     1     173.407 169.986 170.248  1.00  0.00     0.138 A 
ATOM     29  C   UNL     1     172.283 169.665 171.041  1.00  0.00     0.102 A 
ATOM     30  O   UNL     1     174.601 170.416 170.840  1.00  0.00    -0.484 OA
ATOM     31  C   UNL     1     172.435 169.828 172.517  1.00  0.00     0.174 C 
ATOM     32  C   UNL     1     174.870 170.242 172.231  1.00  0.00     0.211 C 
ATOM     33  O   UNL     1     171.587 169.373 173.331  1.00  0.00    -0.294 OA
ATOM     34  C   UNL     1     173.622 170.572 173.060  1.00  0.00     0.131 C 
BRANCH  27  35
ATOM     35  O   UNL     1     169.898 168.958 171.068  1.00  0.00    -0.507 OA
ATOM     36  H   UNL     1     169.671 169.273 171.995  1.00  0.00     0.293 HD
ENDBRANCH  27  35
BRANCH  32  37
ATOM     37  C   UNL     1     176.032 171.113 172.644  1.00  0.00    -0.007 A 
ATOM     38  C   UNL     1     177.289 170.969 172.030  1.00  0.00     0.011 A 
ATOM     39  C   UNL     1     175.853 172.112 173.614  1.00  0.00     0.011 A 
ATOM     40  C   UNL     1     178.355 171.796 172.398  1.00  0.00     0.046 A 
ATOM     41  C   UNL     1     176.922 172.936 173.983  1.00  0.00     0.046 A 
ATOM     42  C   UNL     1     178.173 172.781 173.378  1.00  0.00     0.115 A 
BRANCH  42  43
ATOM     43  O   UNL     1     179.225 173.613 173.753  1.00  0.00    -0.508 OA
ATOM     44  H   UNL     1     179.080 174.597 173.943  1.00  0.00     0.293 HD
ENDBRANCH  42  43
ENDBRANCH  32  37
ENDBRANCH  23  24
ENDBRANCH   6  23
BRANCH   3  45
ATOM     45  O   UNL     1     173.249 171.474 162.908  1.00  0.00    -0.387 OA
ATOM     46  H   UNL     1     174.117 171.177 163.290  1.00  0.00     0.211 HD
ENDBRANCH   3  45
BRANCH   4  47
ATOM     47  C   UNL     1     173.323 171.728 165.847  1.00  0.00     0.191 C 
BRANCH  47  48
ATOM     48  O   UNL     1     174.341 170.915 165.326  1.00  0.00    -0.394 OA
ATOM     49  H   UNL     1     175.160 171.134 165.841  1.00  0.00     0.210 HD
ENDBRANCH  47  48
ENDBRANCH   4  47
TORSDOF 14
ENDMDL
MODEL 2
REMARK VINA RESULT:    -6.825      4.980      8.522
REMARK INTER + INTRA:         -12.725
REMARK INTER:                 -10.334
REMARK INTRA:                  -2.391
REMARK UNBOUND:                -1.909
REMARK SMILES C[C@H]1O[C@H](O[C@H]2[C@@H](Oc3cc(O)c4c(c3)O[C@@H](c3ccc(O)cc3)CC4=O)O[C@@H](CO)[C@@H](O)[C@@H]2O)[C@H](O)[C@@H](O)[C@@H]1O
REMARK SMILES IDX 6 1 34 2 32 3 29 4 28 5 7 6 5 7 4 8 1 9 2 10 40 11 3 12
REMARK SMILES IDX 38 13 36 14 41 15 39 17 37 19 35 21 8 23 9 24 10 25 15 26
REMARK SMILES IDX 11 27 14 28 13 29 16 30 26 31 17 32 27 33 25 34 12 35 18 37
REMARK SMILES IDX 19 38 24 39 20 40 23 41 21 42 22 43 33 45 30 47 31 48
REMARK H PARENT 41 16 39 18 37 20 35 22 12 36 22 44 33 46 31 49
REMARK Flexibility Score: inf
ROOT
ATOM      1  C   UNL     1     170.481 165.488 173.488  1.00  0.00     0.221 C 
ATOM      2  C   UNL     1     170.192 165.673 174.987  1.00  0.00     0.181 C 
ATOM      3  C   UNL     1     169.992 164.296 175.646  1.00  0.00     0.177 C 
ATOM      4  C   UNL     1     171.160 163.334 175.327  1.00  0.00     0.179 C 
ATOM      5  O   UNL     1     171.392 163.224 173.929  1.00  0.00    -0.332 OA
ATOM      6  C   UNL     1     171.614 164.469 173.277  1.00  0.00     0.339 C 
ENDROOT
BRANCH   1   7
ATOM      7  O   UNL     1     170.912 166.717 172.930  1.00  0.00    -0.337 OA
BRANCH   7   8
ATOM      8  C   UNL     1     170.051 167.223 171.921  1.00  0.00     0.282 C 
ATOM      9  C   UNL     1     168.398 169.835 173.925  1.00  0.00     0.041 C 
ATOM     10  C   UNL     1     169.559 169.101 173.250  1.00  0.00     0.150 C 
ATOM     11  C   UNL     1     170.357 170.063 172.341  1.00  0.00     0.174 C 
ATOM     12  O   UNL     1     169.026 168.018 172.501  1.00  0.00    -0.344 OA
ATOM     13  C   UNL     1     171.464 169.292 171.601  1.00  0.00     0.179 C 
ATOM     14  C   UNL     1     170.869 168.054 170.909  1.00  0.00     0.202 C 
BRANCH  11  15
ATOM     15  O   UNL     1     170.933 171.076 173.126  1.00  0.00    -0.388 OA
ATOM     16  H   UNL     1     171.913 170.923 173.124  1.00  0.00     0.211 HD
ENDBRANCH  11  15
BRANCH  13  17
ATOM     17  O   UNL     1     172.055 170.135 170.646  1.00  0.00    -0.387 OA
ATOM     18  H   UNL     1     172.920 170.442 171.026  1.00  0.00     0.211 HD
ENDBRANCH  13  17
BRANCH  14  19
ATOM     19  O   UNL     1     171.907 167.274 170.373  1.00  0.00    -0.385 OA
ATOM     20  H   UNL     1     172.689 167.876 170.263  1.00  0.00     0.211 HD
ENDBRANCH  14  19
ENDBRANCH   7   8
ENDBRANCH   1   7
BRANCH   2  21
ATOM     21  O   UNL     1     169.027 166.443 175.145  1.00  0.00    -0.387 OA
ATOM     22  H   UNL     1     169.311 167.344 175.445  1.00  0.00     0.211 HD
ENDBRANCH   2  21
BRANCH   6  23
ATOM     23  O   UNL     1     172.869 165.047 173.642  1.00  0.00    -0.462 OA
BRANCH  23  24
ATOM     24  C   UNL     1     173.781 165.606 172.739  1.00  0.00     0.130 A 
ATOM     25  C   UNL     1     174.205 164.934 171.582  1.00  0.00     0.093 A 
ATOM     26  C   UNL     1     174.280 166.878 173.013  1.00  0.00     0.094 A 
ATOM     27  C   UNL     1     175.125 165.523 170.703  1.00  0.00     0.133 A 
ATOM     28  C   UNL     1     175.134 167.514 172.113  1.00  0.00     0.138 A 
ATOM     29  C   UNL     1     175.578 166.850 170.948  1.00  0.00     0.102 A 
ATOM     30  O   UNL     1     175.543 168.823 172.391  1.00  0.00    -0.484 OA
ATOM     31  C   UNL     1     176.510 167.606 170.059  1.00  0.00     0.174 C 
ATOM     32  C   UNL     1     176.133 169.665 171.401  1.00  0.00     0.211 C 
ATOM     33  O   UNL     1     176.799 167.206 168.899  1.00  0.00    -0.294 OA
ATOM     34  C   UNL     1     177.143 168.873 170.560  1.00  0.00     0.131 C 
BRANCH  27  35
ATOM     35  O   UNL     1     175.565 164.739 169.631  1.00  0.00    -0.507 OA
ATOM     36  H   UNL     1     176.331 164.964 169.021  1.00  0.00     0.293 HD
ENDBRANCH  27  35
BRANCH  32  37
ATOM     37  C   UNL     1     176.799 170.849 172.061  1.00  0.00    -0.007 A 
ATOM     38  C   UNL     1     176.108 171.622 173.010  1.00  0.00     0.011 A 
ATOM     39  C   UNL     1     178.137 171.158 171.767  1.00  0.00     0.011 A 
ATOM     40  C   UNL     1     176.738 172.701 173.638  1.00  0.00     0.046 A 
ATOM     41  C   UNL     1     178.763 172.240 172.393  1.00  0.00     0.046 A 
ATOM     42  C   UNL     1     178.069 173.013 173.328  1.00  0.00     0.115 A 
BRANCH  42  43
ATOM     43  O   UNL     1     178.709 174.085 173.947  1.00  0.00    -0.508 OA
ATOM     44  H   UNL     1     179.661 174.007 174.285  1.00  0.00     0.293 HD
ENDBRANCH  42  43
ENDBRANCH  32  37
ENDBRANCH  23  24
ENDBRANCH   6  23
BRANCH   3  45
ATOM     45  O   UNL     1     169.777 164.406 177.034  1.00  0.00    -0.387 OA
ATOM     46  H   UNL     1     168.800 164.339 177.204  1.00  0.00     0.211 HD
ENDBRANCH   3  45
BRANCH   4  47
ATOM     47  C   UNL     1     172.462 163.601 176.113  1.00  0.00     0.191 C 
BRANCH  47  48
ATOM     48  O   UNL     1     172.288 163.268 177.465  1.00  0.00    -0.394 OA
ATOM     49  H   UNL     1     173.146 162.874 177.765  1.00  0.00     0.210 HD
ENDBRANCH  47  48
ENDBRANCH   4  47
TORSDOF 14
ENDMDL
MODEL 3
REMARK VINA RESULT:    -6.789      4.343      7.567
REMARK INTER + INTRA:         -12.667
REMARK INTER:                 -10.224
REMARK INTRA:                  -2.443
REMARK UNBOUND:                -1.909
REMARK SMILES C[C@H]1O[C@H](O[C@H]2[C@@H](Oc3cc(O)c4c(c3)O[C@@H](c3ccc(O)cc3)CC4=O)O[C@@H](CO)[C@@H](O)[C@@H]2O)[C@H](O)[C@@H](O)[C@@H]1O
REMARK SMILES IDX 6 1 34 2 32 3 29 4 28 5 7 6 5 7 4 8 1 9 2 10 40 11 3 12
REMARK SMILES IDX 38 13 36 14 41 15 39 17 37 19 35 21 8 23 9 24 10 25 15 26
REMARK SMILES IDX 11 27 14 28 13 29 16 30 26 31 17 32 27 33 25 34 12 35 18 37
REMARK SMILES IDX 19 38 24 39 20 40 23 41 21 42 22 43 33 45 30 47 31 48
REMARK H PARENT 41 16 39 18 37 20 35 22 12 36 22 44 33 46 31 49
REMARK Flexibility Score: inf
ROOT
ATOM      1  C   UNL     1     174.491 163.000 170.380  1.00  0.00     0.221 C 
ATOM      2  C   UNL     1     175.748 162.289 170.908  1.00  0.00     0.181 C 
ATOM      3  C   UNL     1     176.186 161.204 169.908  1.00  0.00     0.177 C 
ATOM      4  C   UNL     1     176.317 161.769 168.473  1.00  0.00     0.179 C 
ATOM      5  O   UNL     1     175.133 162.432 168.052  1.00  0.00    -0.332 OA
ATOM      6  C   UNL     1     174.703 163.467 168.929  1.00  0.00     0.339 C 
ENDROOT
BRANCH   1   7
ATOM      7  O   UNL     1     174.231 164.154 171.159  1.00  0.00    -0.337 OA
BRANCH   7   8
ATOM      8  C   UNL     1     172.996 164.108 171.859  1.00  0.00     0.282 C 
ATOM      9  C   UNL     1     174.347 163.540 175.239  1.00  0.00     0.041 C 
ATOM     10  C   UNL     1     174.128 164.275 173.914  1.00  0.00     0.150 C 
ATOM     11  C   UNL     1     173.638 165.719 174.167  1.00  0.00     0.174 C 
ATOM     12  O   UNL     1     173.182 163.543 173.149  1.00  0.00    -0.344 OA
ATOM     13  C   UNL     1     173.336 166.415 172.829  1.00  0.00     0.179 C 
ATOM     14  C   UNL     1     172.412 165.532 171.973  1.00  0.00     0.202 C 
BRANCH  11  15
ATOM     15  O   UNL     1     174.630 166.435 174.858  1.00  0.00    -0.388 OA
ATOM     16  H   UNL     1     174.583 166.153 175.808  1.00  0.00     0.211 HD
ENDBRANCH  11  15
BRANCH  13  17
ATOM     17  O   UNL     1     172.719 167.651 173.079  1.00  0.00    -0.387 OA
ATOM     18  H   UNL     1     173.266 168.345 172.624  1.00  0.00     0.211 HD
ENDBRANCH  13  17
BRANCH  14  19
ATOM     19  O   UNL     1     172.272 166.101 170.697  1.00  0.00    -0.385 OA
ATOM     20  H   UNL     1     173.047 166.708 170.568  1.00  0.00     0.211 HD
ENDBRANCH  14  19
ENDBRANCH   7   8
ENDBRANCH   1   7
BRANCH   2  21
ATOM     21  O   UNL     1     175.460 161.696 172.149  1.00  0.00    -0.387 OA
ATOM     22  H   UNL     1     174.521 161.923 172.370  1.00  0.00     0.211 HD
ENDBRANCH   2  21
BRANCH   6  23
ATOM     23  O   UNL     1     175.582 164.592 168.900  1.00  0.00    -0.462 OA
BRANCH  23  24
ATOM     24  C   UNL     1     175.166 165.927 168.832  1.00  0.00     0.130 A 
ATOM     25  C   UNL     1     174.224 166.377 167.894  1.00  0.00     0.093 A 
ATOM     26  C   UNL     1     175.717 166.833 169.737  1.00  0.00     0.094 A 
ATOM     27  C   UNL     1     173.835 167.724 167.852  1.00  0.00     0.133 A 
ATOM     28  C   UNL     1     175.286 168.159 169.764  1.00  0.00     0.138 A 
ATOM     29  C   UNL     1     174.346 168.632 168.822  1.00  0.00     0.102 A 
ATOM     30  O   UNL     1     175.808 169.011 170.744  1.00  0.00    -0.484 OA
ATOM     31  C   UNL     1     173.966 170.072 168.919  1.00  0.00     0.174 C 
ATOM     32  C   UNL     1     175.206 170.265 171.065  1.00  0.00     0.211 C 
ATOM     33  O   UNL     1     172.989 170.550 168.281  1.00  0.00    -0.294 OA
ATOM     34  C   UNL     1     174.777 170.993 169.785  1.00  0.00     0.131 C 
BRANCH  27  35
ATOM     35  O   UNL     1     172.968 168.098 166.820  1.00  0.00    -0.507 OA
ATOM     36  H   UNL     1     172.728 167.530 166.027  1.00  0.00     0.293 HD
ENDBRANCH  27  35
BRANCH  32  37
ATOM     37  C   UNL     1     176.169 171.110 171.863  1.00  0.00    -0.007 A 
ATOM     38  C   UNL     1     176.879 170.559 172.945  1.00  0.00     0.011 A 
ATOM     39  C   UNL     1     176.402 172.446 171.501  1.00  0.00     0.011 A 
ATOM     40  C   UNL     1     177.790 171.339 173.664  1.00  0.00     0.046 A 
ATOM     41  C   UNL     1     177.310 173.225 172.224  1.00  0.00     0.046 A 
ATOM     42  C   UNL     1     178.005 172.676 173.306  1.00  0.00     0.115 A 
BRANCH  42  43
ATOM     43  O   UNL     1     178.911 173.464 174.013  1.00  0.00    -0.508 OA
ATOM     44  H   UNL     1     178.777 174.463 174.112  1.00  0.00     0.293 HD
ENDBRANCH  42  43
ENDBRANCH  32  37
ENDBRANCH  23  24
ENDBRANCH   6  23
BRANCH   3  45
ATOM     45  O   UNL     1     177.368 160.559 170.320  1.00  0.00    -0.387 OA
ATOM     46  H   UNL     1     178.130 160.961 169.826  1.00  0.00     0.211 HD
ENDBRANCH   3  45
BRANCH   4  47
ATOM     47  C   UNL     1     177.582 162.617 168.217  1.00  0.00     0.191 C 
BRANCH  47  48
ATOM     48  O   UNL     1     178.701 161.785 168.069  1.00  0.00    -0.394 OA
ATOM     49  H   UNL     1     179.278 162.216 167.387  1.00  0.00     0.210 HD
ENDBRANCH  47  48
ENDBRANCH   4  47
TORSDOF 14
ENDMDL
MODEL 4
REMARK VINA RESULT:    -6.771      2.665      3.757
REMARK INTER + INTRA:         -12.639
REMARK INTER:                 -10.260
REMARK INTRA:                  -2.379
REMARK UNBOUND:                -1.909
REMARK SMILES C[C@H]1O[C@H](O[C@H]2[C@@H](Oc3cc(O)c4c(c3)O[C@@H](c3ccc(O)cc3)CC4=O)O[C@@H](CO)[C@@H](O)[C@@H]2O)[C@H](O)[C@@H](O)[C@@H]1O
REMARK SMILES IDX 6 1 34 2 32 3 29 4 28 5 7 6 5 7 4 8 1 9 2 10 40 11 3 12
REMARK SMILES IDX 38 13 36 14 41 15 39 17 37 19 35 21 8 23 9 24 10 25 15 26
REMARK SMILES IDX 11 27 14 28 13 29 16 30 26 31 17 32 27 33 25 34 12 35 18 37
REMARK SMILES IDX 19 38 24 39 20 40 23 41 21 42 22 43 33 45 30 47 31 48
REMARK H PARENT 41 16 39 18 37 20 35 22 12 36 22 44 33 46 31 49
REMARK Flexibility Score: inf
ROOT
ATOM      1  C   UNL     1     173.269 166.216 166.460  1.00  0.00     0.221 C 
ATOM      2  C   UNL     1     174.099 166.676 165.250  1.00  0.00     0.181 C 
ATOM      3  C   UNL     1     173.190 166.791 164.014  1.00  0.00     0.177 C 
ATOM      4  C   UNL     1     171.937 167.652 164.304  1.00  0.00     0.179 C 
ATOM      5  O   UNL     1     171.227 167.191 165.445  1.00  0.00    -0.332 OA
ATOM      6  C   UNL     1     172.017 167.096 166.624  1.00  0.00     0.339 C 
ENDROOT
BRANCH   1   7
ATOM      7  O   UNL     1     174.034 166.350 167.644  1.00  0.00    -0.337 OA
BRANCH   7   8
ATOM      8  C   UNL     1     174.271 165.122 168.318  1.00  0.00     0.282 C 
ATOM      9  C   UNL     1     177.754 164.608 167.233  1.00  0.00     0.041 C 
ATOM     10  C   UNL     1     176.580 165.317 167.913  1.00  0.00     0.150 C 
ATOM     11  C   UNL     1     176.904 165.609 169.396  1.00  0.00     0.174 C 
ATOM     12  O   UNL     1     175.432 164.489 167.797  1.00  0.00    -0.344 OA
ATOM     13  C   UNL     1     175.683 166.239 170.088  1.00  0.00     0.179 C 
ATOM     14  C   UNL     1     174.432 165.382 169.830  1.00  0.00     0.202 C 
BRANCH  11  15
ATOM     15  O   UNL     1     177.996 166.491 169.470  1.00  0.00    -0.388 OA
ATOM     16  H   UNL     1     178.202 166.775 168.542  1.00  0.00     0.211 HD
ENDBRANCH  11  15
BRANCH  13  17
ATOM     17  O   UNL     1     175.927 166.325 171.468  1.00  0.00    -0.387 OA
ATOM     18  H   UNL     1     176.495 165.547 171.711  1.00  0.00     0.211 HD
ENDBRANCH  13  17
BRANCH  14  19
ATOM     19  O   UNL     1     173.300 166.047 170.329  1.00  0.00    -0.385 OA
ATOM     20  H   UNL     1     173.617 166.907 170.710  1.00  0.00     0.211 HD
ENDBRANCH  14  19
ENDBRANCH   7   8
ENDBRANCH   1   7
BRANCH   2  21
ATOM     21  O   UNL     1     175.115 165.738 165.000  1.00  0.00    -0.387 OA
ATOM     22  H   UNL     1     175.840 166.214 164.520  1.00  0.00     0.211 HD
ENDBRANCH   2  21
BRANCH   6  23
ATOM     23  O   UNL     1     172.386 168.383 167.125  1.00  0.00    -0.462 OA
BRANCH  23  24
ATOM     24  C   UNL     1     172.320 168.761 168.471  1.00  0.00     0.130 A 
ATOM     25  C   UNL     1     171.162 168.595 169.246  1.00  0.00     0.093 A 
ATOM     26  C   UNL     1     173.456 169.324 169.050  1.00  0.00     0.094 A 
ATOM     27  C   UNL     1     171.131 168.992 170.591  1.00  0.00     0.133 A 
ATOM     28  C   UNL     1     173.472 169.653 170.405  1.00  0.00     0.138 A 
ATOM     29  C   UNL     1     172.313 169.501 171.199  1.00  0.00     0.102 A 
ATOM     30  O   UNL     1     174.662 170.138 170.961  1.00  0.00    -0.484 OA
ATOM     31  C   UNL     1     172.425 169.903 172.632  1.00  0.00     0.174 C 
ATOM     32  C   UNL     1     174.880 170.190 172.371  1.00  0.00     0.211 C 
ATOM     33  O   UNL     1     171.535 169.615 173.478  1.00  0.00    -0.294 OA
ATOM     34  C   UNL     1     173.620 170.690 173.088  1.00  0.00     0.131 C 
BRANCH  27  35
ATOM     35  O   UNL     1     169.905 168.881 171.254  1.00  0.00    -0.507 OA
ATOM     36  H   UNL     1     169.773 168.499 172.174  1.00  0.00     0.293 HD
ENDBRANCH  27  35
BRANCH  32  37
ATOM     37  C   UNL     1     176.059 171.082 172.677  1.00  0.00    -0.007 A 
ATOM     38  C   UNL     1     177.290 170.893 172.023  1.00  0.00     0.011 A 
ATOM     39  C   UNL     1     175.922 172.144 173.585  1.00  0.00     0.011 A 
ATOM     40  C   UNL     1     178.371 171.739 172.291  1.00  0.00     0.046 A 
ATOM     41  C   UNL     1     177.006 172.986 173.855  1.00  0.00     0.046 A 
ATOM     42  C   UNL     1     178.230 172.787 173.210  1.00  0.00     0.115 A 
BRANCH  42  43
ATOM     43  O   UNL     1     179.298 173.638 173.486  1.00  0.00    -0.508 OA
ATOM     44  H   UNL     1     179.198 174.426 174.113  1.00  0.00     0.293 HD
ENDBRANCH  42  43
ENDBRANCH  32  37
ENDBRANCH  23  24
ENDBRANCH   6  23
BRANCH   3  45
ATOM     45  O   UNL     1     173.892 167.262 162.889  1.00  0.00    -0.387 OA
ATOM     46  H   UNL     1     174.789 166.833 162.879  1.00  0.00     0.211 HD
ENDBRANCH   3  45
BRANCH   4  47
ATOM     47  C   UNL     1     172.187 169.175 164.351  1.00  0.00     0.191 C 
BRANCH  47  48
ATOM     48  O   UNL     1     172.491 169.656 163.068  1.00  0.00    -0.394 OA
ATOM     49  H   UNL     1     172.423 168.877 162.458  1.00  0.00     0.210 HD
ENDBRANCH  47  48
ENDBRANCH   4  47
TORSDOF 14
ENDMDL
MODEL 5
REMARK VINA RESULT:    -6.760      1.986      2.579
REMARK INTER + INTRA:         -12.621
REMARK INTER:                 -10.537
REMARK INTRA:                  -2.084
REMARK UNBOUND:                -1.909
REMARK SMILES C[C@H]1O[C@H](O[C@H]2[C@@H](Oc3cc(O)c4c(c3)O[C@@H](c3ccc(O)cc3)CC4=O)O[C@@H](CO)[C@@H](O)[C@@H]2O)[C@H](O)[C@@H](O)[C@@H]1O
REMARK SMILES IDX 6 1 34 2 32 3 29 4 28 5 7 6 5 7 4 8 1 9 2 10 40 11 3 12
REMARK SMILES IDX 38 13 36 14 41 15 39 17 37 19 35 21 8 23 9 24 10 25 15 26
REMARK SMILES IDX 11 27 14 28 13 29 16 30 26 31 17 32 27 33 25 34 12 35 18 37
REMARK SMILES IDX 19 38 24 39 20 40 23 41 21 42 22 43 33 45 30 47 31 48
REMARK H PARENT 41 16 39 18 37 20 35 22 12 36 22 44 33 46 31 49
REMARK Flexibility Score: inf
ROOT
ATOM      1  C   UNL     1     172.208 167.320 165.289  1.00  0.00     0.221 C 
ATOM      2  C   UNL     1     172.982 167.901 164.095  1.00  0.00     0.181 C 
ATOM      3  C   UNL     1     172.010 168.649 163.166  1.00  0.00     0.177 C 
ATOM      4  C   UNL     1     171.151 169.676 163.943  1.00  0.00     0.179 C 
ATOM      5  O   UNL     1     170.480 169.082 165.046  1.00  0.00    -0.332 OA
ATOM      6  C   UNL     1     171.341 168.404 165.953  1.00  0.00     0.339 C 
ENDROOT
BRANCH   1   7
ATOM      7  O   UNL     1     173.119 166.853 166.269  1.00  0.00    -0.337 OA
BRANCH   7   8
ATOM      8  C   UNL     1     173.010 165.463 166.539  1.00  0.00     0.282 C 
ATOM      9  C   UNL     1     176.603 164.731 166.898  1.00  0.00     0.041 C 
ATOM     10  C   UNL     1     175.262 165.395 167.218  1.00  0.00     0.150 C 
ATOM     11  C   UNL     1     174.898 165.198 168.707  1.00  0.00     0.174 C 
ATOM     12  O   UNL     1     174.271 164.828 166.373  1.00  0.00    -0.344 OA
ATOM     13  C   UNL     1     173.508 165.791 168.993  1.00  0.00     0.179 C 
ATOM     14  C   UNL     1     172.487 165.254 167.976  1.00  0.00     0.202 C 
BRANCH  11  15
ATOM     15  O   UNL     1     175.858 165.837 169.511  1.00  0.00    -0.388 OA
ATOM     16  H   UNL     1     176.747 165.510 169.215  1.00  0.00     0.211 HD
ENDBRANCH  11  15
BRANCH  13  17
ATOM     17  O   UNL     1     173.114 165.442 170.295  1.00  0.00    -0.387 OA
ATOM     18  H   UNL     1     173.945 165.328 170.828  1.00  0.00     0.211 HD
ENDBRANCH  13  17
BRANCH  14  19
ATOM     19  O   UNL     1     171.263 165.921 168.146  1.00  0.00    -0.385 OA
ATOM     20  H   UNL     1     171.399 166.853 167.834  1.00  0.00     0.211 HD
ENDBRANCH  14  19
ENDBRANCH   7   8
ENDBRANCH   1   7
BRANCH   2  21
ATOM     21  O   UNL     1     173.599 166.856 163.387  1.00  0.00    -0.387 OA
ATOM     22  H   UNL     1     174.171 166.365 164.030  1.00  0.00     0.211 HD
ENDBRANCH   2  21
BRANCH   6  23
ATOM     23  O   UNL     1     172.167 169.310 166.687  1.00  0.00    -0.462 OA
BRANCH  23  24
ATOM     24  C   UNL     1     172.152 169.452 168.079  1.00  0.00     0.130 A 
ATOM     25  C   UNL     1     171.022 169.154 168.856  1.00  0.00     0.093 A 
ATOM     26  C   UNL     1     173.311 169.910 168.704  1.00  0.00     0.094 A 
ATOM     27  C   UNL     1     171.043 169.314 170.249  1.00  0.00     0.133 A 
ATOM     28  C   UNL     1     173.378 170.001 170.094  1.00  0.00     0.138 A 
ATOM     29  C   UNL     1     172.249 169.713 170.892  1.00  0.00     0.102 A 
ATOM     30  O   UNL     1     174.590 170.386 170.680  1.00  0.00    -0.484 OA
ATOM     31  C   UNL     1     172.414 169.863 172.367  1.00  0.00     0.174 C 
ATOM     32  C   UNL     1     174.860 170.195 172.069  1.00  0.00     0.211 C 
ATOM     33  O   UNL     1     171.555 169.433 173.184  1.00  0.00    -0.294 OA
ATOM     34  C   UNL     1     173.629 170.563 172.907  1.00  0.00     0.131 C 
BRANCH  27  35
ATOM     35  O   UNL     1     169.841 169.089 170.928  1.00  0.00    -0.507 OA
ATOM     36  H   UNL     1     169.757 168.855 171.902  1.00  0.00     0.293 HD
ENDBRANCH  27  35
BRANCH  32  37
ATOM     37  C   UNL     1     176.054 171.023 172.480  1.00  0.00    -0.007 A 
ATOM     38  C   UNL     1     177.285 170.885 171.815  1.00  0.00     0.011 A 
ATOM     39  C   UNL     1     175.930 171.978 173.502  1.00  0.00     0.011 A 
ATOM     40  C   UNL     1     178.380 171.674 172.182  1.00  0.00     0.046 A 
ATOM     41  C   UNL     1     177.028 172.762 173.870  1.00  0.00     0.046 A 
ATOM     42  C   UNL     1     178.253 172.614 173.213  1.00  0.00     0.115 A 
BRANCH  42  43
ATOM     43  O   UNL     1     179.335 173.407 173.588  1.00  0.00    -0.508 OA
ATOM     44  H   UNL     1     179.202 174.310 174.027  1.00  0.00     0.293 HD
ENDBRANCH  42  43
ENDBRANCH  32  37
ENDBRANCH  23  24
ENDBRANCH   6  23
BRANCH   3  45
ATOM     45  O   UNL     1     172.678 169.249 162.081  1.00  0.00    -0.387 OA
ATOM     46  H   UNL     1     173.652 169.078 162.183  1.00  0.00     0.211 HD
ENDBRANCH   3  45
BRANCH   4  47
ATOM     47  C   UNL     1     171.886 170.976 164.339  1.00  0.00     0.191 C 
BRANCH  47  48
ATOM     48  O   UNL     1     171.085 171.740 165.201  1.00  0.00    -0.394 OA
ATOM     49  H   UNL     1     170.793 172.531 164.678  1.00  0.00     0.210 HD
ENDBRANCH  47  48
ENDBRANCH   4  47
TORSDOF 14
ENDMDL
MODEL 6
REMARK VINA RESULT:    -6.581      3.100      5.444
REMARK INTER + INTRA:         -12.338
REMARK INTER:                  -9.923
REMARK INTRA:                  -2.415
REMARK UNBOUND:                -1.909
REMARK SMILES C[C@H]1O[C@H](O[C@H]2[C@@H](Oc3cc(O)c4c(c3)O[C@@H](c3ccc(O)cc3)CC4=O)O[C@@H](CO)[C@@H](O)[C@@H]2O)[C@H](O)[C@@H](O)[C@@H]1O
REMARK SMILES IDX 6 1 34 2 32 3 29 4 28 5 7 6 5 7 4 8 1 9 2 10 40 11 3 12
REMARK SMILES IDX 38 13 36 14 41 15 39 17 37 19 35 21 8 23 9 24 10 25 15 26
REMARK SMILES IDX 11 27 14 28 13 29 16 30 26 31 17 32 27 33 25 34 12 35 18 37
REMARK SMILES IDX 19 38 24 39 20 40 23 41 21 42 22 43 33 45 30 47 31 48
REMARK H PARENT 41 16 39 18 37 20 35 22 12 36 22 44 33 46 31 49
REMARK Flexibility Score: inf
ROOT
ATOM      1  C   UNL     1     168.975 168.473 169.514  1.00  0.00     0.221 C 
ATOM      2  C   UNL     1     168.315 169.849 169.324  1.00  0.00     0.181 C 
ATOM      3  C   UNL     1     166.838 169.775 169.752  1.00  0.00     0.177 C 
ATOM      4  C   UNL     1     166.683 169.173 171.170  1.00  0.00     0.179 C 
ATOM      5  O   UNL     1     167.333 167.915 171.287  1.00  0.00    -0.332 OA
ATOM      6  C   UNL     1     168.711 167.936 170.932  1.00  0.00     0.339 C 
ENDROOT
BRANCH   1   7
ATOM      7  O   UNL     1     170.379 168.592 169.365  1.00  0.00    -0.337 OA
BRANCH   7   8
ATOM      8  C   UNL     1     170.904 167.865 168.265  1.00  0.00     0.282 C 
ATOM      9  C   UNL     1     171.457 170.710 165.990  1.00  0.00     0.041 C 
ATOM     10  C   UNL     1     171.623 169.865 167.256  1.00  0.00     0.150 C 
ATOM     11  C   UNL     1     173.116 169.562 167.516  1.00  0.00     0.174 C 
ATOM     12  O   UNL     1     170.882 168.664 167.090  1.00  0.00    -0.344 OA
ATOM     13  C   UNL     1     173.261 168.638 168.738  1.00  0.00     0.179 C 
ATOM     14  C   UNL     1     172.345 167.412 168.582  1.00  0.00     0.202 C 
BRANCH  11  15
ATOM     15  O   UNL     1     173.802 170.766 167.752  1.00  0.00    -0.388 OA
ATOM     16  H   UNL     1     173.965 170.820 168.729  1.00  0.00     0.211 HD
ENDBRANCH  11  15
BRANCH  13  17
ATOM     17  O   UNL     1     174.598 168.224 168.849  1.00  0.00    -0.387 OA
ATOM     18  H   UNL     1     175.142 168.848 168.300  1.00  0.00     0.211 HD
ENDBRANCH  13  17
BRANCH  14  19
ATOM     19  O   UNL     1     172.365 166.660 169.767  1.00  0.00    -0.385 OA
ATOM     20  H   UNL     1     171.484 166.208 169.835  1.00  0.00     0.211 HD
ENDBRANCH  14  19
ENDBRANCH   7   8
ENDBRANCH   1   7
BRANCH   2  21
ATOM     21  O   UNL     1     168.393 170.220 167.971  1.00  0.00    -0.387 OA
ATOM     22  H   UNL     1     167.899 169.535 167.452  1.00  0.00     0.211 HD
ENDBRANCH   2  21
BRANCH   6  23
ATOM     23  O   UNL     1     169.497 168.657 171.883  1.00  0.00    -0.462 OA
BRANCH  23  24
ATOM     24  C   UNL     1     170.751 168.249 172.352  1.00  0.00     0.130 A 
ATOM     25  C   UNL     1     170.970 166.983 172.916  1.00  0.00     0.093 A 
ATOM     26  C   UNL     1     171.813 169.145 172.249  1.00  0.00     0.094 A 
ATOM     27  C   UNL     1     172.240 166.610 173.380  1.00  0.00     0.133 A 
ATOM     28  C   UNL     1     173.100 168.768 172.632  1.00  0.00     0.138 A 
ATOM     29  C   UNL     1     173.338 167.501 173.210  1.00  0.00     0.102 A 
ATOM     30  O   UNL     1     174.149 169.673 172.433  1.00  0.00    -0.484 OA
ATOM     31  C   UNL     1     174.744 167.199 173.608  1.00  0.00     0.174 C 
ATOM     32  C   UNL     1     175.519 169.275 172.480  1.00  0.00     0.211 C 
ATOM     33  O   UNL     1     175.114 166.037 173.930  1.00  0.00    -0.294 OA
ATOM     34  C   UNL     1     175.755 168.310 173.649  1.00  0.00     0.131 C 
BRANCH  27  35
ATOM     35  O   UNL     1     172.341 165.370 174.017  1.00  0.00    -0.507 OA
ATOM     36  H   UNL     1     171.938 164.511 173.686  1.00  0.00     0.293 HD
ENDBRANCH  27  35
BRANCH  32  37
ATOM     37  C   UNL     1     176.405 170.491 172.604  1.00  0.00    -0.007 A 
ATOM     38  C   UNL     1     176.226 171.597 171.754  1.00  0.00     0.011 A 
ATOM     39  C   UNL     1     177.388 170.548 173.605  1.00  0.00     0.011 A 
ATOM     40  C   UNL     1     177.032 172.733 171.890  1.00  0.00     0.046 A 
ATOM     41  C   UNL     1     178.195 171.682 173.736  1.00  0.00     0.046 A 
ATOM     42  C   UNL     1     178.021 172.775 172.882  1.00  0.00     0.115 A 
BRANCH  42  43
ATOM     43  O   UNL     1     178.829 173.900 173.030  1.00  0.00    -0.508 OA
ATOM     44  H   UNL     1     179.681 173.870 173.577  1.00  0.00     0.293 HD
ENDBRANCH  42  43
ENDBRANCH  32  37
ENDBRANCH  23  24
ENDBRANCH   6  23
BRANCH   3  45
ATOM     45  O   UNL     1     166.199 171.025 169.649  1.00  0.00    -0.387 OA
ATOM     46  H   UNL     1     166.083 171.237 168.685  1.00  0.00     0.211 HD
ENDBRANCH   3  45
BRANCH   4  47
ATOM     47  C   UNL     1     167.046 170.126 172.329  1.00  0.00     0.191 C 
BRANCH  47  48
ATOM     48  O   UNL     1     166.020 171.063 172.524  1.00  0.00    -0.394 OA
ATOM     49  H   UNL     1     165.195 170.648 172.164  1.00  0.00     0.210 HD
ENDBRANCH  47  48
ENDBRANCH   4  47
TORSDOF 14
ENDMDL
MODEL 7
REMARK VINA RESULT:    -6.474      1.170      2.044
REMARK INTER + INTRA:         -12.167
REMARK INTER:                 -10.539
REMARK INTRA:                  -1.629
REMARK UNBOUND:                -1.909
REMARK SMILES C[C@H]1O[C@H](O[C@H]2[C@@H](Oc3cc(O)c4c(c3)O[C@@H](c3ccc(O)cc3)CC4=O)O[C@@H](CO)[C@@H](O)[C@@H]2O)[C@H](O)[C@@H](O)[C@@H]1O
REMARK SMILES IDX 6 1 34 2 32 3 29 4 28 5 7 6 5 7 4 8 1 9 2 10 40 11 3 12
REMARK SMILES IDX 38 13 36 14 41 15 39 17 37 19 35 21 8 23 9 24 10 25 15 26
REMARK SMILES IDX 11 27 14 28 13 29 16 30 26 31 17 32 27 33 25 34 12 35 18 37
REMARK SMILES IDX 19 38 24 39 20 40 23 41 21 42 22 43 33 45 30 47 31 48
REMARK H PARENT 41 16 39 18 37 20 35 22 12 36 22 44 33 46 31 49
REMARK Flexibility Score: inf
ROOT
ATOM      1  C   UNL     1     171.298 168.356 164.778  1.00  0.00     0.221 C 
ATOM      2  C   UNL     1     172.253 168.966 163.739  1.00  0.00     0.181 C 
ATOM      3  C   UNL     1     171.796 170.394 163.394  1.00  0.00     0.177 C 
ATOM      4  C   UNL     1     171.590 171.252 164.665  1.00  0.00     0.179 C 
ATOM      5  O   UNL     1     170.717 170.625 165.594  1.00  0.00    -0.332 OA
ATOM      6  C   UNL     1     171.113 169.312 165.971  1.00  0.00     0.339 C 
ENDROOT
BRANCH   1   7
ATOM      7  O   UNL     1     171.848 167.153 165.286  1.00  0.00    -0.337 OA
BRANCH   7   8
ATOM      8  C   UNL     1     173.163 166.883 164.824  1.00  0.00     0.282 C 
ATOM      9  C   UNL     1     174.795 166.543 168.110  1.00  0.00     0.041 C 
ATOM     10  C   UNL     1     173.809 166.215 166.986  1.00  0.00     0.150 C 
ATOM     11  C   UNL     1     173.909 164.725 166.591  1.00  0.00     0.174 C 
ATOM     12  O   UNL     1     174.100 167.056 165.879  1.00  0.00    -0.344 OA
ATOM     13  C   UNL     1     172.979 164.431 165.401  1.00  0.00     0.179 C 
ATOM     14  C   UNL     1     173.234 165.444 164.272  1.00  0.00     0.202 C 
BRANCH  11  15
ATOM     15  O   UNL     1     173.540 163.926 167.686  1.00  0.00    -0.388 OA
ATOM     16  H   UNL     1     173.450 164.529 168.468  1.00  0.00     0.211 HD
ENDBRANCH  11  15
BRANCH  13  17
ATOM     17  O   UNL     1     173.218 163.128 164.937  1.00  0.00    -0.387 OA
ATOM     18  H   UNL     1     173.717 162.652 165.652  1.00  0.00     0.211 HD
ENDBRANCH  13  17
BRANCH  14  19
ATOM     19  O   UNL     1     172.275 165.267 163.261  1.00  0.00    -0.385 OA
ATOM     20  H   UNL     1     172.607 164.537 162.677  1.00  0.00     0.211 HD
ENDBRANCH  14  19
ENDBRANCH   7   8
ENDBRANCH   1   7
BRANCH   2  21
ATOM     21  O   UNL     1     172.243 168.175 162.578  1.00  0.00    -0.387 OA
ATOM     22  H   UNL     1     173.117 167.711 162.532  1.00  0.00     0.211 HD
ENDBRANCH   2  21
BRANCH   6  23
ATOM     23  O   UNL     1     172.292 169.320 166.779  1.00  0.00    -0.462 OA
BRANCH  23  24
ATOM     24  C   UNL     1     172.299 169.411 168.176  1.00  0.00     0.130 A 
ATOM     25  C   UNL     1     171.218 168.991 168.965  1.00  0.00     0.093 A 
ATOM     26  C   UNL     1     173.430 169.943 168.792  1.00  0.00     0.094 A 
ATOM     27  C   UNL     1     171.258 169.103 170.362  1.00  0.00     0.133 A 
ATOM     28  C   UNL     1     173.523 169.991 170.182  1.00  0.00     0.138 A 
ATOM     29  C   UNL     1     172.442 169.581 170.993  1.00  0.00     0.102 A 
ATOM     30  O   UNL     1     174.712 170.457 170.757  1.00  0.00    -0.484 OA
ATOM     31  C   UNL     1     172.630 169.692 172.469  1.00  0.00     0.174 C 
ATOM     32  C   UNL     1     175.031 170.242 172.131  1.00  0.00     0.211 C 
ATOM     33  O   UNL     1     171.831 169.162 173.288  1.00  0.00    -0.294 OA
ATOM     34  C   UNL     1     173.795 170.473 173.008  1.00  0.00     0.131 C 
BRANCH  27  35
ATOM     35  O   UNL     1     170.097 168.753 171.058  1.00  0.00    -0.507 OA
ATOM     36  H   UNL     1     169.337 169.374 171.272  1.00  0.00     0.293 HD
ENDBRANCH  27  35
BRANCH  32  37
ATOM     37  C   UNL     1     176.160 171.153 172.547  1.00  0.00    -0.007 A 
ATOM     38  C   UNL     1     175.964 172.129 173.541  1.00  0.00     0.011 A 
ATOM     39  C   UNL     1     177.435 171.002 171.978  1.00  0.00     0.011 A 
ATOM     40  C   UNL     1     177.021 172.953 173.942  1.00  0.00     0.046 A 
ATOM     41  C   UNL     1     178.488 171.830 172.377  1.00  0.00     0.046 A 
ATOM     42  C   UNL     1     178.286 172.805 173.357  1.00  0.00     0.115 A 
BRANCH  42  43
ATOM     43  O   UNL     1     179.348 173.619 173.748  1.00  0.00    -0.508 OA
ATOM     44  H   UNL     1     179.357 174.610 173.543  1.00  0.00     0.293 HD
ENDBRANCH  42  43
ENDBRANCH  32  37
ENDBRANCH  23  24
ENDBRANCH   6  23
BRANCH   3  45
ATOM     45  O   UNL     1     172.671 171.019 162.484  1.00  0.00    -0.387 OA
ATOM     46  H   UNL     1     172.393 170.769 161.563  1.00  0.00     0.211 HD
ENDBRANCH   3  45
BRANCH   4  47
ATOM     47  C   UNL     1     172.889 171.753 165.334  1.00  0.00     0.191 C 
BRANCH  47  48
ATOM     48  O   UNL     1     173.985 170.999 164.886  1.00  0.00    -0.394 OA
ATOM     49  H   UNL     1     174.410 171.531 164.165  1.00  0.00     0.210 HD
ENDBRANCH  47  48
ENDBRANCH   4  47
TORSDOF 14
ENDMDL
MODEL 8
REMARK VINA RESULT:    -6.451      1.972      2.464
REMARK INTER + INTRA:         -12.131
REMARK INTER:                  -9.907
REMARK INTRA:                  -2.225
REMARK UNBOUND:                -1.909
REMARK SMILES C[C@H]1O[C@H](O[C@H]2[C@@H](Oc3cc(O)c4c(c3)O[C@@H](c3ccc(O)cc3)CC4=O)O[C@@H](CO)[C@@H](O)[C@@H]2O)[C@H](O)[C@@H](O)[C@@H]1O
REMARK SMILES IDX 6 1 34 2 32 3 29 4 28 5 7 6 5 7 4 8 1 9 2 10 40 11 3 12
REMARK SMILES IDX 38 13 36 14 41 15 39 17 37 19 35 21 8 23 9 24 10 25 15 26
REMARK SMILES IDX 11 27 14 28 13 29 16 30 26 31 17 32 27 33 25 34 12 35 18 37
REMARK SMILES IDX 19 38 24 39 20 40 23 41 21 42 22 43 33 45 30 47 31 48
REMARK H PARENT 41 16 39 18 37 20 35 22 12 36 22 44 33 46 31 49
REMARK Flexibility Score: inf
ROOT
ATOM      1  C   UNL     1     170.950 168.264 164.631  1.00  0.00     0.221 C 
ATOM      2  C   UNL     1     171.337 168.981 163.328  1.00  0.00     0.181 C 
ATOM      3  C   UNL     1     171.015 170.481 163.451  1.00  0.00     0.177 C 
ATOM      4  C   UNL     1     171.626 171.095 164.733  1.00  0.00     0.179 C 
ATOM      5  O   UNL     1     171.250 170.374 165.899  1.00  0.00    -0.332 OA
ATOM      6  C   UNL     1     171.555 168.986 165.848  1.00  0.00     0.339 C 
ENDROOT
BRANCH   1   7
ATOM      7  O   UNL     1     171.469 166.945 164.624  1.00  0.00    -0.337 OA
BRANCH   7   8
ATOM      8  C   UNL     1     170.478 165.938 164.482  1.00  0.00     0.282 C 
ATOM      9  C   UNL     1     171.390 164.802 161.097  1.00  0.00     0.041 C 
ATOM     10  C   UNL     1     171.586 165.084 162.589  1.00  0.00     0.150 C 
ATOM     11  C   UNL     1     172.052 163.810 163.329  1.00  0.00     0.174 C 
ATOM     12  O   UNL     1     170.355 165.557 163.118  1.00  0.00    -0.344 OA
ATOM     13  C   UNL     1     172.156 164.085 164.839  1.00  0.00     0.179 C 
ATOM     14  C   UNL     1     170.851 164.718 165.350  1.00  0.00     0.202 C 
BRANCH  11  15
ATOM     15  O   UNL     1     173.306 163.415 162.834  1.00  0.00    -0.388 OA
ATOM     16  H   UNL     1     173.365 163.743 161.899  1.00  0.00     0.211 HD
ENDBRANCH  11  15
BRANCH  13  17
ATOM     17  O   UNL     1     172.398 162.877 165.514  1.00  0.00    -0.387 OA
ATOM     18  H   UNL     1     172.930 163.099 166.323  1.00  0.00     0.211 HD
ENDBRANCH  13  17
BRANCH  14  19
ATOM     19  O   UNL     1     171.014 165.109 166.688  1.00  0.00    -0.385 OA
ATOM     20  H   UNL     1     171.561 165.938 166.680  1.00  0.00     0.211 HD
ENDBRANCH  14  19
ENDBRANCH   7   8
ENDBRANCH   1   7
BRANCH   2  21
ATOM     21  O   UNL     1     170.610 168.430 162.260  1.00  0.00    -0.387 OA
ATOM     22  H   UNL     1     170.031 169.150 161.899  1.00  0.00     0.211 HD
ENDBRANCH   2  21
BRANCH   6  23
ATOM     23  O   UNL     1     172.962 168.744 165.910  1.00  0.00    -0.462 OA
BRANCH  23  24
ATOM     24  C   UNL     1     173.641 168.282 167.044  1.00  0.00     0.130 A 
ATOM     25  C   UNL     1     173.810 166.915 167.316  1.00  0.00     0.093 A 
ATOM     26  C   UNL     1     174.163 169.225 167.926  1.00  0.00     0.094 A 
ATOM     27  C   UNL     1     174.492 166.489 168.465  1.00  0.00     0.133 A 
ATOM     28  C   UNL     1     174.911 168.824 169.032  1.00  0.00     0.138 A 
ATOM     29  C   UNL     1     175.085 167.454 169.328  1.00  0.00     0.102 A 
ATOM     30  O   UNL     1     175.485 169.810 169.844  1.00  0.00    -0.484 OA
ATOM     31  C   UNL     1     175.883 167.126 170.546  1.00  0.00     0.174 C 
ATOM     32  C   UNL     1     176.519 169.518 170.784  1.00  0.00     0.211 C 
ATOM     33  O   UNL     1     176.283 165.955 170.789  1.00  0.00    -0.294 OA
ATOM     34  C   UNL     1     176.209 168.213 171.530  1.00  0.00     0.131 C 
BRANCH  27  35
ATOM     35  O   UNL     1     174.524 165.111 168.705  1.00  0.00    -0.507 OA
ATOM     36  H   UNL     1     175.280 164.495 168.463  1.00  0.00     0.293 HD
ENDBRANCH  27  35
BRANCH  32  37
ATOM     37  C   UNL     1     176.672 170.664 171.754  1.00  0.00    -0.007 A 
ATOM     38  C   UNL     1     175.639 170.987 172.652  1.00  0.00     0.011 A 
ATOM     39  C   UNL     1     177.873 171.391 171.802  1.00  0.00     0.011 A 
ATOM     40  C   UNL     1     175.797 172.033 173.567  1.00  0.00     0.046 A 
ATOM     41  C   UNL     1     178.026 172.439 172.715  1.00  0.00     0.046 A 
ATOM     42  C   UNL     1     176.992 172.763 173.598  1.00  0.00     0.115 A 
BRANCH  42  43
ATOM     43  O   UNL     1     177.163 173.806 174.505  1.00  0.00    -0.508 OA
ATOM     44  H   UNL     1     176.420 174.089 175.132  1.00  0.00     0.293 HD
ENDBRANCH  42  43
ENDBRANCH  32  37
ENDBRANCH  23  24
ENDBRANCH   6  23
BRANCH   3  45
ATOM     45  O   UNL     1     171.402 171.196 162.301  1.00  0.00    -0.387 OA
ATOM     46  H   UNL     1     171.046 172.121 162.374  1.00  0.00     0.211 HD
ENDBRANCH   3  45
BRANCH   4  47
ATOM     47  C   UNL     1     173.147 171.353 164.674  1.00  0.00     0.191 C 
BRANCH  47  48
ATOM     48  O   UNL     1     173.604 171.841 165.908  1.00  0.00    -0.394 OA
ATOM     49  H   UNL     1     174.591 171.888 165.838  1.00  0.00     0.210 HD
ENDBRANCH  47  48
ENDBRANCH   4  47
TORSDOF 14
ENDMDL
MODEL 9
REMARK VINA RESULT:    -6.245      5.342      9.197
REMARK INTER + INTRA:         -11.805
REMARK INTER:                  -9.915
REMARK INTRA:                  -1.891
REMARK UNBOUND:                -1.909
REMARK SMILES C[C@H]1O[C@H](O[C@H]2[C@@H](Oc3cc(O)c4c(c3)O[C@@H](c3ccc(O)cc3)CC4=O)O[C@@H](CO)[C@@H](O)[C@@H]2O)[C@H](O)[C@@H](O)[C@@H]1O
REMARK SMILES IDX 6 1 34 2 32 3 29 4 28 5 7 6 5 7 4 8 1 9 2 10 40 11 3 12
REMARK SMILES IDX 38 13 36 14 41 15 39 17 37 19 35 21 8 23 9 24 10 25 15 26
REMARK SMILES IDX 11 27 14 28 13 29 16 30 26 31 17 32 27 33 25 34 12 35 18 37
REMARK SMILES IDX 19 38 24 39 20 40 23 41 21 42 22 43 33 45 30 47 31 48
REMARK H PARENT 41 16 39 18 37 20 35 22 12 36 22 44 33 46 31 49
REMARK Flexibility Score: inf
ROOT
ATOM      1  C   UNL     1     171.262 163.294 175.137  1.00  0.00     0.221 C 
ATOM      2  C   UNL     1     171.563 163.593 176.615  1.00  0.00     0.181 C 
ATOM      3  C   UNL     1     172.867 162.887 177.027  1.00  0.00     0.177 C 
ATOM      4  C   UNL     1     174.025 163.210 176.052  1.00  0.00     0.179 C 
ATOM      5  O   UNL     1     173.677 162.933 174.703  1.00  0.00    -0.332 OA
ATOM      6  C   UNL     1     172.493 163.588 174.262  1.00  0.00     0.339 C 
ENDROOT
BRANCH   1   7
ATOM      7  O   UNL     1     170.214 164.133 174.683  1.00  0.00    -0.337 OA
BRANCH   7   8
ATOM      8  C   UNL     1     169.724 163.794 173.394  1.00  0.00     0.282 C 
ATOM      9  C   UNL     1     166.835 161.773 174.462  1.00  0.00     0.041 C 
ATOM     10  C   UNL     1     167.711 163.021 174.337  1.00  0.00     0.150 C 
ATOM     11  C   UNL     1     166.893 164.208 173.780  1.00  0.00     0.174 C 
ATOM     12  O   UNL     1     168.805 162.714 173.484  1.00  0.00    -0.344 OA
ATOM     13  C   UNL     1     167.807 165.429 173.575  1.00  0.00     0.179 C 
ATOM     14  C   UNL     1     169.046 165.026 172.757  1.00  0.00     0.202 C 
BRANCH  11  15
ATOM     15  O   UNL     1     165.869 164.534 174.685  1.00  0.00    -0.388 OA
ATOM     16  H   UNL     1     165.231 165.121 174.203  1.00  0.00     0.211 HD
ENDBRANCH  11  15
BRANCH  13  17
ATOM     17  O   UNL     1     167.095 166.432 172.899  1.00  0.00    -0.387 OA
ATOM     18  H   UNL     1     167.261 167.283 173.384  1.00  0.00     0.211 HD
ENDBRANCH  13  17
BRANCH  14  19
ATOM     19  O   UNL     1     169.946 166.102 172.712  1.00  0.00    -0.385 OA
ATOM     20  H   UNL     1     170.407 166.128 173.590  1.00  0.00     0.211 HD
ENDBRANCH  14  19
ENDBRANCH   7   8
ENDBRANCH   1   7
BRANCH   2  21
ATOM     21  O   UNL     1     170.504 163.124 177.410  1.00  0.00    -0.387 OA
ATOM     22  H   UNL     1     170.022 163.919 177.753  1.00  0.00     0.211 HD
ENDBRANCH   2  21
BRANCH   6  23
ATOM     23  O   UNL     1     172.677 164.999 174.136  1.00  0.00    -0.462 OA
BRANCH  23  24
ATOM     24  C   UNL     1     173.359 165.622 173.083  1.00  0.00     0.130 A 
ATOM     25  C   UNL     1     173.425 165.069 171.796  1.00  0.00     0.093 A 
ATOM     26  C   UNL     1     173.991 166.837 173.340  1.00  0.00     0.094 A 
ATOM     27  C   UNL     1     174.122 165.720 170.767  1.00  0.00     0.133 A 
ATOM     28  C   UNL     1     174.622 167.539 172.314  1.00  0.00     0.138 A 
ATOM     29  C   UNL     1     174.707 166.994 171.013  1.00  0.00     0.102 A 
ATOM     30  O   UNL     1     175.171 168.794 172.601  1.00  0.00    -0.484 OA
ATOM     31  C   UNL     1     175.423 167.811 169.989  1.00  0.00     0.174 C 
ATOM     32  C   UNL     1     175.537 169.720 171.578  1.00  0.00     0.211 C 
ATOM     33  O   UNL     1     175.376 167.534 168.760  1.00  0.00    -0.294 OA
ATOM     34  C   UNL     1     176.243 168.991 170.427  1.00  0.00     0.131 C 
BRANCH  27  35
ATOM     35  O   UNL     1     174.220 165.045 169.546  1.00  0.00    -0.507 OA
ATOM     36  H   UNL     1     174.833 164.272 169.355  1.00  0.00     0.293 HD
ENDBRANCH  27  35
BRANCH  32  37
ATOM     37  C   UNL     1     176.425 170.798 172.152  1.00  0.00    -0.007 A 
ATOM     38  C   UNL     1     176.371 172.111 171.651  1.00  0.00     0.011 A 
ATOM     39  C   UNL     1     177.279 170.509 173.228  1.00  0.00     0.011 A 
ATOM     40  C   UNL     1     177.176 173.113 172.205  1.00  0.00     0.046 A 
ATOM     41  C   UNL     1     178.086 171.511 173.776  1.00  0.00     0.046 A 
ATOM     42  C   UNL     1     178.038 172.812 173.268  1.00  0.00     0.115 A 
BRANCH  42  43
ATOM     43  O   UNL     1     178.844 173.800 173.829  1.00  0.00    -0.508 OA
ATOM     44  H   UNL     1     179.490 173.591 174.581  1.00  0.00     0.293 HD
ENDBRANCH  42  43
ENDBRANCH  32  37
ENDBRANCH  23  24
ENDBRANCH   6  23
BRANCH   3  45
ATOM     45  O   UNL     1     173.219 163.174 178.360  1.00  0.00    -0.387 OA
ATOM     46  H   UNL     1     172.448 162.940 178.943  1.00  0.00     0.211 HD
ENDBRANCH   3  45
BRANCH   4  47
ATOM     47  C   UNL     1     174.648 164.613 176.217  1.00  0.00     0.191 C 
BRANCH  47  48
ATOM     48  O   UNL     1     173.791 165.438 176.961  1.00  0.00    -0.394 OA
ATOM     49  H   UNL     1     172.910 164.983 176.973  1.00  0.00     0.210 HD
ENDBRANCH  47  48
ENDBRANCH   4  47
TORSDOF 14
ENDMDL
