MODEL 1
REMARK VINA RESULT:    -3.928      0.000      0.000
REMARK INTER + INTRA:          -5.569
REMARK INTER:                  -4.962
REMARK INTRA:                  -0.608
REMARK UNBOUND:                -0.608
REMARK SMILES CC(C)=CCCC(C)=CCO
REMARK SMILES IDX 7 1 9 2 8 3 6 4 5 5 4 6 1 7 2 8 3 9 10 10 11 11
REMARK H PARENT 11 12
REMARK Flexibility Score: inf
ROOT
ATOM      1  C   UNL     1      -0.173   1.647 -11.488  1.00  0.00    -0.075 C 
ATOM      2  C   UNL     1       0.622   2.170 -12.450  1.00  0.00    -0.000 C 
ATOM      3  C   UNL     1      -0.540   0.182 -11.477  1.00  0.00     0.039 C 
ENDROOT
BRANCH   1   4
ATOM      4  C   UNL     1      -0.703   2.552 -10.397  1.00  0.00     0.034 C 
BRANCH   4   5
ATOM      5  C   UNL     1       0.092   2.369  -9.100  1.00  0.00     0.032 C 
BRANCH   5   6
ATOM      6  C   UNL     1       1.120   3.463  -8.930  1.00  0.00    -0.028 C 
ATOM      7  C   UNL     1       2.985   1.931  -9.568  1.00  0.00     0.039 C 
ATOM      8  C   UNL     1       2.439   3.273  -9.140  1.00  0.00    -0.080 C 
ATOM      9  C   UNL     1       3.379   4.432  -8.942  1.00  0.00     0.039 C 
ENDBRANCH   5   6
ENDBRANCH   4   5
ENDBRANCH   1   4
BRANCH   2  10
ATOM     10  C   UNL     1       1.214   1.368 -13.580  1.00  0.00     0.183 C 
BRANCH  10  11
ATOM     11  O   UNL     1       2.526   1.784 -13.847  1.00  0.00    -0.392 OA
ATOM     12  H   UNL     1       2.804   1.325 -14.681  1.00  0.00     0.210 HD
ENDBRANCH  10  11
ENDBRANCH   2  10
TORSDOF 5
ENDMDL
MODEL 2
REMARK VINA RESULT:    -3.851     10.862     11.905
REMARK INTER + INTRA:          -5.472
REMARK INTER:                  -5.236
REMARK INTRA:                  -0.236
REMARK UNBOUND:                -0.608
REMARK SMILES CC(C)=CCCC(C)=CCO
REMARK SMILES IDX 7 1 9 2 8 3 6 4 5 5 4 6 1 7 2 8 3 9 10 10 11 11
REMARK H PARENT 11 12
REMARK Flexibility Score: inf
ROOT
ATOM      1  C   UNL     1      12.007   7.172  -9.411  1.00  0.00    -0.075 C 
ATOM      2  C   UNL     1      13.150   7.330 -10.117  1.00  0.00    -0.000 C 
ATOM      3  C   UNL     1      11.440   5.803  -9.120  1.00  0.00     0.039 C 
ENDROOT
BRANCH   1   4
ATOM      4  C   UNL     1      11.281   8.398  -8.900  1.00  0.00     0.034 C 
BRANCH   4   5
ATOM      5  C   UNL     1       9.866   8.479  -9.483  1.00  0.00     0.032 C 
BRANCH   5   6
ATOM      6  C   UNL     1       9.088   9.622  -8.876  1.00  0.00    -0.028 C 
ATOM      7  C   UNL     1       8.001  10.159 -11.059  1.00  0.00     0.039 C 
ATOM      8  C   UNL     1       8.237  10.393  -9.585  1.00  0.00    -0.080 C 
ATOM      9  C   UNL     1       7.511  11.509  -8.881  1.00  0.00     0.039 C 
ENDBRANCH   5   6
ENDBRANCH   4   5
ENDBRANCH   1   4
BRANCH   2  10
ATOM     10  C   UNL     1      13.962   6.188 -10.669  1.00  0.00     0.183 C 
BRANCH  10  11
ATOM     11  O   UNL     1      13.864   6.141 -12.066  1.00  0.00    -0.392 OA
ATOM     12  H   UNL     1      12.931   5.874 -12.276  1.00  0.00     0.210 HD
ENDBRANCH  10  11
ENDBRANCH   2  10
TORSDOF 5
ENDMDL
MODEL 3
REMARK VINA RESULT:    -3.839      1.775      4.121
REMARK INTER + INTRA:          -5.456
REMARK INTER:                  -4.811
REMARK INTRA:                  -0.645
REMARK UNBOUND:                -0.608
REMARK SMILES CC(C)=CCCC(C)=CCO
REMARK SMILES IDX 7 1 9 2 8 3 6 4 5 5 4 6 1 7 2 8 3 9 10 10 11 11
REMARK H PARENT 11 12
REMARK Flexibility Score: inf
ROOT
ATOM      1  C   UNL     1       0.908   1.510  -9.297  1.00  0.00    -0.075 C 
ATOM      2  C   UNL     1       1.942   0.638  -9.291  1.00  0.00    -0.000 C 
ATOM      3  C   UNL     1       1.085   2.949  -8.876  1.00  0.00     0.039 C 
ENDROOT
BRANCH   1   4
ATOM      4  C   UNL     1      -0.458   1.031  -9.739  1.00  0.00     0.034 C 
BRANCH   4   5
ATOM      5  C   UNL     1      -0.879   1.710 -11.047  1.00  0.00     0.032 C 
BRANCH   5   6
ATOM      6  C   UNL     1      -0.309   0.990 -12.246  1.00  0.00    -0.028 C 
ATOM      7  C   UNL     1       1.455   2.730 -12.561  1.00  0.00     0.039 C 
ATOM      8  C   UNL     1       0.754   1.448 -12.942  1.00  0.00    -0.080 C 
ATOM      9  C   UNL     1       1.243   0.651 -14.122  1.00  0.00     0.039 C 
ENDBRANCH   5   6
ENDBRANCH   4   5
ENDBRANCH   1   4
BRANCH   2  10
ATOM     10  C   UNL     1       3.345   1.000  -8.879  1.00  0.00     0.183 C 
BRANCH  10  11
ATOM     11  O   UNL     1       4.107   1.372  -9.994  1.00  0.00    -0.392 OA
ATOM     12  H   UNL     1       3.566   2.032 -10.501  1.00  0.00     0.210 HD
ENDBRANCH  10  11
ENDBRANCH   2  10
TORSDOF 5
ENDMDL
MODEL 4
REMARK VINA RESULT:    -3.666      2.078      4.443
REMARK INTER + INTRA:          -5.238
REMARK INTER:                  -4.761
REMARK INTRA:                  -0.477
REMARK UNBOUND:                -0.608
REMARK SMILES CC(C)=CCCC(C)=CCO
REMARK SMILES IDX 7 1 9 2 8 3 6 4 5 5 4 6 1 7 2 8 3 9 10 10 11 11
REMARK H PARENT 11 12
REMARK Flexibility Score: inf
ROOT
ATOM      1  C   UNL     1       1.883   2.578 -11.543  1.00  0.00    -0.075 C 
ATOM      2  C   UNL     1       2.620   2.149 -10.494  1.00  0.00    -0.000 C 
ATOM      3  C   UNL     1       1.163   3.905 -11.514  1.00  0.00     0.039 C 
ENDROOT
BRANCH   1   4
ATOM      4  C   UNL     1       1.779   1.708 -12.777  1.00  0.00     0.034 C 
BRANCH   4   5
ATOM      5  C   UNL     1       0.383   1.085 -12.893  1.00  0.00     0.032 C 
BRANCH   5   6
ATOM      6  C   UNL     1       0.014   0.332 -11.636  1.00  0.00    -0.028 C 
ATOM      7  C   UNL     1      -1.849   1.915 -11.129  1.00  0.00     0.039 C 
ATOM      8  C   UNL     1      -1.000   0.703 -10.827  1.00  0.00    -0.080 C 
ATOM      9  C   UNL     1      -1.284  -0.119  -9.598  1.00  0.00     0.039 C 
ENDBRANCH   5   6
ENDBRANCH   4   5
ENDBRANCH   1   4
BRANCH   2  10
ATOM     10  C   UNL     1       2.802   2.930  -9.218  1.00  0.00     0.183 C 
BRANCH  10  11
ATOM     11  O   UNL     1       3.919   3.772  -9.309  1.00  0.00    -0.392 OA
ATOM     12  H   UNL     1       4.676   3.206  -9.613  1.00  0.00     0.210 HD
ENDBRANCH  10  11
ENDBRANCH   2  10
TORSDOF 5
ENDMDL
MODEL 5
REMARK VINA RESULT:    -3.658     10.777     11.797
REMARK INTER + INTRA:          -5.228
REMARK INTER:                  -4.989
REMARK INTRA:                  -0.239
REMARK UNBOUND:                -0.608
REMARK SMILES CC(C)=CCCC(C)=CCO
REMARK SMILES IDX 7 1 9 2 8 3 6 4 5 5 4 6 1 7 2 8 3 9 10 10 11 11
REMARK H PARENT 11 12
REMARK Flexibility Score: inf
ROOT
ATOM      1  C   UNL     1       8.502  10.020  -9.607  1.00  0.00    -0.075 C 
ATOM      2  C   UNL     1       8.190  11.114  -8.875  1.00  0.00    -0.000 C 
ATOM      3  C   UNL     1       8.150   9.924 -11.073  1.00  0.00     0.039 C 
ENDROOT
BRANCH   1   4
ATOM      4  C   UNL     1       9.222   8.867  -8.942  1.00  0.00     0.034 C 
BRANCH   4   5
ATOM      5  C   UNL     1      10.142   8.150  -9.937  1.00  0.00     0.032 C 
BRANCH   5   6
ATOM      6  C   UNL     1      11.518   7.934  -9.352  1.00  0.00    -0.028 C 
ATOM      7  C   UNL     1      12.061   6.186 -11.049  1.00  0.00     0.039 C 
ATOM      8  C   UNL     1      12.398   7.042  -9.852  1.00  0.00    -0.080 C 
ATOM      9  C   UNL     1      13.745   6.906  -9.193  1.00  0.00     0.039 C 
ENDBRANCH   5   6
ENDBRANCH   4   5
ENDBRANCH   1   4
BRANCH   2  10
ATOM     10  C   UNL     1       7.483  12.323  -9.428  1.00  0.00     0.183 C 
BRANCH  10  11
ATOM     11  O   UNL     1       6.181  12.412  -8.916  1.00  0.00    -0.392 OA
ATOM     12  H   UNL     1       5.689  13.045  -9.501  1.00  0.00     0.210 HD
ENDBRANCH  10  11
ENDBRANCH   2  10
TORSDOF 5
ENDMDL
MODEL 6
REMARK VINA RESULT:    -3.280     10.943     12.201
REMARK INTER + INTRA:          -4.751
REMARK INTER:                  -4.442
REMARK INTRA:                  -0.309
REMARK UNBOUND:                -0.608
REMARK SMILES CC(C)=CCCC(C)=CCO
REMARK SMILES IDX 7 1 9 2 8 3 6 4 5 5 4 6 1 7 2 8 3 9 10 10 11 11
REMARK H PARENT 11 12
REMARK Flexibility Score: inf
ROOT
ATOM      1  C   UNL     1      12.027   6.684  -9.744  1.00  0.00    -0.075 C 
ATOM      2  C   UNL     1      13.230   7.070  -9.261  1.00  0.00    -0.000 C 
ATOM      3  C   UNL     1      11.907   5.879 -11.016  1.00  0.00     0.039 C 
ENDROOT
BRANCH   1   4
ATOM      4  C   UNL     1      10.772   7.066  -8.989  1.00  0.00     0.034 C 
BRANCH   4   5
ATOM      5  C   UNL     1      10.515   8.575  -9.082  1.00  0.00     0.032 C 
BRANCH   5   6
ATOM      6  C   UNL     1       9.640   8.909 -10.267  1.00  0.00    -0.028 C 
ATOM      7  C   UNL     1       8.159  10.360  -8.875  1.00  0.00     0.039 C 
ATOM      8  C   UNL     1       8.564   9.720 -10.182  1.00  0.00    -0.080 C 
ATOM      9  C   UNL     1       7.759   9.987 -11.426  1.00  0.00     0.039 C 
ENDBRANCH   5   6
ENDBRANCH   4   5
ENDBRANCH   1   4
BRANCH   2  10
ATOM     10  C   UNL     1      14.545   6.744  -9.920  1.00  0.00     0.183 C 
BRANCH  10  11
ATOM     11  O   UNL     1      15.595   6.820  -8.994  1.00  0.00    -0.392 OA
ATOM     12  H   UNL     1      15.205   7.174  -8.153  1.00  0.00     0.210 HD
ENDBRANCH  10  11
ENDBRANCH   2  10
TORSDOF 5
ENDMDL
MODEL 7
REMARK VINA RESULT:    -3.179     10.965     13.278
REMARK INTER + INTRA:          -4.623
REMARK INTER:                  -4.280
REMARK INTRA:                  -0.343
REMARK UNBOUND:                -0.608
REMARK SMILES CC(C)=CCCC(C)=CCO
REMARK SMILES IDX 7 1 9 2 8 3 6 4 5 5 4 6 1 7 2 8 3 9 10 10 11 11
REMARK H PARENT 11 12
REMARK Flexibility Score: inf
ROOT
ATOM      1  C   UNL     1      12.653   6.759 -10.193  1.00  0.00    -0.075 C 
ATOM      2  C   UNL     1      11.961   7.443  -9.253  1.00  0.00    -0.000 C 
ATOM      3  C   UNL     1      11.985   5.725 -11.068  1.00  0.00     0.039 C 
ENDROOT
BRANCH   1   4
ATOM      4  C   UNL     1      14.129   7.040 -10.373  1.00  0.00     0.034 C 
BRANCH   4   5
ATOM      5  C   UNL     1      14.938   6.495  -9.190  1.00  0.00     0.032 C 
BRANCH   5   6
ATOM      6  C   UNL     1      14.655   5.029  -8.963  1.00  0.00    -0.028 C 
ATOM      7  C   UNL     1      16.125   4.360 -10.868  1.00  0.00     0.039 C 
ATOM      8  C   UNL     1      15.191   4.050  -9.723  1.00  0.00    -0.080 C 
ATOM      9  C   UNL     1      14.843   2.618  -9.410  1.00  0.00     0.039 C 
ENDBRANCH   5   6
ENDBRANCH   4   5
ENDBRANCH   1   4
BRANCH   2  10
ATOM     10  C   UNL     1      10.490   7.255  -8.987  1.00  0.00     0.183 C 
BRANCH  10  11
ATOM     11  O   UNL     1       9.730   8.136  -9.768  1.00  0.00    -0.392 OA
ATOM     12  H   UNL     1       9.877   9.044  -9.395  1.00  0.00     0.210 HD
ENDBRANCH  10  11
ENDBRANCH   2  10
TORSDOF 5
ENDMDL
MODEL 8
REMARK VINA RESULT:    -2.950      2.027      4.374
REMARK INTER + INTRA:          -4.334
REMARK INTER:                  -3.935
REMARK INTRA:                  -0.400
REMARK UNBOUND:                -0.608
REMARK SMILES CC(C)=CCCC(C)=CCO
REMARK SMILES IDX 7 1 9 2 8 3 6 4 5 5 4 6 1 7 2 8 3 9 10 10 11 11
REMARK H PARENT 11 12
REMARK Flexibility Score: inf
ROOT
ATOM      1  C   UNL     1       1.066   2.966  -9.836  1.00  0.00    -0.075 C 
ATOM      2  C   UNL     1       2.059   2.285  -9.221  1.00  0.00    -0.000 C 
ATOM      3  C   UNL     1       1.326   3.809 -11.061  1.00  0.00     0.039 C 
ENDROOT
BRANCH   1   4
ATOM      4  C   UNL     1      -0.341   2.878  -9.284  1.00  0.00     0.034 C 
BRANCH   4   5
ATOM      5  C   UNL     1      -0.700   1.431  -8.928  1.00  0.00     0.032 C 
BRANCH   5   6
ATOM      6  C   UNL     1      -1.836   0.923  -9.784  1.00  0.00    -0.028 C 
ATOM      7  C   UNL     1      -0.286   0.341 -11.652  1.00  0.00     0.039 C 
ATOM      8  C   UNL     1      -1.657   0.426 -11.026  1.00  0.00    -0.080 C 
ATOM      9  C   UNL     1      -2.860  -0.054 -11.794  1.00  0.00     0.039 C 
ENDBRANCH   5   6
ENDBRANCH   4   5
ENDBRANCH   1   4
BRANCH   2  10
ATOM     10  C   UNL     1       3.493   2.289  -9.682  1.00  0.00     0.183 C 
BRANCH  10  11
ATOM     11  O   UNL     1       4.073   1.025  -9.506  1.00  0.00    -0.392 OA
ATOM     12  H   UNL     1       3.426   0.364  -9.865  1.00  0.00     0.210 HD
ENDBRANCH  10  11
ENDBRANCH   2  10
TORSDOF 5
ENDMDL
