MODEL 1
REMARK VINA RESULT:    -3.974      0.000      0.000
REMARK INTER + INTRA:          -4.914
REMARK INTER:                  -4.671
REMARK INTRA:                  -0.243
REMARK UNBOUND:                -0.243
REMARK SMILES [NH3+][C@H](CO)C(=O)[O-]
REMARK SMILES IDX 3 1 2 2 1 3 5 7 6 8 7 9 4 10
REMARK H PARENT 1 4 1 5 1 6 4 11
REMARK Flexibility Score: inf
ROOT
ATOM      1  C   UNL     1      17.494  33.434  34.904  1.00  0.00     0.227 C 
ENDROOT
BRANCH   1   2
ATOM      2  C   UNL     1      16.211  32.667  35.270  1.00  0.00     0.253 C 
BRANCH   2   3
ATOM      3  N   UNL     1      16.456  31.687  36.336  1.00  0.00    -0.348 N 
ATOM      4  H   UNL     1      15.867  30.832  36.205  1.00  0.00     0.345 HD
ATOM      5  H   UNL     1      17.465  31.407  36.331  1.00  0.00     0.345 HD
ATOM      6  H   UNL     1      16.241  32.113  37.266  1.00  0.00     0.345 HD
ENDBRANCH   2   3
BRANCH   2   7
ATOM      7  C   UNL     1      15.107  33.617  35.654  1.00  0.00     0.102 C 
ATOM      8  O   UNL     1      14.319  34.070  34.782  1.00  0.00    -0.544 OA
ATOM      9  O   UNL     1      14.930  33.970  36.986  1.00  0.00    -0.544 OA
ENDBRANCH   2   7
ENDBRANCH   1   2
BRANCH   1  10
ATOM     10  O   UNL     1      17.211  34.549  34.098  1.00  0.00    -0.390 OA
ATOM     11  H   UNL     1      17.742  34.445  33.266  1.00  0.00     0.210 HD
ENDBRANCH   1  10
TORSDOF 4
ENDMDL
MODEL 2
REMARK VINA RESULT:    -3.921      1.775      2.134
REMARK INTER + INTRA:          -4.851
REMARK INTER:                  -4.603
REMARK INTRA:                  -0.248
REMARK UNBOUND:                -0.243
REMARK SMILES [NH3+][C@H](CO)C(=O)[O-]
REMARK SMILES IDX 3 1 2 2 1 3 5 7 6 8 7 9 4 10
REMARK H PARENT 1 4 1 5 1 6 4 11
REMARK Flexibility Score: inf
ROOT
ATOM      1  C   UNL     1      16.989  32.092  35.629  1.00  0.00     0.227 C 
ENDROOT
BRANCH   1   2
ATOM      2  C   UNL     1      16.662  33.596  35.628  1.00  0.00     0.253 C 
BRANCH   2   3
ATOM      3  N   UNL     1      17.142  34.250  34.404  1.00  0.00    -0.348 N 
ATOM      4  H   UNL     1      18.185  34.324  34.400  1.00  0.00     0.345 HD
ATOM      5  H   UNL     1      16.839  33.697  33.568  1.00  0.00     0.345 HD
ATOM      6  H   UNL     1      16.729  35.208  34.328  1.00  0.00     0.345 HD
ENDBRANCH   2   3
BRANCH   2   7
ATOM      7  C   UNL     1      15.186  33.826  35.820  1.00  0.00     0.102 C 
ATOM      8  O   UNL     1      14.413  33.899  34.828  1.00  0.00    -0.544 OA
ATOM      9  O   UNL     1      14.662  33.921  37.103  1.00  0.00    -0.544 OA
ENDBRANCH   2   7
ENDBRANCH   1   2
BRANCH   1  10
ATOM     10  O   UNL     1      16.290  31.417  36.643  1.00  0.00    -0.390 OA
ATOM     11  H   UNL     1      16.845  30.636  36.904  1.00  0.00     0.210 HD
ENDBRANCH   1  10
TORSDOF 4
ENDMDL
MODEL 3
REMARK VINA RESULT:    -3.799      4.068      4.539
REMARK INTER + INTRA:          -4.708
REMARK INTER:                  -4.488
REMARK INTRA:                  -0.221
REMARK UNBOUND:                -0.243
REMARK SMILES [NH3+][C@H](CO)C(=O)[O-]
REMARK SMILES IDX 3 1 2 2 1 3 5 7 6 8 7 9 4 10
REMARK H PARENT 1 4 1 5 1 6 4 11
REMARK Flexibility Score: inf
ROOT
ATOM      1  C   UNL     1      17.020  31.197  35.889  1.00  0.00     0.227 C 
ENDROOT
BRANCH   1   2
ATOM      2  C   UNL     1      17.557  29.754  35.895  1.00  0.00     0.253 C 
BRANCH   2   3
ATOM      3  N   UNL     1      18.973  29.710  36.279  1.00  0.00    -0.348 N 
ATOM      4  H   UNL     1      19.310  30.650  36.589  1.00  0.00     0.345 HD
ATOM      5  H   UNL     1      19.104  29.028  37.063  1.00  0.00     0.345 HD
ATOM      6  H   UNL     1      19.550  29.389  35.468  1.00  0.00     0.345 HD
ENDBRANCH   2   3
BRANCH   2   7
ATOM      7  C   UNL     1      16.726  28.875  36.793  1.00  0.00     0.102 C 
ATOM      8  O   UNL     1      16.026  27.946  36.311  1.00  0.00    -0.544 OA
ATOM      9  O   UNL     1      16.759  29.063  38.169  1.00  0.00    -0.544 OA
ENDBRANCH   2   7
ENDBRANCH   1   2
BRANCH   1  10
ATOM     10  O   UNL     1      16.158  31.427  36.973  1.00  0.00    -0.390 OA
ATOM     11  H   UNL     1      16.572  32.143  37.523  1.00  0.00     0.210 HD
ENDBRANCH   1  10
TORSDOF 4
ENDMDL
MODEL 4
REMARK VINA RESULT:    -3.697      2.075      2.683
REMARK INTER + INTRA:          -4.588
REMARK INTER:                  -4.386
REMARK INTRA:                  -0.202
REMARK UNBOUND:                -0.243
REMARK SMILES [NH3+][C@H](CO)C(=O)[O-]
REMARK SMILES IDX 3 1 2 2 1 3 5 7 6 8 7 9 4 10
REMARK H PARENT 1 4 1 5 1 6 4 11
REMARK Flexibility Score: inf
ROOT
ATOM      1  C   UNL     1      14.551  33.937  34.861  1.00  0.00     0.227 C 
ENDROOT
BRANCH   1   2
ATOM      2  C   UNL     1      15.980  33.367  34.897  1.00  0.00     0.253 C 
BRANCH   2   3
ATOM      3  N   UNL     1      16.972  34.377  34.506  1.00  0.00    -0.348 N 
ATOM      4  H   UNL     1      16.795  35.287  34.992  1.00  0.00     0.345 HD
ATOM      5  H   UNL     1      17.932  34.042  34.755  1.00  0.00     0.345 HD
ATOM      6  H   UNL     1      16.936  34.528  33.472  1.00  0.00     0.345 HD
ENDBRANCH   2   3
BRANCH   2   7
ATOM      7  C   UNL     1      16.297  32.795  36.253  1.00  0.00     0.102 C 
ATOM      8  O   UNL     1      16.639  31.589  36.377  1.00  0.00    -0.544 OA
ATOM      9  O   UNL     1      16.251  33.611  37.377  1.00  0.00    -0.544 OA
ENDBRANCH   2   7
ENDBRANCH   1   2
BRANCH   1  10
ATOM     10  O   UNL     1      14.357  34.896  35.867  1.00  0.00    -0.390 OA
ATOM     11  H   UNL     1      14.872  35.703  35.599  1.00  0.00     0.210 HD
ENDBRANCH   1  10
TORSDOF 4
ENDMDL
MODEL 5
REMARK VINA RESULT:    -3.571      2.115      3.205
REMARK INTER + INTRA:          -4.440
REMARK INTER:                  -4.226
REMARK INTRA:                  -0.214
REMARK UNBOUND:                -0.243
REMARK SMILES [NH3+][C@H](CO)C(=O)[O-]
REMARK SMILES IDX 3 1 2 2 1 3 5 7 6 8 7 9 4 10
REMARK H PARENT 1 4 1 5 1 6 4 11
REMARK Flexibility Score: inf
ROOT
ATOM      1  C   UNL     1      15.834  33.043  36.688  1.00  0.00     0.227 C 
ENDROOT
BRANCH   1   2
ATOM      2  C   UNL     1      15.499  33.326  35.212  1.00  0.00     0.253 C 
BRANCH   2   3
ATOM      3  N   UNL     1      14.540  34.430  35.080  1.00  0.00    -0.348 N 
ATOM      4  H   UNL     1      13.674  34.246  35.636  1.00  0.00     0.345 HD
ATOM      5  H   UNL     1      14.978  35.319  35.420  1.00  0.00     0.345 HD
ATOM      6  H   UNL     1      14.282  34.558  34.075  1.00  0.00     0.345 HD
ENDBRANCH   2   3
BRANCH   2   7
ATOM      7  C   UNL     1      16.750  33.600  34.420  1.00  0.00     0.102 C 
ATOM      8  O   UNL     1      17.883  33.316  34.891  1.00  0.00    -0.544 OA
ATOM      9  O   UNL     1      16.657  34.135  33.141  1.00  0.00    -0.544 OA
ENDBRANCH   2   7
ENDBRANCH   1   2
BRANCH   1  10
ATOM     10  O   UNL     1      16.217  31.705  36.877  1.00  0.00    -0.390 OA
ATOM     11  H   UNL     1      17.155  31.627  36.560  1.00  0.00     0.210 HD
ENDBRANCH   1  10
TORSDOF 4
ENDMDL
MODEL 6
REMARK VINA RESULT:    -3.551      4.703      5.263
REMARK INTER + INTRA:          -4.417
REMARK INTER:                  -4.199
REMARK INTRA:                  -0.218
REMARK UNBOUND:                -0.243
REMARK SMILES [NH3+][C@H](CO)C(=O)[O-]
REMARK SMILES IDX 3 1 2 2 1 3 5 7 6 8 7 9 4 10
REMARK H PARENT 1 4 1 5 1 6 4 11
REMARK Flexibility Score: inf
ROOT
ATOM      1  C   UNL     1      16.657  27.781  36.776  1.00  0.00     0.227 C 
ENDROOT
BRANCH   1   2
ATOM      2  C   UNL     1      16.406  29.229  37.235  1.00  0.00     0.253 C 
BRANCH   2   3
ATOM      3  N   UNL     1      16.561  29.366  38.689  1.00  0.00    -0.348 N 
ATOM      4  H   UNL     1      16.367  28.461  39.176  1.00  0.00     0.345 HD
ATOM      5  H   UNL     1      17.538  29.669  38.912  1.00  0.00     0.345 HD
ATOM      6  H   UNL     1      15.903  30.096  39.047  1.00  0.00     0.345 HD
ENDBRANCH   2   3
BRANCH   2   7
ATOM      7  C   UNL     1      17.307  30.188  36.503  1.00  0.00     0.102 C 
ATOM      8  O   UNL     1      18.510  29.891  36.273  1.00  0.00    -0.544 OA
ATOM      9  O   UNL     1      16.801  31.398  36.041  1.00  0.00    -0.544 OA
ENDBRANCH   2   7
ENDBRANCH   1   2
BRANCH   1  10
ATOM     10  O   UNL     1      17.738  27.206  37.462  1.00  0.00    -0.390 OA
ATOM     11  H   UNL     1      18.468  27.085  36.799  1.00  0.00     0.210 HD
ENDBRANCH   1  10
TORSDOF 4
ENDMDL
MODEL 7
REMARK VINA RESULT:    -3.496      2.010      2.801
REMARK INTER + INTRA:          -4.351
REMARK INTER:                  -4.345
REMARK INTRA:                  -0.007
REMARK UNBOUND:                -0.243
REMARK SMILES [NH3+][C@H](CO)C(=O)[O-]
REMARK SMILES IDX 3 1 2 2 1 3 5 7 6 8 7 9 4 10
REMARK H PARENT 1 4 1 5 1 6 4 11
REMARK Flexibility Score: inf
ROOT
ATOM      1  C   UNL     1      14.582  34.006  35.060  1.00  0.00     0.227 C 
ENDROOT
BRANCH   1   2
ATOM      2  C   UNL     1      15.962  33.349  34.877  1.00  0.00     0.253 C 
BRANCH   2   3
ATOM      3  N   UNL     1      16.972  34.329  34.459  1.00  0.00    -0.348 N 
ATOM      4  H   UNL     1      17.834  33.854  34.104  1.00  0.00     0.345 HD
ATOM      5  H   UNL     1      16.582  34.936  33.701  1.00  0.00     0.345 HD
ATOM      6  H   UNL     1      17.227  34.941  35.268  1.00  0.00     0.345 HD
ENDBRANCH   2   3
BRANCH   2   7
ATOM      7  C   UNL     1      16.388  32.634  36.132  1.00  0.00     0.102 C 
ATOM      8  O   UNL     1      16.204  33.157  37.262  1.00  0.00    -0.544 OA
ATOM      9  O   UNL     1      16.957  31.368  36.048  1.00  0.00    -0.544 OA
ENDBRANCH   2   7
ENDBRANCH   1   2
BRANCH   1  10
ATOM     10  O   UNL     1      14.138  34.605  33.871  1.00  0.00    -0.390 OA
ATOM     11  H   UNL     1      14.481  34.049  33.123  1.00  0.00     0.210 HD
ENDBRANCH   1  10
TORSDOF 4
ENDMDL
MODEL 8
REMARK VINA RESULT:    -3.494      4.695      5.310
REMARK INTER + INTRA:          -4.349
REMARK INTER:                  -4.011
REMARK INTRA:                  -0.338
REMARK UNBOUND:                -0.243
REMARK SMILES [NH3+][C@H](CO)C(=O)[O-]
REMARK SMILES IDX 3 1 2 2 1 3 5 7 6 8 7 9 4 10
REMARK H PARENT 1 4 1 5 1 6 4 11
REMARK Flexibility Score: inf
ROOT
ATOM      1  C   UNL     1      14.035  34.751  32.716  1.00  0.00     0.227 C 
ENDROOT
BRANCH   1   2
ATOM      2  C   UNL     1      12.823  35.654  33.009  1.00  0.00     0.253 C 
BRANCH   2   3
ATOM      3  N   UNL     1      12.894  36.227  34.358  1.00  0.00    -0.348 N 
ATOM      4  H   UNL     1      12.899  37.273  34.324  1.00  0.00     0.345 HD
ATOM      5  H   UNL     1      12.068  35.911  34.919  1.00  0.00     0.345 HD
ATOM      6  H   UNL     1      13.762  35.895  34.839  1.00  0.00     0.345 HD
ENDBRANCH   2   3
BRANCH   2   7
ATOM      7  C   UNL     1      12.694  36.735  31.968  1.00  0.00     0.102 C 
ATOM      8  O   UNL     1      13.234  37.860  32.141  1.00  0.00    -0.544 OA
ATOM      9  O   UNL     1      12.006  36.481  30.788  1.00  0.00    -0.544 OA
ENDBRANCH   2   7
ENDBRANCH   1   2
BRANCH   1  10
ATOM     10  O   UNL     1      14.913  35.354  31.801  1.00  0.00    -0.390 OA
ATOM     11  H   UNL     1      14.995  36.308  32.066  1.00  0.00     0.210 HD
ENDBRANCH   1  10
TORSDOF 4
ENDMDL
MODEL 9
REMARK VINA RESULT:    -3.465      1.171      2.668
REMARK INTER + INTRA:          -4.315
REMARK INTER:                  -4.101
REMARK INTRA:                  -0.214
REMARK UNBOUND:                -0.243
REMARK SMILES [NH3+][C@H](CO)C(=O)[O-]
REMARK SMILES IDX 3 1 2 2 1 3 5 7 6 8 7 9 4 10
REMARK H PARENT 1 4 1 5 1 6 4 11
REMARK Flexibility Score: inf
ROOT
ATOM      1  C   UNL     1      14.803  33.680  36.467  1.00  0.00     0.227 C 
ENDROOT
BRANCH   1   2
ATOM      2  C   UNL     1      16.227  33.106  36.363  1.00  0.00     0.253 C 
BRANCH   2   3
ATOM      3  N   UNL     1      16.243  31.659  36.613  1.00  0.00    -0.348 N 
ATOM      4  H   UNL     1      17.077  31.383  37.180  1.00  0.00     0.345 HD
ATOM      5  H   UNL     1      15.375  31.382  37.129  1.00  0.00     0.345 HD
ATOM      6  H   UNL     1      16.261  31.142  35.704  1.00  0.00     0.345 HD
ENDBRANCH   2   3
BRANCH   2   7
ATOM      7  C   UNL     1      16.842  33.430  35.027  1.00  0.00     0.102 C 
ATOM      8  O   UNL     1      18.093  33.432  34.879  1.00  0.00    -0.544 OA
ATOM      9  O   UNL     1      16.024  33.692  33.934  1.00  0.00    -0.544 OA
ENDBRANCH   2   7
ENDBRANCH   1   2
BRANCH   1  10
ATOM     10  O   UNL     1      14.749  35.001  35.995  1.00  0.00    -0.390 OA
ATOM     11  H   UNL     1      15.675  35.358  36.030  1.00  0.00     0.210 HD
ENDBRANCH   1  10
TORSDOF 4
ENDMDL
