MODEL 1
REMARK VINA RESULT:    -5.310      0.000      0.000
REMARK INTER + INTRA:          -7.430
REMARK INTER:                  -6.707
REMARK INTRA:                  -0.723
REMARK UNBOUND:                -0.723
REMARK SMILES Oc1ccc(CCc2cc(O)cc(O)c2)cc1
REMARK SMILES IDX 6 1 5 2 4 3 3 4 2 5 16 6 17 7 1 8 7 10 8 11 15 12 9 13 13 14
REMARK SMILES IDX 10 15 12 16 14 17 11 19
REMARK H PARENT 1 9 14 18 11 20
REMARK Flexibility Score: inf
ROOT
ATOM      1  C   UNL     1     174.198 173.465 150.045  1.00  0.00     0.040 C 
ENDROOT
BRANCH   1   2
ATOM      2  C   UNL     1     174.173 171.963 150.127  1.00  0.00    -0.047 A 
ATOM      3  C   UNL     1     175.374 171.235 150.141  1.00  0.00     0.007 A 
ATOM      4  C   UNL     1     175.349 169.837 150.185  1.00  0.00     0.046 A 
ATOM      5  C   UNL     1     174.125 169.154 150.205  1.00  0.00     0.115 A 
ATOM      6  C   UNL     1     172.949 171.274 150.134  1.00  0.00     0.007 A 
ATOM      7  C   UNL     1     172.927 169.877 150.178  1.00  0.00     0.046 A 
BRANCH   5   8
ATOM      8  O   UNL     1     174.088 167.762 150.249  1.00  0.00    -0.508 OA
ATOM      9  H   UNL     1     174.139 167.259 151.127  1.00  0.00     0.293 HD
ENDBRANCH   5   8
ENDBRANCH   1   2
BRANCH   1  10
ATOM     10  C   UNL     1     174.979 174.057 151.222  1.00  0.00     0.040 C 
BRANCH  10  11
ATOM     11  C   UNL     1     174.356 173.646 152.530  1.00  0.00    -0.040 A 
ATOM     12  C   UNL     1     173.004 173.924 152.787  1.00  0.00     0.050 A 
ATOM     13  C   UNL     1     175.106 172.932 153.477  1.00  0.00     0.050 A 
ATOM     14  C   UNL     1     172.414 173.513 153.990  1.00  0.00     0.119 A 
ATOM     15  C   UNL     1     174.518 172.520 154.681  1.00  0.00     0.119 A 
ATOM     16  C   UNL     1     173.174 172.815 154.935  1.00  0.00     0.092 A 
BRANCH  14  17
ATOM     17  O   UNL     1     171.075 173.790 154.256  1.00  0.00    -0.508 OA
ATOM     18  H   UNL     1     170.333 173.415 153.678  1.00  0.00     0.293 HD
ENDBRANCH  14  17
BRANCH  15  19
ATOM     19  O   UNL     1     175.257 171.818 155.630  1.00  0.00    -0.508 OA
ATOM     20  H   UNL     1     174.819 171.148 156.253  1.00  0.00     0.293 HD
ENDBRANCH  15  19
ENDBRANCH  10  11
ENDBRANCH   1  10
TORSDOF 6
ENDMDL
MODEL 2
REMARK VINA RESULT:    -5.305      0.080      2.032
REMARK INTER + INTRA:          -7.423
REMARK INTER:                  -6.727
REMARK INTRA:                  -0.696
REMARK UNBOUND:                -0.723
REMARK SMILES Oc1ccc(CCc2cc(O)cc(O)c2)cc1
REMARK SMILES IDX 6 1 5 2 4 3 3 4 2 5 16 6 17 7 1 8 7 10 8 11 15 12 9 13 13 14
REMARK SMILES IDX 10 15 12 16 14 17 11 19
REMARK H PARENT 1 9 14 18 11 20
REMARK Flexibility Score: inf
ROOT
ATOM      1  C   UNL     1     174.219 173.498 150.002  1.00  0.00     0.040 C 
ENDROOT
BRANCH   1   2
ATOM      2  C   UNL     1     174.162 171.996 150.064  1.00  0.00    -0.047 A 
ATOM      3  C   UNL     1     175.346 171.244 150.118  1.00  0.00     0.007 A 
ATOM      4  C   UNL     1     175.293 169.847 150.143  1.00  0.00     0.046 A 
ATOM      5  C   UNL     1     174.056 169.188 150.103  1.00  0.00     0.115 A 
ATOM      6  C   UNL     1     172.926 171.331 150.011  1.00  0.00     0.007 A 
ATOM      7  C   UNL     1     172.875 169.934 150.036  1.00  0.00     0.046 A 
BRANCH   5   8
ATOM      8  O   UNL     1     173.991 167.796 150.127  1.00  0.00    -0.508 OA
ATOM      9  H   UNL     1     173.995 167.281 151.000  1.00  0.00     0.293 HD
ENDBRANCH   5   8
ENDBRANCH   1   2
BRANCH   1  10
ATOM     10  C   UNL     1     174.978 174.059 151.209  1.00  0.00     0.040 C 
BRANCH  10  11
ATOM     11  C   UNL     1     174.341 173.600 152.494  1.00  0.00    -0.040 A 
ATOM     12  C   UNL     1     175.101 172.914 153.454  1.00  0.00     0.050 A 
ATOM     13  C   UNL     1     172.999 173.906 152.766  1.00  0.00     0.050 A 
ATOM     14  C   UNL     1     174.519 172.515 154.665  1.00  0.00     0.119 A 
ATOM     15  C   UNL     1     172.414 173.508 153.977  1.00  0.00     0.119 A 
ATOM     16  C   UNL     1     173.176 172.811 154.921  1.00  0.00     0.092 A 
BRANCH  14  17
ATOM     17  O   UNL     1     175.264 171.828 155.620  1.00  0.00    -0.508 OA
ATOM     18  H   UNL     1     175.021 171.859 156.603  1.00  0.00     0.293 HD
ENDBRANCH  14  17
BRANCH  15  19
ATOM     19  O   UNL     1     171.081 173.800 154.252  1.00  0.00    -0.508 OA
ATOM     20  H   UNL     1     170.755 173.942 155.202  1.00  0.00     0.293 HD
ENDBRANCH  15  19
ENDBRANCH  10  11
ENDBRANCH   1  10
TORSDOF 6
ENDMDL
MODEL 3
REMARK VINA RESULT:    -5.249      1.430      5.271
REMARK INTER + INTRA:          -7.353
REMARK INTER:                  -6.544
REMARK INTRA:                  -0.809
REMARK UNBOUND:                -0.723
REMARK SMILES Oc1ccc(CCc2cc(O)cc(O)c2)cc1
REMARK SMILES IDX 6 1 5 2 4 3 3 4 2 5 16 6 17 7 1 8 7 10 8 11 15 12 9 13 13 14
REMARK SMILES IDX 10 15 12 16 14 17 11 19
REMARK H PARENT 1 9 14 18 11 20
REMARK Flexibility Score: inf
ROOT
ATOM      1  C   UNL     1     173.662 173.916 150.460  1.00  0.00     0.040 C 
ENDROOT
BRANCH   1   2
ATOM      2  C   UNL     1     173.664 173.920 151.964  1.00  0.00    -0.047 A 
ATOM      3  C   UNL     1     174.869 174.070 152.670  1.00  0.00     0.007 A 
ATOM      4  C   UNL     1     174.875 174.040 154.068  1.00  0.00     0.046 A 
ATOM      5  C   UNL     1     173.678 173.850 154.774  1.00  0.00     0.115 A 
ATOM      6  C   UNL     1     172.470 173.715 152.676  1.00  0.00     0.007 A 
ATOM      7  C   UNL     1     172.478 173.686 154.073  1.00  0.00     0.046 A 
BRANCH   5   8
ATOM      8  O   UNL     1     173.672 173.818 156.167  1.00  0.00    -0.508 OA
ATOM      9  H   UNL     1     173.242 174.557 156.711  1.00  0.00     0.293 HD
ENDBRANCH   5   8
ENDBRANCH   1   2
BRANCH   1  10
ATOM     10  C   UNL     1     174.666 172.893 149.922  1.00  0.00     0.040 C 
BRANCH  10  11
ATOM     11  C   UNL     1     174.198 171.490 150.207  1.00  0.00    -0.040 A 
ATOM     12  C   UNL     1     175.037 170.588 150.880  1.00  0.00     0.050 A 
ATOM     13  C   UNL     1     172.898 171.094 149.855  1.00  0.00     0.050 A 
ATOM     14  C   UNL     1     174.590 169.293 151.175  1.00  0.00     0.119 A 
ATOM     15  C   UNL     1     172.449 169.799 150.150  1.00  0.00     0.119 A 
ATOM     16  C   UNL     1     173.298 168.901 150.807  1.00  0.00     0.092 A 
BRANCH  14  17
ATOM     17  O   UNL     1     175.418 168.389 151.837  1.00  0.00    -0.508 OA
ATOM     18  H   UNL     1     175.891 167.644 151.339  1.00  0.00     0.293 HD
ENDBRANCH  14  17
BRANCH  15  19
ATOM     19  O   UNL     1     171.165 169.394 149.797  1.00  0.00    -0.508 OA
ATOM     20  H   UNL     1     170.582 169.956 149.185  1.00  0.00     0.293 HD
ENDBRANCH  15  19
ENDBRANCH  10  11
ENDBRANCH   1  10
TORSDOF 6
ENDMDL
MODEL 4
REMARK VINA RESULT:    -5.228     10.357     12.181
REMARK INTER + INTRA:          -7.327
REMARK INTER:                  -6.549
REMARK INTRA:                  -0.778
REMARK UNBOUND:                -0.723
REMARK SMILES Oc1ccc(CCc2cc(O)cc(O)c2)cc1
REMARK SMILES IDX 6 1 5 2 4 3 3 4 2 5 16 6 17 7 1 8 7 10 8 11 15 12 9 13 13 14
REMARK SMILES IDX 10 15 12 16 14 17 11 19
REMARK H PARENT 1 9 14 18 11 20
REMARK Flexibility Score: inf
ROOT
ATOM      1  C   UNL     1     175.199 160.400 149.967  1.00  0.00     0.040 C 
ENDROOT
BRANCH   1   2
ATOM      2  C   UNL     1     173.811 159.837 150.110  1.00  0.00    -0.047 A 
ATOM      3  C   UNL     1     173.609 158.448 150.143  1.00  0.00     0.007 A 
ATOM      4  C   UNL     1     172.316 157.926 150.244  1.00  0.00     0.046 A 
ATOM      5  C   UNL     1     171.211 158.787 150.301  1.00  0.00     0.115 A 
ATOM      6  C   UNL     1     172.700 160.695 150.155  1.00  0.00     0.007 A 
ATOM      7  C   UNL     1     171.408 160.171 150.255  1.00  0.00     0.046 A 
BRANCH   5   8
ATOM      8  O   UNL     1     169.918 158.278 150.401  1.00  0.00    -0.508 OA
ATOM      9  H   UNL     1     169.145 158.854 150.713  1.00  0.00     0.293 HD
ENDBRANCH   5   8
ENDBRANCH   1   2
BRANCH   1  10
ATOM     10  C   UNL     1     176.122 159.841 151.054  1.00  0.00     0.040 C 
BRANCH  10  11
ATOM     11  C   UNL     1     175.671 160.296 152.416  1.00  0.00    -0.040 A 
ATOM     12  C   UNL     1     175.541 161.666 152.697  1.00  0.00     0.050 A 
ATOM     13  C   UNL     1     175.321 159.355 153.397  1.00  0.00     0.050 A 
ATOM     14  C   UNL     1     175.090 162.091 153.954  1.00  0.00     0.119 A 
ATOM     15  C   UNL     1     174.869 159.778 154.655  1.00  0.00     0.119 A 
ATOM     16  C   UNL     1     174.758 161.145 154.930  1.00  0.00     0.092 A 
BRANCH  14  17
ATOM     17  O   UNL     1     174.965 163.448 154.243  1.00  0.00    -0.508 OA
ATOM     18  H   UNL     1     174.480 163.769 155.072  1.00  0.00     0.293 HD
ENDBRANCH  14  17
BRANCH  15  19
ATOM     19  O   UNL     1     174.528 158.851 155.636  1.00  0.00    -0.508 OA
ATOM     20  H   UNL     1     174.145 159.142 156.529  1.00  0.00     0.293 HD
ENDBRANCH  15  19
ENDBRANCH  10  11
ENDBRANCH   1  10
TORSDOF 6
ENDMDL
MODEL 5
REMARK VINA RESULT:    -5.220      1.408      4.931
REMARK INTER + INTRA:          -7.316
REMARK INTER:                  -6.521
REMARK INTRA:                  -0.795
REMARK UNBOUND:                -0.723
REMARK SMILES Oc1ccc(CCc2cc(O)cc(O)c2)cc1
REMARK SMILES IDX 6 1 5 2 4 3 3 4 2 5 16 6 17 7 1 8 7 10 8 11 15 12 9 13 13 14
REMARK SMILES IDX 10 15 12 16 14 17 11 19
REMARK H PARENT 1 9 14 18 11 20
REMARK Flexibility Score: inf
ROOT
ATOM      1  C   UNL     1     173.676 173.888 150.485  1.00  0.00     0.040 C 
ENDROOT
BRANCH   1   2
ATOM      2  C   UNL     1     173.679 173.898 151.990  1.00  0.00    -0.047 A 
ATOM      3  C   UNL     1     174.888 174.001 152.695  1.00  0.00     0.007 A 
ATOM      4  C   UNL     1     174.893 173.978 154.093  1.00  0.00     0.046 A 
ATOM      5  C   UNL     1     173.690 173.840 154.800  1.00  0.00     0.115 A 
ATOM      6  C   UNL     1     172.477 173.747 152.702  1.00  0.00     0.007 A 
ATOM      7  C   UNL     1     172.484 173.724 154.100  1.00  0.00     0.046 A 
BRANCH   5   8
ATOM      8  O   UNL     1     173.682 173.816 156.193  1.00  0.00    -0.508 OA
ATOM      9  H   UNL     1     173.679 172.943 156.707  1.00  0.00     0.293 HD
ENDBRANCH   5   8
ENDBRANCH   1   2
BRANCH   1  10
ATOM     10  C   UNL     1     174.657 172.839 149.952  1.00  0.00     0.040 C 
BRANCH  10  11
ATOM     11  C   UNL     1     174.148 171.449 150.228  1.00  0.00    -0.040 A 
ATOM     12  C   UNL     1     172.849 171.082 149.843  1.00  0.00     0.050 A 
ATOM     13  C   UNL     1     174.989 170.493 150.820  1.00  0.00     0.050 A 
ATOM     14  C   UNL     1     172.385 169.779 150.070  1.00  0.00     0.119 A 
ATOM     15  C   UNL     1     174.526 169.189 151.047  1.00  0.00     0.119 A 
ATOM     16  C   UNL     1     173.225 168.837 150.674  1.00  0.00     0.092 A 
BRANCH  14  17
ATOM     17  O   UNL     1     171.096 169.409 149.696  1.00  0.00    -0.508 OA
ATOM     18  H   UNL     1     170.357 170.095 149.593  1.00  0.00     0.293 HD
ENDBRANCH  14  17
BRANCH  15  19
ATOM     19  O   UNL     1     175.351 168.237 151.641  1.00  0.00    -0.508 OA
ATOM     20  H   UNL     1     175.495 168.213 152.645  1.00  0.00     0.293 HD
ENDBRANCH  15  19
ENDBRANCH  10  11
ENDBRANCH   1  10
TORSDOF 6
ENDMDL
MODEL 6
REMARK VINA RESULT:    -5.130     10.441     12.232
REMARK INTER + INTRA:          -7.203
REMARK INTER:                  -6.465
REMARK INTRA:                  -0.738
REMARK UNBOUND:                -0.723
REMARK SMILES Oc1ccc(CCc2cc(O)cc(O)c2)cc1
REMARK SMILES IDX 6 1 5 2 4 3 3 4 2 5 16 6 17 7 1 8 7 10 8 11 15 12 9 13 13 14
REMARK SMILES IDX 10 15 12 16 14 17 11 19
REMARK H PARENT 1 9 14 18 11 20
REMARK Flexibility Score: inf
ROOT
ATOM      1  C   UNL     1     175.319 160.267 149.999  1.00  0.00     0.040 C 
ENDROOT
BRANCH   1   2
ATOM      2  C   UNL     1     173.872 159.867 150.098  1.00  0.00    -0.047 A 
ATOM      3  C   UNL     1     173.515 158.511 150.163  1.00  0.00     0.007 A 
ATOM      4  C   UNL     1     172.168 158.139 150.222  1.00  0.00     0.046 A 
ATOM      5  C   UNL     1     171.165 159.118 150.204  1.00  0.00     0.115 A 
ATOM      6  C   UNL     1     172.863 160.844 150.067  1.00  0.00     0.007 A 
ATOM      7  C   UNL     1     171.517 160.470 150.126  1.00  0.00     0.046 A 
BRANCH   5   8
ATOM      8  O   UNL     1     169.820 158.759 150.262  1.00  0.00    -0.508 OA
ATOM      9  H   UNL     1     169.090 159.455 150.359  1.00  0.00     0.293 HD
ENDBRANCH   5   8
ENDBRANCH   1   2
BRANCH   1  10
ATOM     10  C   UNL     1     176.125 159.663 151.154  1.00  0.00     0.040 C 
BRANCH  10  11
ATOM     11  C   UNL     1     175.610 160.163 152.477  1.00  0.00    -0.040 A 
ATOM     12  C   UNL     1     175.259 159.255 153.488  1.00  0.00     0.050 A 
ATOM     13  C   UNL     1     175.534 161.542 152.730  1.00  0.00     0.050 A 
ATOM     14  C   UNL     1     174.811 159.720 154.732  1.00  0.00     0.119 A 
ATOM     15  C   UNL     1     175.087 162.009 153.975  1.00  0.00     0.119 A 
ATOM     16  C   UNL     1     174.724 161.096 154.970  1.00  0.00     0.092 A 
BRANCH  14  17
ATOM     17  O   UNL     1     174.454 158.825 155.739  1.00  0.00    -0.508 OA
ATOM     18  H   UNL     1     175.104 158.569 156.473  1.00  0.00     0.293 HD
ENDBRANCH  14  17
BRANCH  15  19
ATOM     19  O   UNL     1     175.000 163.374 154.232  1.00  0.00    -0.508 OA
ATOM     20  H   UNL     1     174.297 163.752 154.859  1.00  0.00     0.293 HD
ENDBRANCH  15  19
ENDBRANCH  10  11
ENDBRANCH   1  10
TORSDOF 6
ENDMDL
MODEL 7
REMARK VINA RESULT:    -5.110      2.474      3.777
REMARK INTER + INTRA:          -7.178
REMARK INTER:                  -6.685
REMARK INTRA:                  -0.492
REMARK UNBOUND:                -0.723
REMARK SMILES Oc1ccc(CCc2cc(O)cc(O)c2)cc1
REMARK SMILES IDX 6 1 5 2 4 3 3 4 2 5 16 6 17 7 1 8 7 10 8 11 15 12 9 13 13 14
REMARK SMILES IDX 10 15 12 16 14 17 11 19
REMARK H PARENT 1 9 14 18 11 20
REMARK Flexibility Score: inf
ROOT
ATOM      1  C   UNL     1     175.080 169.225 150.975  1.00  0.00     0.040 C 
ENDROOT
BRANCH   1   2
ATOM      2  C   UNL     1     173.900 168.639 150.247  1.00  0.00    -0.047 A 
ATOM      3  C   UNL     1     174.084 167.960 149.032  1.00  0.00     0.007 A 
ATOM      4  C   UNL     1     172.985 167.444 148.339  1.00  0.00     0.046 A 
ATOM      5  C   UNL     1     171.689 167.612 148.849  1.00  0.00     0.115 A 
ATOM      6  C   UNL     1     172.600 168.816 150.747  1.00  0.00     0.007 A 
ATOM      7  C   UNL     1     171.501 168.300 150.053  1.00  0.00     0.046 A 
BRANCH   5   8
ATOM      8  O   UNL     1     170.586 167.102 148.168  1.00  0.00    -0.508 OA
ATOM      9  H   UNL     1     170.332 166.123 148.229  1.00  0.00     0.293 HD
ENDBRANCH   5   8
ENDBRANCH   1   2
BRANCH   1  10
ATOM     10  C   UNL     1     174.618 169.992 152.217  1.00  0.00     0.040 C 
BRANCH  10  11
ATOM     11  C   UNL     1     174.701 171.477 151.983  1.00  0.00    -0.040 A 
ATOM     12  C   UNL     1     174.890 172.354 153.063  1.00  0.00     0.050 A 
ATOM     13  C   UNL     1     174.647 171.991 150.678  1.00  0.00     0.050 A 
ATOM     14  C   UNL     1     175.001 173.734 152.842  1.00  0.00     0.119 A 
ATOM     15  C   UNL     1     174.757 173.371 150.456  1.00  0.00     0.119 A 
ATOM     16  C   UNL     1     174.930 174.238 151.539  1.00  0.00     0.092 A 
BRANCH  14  17
ATOM     17  O   UNL     1     175.183 174.612 153.909  1.00  0.00    -0.508 OA
ATOM     18  H   UNL     1     174.692 174.486 154.787  1.00  0.00     0.293 HD
ENDBRANCH  14  17
BRANCH  15  19
ATOM     19  O   UNL     1     174.696 173.890 149.165  1.00  0.00    -0.508 OA
ATOM     20  H   UNL     1     174.351 173.337 148.387  1.00  0.00     0.293 HD
ENDBRANCH  15  19
ENDBRANCH  10  11
ENDBRANCH   1  10
TORSDOF 6
ENDMDL
MODEL 8
REMARK VINA RESULT:    -5.100      2.498      5.647
REMARK INTER + INTRA:          -7.165
REMARK INTER:                  -6.577
REMARK INTRA:                  -0.588
REMARK UNBOUND:                -0.723
REMARK SMILES Oc1ccc(CCc2cc(O)cc(O)c2)cc1
REMARK SMILES IDX 6 1 5 2 4 3 3 4 2 5 16 6 17 7 1 8 7 10 8 11 15 12 9 13 13 14
REMARK SMILES IDX 10 15 12 16 14 17 11 19
REMARK H PARENT 1 9 14 18 11 20
REMARK Flexibility Score: inf
ROOT
ATOM      1  C   UNL     1     173.973 172.215 150.143  1.00  0.00     0.040 C 
ENDROOT
BRANCH   1   2
ATOM      2  C   UNL     1     172.756 172.909 150.692  1.00  0.00    -0.047 A 
ATOM      3  C   UNL     1     172.822 174.259 151.072  1.00  0.00     0.007 A 
ATOM      4  C   UNL     1     171.700 174.895 151.612  1.00  0.00     0.046 A 
ATOM      5  C   UNL     1     170.504 174.184 151.789  1.00  0.00     0.115 A 
ATOM      6  C   UNL     1     171.560 172.198 150.883  1.00  0.00     0.007 A 
ATOM      7  C   UNL     1     170.440 172.835 151.424  1.00  0.00     0.046 A 
BRANCH   5   8
ATOM      8  O   UNL     1     169.380 174.807 152.327  1.00  0.00    -0.508 OA
ATOM      9  H   UNL     1     169.462 175.526 153.035  1.00  0.00     0.293 HD
ENDBRANCH   5   8
ENDBRANCH   1   2
BRANCH   1  10
ATOM     10  C   UNL     1     174.754 171.527 151.267  1.00  0.00     0.040 C 
BRANCH  10  11
ATOM     11  C   UNL     1     174.652 170.030 151.143  1.00  0.00    -0.040 A 
ATOM     12  C   UNL     1     175.053 169.203 152.204  1.00  0.00     0.050 A 
ATOM     13  C   UNL     1     174.100 169.452 149.988  1.00  0.00     0.050 A 
ATOM     14  C   UNL     1     174.928 167.811 152.102  1.00  0.00     0.119 A 
ATOM     15  C   UNL     1     173.974 168.060 149.885  1.00  0.00     0.119 A 
ATOM     16  C   UNL     1     174.391 167.244 150.942  1.00  0.00     0.092 A 
BRANCH  14  17
ATOM     17  O   UNL     1     175.329 166.983 153.148  1.00  0.00    -0.508 OA
ATOM     18  H   UNL     1     176.195 166.458 153.104  1.00  0.00     0.293 HD
ENDBRANCH  14  17
BRANCH  15  19
ATOM     19  O   UNL     1     173.436 167.478 148.740  1.00  0.00    -0.508 OA
ATOM     20  H   UNL     1     173.814 166.619 148.355  1.00  0.00     0.293 HD
ENDBRANCH  15  19
ENDBRANCH  10  11
ENDBRANCH   1  10
TORSDOF 6
ENDMDL
MODEL 9
REMARK VINA RESULT:    -5.087      9.912     11.685
REMARK INTER + INTRA:          -7.148
REMARK INTER:                  -6.563
REMARK INTRA:                  -0.585
REMARK UNBOUND:                -0.723
REMARK SMILES Oc1ccc(CCc2cc(O)cc(O)c2)cc1
REMARK SMILES IDX 6 1 5 2 4 3 3 4 2 5 16 6 17 7 1 8 7 10 8 11 15 12 9 13 13 14
REMARK SMILES IDX 10 15 12 16 14 17 11 19
REMARK H PARENT 1 9 14 18 11 20
REMARK Flexibility Score: inf
ROOT
ATOM      1  C   UNL     1     162.470 175.486 150.118  1.00  0.00     0.040 C 
ENDROOT
BRANCH   1   2
ATOM      2  C   UNL     1     161.424 174.564 150.683  1.00  0.00    -0.047 A 
ATOM      3  C   UNL     1     160.170 175.066 151.066  1.00  0.00     0.007 A 
ATOM      4  C   UNL     1     159.210 174.214 151.622  1.00  0.00     0.046 A 
ATOM      5  C   UNL     1     159.498 172.855 151.810  1.00  0.00     0.115 A 
ATOM      6  C   UNL     1     161.713 173.204 150.886  1.00  0.00     0.007 A 
ATOM      7  C   UNL     1     160.752 172.354 151.441  1.00  0.00     0.046 A 
BRANCH   5   8
ATOM      8  O   UNL     1     158.550 171.997 152.362  1.00  0.00    -0.508 OA
ATOM      9  H   UNL     1     157.580 172.020 152.068  1.00  0.00     0.293 HD
ENDBRANCH   5   8
ENDBRANCH   1   2
BRANCH   1  10
ATOM     10  C   UNL     1     163.368 176.030 151.233  1.00  0.00     0.040 C 
BRANCH  10  11
ATOM     11  C   UNL     1     164.744 175.425 151.148  1.00  0.00    -0.040 A 
ATOM     12  C   UNL     1     165.129 174.701 150.009  1.00  0.00     0.050 A 
ATOM     13  C   UNL     1     165.671 175.629 152.182  1.00  0.00     0.050 A 
ATOM     14  C   UNL     1     166.420 174.165 149.914  1.00  0.00     0.119 A 
ATOM     15  C   UNL     1     166.964 175.094 152.089  1.00  0.00     0.119 A 
ATOM     16  C   UNL     1     167.333 174.361 150.956  1.00  0.00     0.092 A 
BRANCH  14  17
ATOM     17  O   UNL     1     166.809 173.441 148.790  1.00  0.00    -0.508 OA
ATOM     18  H   UNL     1     166.296 172.621 148.486  1.00  0.00     0.293 HD
ENDBRANCH  14  17
BRANCH  15  19
ATOM     19  O   UNL     1     167.887 175.284 153.114  1.00  0.00    -0.508 OA
ATOM     20  H   UNL     1     167.648 175.801 153.953  1.00  0.00     0.293 HD
ENDBRANCH  15  19
ENDBRANCH  10  11
ENDBRANCH   1  10
TORSDOF 6
ENDMDL
