MODEL 1
REMARK VINA RESULT:    -6.865      0.000      0.000
REMARK INTER + INTRA:         -10.500
REMARK INTER:                  -9.273
REMARK INTRA:                  -1.227
REMARK UNBOUND:                -1.227
REMARK SMILES O=c1c(-c2ccc(O)cc2)coc2c([C@H]3O[C@@H](CO)[C@@H](O)[C@H](O)[C@H]3O)c(O)ccc12
REMARK SMILES IDX 3 1 11 2 12 3 13 4 30 5 2 6 1 7 29 8 28 9 26 10 14 11 4 12
REMARK SMILES IDX 5 13 6 14 7 15 10 16 9 17 8 18 15 20 24 21 16 22 22 23 17 24
REMARK SMILES IDX 20 25 25 26 23 28 18 30 19 31 21 33 27 35
REMARK H PARENT 8 19 25 27 23 29 19 32 21 34 27 36
REMARK Flexibility Score: inf
ROOT
ATOM      1  C   UNL     1      19.178  -1.861 -17.673  1.00  0.00     0.065 A 
ATOM      2  C   UNL     1      18.619  -1.247 -16.544  1.00  0.00     0.208 A 
ATOM      3  O   UNL     1      17.956  -1.959 -15.641  1.00  0.00    -0.463 OA
ATOM      4  C   UNL     1      17.787  -3.276 -15.734  1.00  0.00     0.147 A 
ATOM      5  C   UNL     1      18.331  -3.976 -16.833  1.00  0.00     0.066 A 
ATOM      6  C   UNL     1      19.039  -3.255 -17.811  1.00  0.00     0.200 A 
ATOM      7  O   UNL     1      19.553  -3.847 -18.793  1.00  0.00    -0.288 OA
ATOM      8  C   UNL     1      18.170  -5.362 -16.931  1.00  0.00     0.020 A 
ATOM      9  C   UNL     1      17.476  -6.050 -15.952  1.00  0.00     0.047 A 
ATOM     10  C   UNL     1      16.931  -5.386 -14.851  1.00  0.00     0.125 A 
ATOM     11  C   UNL     1      17.071  -3.978 -14.731  1.00  0.00     0.069 A 
ENDROOT
BRANCH   1  12
ATOM     12  C   UNL     1      19.887  -1.043 -18.686  1.00  0.00    -0.011 A 
ATOM     13  C   UNL     1      19.326  -0.835 -19.963  1.00  0.00     0.013 A 
ATOM     14  C   UNL     1      19.995  -0.056 -20.913  1.00  0.00     0.047 A 
ATOM     15  C   UNL     1      21.230   0.528 -20.595  1.00  0.00     0.115 A 
ATOM     16  C   UNL     1      21.127  -0.454 -18.379  1.00  0.00     0.013 A 
ATOM     17  C   UNL     1      21.801   0.312 -19.337  1.00  0.00     0.047 A 
BRANCH  15  18
ATOM     18  O   UNL     1      21.894   1.340 -21.514  1.00  0.00    -0.508 OA
ATOM     19  H   UNL     1      22.166   2.292 -21.285  1.00  0.00     0.293 HD
ENDBRANCH  15  18
ENDBRANCH   1  12
BRANCH  11  20
ATOM     20  C   UNL     1      16.528  -3.216 -13.516  1.00  0.00     0.188 C 
ATOM     21  C   UNL     1      17.552  -3.192 -12.330  1.00  0.00     0.179 C 
ATOM     22  O   UNL     1      15.283  -3.742 -13.111  1.00  0.00    -0.362 OA
ATOM     23  C   UNL     1      16.951  -2.480 -11.103  1.00  0.00     0.177 C 
ATOM     24  C   UNL     1      14.695  -2.937 -12.106  1.00  0.00     0.176 C 
ATOM     25  C   UNL     1      15.533  -3.005 -10.803  1.00  0.00     0.177 C 
BRANCH  21  26
ATOM     26  O   UNL     1      18.003  -4.467 -11.921  1.00  0.00    -0.387 OA
ATOM     27  H   UNL     1      18.532  -4.888 -12.645  1.00  0.00     0.211 HD
ENDBRANCH  21  26
BRANCH  23  28
ATOM     28  O   UNL     1      16.922  -1.094 -11.340  1.00  0.00    -0.387 OA
ATOM     29  H   UNL     1      16.158  -0.911 -11.939  1.00  0.00     0.211 HD
ENDBRANCH  23  28
BRANCH  24  30
ATOM     30  C   UNL     1      13.236  -3.395 -11.890  1.00  0.00     0.191 C 
BRANCH  30  31
ATOM     31  O   UNL     1      13.129  -4.792 -11.860  1.00  0.00    -0.394 OA
ATOM     32  H   UNL     1      13.039  -5.054 -10.889  1.00  0.00     0.210 HD
ENDBRANCH  30  31
ENDBRANCH  24  30
BRANCH  25  33
ATOM     33  O   UNL     1      15.634  -4.325 -10.323  1.00  0.00    -0.388 OA
ATOM     34  H   UNL     1      16.487  -4.703 -10.636  1.00  0.00     0.211 HD
ENDBRANCH  25  33
ENDBRANCH  11  20
BRANCH  10  35
ATOM     35  O   UNL     1      16.255  -6.137 -13.880  1.00  0.00    -0.507 OA
ATOM     36  H   UNL     1      16.419  -5.993 -12.882  1.00  0.00     0.293 HD
ENDBRANCH  10  35
TORSDOF 9
ENDMDL
MODEL 2
REMARK VINA RESULT:    -6.715      1.988      4.355
REMARK INTER + INTRA:         -10.297
REMARK INTER:                  -9.730
REMARK INTRA:                  -0.567
REMARK UNBOUND:                -1.227
REMARK SMILES O=c1c(-c2ccc(O)cc2)coc2c([C@H]3O[C@@H](CO)[C@@H](O)[C@H](O)[C@H]3O)c(O)ccc12
REMARK SMILES IDX 3 1 11 2 12 3 13 4 30 5 2 6 1 7 29 8 28 9 26 10 14 11 4 12
REMARK SMILES IDX 5 13 6 14 7 15 10 16 9 17 8 18 15 20 24 21 16 22 22 23 17 24
REMARK SMILES IDX 20 25 25 26 23 28 18 30 19 31 21 33 27 35
REMARK H PARENT 8 19 25 27 23 29 19 32 21 34 27 36
REMARK Flexibility Score: inf
ROOT
ATOM      1  C   UNL     1      19.021  -2.062 -17.491  1.00  0.00     0.065 A 
ATOM      2  C   UNL     1      18.941  -3.440 -17.735  1.00  0.00     0.208 A 
ATOM      3  O   UNL     1      18.249  -4.234 -16.928  1.00  0.00    -0.463 OA
ATOM      4  C   UNL     1      17.589  -3.791 -15.862  1.00  0.00     0.147 A 
ATOM      5  C   UNL     1      17.604  -2.413 -15.552  1.00  0.00     0.066 A 
ATOM      6  C   UNL     1      18.327  -1.541 -16.383  1.00  0.00     0.200 A 
ATOM      7  O   UNL     1      18.348  -0.306 -16.148  1.00  0.00    -0.288 OA
ATOM      8  C   UNL     1      16.901  -1.937 -14.440  1.00  0.00     0.020 A 
ATOM      9  C   UNL     1      16.189  -2.814 -13.642  1.00  0.00     0.047 A 
ATOM     10  C   UNL     1      16.151  -4.181 -13.926  1.00  0.00     0.125 A 
ATOM     11  C   UNL     1      16.864  -4.694 -15.043  1.00  0.00     0.069 A 
ENDROOT
BRANCH   1  12
ATOM     12  C   UNL     1      19.826  -1.197 -18.387  1.00  0.00    -0.011 A 
ATOM     13  C   UNL     1      21.016  -0.597 -17.927  1.00  0.00     0.013 A 
ATOM     14  C   UNL     1      21.777   0.212 -18.777  1.00  0.00     0.047 A 
ATOM     15  C   UNL     1      21.357   0.427 -20.100  1.00  0.00     0.115 A 
ATOM     16  C   UNL     1      19.414  -0.973 -19.713  1.00  0.00     0.013 A 
ATOM     17  C   UNL     1      20.169  -0.150 -20.557  1.00  0.00     0.047 A 
BRANCH  15  18
ATOM     18  O   UNL     1      22.122   1.198 -20.975  1.00  0.00    -0.508 OA
ATOM     19  H   UNL     1      22.380   2.156 -20.753  1.00  0.00     0.293 HD
ENDBRANCH  15  18
ENDBRANCH   1  12
BRANCH  11  20
ATOM     20  C   UNL     1      16.811  -6.179 -15.417  1.00  0.00     0.188 C 
ATOM     21  C   UNL     1      16.151  -6.411 -16.820  1.00  0.00     0.179 C 
ATOM     22  O   UNL     1      16.160  -6.926 -14.412  1.00  0.00    -0.362 OA
ATOM     23  C   UNL     1      16.051  -7.915 -17.136  1.00  0.00     0.177 C 
ATOM     24  C   UNL     1      16.263  -8.315 -14.666  1.00  0.00     0.176 C 
ATOM     25  C   UNL     1      15.462  -8.690 -15.940  1.00  0.00     0.177 C 
BRANCH  21  26
ATOM     26  O   UNL     1      14.864  -5.845 -16.961  1.00  0.00    -0.387 OA
ATOM     27  H   UNL     1      14.215  -6.541 -17.233  1.00  0.00     0.211 HD
ENDBRANCH  21  26
BRANCH  23  28
ATOM     28  O   UNL     1      17.329  -8.406 -17.459  1.00  0.00    -0.387 OA
ATOM     29  H   UNL     1      17.893  -7.632 -17.699  1.00  0.00     0.211 HD
ENDBRANCH  23  28
BRANCH  24  30
ATOM     30  C   UNL     1      15.777  -9.087 -13.420  1.00  0.00     0.191 C 
BRANCH  30  31
ATOM     31  O   UNL     1      14.644  -8.491 -12.849  1.00  0.00    -0.394 OA
ATOM     32  H   UNL     1      13.841  -8.918 -13.287  1.00  0.00     0.210 HD
ENDBRANCH  30  31
ENDBRANCH  24  30
BRANCH  25  33
ATOM     33  O   UNL     1      14.101  -8.354 -15.813  1.00  0.00    -0.388 OA
ATOM     34  H   UNL     1      13.579  -9.188 -15.773  1.00  0.00     0.211 HD
ENDBRANCH  25  33
ENDBRANCH  11  20
BRANCH  10  35
ATOM     35  O   UNL     1      15.398  -5.021 -13.094  1.00  0.00    -0.507 OA
ATOM     36  H   UNL     1      14.614  -5.567 -13.454  1.00  0.00     0.293 HD
ENDBRANCH  10  35
TORSDOF 9
ENDMDL
MODEL 3
REMARK VINA RESULT:    -6.679      1.842      4.249
REMARK INTER + INTRA:         -10.248
REMARK INTER:                  -9.744
REMARK INTRA:                  -0.504
REMARK UNBOUND:                -1.227
REMARK SMILES O=c1c(-c2ccc(O)cc2)coc2c([C@H]3O[C@@H](CO)[C@@H](O)[C@H](O)[C@H]3O)c(O)ccc12
REMARK SMILES IDX 3 1 11 2 12 3 13 4 30 5 2 6 1 7 29 8 28 9 26 10 14 11 4 12
REMARK SMILES IDX 5 13 6 14 7 15 10 16 9 17 8 18 15 20 24 21 16 22 22 23 17 24
REMARK SMILES IDX 20 25 25 26 23 28 18 30 19 31 21 33 27 35
REMARK H PARENT 8 19 25 27 23 29 19 32 21 34 27 36
REMARK Flexibility Score: inf
ROOT
ATOM      1  C   UNL     1      18.859  -1.899 -17.215  1.00  0.00     0.065 A 
ATOM      2  C   UNL     1      18.805  -3.299 -17.252  1.00  0.00     0.208 A 
ATOM      3  O   UNL     1      18.126  -3.978 -16.336  1.00  0.00    -0.463 OA
ATOM      4  C   UNL     1      17.456  -3.394 -15.346  1.00  0.00     0.147 A 
ATOM      5  C   UNL     1      17.446  -1.985 -15.243  1.00  0.00     0.066 A 
ATOM      6  C   UNL     1      18.155  -1.232 -16.195  1.00  0.00     0.200 A 
ATOM      7  O   UNL     1      18.153   0.024 -16.146  1.00  0.00    -0.288 OA
ATOM      8  C   UNL     1      16.732  -1.362 -14.213  1.00  0.00     0.020 A 
ATOM      9  C   UNL     1      16.035  -2.125 -13.294  1.00  0.00     0.047 A 
ATOM     10  C   UNL     1      16.022  -3.519 -13.372  1.00  0.00     0.125 A 
ATOM     11  C   UNL     1      16.746  -4.179 -14.401  1.00  0.00     0.069 A 
ENDROOT
BRANCH   1  12
ATOM     12  C   UNL     1      19.649  -1.161 -18.229  1.00  0.00    -0.011 A 
ATOM     13  C   UNL     1      20.855  -0.521 -17.875  1.00  0.00     0.013 A 
ATOM     14  C   UNL     1      21.602   0.167 -18.836  1.00  0.00     0.047 A 
ATOM     15  C   UNL     1      21.154   0.219 -20.166  1.00  0.00     0.115 A 
ATOM     16  C   UNL     1      19.209  -1.101 -19.564  1.00  0.00     0.013 A 
ATOM     17  C   UNL     1      19.950  -0.398 -20.521  1.00  0.00     0.047 A 
BRANCH  15  18
ATOM     18  O   UNL     1      21.904   0.867 -21.147  1.00  0.00    -0.508 OA
ATOM     19  H   UNL     1      22.084   0.437 -22.049  1.00  0.00     0.293 HD
ENDBRANCH  15  18
ENDBRANCH   1  12
BRANCH  11  20
ATOM     20  C   UNL     1      16.721  -5.704 -14.552  1.00  0.00     0.188 C 
ATOM     21  C   UNL     1      17.998  -6.378 -13.942  1.00  0.00     0.179 C 
ATOM     22  O   UNL     1      16.542  -6.070 -15.904  1.00  0.00    -0.362 OA
ATOM     23  C   UNL     1      17.975  -7.901 -14.170  1.00  0.00     0.177 C 
ATOM     24  C   UNL     1      16.342  -7.466 -16.028  1.00  0.00     0.176 C 
ATOM     25  C   UNL     1      17.633  -8.232 -15.637  1.00  0.00     0.177 C 
BRANCH  21  26
ATOM     26  O   UNL     1      19.220  -5.876 -14.444  1.00  0.00    -0.387 OA
ATOM     27  H   UNL     1      19.507  -5.090 -13.915  1.00  0.00     0.211 HD
ENDBRANCH  21  26
BRANCH  23  28
ATOM     28  O   UNL     1      17.035  -8.485 -13.303  1.00  0.00    -0.387 OA
ATOM     29  H   UNL     1      17.109  -9.465 -13.401  1.00  0.00     0.211 HD
ENDBRANCH  23  28
BRANCH  24  30
ATOM     30  C   UNL     1      15.889  -7.779 -17.470  1.00  0.00     0.191 C 
BRANCH  30  31
ATOM     31  O   UNL     1      15.690  -6.609 -18.217  1.00  0.00    -0.394 OA
ATOM     32  H   UNL     1      15.091  -6.858 -18.991  1.00  0.00     0.210 HD
ENDBRANCH  30  31
ENDBRANCH  24  30
BRANCH  25  33
ATOM     33  O   UNL     1      18.721  -7.857 -16.449  1.00  0.00    -0.388 OA
ATOM     34  H   UNL     1      19.225  -8.670 -16.683  1.00  0.00     0.211 HD
ENDBRANCH  25  33
ENDBRANCH  11  20
BRANCH  10  35
ATOM     35  O   UNL     1      15.283  -4.240 -12.425  1.00  0.00    -0.507 OA
ATOM     36  H   UNL     1      14.344  -4.585 -12.628  1.00  0.00     0.293 HD
ENDBRANCH  10  35
TORSDOF 9
ENDMDL
MODEL 4
REMARK VINA RESULT:    -6.468      1.237      1.261
REMARK INTER + INTRA:          -9.963
REMARK INTER:                  -9.034
REMARK INTRA:                  -0.929
REMARK UNBOUND:                -1.227
REMARK SMILES O=c1c(-c2ccc(O)cc2)coc2c([C@H]3O[C@@H](CO)[C@@H](O)[C@H](O)[C@H]3O)c(O)ccc12
REMARK SMILES IDX 3 1 11 2 12 3 13 4 30 5 2 6 1 7 29 8 28 9 26 10 14 11 4 12
REMARK SMILES IDX 5 13 6 14 7 15 10 16 9 17 8 18 15 20 24 21 16 22 22 23 17 24
REMARK SMILES IDX 20 25 25 26 23 28 18 30 19 31 21 33 27 35
REMARK H PARENT 8 19 25 27 23 29 19 32 21 34 27 36
REMARK Flexibility Score: inf
ROOT
ATOM      1  C   UNL     1      19.467  -1.288 -18.103  1.00  0.00     0.065 A 
ATOM      2  C   UNL     1      18.949  -0.491 -17.074  1.00  0.00     0.208 A 
ATOM      3  O   UNL     1      18.251  -1.029 -16.082  1.00  0.00    -0.463 OA
ATOM      4  C   UNL     1      18.008  -2.334 -15.988  1.00  0.00     0.147 A 
ATOM      5  C   UNL     1      18.507  -3.212 -16.976  1.00  0.00     0.066 A 
ATOM      6  C   UNL     1      19.250  -2.677 -18.043  1.00  0.00     0.200 A 
ATOM      7  O   UNL     1      19.726  -3.430 -18.930  1.00  0.00    -0.288 OA
ATOM      8  C   UNL     1      18.268  -4.587 -16.878  1.00  0.00     0.020 A 
ATOM      9  C   UNL     1      17.542  -5.090 -15.813  1.00  0.00     0.047 A 
ATOM     10  C   UNL     1      17.039  -4.248 -14.819  1.00  0.00     0.125 A 
ATOM     11  C   UNL     1      17.258  -2.846 -14.899  1.00  0.00     0.069 A 
ENDROOT
BRANCH   1  12
ATOM     12  C   UNL     1      20.217  -0.662 -19.218  1.00  0.00    -0.011 A 
ATOM     13  C   UNL     1      19.866  -0.929 -20.559  1.00  0.00     0.013 A 
ATOM     14  C   UNL     1      20.571  -0.330 -21.608  1.00  0.00     0.047 A 
ATOM     15  C   UNL     1      21.631   0.547 -21.329  1.00  0.00     0.115 A 
ATOM     16  C   UNL     1      21.283   0.216 -18.951  1.00  0.00     0.013 A 
ATOM     17  C   UNL     1      21.996   0.801 -20.004  1.00  0.00     0.047 A 
BRANCH  15  18
ATOM     18  O   UNL     1      22.320   1.184 -22.361  1.00  0.00    -0.508 OA
ATOM     19  H   UNL     1      23.250   1.569 -22.222  1.00  0.00     0.293 HD
ENDBRANCH  15  18
ENDBRANCH   1  12
BRANCH  11  20
ATOM     20  C   UNL     1      16.764  -1.892 -13.806  1.00  0.00     0.188 C 
ATOM     21  C   UNL     1      17.686  -1.920 -12.538  1.00  0.00     0.179 C 
ATOM     22  O   UNL     1      15.420  -2.165 -13.472  1.00  0.00    -0.362 OA
ATOM     23  C   UNL     1      17.126  -1.003 -11.434  1.00  0.00     0.177 C 
ATOM     24  C   UNL     1      14.905  -1.180 -12.595  1.00  0.00     0.176 C 
ATOM     25  C   UNL     1      15.620  -1.257 -11.220  1.00  0.00     0.177 C 
BRANCH  21  26
ATOM     26  O   UNL     1      17.881  -3.205 -11.985  1.00  0.00    -0.387 OA
ATOM     27  H   UNL     1      17.735  -3.898 -12.677  1.00  0.00     0.211 HD
ENDBRANCH  21  26
BRANCH  23  28
ATOM     28  O   UNL     1      17.352   0.339 -11.787  1.00  0.00    -0.387 OA
ATOM     29  H   UNL     1      16.681   0.584 -12.469  1.00  0.00     0.211 HD
ENDBRANCH  23  28
BRANCH  24  30
ATOM     30  C   UNL     1      13.378  -1.370 -12.473  1.00  0.00     0.191 C 
BRANCH  30  31
ATOM     31  O   UNL     1      13.043  -2.693 -12.152  1.00  0.00    -0.394 OA
ATOM     32  H   UNL     1      13.288  -3.256 -12.954  1.00  0.00     0.210 HD
ENDBRANCH  30  31
ENDBRANCH  24  30
BRANCH  25  33
ATOM     33  O   UNL     1      15.457  -2.523 -10.624  1.00  0.00    -0.388 OA
ATOM     34  H   UNL     1      15.636  -3.210 -11.306  1.00  0.00     0.211 HD
ENDBRANCH  25  33
ENDBRANCH  11  20
BRANCH  10  35
ATOM     35  O   UNL     1      16.326  -4.814 -13.754  1.00  0.00    -0.507 OA
ATOM     36  H   UNL     1      15.344  -5.078 -13.848  1.00  0.00     0.293 HD
ENDBRANCH  10  35
TORSDOF 9
ENDMDL
MODEL 5
REMARK VINA RESULT:    -6.382      4.951      8.742
REMARK INTER + INTRA:          -9.847
REMARK INTER:                  -9.011
REMARK INTRA:                  -0.836
REMARK UNBOUND:                -1.227
REMARK SMILES O=c1c(-c2ccc(O)cc2)coc2c([C@H]3O[C@@H](CO)[C@@H](O)[C@H](O)[C@H]3O)c(O)ccc12
REMARK SMILES IDX 3 1 11 2 12 3 13 4 30 5 2 6 1 7 29 8 28 9 26 10 14 11 4 12
REMARK SMILES IDX 5 13 6 14 7 15 10 16 9 17 8 18 15 20 24 21 16 22 22 23 17 24
REMARK SMILES IDX 20 25 25 26 23 28 18 30 19 31 21 33 27 35
REMARK H PARENT 8 19 25 27 23 29 19 32 21 34 27 36
REMARK Flexibility Score: inf
ROOT
ATOM      1  C   UNL     1      14.285  -5.333 -11.530  1.00  0.00     0.065 A 
ATOM      2  C   UNL     1      13.555  -4.638 -10.556  1.00  0.00     0.208 A 
ATOM      3  O   UNL     1      12.424  -5.134 -10.071  1.00  0.00    -0.463 OA
ATOM      4  C   UNL     1      11.919  -6.303 -10.455  1.00  0.00     0.147 A 
ATOM      5  C   UNL     1      12.599  -7.076 -11.422  1.00  0.00     0.066 A 
ATOM      6  C   UNL     1      13.800  -6.582 -11.960  1.00  0.00     0.200 A 
ATOM      7  O   UNL     1      14.442  -7.251 -12.809  1.00  0.00    -0.288 OA
ATOM      8  C   UNL     1      12.082  -8.313 -11.821  1.00  0.00     0.020 A 
ATOM      9  C   UNL     1      10.903  -8.782 -11.270  1.00  0.00     0.047 A 
ATOM     10  C   UNL     1      10.210  -8.043 -10.309  1.00  0.00     0.125 A 
ATOM     11  C   UNL     1      10.707  -6.779  -9.892  1.00  0.00     0.069 A 
ENDROOT
BRANCH   1  12
ATOM     12  C   UNL     1      15.529  -4.746 -12.082  1.00  0.00    -0.011 A 
ATOM     13  C   UNL     1      15.571  -4.268 -13.409  1.00  0.00     0.013 A 
ATOM     14  C   UNL     1      16.745  -3.707 -13.924  1.00  0.00     0.047 A 
ATOM     15  C   UNL     1      17.889  -3.613 -13.116  1.00  0.00     0.115 A 
ATOM     16  C   UNL     1      16.683  -4.649 -11.283  1.00  0.00     0.013 A 
ATOM     17  C   UNL     1      17.860  -4.101 -11.806  1.00  0.00     0.047 A 
BRANCH  15  18
ATOM     18  O   UNL     1      19.056  -3.022 -13.598  1.00  0.00    -0.508 OA
ATOM     19  H   UNL     1      19.200  -2.862 -14.591  1.00  0.00     0.293 HD
ENDBRANCH  15  18
ENDBRANCH   1  12
BRANCH  11  20
ATOM     20  C   UNL     1      10.004  -5.957  -8.807  1.00  0.00     0.188 C 
ATOM     21  C   UNL     1      10.223  -6.558  -7.376  1.00  0.00     0.179 C 
ATOM     22  O   UNL     1       8.630  -5.812  -9.099  1.00  0.00    -0.362 OA
ATOM     23  C   UNL     1       9.449  -5.750  -6.318  1.00  0.00     0.177 C 
ATOM     24  C   UNL     1       8.012  -4.911  -8.199  1.00  0.00     0.176 C 
ATOM     25  C   UNL     1       7.994  -5.507  -6.767  1.00  0.00     0.177 C 
BRANCH  21  26
ATOM     26  O   UNL     1       9.854  -7.916  -7.249  1.00  0.00    -0.387 OA
ATOM     27  H   UNL     1      10.186  -8.280  -6.390  1.00  0.00     0.211 HD
ENDBRANCH  21  26
BRANCH  23  28
ATOM     28  O   UNL     1      10.106  -4.526  -6.098  1.00  0.00    -0.387 OA
ATOM     29  H   UNL     1      10.064  -4.336  -5.129  1.00  0.00     0.211 HD
ENDBRANCH  23  28
BRANCH  24  30
ATOM     30  C   UNL     1       6.595  -4.583  -8.716  1.00  0.00     0.191 C 
BRANCH  30  31
ATOM     31  O   UNL     1       6.289  -3.223  -8.567  1.00  0.00    -0.394 OA
ATOM     32  H   UNL     1       5.842  -3.125  -7.666  1.00  0.00     0.210 HD
ENDBRANCH  30  31
ENDBRANCH  24  30
BRANCH  25  33
ATOM     33  O   UNL     1       7.301  -6.732  -6.727  1.00  0.00    -0.388 OA
ATOM     34  H   UNL     1       6.500  -6.615  -6.166  1.00  0.00     0.211 HD
ENDBRANCH  25  33
ENDBRANCH  11  20
BRANCH  10  35
ATOM     35  O   UNL     1       9.031  -8.575  -9.772  1.00  0.00    -0.507 OA
ATOM     36  H   UNL     1       8.885  -8.644  -8.763  1.00  0.00     0.293 HD
ENDBRANCH  10  35
TORSDOF 9
ENDMDL
MODEL 6
REMARK VINA RESULT:    -6.332      2.870      3.657
REMARK INTER + INTRA:          -9.779
REMARK INTER:                  -8.565
REMARK INTRA:                  -1.214
REMARK UNBOUND:                -1.227
REMARK SMILES O=c1c(-c2ccc(O)cc2)coc2c([C@H]3O[C@@H](CO)[C@@H](O)[C@H](O)[C@H]3O)c(O)ccc12
REMARK SMILES IDX 3 1 11 2 12 3 13 4 30 5 2 6 1 7 29 8 28 9 26 10 14 11 4 12
REMARK SMILES IDX 5 13 6 14 7 15 10 16 9 17 8 18 15 20 24 21 16 22 22 23 17 24
REMARK SMILES IDX 20 25 25 26 23 28 18 30 19 31 21 33 27 35
REMARK H PARENT 8 19 25 27 23 29 19 32 21 34 27 36
REMARK Flexibility Score: inf
ROOT
ATOM      1  C   UNL     1      18.411  -0.820 -16.496  1.00  0.00     0.065 A 
ATOM      2  C   UNL     1      17.895   0.319 -15.863  1.00  0.00     0.208 A 
ATOM      3  O   UNL     1      17.074   0.207 -14.826  1.00  0.00    -0.463 OA
ATOM      4  C   UNL     1      16.698  -0.964 -14.318  1.00  0.00     0.147 A 
ATOM      5  C   UNL     1      17.184  -2.162 -14.888  1.00  0.00     0.066 A 
ATOM      6  C   UNL     1      18.054  -2.084 -15.988  1.00  0.00     0.200 A 
ATOM      7  O   UNL     1      18.521  -3.128 -16.509  1.00  0.00    -0.288 OA
ATOM      8  C   UNL     1      16.805  -3.397 -14.351  1.00  0.00     0.020 A 
ATOM      9  C   UNL     1      15.953  -3.448 -13.262  1.00  0.00     0.047 A 
ATOM     10  C   UNL     1      15.460  -2.281 -12.675  1.00  0.00     0.125 A 
ATOM     11  C   UNL     1      15.821  -1.013 -13.205  1.00  0.00     0.069 A 
ENDROOT
BRANCH   1  12
ATOM     12  C   UNL     1      19.301  -0.673 -17.673  1.00  0.00    -0.011 A 
ATOM     13  C   UNL     1      18.830  -0.964 -18.970  1.00  0.00     0.013 A 
ATOM     14  C   UNL     1      19.671  -0.817 -20.078  1.00  0.00     0.047 A 
ATOM     15  C   UNL     1      20.991  -0.373 -19.902  1.00  0.00     0.115 A 
ATOM     16  C   UNL     1      20.626  -0.231 -17.508  1.00  0.00     0.013 A 
ATOM     17  C   UNL     1      21.469  -0.100 -18.617  1.00  0.00     0.047 A 
BRANCH  15  18
ATOM     18  O   UNL     1      21.832  -0.182 -20.998  1.00  0.00    -0.508 OA
ATOM     19  H   UNL     1      21.475  -0.180 -21.949  1.00  0.00     0.293 HD
ENDBRANCH  15  18
ENDBRANCH   1  12
BRANCH  11  20
ATOM     20  C   UNL     1      15.340   0.293 -12.563  1.00  0.00     0.188 C 
ATOM     21  C   UNL     1      16.195   0.683 -11.308  1.00  0.00     0.179 C 
ATOM     22  O   UNL     1      13.966   0.220 -12.247  1.00  0.00    -0.362 OA
ATOM     23  C   UNL     1      15.645   1.960 -10.646  1.00  0.00     0.177 C 
ATOM     24  C   UNL     1      13.477   1.477 -11.818  1.00  0.00     0.176 C 
ATOM     25  C   UNL     1      14.117   1.869 -10.461  1.00  0.00     0.177 C 
BRANCH  21  26
ATOM     26  O   UNL     1      16.276  -0.324 -10.320  1.00  0.00    -0.387 OA
ATOM     27  H   UNL     1      16.737  -1.122 -10.684  1.00  0.00     0.211 HD
ENDBRANCH  21  26
BRANCH  23  28
ATOM     28  O   UNL     1      15.979   3.073 -11.439  1.00  0.00    -0.387 OA
ATOM     29  H   UNL     1      16.767   2.826 -11.981  1.00  0.00     0.211 HD
ENDBRANCH  23  28
BRANCH  24  30
ATOM     30  C   UNL     1      11.937   1.414 -11.744  1.00  0.00     0.191 C 
BRANCH  30  31
ATOM     31  O   UNL     1      11.436   2.182 -10.684  1.00  0.00    -0.394 OA
ATOM     32  H   UNL     1      11.251   3.103 -11.056  1.00  0.00     0.210 HD
ENDBRANCH  30  31
ENDBRANCH  24  30
BRANCH  25  33
ATOM     33  O   UNL     1      13.841   0.913  -9.465  1.00  0.00    -0.388 OA
ATOM     34  H   UNL     1      14.657   0.779  -8.931  1.00  0.00     0.211 HD
ENDBRANCH  25  33
ENDBRANCH  11  20
BRANCH  10  35
ATOM     35  O   UNL     1      14.616  -2.392 -11.562  1.00  0.00    -0.507 OA
ATOM     36  H   UNL     1      14.704  -1.768 -10.759  1.00  0.00     0.293 HD
ENDBRANCH  10  35
TORSDOF 9
ENDMDL
MODEL 7
REMARK VINA RESULT:    -6.170      4.547     10.245
REMARK INTER + INTRA:          -9.560
REMARK INTER:                  -8.474
REMARK INTRA:                  -1.086
REMARK UNBOUND:                -1.227
REMARK SMILES O=c1c(-c2ccc(O)cc2)coc2c([C@H]3O[C@@H](CO)[C@@H](O)[C@H](O)[C@H]3O)c(O)ccc12
REMARK SMILES IDX 3 1 11 2 12 3 13 4 30 5 2 6 1 7 29 8 28 9 26 10 14 11 4 12
REMARK SMILES IDX 5 13 6 14 7 15 10 16 9 17 8 18 15 20 24 21 16 22 22 23 17 24
REMARK SMILES IDX 20 25 25 26 23 28 18 30 19 31 21 33 27 35
REMARK H PARENT 8 19 25 27 23 29 19 32 21 34 27 36
REMARK Flexibility Score: inf
ROOT
ATOM      1  C   UNL     1      11.689  -6.160 -10.390  1.00  0.00     0.065 A 
ATOM      2  C   UNL     1      12.805  -5.316 -10.474  1.00  0.00     0.208 A 
ATOM      3  O   UNL     1      13.836  -5.628 -11.249  1.00  0.00    -0.463 OA
ATOM      4  C   UNL     1      13.881  -6.731 -11.992  1.00  0.00     0.147 A 
ATOM      5  C   UNL     1      12.792  -7.630 -11.977  1.00  0.00     0.066 A 
ATOM      6  C   UNL     1      11.682  -7.334 -11.167  1.00  0.00     0.200 A 
ATOM      7  O   UNL     1      10.686  -8.101 -11.144  1.00  0.00    -0.288 OA
ATOM      8  C   UNL     1      12.825  -8.784 -12.766  1.00  0.00     0.020 A 
ATOM      9  C   UNL     1      13.925  -9.049 -13.562  1.00  0.00     0.047 A 
ATOM     10  C   UNL     1      15.016  -8.177 -13.601  1.00  0.00     0.125 A 
ATOM     11  C   UNL     1      15.013  -7.002 -12.803  1.00  0.00     0.069 A 
ENDROOT
BRANCH   1  12
ATOM     12  C   UNL     1      10.562  -5.810  -9.494  1.00  0.00    -0.011 A 
ATOM     13  C   UNL     1      10.629  -6.087  -8.112  1.00  0.00     0.013 A 
ATOM     14  C   UNL     1       9.566  -5.747  -7.269  1.00  0.00     0.047 A 
ATOM     15  C   UNL     1       8.425  -5.122  -7.796  1.00  0.00     0.115 A 
ATOM     16  C   UNL     1       9.413  -5.185 -10.012  1.00  0.00     0.013 A 
ATOM     17  C   UNL     1       8.344  -4.861  -9.167  1.00  0.00     0.047 A 
BRANCH  15  18
ATOM     18  O   UNL     1       7.372  -4.740  -6.966  1.00  0.00    -0.508 OA
ATOM     19  H   UNL     1       6.417  -5.037  -7.146  1.00  0.00     0.293 HD
ENDBRANCH  15  18
ENDBRANCH   1  12
BRANCH  11  20
ATOM     20  C   UNL     1      16.168  -5.995 -12.850  1.00  0.00     0.188 C 
ATOM     21  C   UNL     1      16.005  -4.966 -14.022  1.00  0.00     0.179 C 
ATOM     22  O   UNL     1      17.410  -6.661 -12.919  1.00  0.00    -0.362 OA
ATOM     23  C   UNL     1      17.213  -4.013 -14.085  1.00  0.00     0.177 C 
ATOM     24  C   UNL     1      18.484  -5.747 -12.786  1.00  0.00     0.176 C 
ATOM     25  C   UNL     1      18.538  -4.799 -14.012  1.00  0.00     0.177 C 
BRANCH  21  26
ATOM     26  O   UNL     1      15.841  -5.553 -15.296  1.00  0.00    -0.387 OA
ATOM     27  H   UNL     1      15.088  -6.196 -15.280  1.00  0.00     0.211 HD
ENDBRANCH  21  26
BRANCH  23  28
ATOM     28  O   UNL     1      17.131  -3.090 -13.026  1.00  0.00    -0.387 OA
ATOM     29  H   UNL     1      16.582  -2.330 -13.336  1.00  0.00     0.211 HD
ENDBRANCH  23  28
BRANCH  24  30
ATOM     30  C   UNL     1      19.794  -6.541 -12.600  1.00  0.00     0.191 C 
BRANCH  30  31
ATOM     31  O   UNL     1      20.849  -5.714 -12.188  1.00  0.00    -0.394 OA
ATOM     32  H   UNL     1      21.578  -5.810 -12.879  1.00  0.00     0.210 HD
ENDBRANCH  30  31
ENDBRANCH  24  30
BRANCH  25  33
ATOM     33  O   UNL     1      18.701  -5.516 -15.213  1.00  0.00    -0.388 OA
ATOM     34  H   UNL     1      19.178  -4.940 -15.854  1.00  0.00     0.211 HD
ENDBRANCH  25  33
ENDBRANCH  11  20
BRANCH  10  35
ATOM     35  O   UNL     1      16.095  -8.486 -14.439  1.00  0.00    -0.507 OA
ATOM     36  H   UNL     1      16.863  -7.830 -14.586  1.00  0.00     0.293 HD
ENDBRANCH  10  35
TORSDOF 9
ENDMDL
MODEL 8
REMARK VINA RESULT:    -5.957      1.899      3.163
REMARK INTER + INTRA:          -9.273
REMARK INTER:                  -8.689
REMARK INTRA:                  -0.585
REMARK UNBOUND:                -1.227
REMARK SMILES O=c1c(-c2ccc(O)cc2)coc2c([C@H]3O[C@@H](CO)[C@@H](O)[C@H](O)[C@H]3O)c(O)ccc12
REMARK SMILES IDX 3 1 11 2 12 3 13 4 30 5 2 6 1 7 29 8 28 9 26 10 14 11 4 12
REMARK SMILES IDX 5 13 6 14 7 15 10 16 9 17 8 18 15 20 24 21 16 22 22 23 17 24
REMARK SMILES IDX 20 25 25 26 23 28 18 30 19 31 21 33 27 35
REMARK H PARENT 8 19 25 27 23 29 19 32 21 34 27 36
REMARK Flexibility Score: inf
ROOT
ATOM      1  C   UNL     1      19.072  -1.229 -17.369  1.00  0.00     0.065 A 
ATOM      2  C   UNL     1      18.567  -0.387 -16.369  1.00  0.00     0.208 A 
ATOM      3  O   UNL     1      17.848  -0.877 -15.367  1.00  0.00    -0.463 OA
ATOM      4  C   UNL     1      17.569  -2.171 -15.236  1.00  0.00     0.147 A 
ATOM      5  C   UNL     1      18.053  -3.092 -16.192  1.00  0.00     0.066 A 
ATOM      6  C   UNL     1      18.817  -2.610 -17.269  1.00  0.00     0.200 A 
ATOM      7  O   UNL     1      19.280  -3.401 -18.129  1.00  0.00    -0.288 OA
ATOM      8  C   UNL     1      17.777  -4.456 -16.055  1.00  0.00     0.020 A 
ATOM      9  C   UNL     1      17.029  -4.907 -14.981  1.00  0.00     0.047 A 
ATOM     10  C   UNL     1      16.542  -4.022 -14.018  1.00  0.00     0.125 A 
ATOM     11  C   UNL     1      16.799  -2.630 -14.137  1.00  0.00     0.069 A 
ENDROOT
BRANCH   1  12
ATOM     12  C   UNL     1      19.846  -0.657 -18.497  1.00  0.00    -0.011 A 
ATOM     13  C   UNL     1      19.321  -0.667 -19.807  1.00  0.00     0.013 A 
ATOM     14  C   UNL     1      20.051  -0.120 -20.867  1.00  0.00     0.047 A 
ATOM     15  C   UNL     1      21.312   0.449 -20.629  1.00  0.00     0.115 A 
ATOM     16  C   UNL     1      21.112  -0.086 -18.271  1.00  0.00     0.013 A 
ATOM     17  C   UNL     1      21.846   0.447 -19.337  1.00  0.00     0.047 A 
BRANCH  15  18
ATOM     18  O   UNL     1      22.038   1.035 -21.665  1.00  0.00    -0.508 OA
ATOM     19  H   UNL     1      21.703   1.864 -22.148  1.00  0.00     0.293 HD
ENDBRANCH  15  18
ENDBRANCH   1  12
BRANCH  11  20
ATOM     20  C   UNL     1      16.322  -1.630 -13.078  1.00  0.00     0.188 C 
ATOM     21  C   UNL     1      15.090  -0.794 -13.567  1.00  0.00     0.179 C 
ATOM     22  O   UNL     1      17.382  -0.793 -12.668  1.00  0.00    -0.362 OA
ATOM     23  C   UNL     1      14.680   0.247 -12.509  1.00  0.00     0.177 C 
ATOM     24  C   UNL     1      16.997   0.012 -11.569  1.00  0.00     0.176 C 
ATOM     25  C   UNL     1      15.908   1.028 -12.001  1.00  0.00     0.177 C 
BRANCH  21  26
ATOM     26  O   UNL     1      15.290  -0.120 -14.792  1.00  0.00    -0.387 OA
ATOM     27  H   UNL     1      14.441   0.283 -15.101  1.00  0.00     0.211 HD
ENDBRANCH  21  26
BRANCH  23  28
ATOM     28  O   UNL     1      14.038  -0.406 -11.441  1.00  0.00    -0.387 OA
ATOM     29  H   UNL     1      14.669  -1.073 -11.078  1.00  0.00     0.211 HD
ENDBRANCH  23  28
BRANCH  24  30
ATOM     30  C   UNL     1      18.251   0.704 -10.994  1.00  0.00     0.191 C 
BRANCH  30  31
ATOM     31  O   UNL     1      17.982   2.023 -10.600  1.00  0.00    -0.394 OA
ATOM     32  H   UNL     1      18.238   2.614 -11.378  1.00  0.00     0.210 HD
ENDBRANCH  30  31
ENDBRANCH  24  30
BRANCH  25  33
ATOM     33  O   UNL     1      16.367   1.866 -13.036  1.00  0.00    -0.388 OA
ATOM     34  H   UNL     1      16.526   1.312 -13.834  1.00  0.00     0.211 HD
ENDBRANCH  25  33
ENDBRANCH  11  20
BRANCH  10  35
ATOM     35  O   UNL     1      15.807  -4.537 -12.942  1.00  0.00    -0.507 OA
ATOM     36  H   UNL     1      14.785  -4.512 -12.931  1.00  0.00     0.293 HD
ENDBRANCH  10  35
TORSDOF 9
ENDMDL
MODEL 9
REMARK VINA RESULT:    -5.925      5.424      8.581
REMARK INTER + INTRA:          -9.230
REMARK INTER:                  -8.098
REMARK INTRA:                  -1.132
REMARK UNBOUND:                -1.227
REMARK SMILES O=c1c(-c2ccc(O)cc2)coc2c([C@H]3O[C@@H](CO)[C@@H](O)[C@H](O)[C@H]3O)c(O)ccc12
REMARK SMILES IDX 3 1 11 2 12 3 13 4 30 5 2 6 1 7 29 8 28 9 26 10 14 11 4 12
REMARK SMILES IDX 5 13 6 14 7 15 10 16 9 17 8 18 15 20 24 21 16 22 22 23 17 24
REMARK SMILES IDX 20 25 25 26 23 28 18 30 19 31 21 33 27 35
REMARK H PARENT 8 19 25 27 23 29 19 32 21 34 27 36
REMARK Flexibility Score: inf
ROOT
ATOM      1  C   UNL     1      17.542  -1.863  -9.378  1.00  0.00     0.065 A 
ATOM      2  C   UNL     1      17.262  -0.573  -9.850  1.00  0.00     0.208 A 
ATOM      3  O   UNL     1      16.328  -0.374 -10.771  1.00  0.00    -0.463 OA
ATOM      4  C   UNL     1      15.599  -1.357 -11.293  1.00  0.00     0.147 A 
ATOM      5  C   UNL     1      15.806  -2.686 -10.862  1.00  0.00     0.066 A 
ATOM      6  C   UNL     1      16.789  -2.937  -9.888  1.00  0.00     0.200 A 
ATOM      7  O   UNL     1      16.988  -4.104  -9.468  1.00  0.00    -0.288 OA
ATOM      8  C   UNL     1      15.035  -3.725 -11.395  1.00  0.00     0.020 A 
ATOM      9  C   UNL     1      14.068  -3.452 -12.346  1.00  0.00     0.047 A 
ATOM     10  C   UNL     1      13.837  -2.147 -12.788  1.00  0.00     0.125 A 
ATOM     11  C   UNL     1      14.612  -1.075 -12.271  1.00  0.00     0.069 A 
ENDROOT
BRANCH   1  12
ATOM     12  C   UNL     1      18.612  -2.067  -8.372  1.00  0.00    -0.011 A 
ATOM     13  C   UNL     1      18.291  -2.393  -7.038  1.00  0.00     0.013 A 
ATOM     14  C   UNL     1      19.303  -2.592  -6.094  1.00  0.00     0.047 A 
ATOM     15  C   UNL     1      20.649  -2.473  -6.474  1.00  0.00     0.115 A 
ATOM     16  C   UNL     1      19.964  -1.948  -8.742  1.00  0.00     0.013 A 
ATOM     17  C   UNL     1      20.974  -2.133  -7.791  1.00  0.00     0.047 A 
BRANCH  15  18
ATOM     18  O   UNL     1      21.674  -2.707  -5.558  1.00  0.00    -0.508 OA
ATOM     19  H   UNL     1      22.636  -2.837  -5.856  1.00  0.00     0.293 HD
ENDBRANCH  15  18
ENDBRANCH   1  12
BRANCH  11  20
ATOM     20  C   UNL     1      14.360   0.377 -12.694  1.00  0.00     0.188 C 
ATOM     21  C   UNL     1      13.091   0.981 -12.001  1.00  0.00     0.179 C 
ATOM     22  O   UNL     1      14.278   0.482 -14.099  1.00  0.00    -0.362 OA
ATOM     23  C   UNL     1      12.826   2.415 -12.498  1.00  0.00     0.177 C 
ATOM     24  C   UNL     1      14.222   1.837 -14.504  1.00  0.00     0.176 C 
ATOM     25  C   UNL     1      12.892   2.484 -14.037  1.00  0.00     0.177 C 
BRANCH  21  26
ATOM     26  O   UNL     1      11.910   0.228 -12.183  1.00  0.00    -0.387 OA
ATOM     27  H   UNL     1      11.448   0.105 -11.316  1.00  0.00     0.211 HD
ENDBRANCH  21  26
BRANCH  23  28
ATOM     28  O   UNL     1      13.772   3.285 -11.926  1.00  0.00    -0.387 OA
ATOM     29  H   UNL     1      13.524   4.205 -12.186  1.00  0.00     0.211 HD
ENDBRANCH  23  28
BRANCH  24  30
ATOM     30  C   UNL     1      14.402   1.908 -16.036  1.00  0.00     0.191 C 
BRANCH  30  31
ATOM     31  O   UNL     1      13.640   0.933 -16.694  1.00  0.00    -0.394 OA
ATOM     32  H   UNL     1      13.387   1.321 -17.591  1.00  0.00     0.210 HD
ENDBRANCH  30  31
ENDBRANCH  24  30
BRANCH  25  33
ATOM     33  O   UNL     1      11.776   1.808 -14.566  1.00  0.00    -0.388 OA
ATOM     34  H   UNL     1      12.100   1.113 -15.184  1.00  0.00     0.211 HD
ENDBRANCH  25  33
ENDBRANCH  11  20
BRANCH  10  35
ATOM     35  O   UNL     1      12.832  -1.927 -13.739  1.00  0.00    -0.507 OA
ATOM     36  H   UNL     1      11.917  -1.558 -13.475  1.00  0.00     0.293 HD
ENDBRANCH  10  35
TORSDOF 9
ENDMDL
