MODEL 1
REMARK VINA RESULT:    -2.266      0.000      0.000
REMARK INTER + INTRA:          -2.266
REMARK INTER:                  -2.266
REMARK INTRA:                   0.000
REMARK UNBOUND:                 0.000
REMARK SMILES CC(=O)[O-]
REMARK SMILES IDX 1 1 2 2 3 3 4 4
REMARK H PARENT
REMARK Flexibility Score: inf
ROOT
ATOM      1  C   UNL     1      11.116  46.158   9.563  1.00  0.00     0.063 C 
ATOM      2  C   UNL     1      10.582  47.542   9.414  1.00  0.00     0.038 C 
ATOM      3  O   UNL     1      11.123  48.344   8.610  1.00  0.00    -0.550 OA
ATOM      4  O   UNL     1       9.454  47.932  10.123  1.00  0.00    -0.550 OA
ENDROOT
TORSDOF 0
ENDMDL
MODEL 2
REMARK VINA RESULT:    -2.054     21.705     22.086
REMARK INTER + INTRA:          -2.054
REMARK INTER:                  -2.054
REMARK INTRA:                   0.000
REMARK UNBOUND:                 0.000
REMARK SMILES CC(=O)[O-]
REMARK SMILES IDX 1 1 2 2 3 3 4 4
REMARK H PARENT
REMARK Flexibility Score: inf
ROOT
ATOM      1  C   UNL     1       8.579  33.351  -7.451  1.00  0.00     0.063 C 
ATOM      2  C   UNL     1       9.700  32.683  -6.731  1.00  0.00     0.038 C 
ATOM      3  O   UNL     1       9.536  32.263  -5.556  1.00  0.00    -0.550 OA
ATOM      4  O   UNL     1      10.913  32.473  -7.374  1.00  0.00    -0.550 OA
ENDROOT
TORSDOF 0
ENDMDL
MODEL 3
REMARK VINA RESULT:    -2.012     21.763     22.069
REMARK INTER + INTRA:          -2.012
REMARK INTER:                  -2.012
REMARK INTRA:                   0.000
REMARK UNBOUND:                 0.000
REMARK SMILES CC(=O)[O-]
REMARK SMILES IDX 1 1 2 2 3 3 4 4
REMARK H PARENT
REMARK Flexibility Score: inf
ROOT
ATOM      1  C   UNL     1       8.503  33.406  -7.528  1.00  0.00     0.063 C 
ATOM      2  C   UNL     1       9.623  32.687  -6.856  1.00  0.00     0.038 C 
ATOM      3  O   UNL     1      10.720  32.532  -7.451  1.00  0.00    -0.550 OA
ATOM      4  O   UNL     1       9.475  32.233  -5.552  1.00  0.00    -0.550 OA
ENDROOT
TORSDOF 0
ENDMDL
MODEL 4
REMARK VINA RESULT:    -1.962     25.769     25.954
REMARK INTER + INTRA:          -1.962
REMARK INTER:                  -1.962
REMARK INTRA:                   0.000
REMARK UNBOUND:                 0.000
REMARK SMILES CC(=O)[O-]
REMARK SMILES IDX 1 1 2 2 3 3 4 4
REMARK H PARENT
REMARK Flexibility Score: inf
ROOT
ATOM      1  C   UNL     1      -6.174  50.660  -9.576  1.00  0.00     0.063 C 
ATOM      2  C   UNL     1      -7.515  50.619  -8.926  1.00  0.00     0.038 C 
ATOM      3  O   UNL     1      -8.509  50.176  -9.558  1.00  0.00    -0.550 OA
ATOM      4  O   UNL     1      -7.660  51.019  -7.605  1.00  0.00    -0.550 OA
ENDROOT
TORSDOF 0
ENDMDL
MODEL 5
REMARK VINA RESULT:    -1.955     25.834     26.028
REMARK INTER + INTRA:          -1.955
REMARK INTER:                  -1.955
REMARK INTRA:                   0.000
REMARK UNBOUND:                 0.000
REMARK SMILES CC(=O)[O-]
REMARK SMILES IDX 1 1 2 2 3 3 4 4
REMARK H PARENT
REMARK Flexibility Score: inf
ROOT
ATOM      1  C   UNL     1      -6.169  50.668  -9.578  1.00  0.00     0.063 C 
ATOM      2  C   UNL     1      -7.513  50.618  -8.935  1.00  0.00     0.038 C 
ATOM      3  O   UNL     1      -7.648  50.944  -7.727  1.00  0.00    -0.550 OA
ATOM      4  O   UNL     1      -8.629  50.263  -9.682  1.00  0.00    -0.550 OA
ENDROOT
TORSDOF 0
ENDMDL
MODEL 6
REMARK VINA RESULT:    -1.885     23.229     23.437
REMARK INTER + INTRA:          -1.885
REMARK INTER:                  -1.885
REMARK INTRA:                   0.000
REMARK UNBOUND:                 0.000
REMARK SMILES CC(=O)[O-]
REMARK SMILES IDX 1 1 2 2 3 3 4 4
REMARK H PARENT
REMARK Flexibility Score: inf
ROOT
ATOM      1  C   UNL     1      -3.423  52.112  -9.106  1.00  0.00     0.063 C 
ATOM      2  C   UNL     1      -4.204  51.167  -8.259  1.00  0.00     0.038 C 
ATOM      3  O   UNL     1      -3.658  50.597  -7.279  1.00  0.00    -0.550 OA
ATOM      4  O   UNL     1      -5.553  50.954  -8.515  1.00  0.00    -0.550 OA
ENDROOT
TORSDOF 0
ENDMDL
MODEL 7
REMARK VINA RESULT:    -1.871     22.319     22.506
REMARK INTER + INTRA:          -1.871
REMARK INTER:                  -1.871
REMARK INTRA:                   0.000
REMARK UNBOUND:                 0.000
REMARK SMILES CC(=O)[O-]
REMARK SMILES IDX 1 1 2 2 3 3 4 4
REMARK H PARENT
REMARK Flexibility Score: inf
ROOT
ATOM      1  C   UNL     1      -2.373  51.626  -7.390  1.00  0.00     0.063 C 
ATOM      2  C   UNL     1      -3.840  51.368  -7.427  1.00  0.00     0.038 C 
ATOM      3  O   UNL     1      -4.318  50.555  -8.261  1.00  0.00    -0.550 OA
ATOM      4  O   UNL     1      -4.678  51.982  -6.506  1.00  0.00    -0.550 OA
ENDROOT
TORSDOF 0
ENDMDL
MODEL 8
REMARK VINA RESULT:    -1.797     15.752     16.004
REMARK INTER + INTRA:          -1.797
REMARK INTER:                  -1.797
REMARK INTRA:                   0.000
REMARK UNBOUND:                 0.000
REMARK SMILES CC(=O)[O-]
REMARK SMILES IDX 1 1 2 2 3 3 4 4
REMARK H PARENT
REMARK Flexibility Score: inf
ROOT
ATOM      1  C   UNL     1      -2.734  51.634   0.026  1.00  0.00     0.063 C 
ATOM      2  C   UNL     1      -1.295  51.942  -0.211  1.00  0.00     0.038 C 
ATOM      3  O   UNL     1      -0.864  52.085  -1.385  1.00  0.00    -0.550 OA
ATOM      4  O   UNL     1      -0.436  52.125   0.865  1.00  0.00    -0.550 OA
ENDROOT
TORSDOF 0
ENDMDL
