MODEL 1
REMARK VINA RESULT:    -3.808      0.000      0.000
REMARK INTER + INTRA:          -7.715
REMARK INTER:                  -5.922
REMARK INTRA:                  -1.793
REMARK UNBOUND:                -1.793
REMARK SMILES COc1cc(CNC(=O)CCCCC=CC(C)C)ccc1O
REMARK SMILES IDX 11 1 12 2 13 3 14 4 15 5 16 6 17 7 18 8 10 9 8 10 9 11 7 12
REMARK SMILES IDX 6 14 5 15 4 16 19 17 3 18 20 19 21 20 2 21 1 22 22 23
REMARK H PARENT 7 13 22 24
REMARK Flexibility Score: inf
ROOT
ATOM      1  C   UNL     1      30.771   4.723  10.252  1.00  0.00     0.010 C 
ENDROOT
BRANCH   1   2
ATOM      2  C   UNL     1      31.607   5.965  10.586  1.00  0.00     0.005 C 
BRANCH   2   3
ATOM      3  C   UNL     1      31.221   7.177   9.726  1.00  0.00     0.027 C 
BRANCH   3   4
ATOM      4  C   UNL     1      31.715   7.031   8.307  1.00  0.00    -0.031 C 
ATOM      5  C   UNL     1      30.969   7.063   7.184  1.00  0.00    -0.028 C 
BRANCH   5   6
ATOM      6  C   UNL     1      29.482   7.351   7.048  1.00  0.00     0.005 C 
ATOM      7  C   UNL     1      29.074   7.865   5.665  1.00  0.00     0.012 C 
ATOM      8  C   UNL     1      28.613   6.179   7.519  1.00  0.00     0.012 C 
ENDBRANCH   5   6
ENDBRANCH   3   4
ENDBRANCH   2   3
ENDBRANCH   1   2
BRANCH   1   9
ATOM      9  C   UNL     1      31.614   3.671   9.523  1.00  0.00     0.100 C 
BRANCH   9  10
ATOM     10  C   UNL     1      31.005   3.359   8.191  1.00  0.00     0.220 C 
ATOM     11  O   UNL     1      29.810   2.960   8.134  1.00  0.00    -0.275 OA
ATOM     12  N   UNL     1      31.757   3.572   6.987  1.00  0.00    -0.352 N 
ATOM     13  H   UNL     1      32.763   3.843   7.061  1.00  0.00     0.163 HD
BRANCH  12  14
ATOM     14  C   UNL     1      31.117   3.659   5.677  1.00  0.00     0.151 C 
BRANCH  14  15
ATOM     15  C   UNL     1      31.991   4.448   4.740  1.00  0.00    -0.025 A 
ATOM     16  C   UNL     1      31.476   4.931   3.527  1.00  0.00     0.056 A 
ATOM     17  C   UNL     1      33.303   4.771   5.112  1.00  0.00     0.009 A 
ATOM     18  C   UNL     1      32.276   5.719   2.674  1.00  0.00     0.160 A 
ATOM     19  C   UNL     1      34.100   5.548   4.271  1.00  0.00     0.050 A 
ATOM     20  C   UNL     1      33.597   6.022   3.056  1.00  0.00     0.157 A 
BRANCH  18  21
ATOM     21  O   UNL     1      31.793   6.214   1.452  1.00  0.00    -0.493 OA
ATOM     22  C   UNL     1      31.191   5.417   0.439  1.00  0.00     0.278 C 
ENDBRANCH  18  21
BRANCH  20  23
ATOM     23  O   UNL     1      34.422   6.795   2.242  1.00  0.00    -0.504 OA
ATOM     24  H   UNL     1      34.776   7.697   2.532  1.00  0.00     0.293 HD
ENDBRANCH  20  23
ENDBRANCH  14  15
ENDBRANCH  12  14
ENDBRANCH   9  10
ENDBRANCH   1   9
TORSDOF 10
ENDMDL
MODEL 2
REMARK VINA RESULT:    -3.785      2.021      3.586
REMARK INTER + INTRA:          -7.679
REMARK INTER:                  -6.005
REMARK INTRA:                  -1.674
REMARK UNBOUND:                -1.793
REMARK SMILES COc1cc(CNC(=O)CCCCC=CC(C)C)ccc1O
REMARK SMILES IDX 11 1 12 2 13 3 14 4 15 5 16 6 17 7 18 8 10 9 8 10 9 11 7 12
REMARK SMILES IDX 6 14 5 15 4 16 19 17 3 18 20 19 21 20 2 21 1 22 22 23
REMARK H PARENT 7 13 22 24
REMARK Flexibility Score: inf
ROOT
ATOM      1  C   UNL     1      29.828   7.638   7.487  1.00  0.00     0.010 C 
ENDROOT
BRANCH   1   2
ATOM      2  C   UNL     1      28.724   6.696   6.991  1.00  0.00     0.005 C 
BRANCH   2   3
ATOM      3  C   UNL     1      27.955   7.277   5.796  1.00  0.00     0.027 C 
BRANCH   3   4
ATOM      4  C   UNL     1      28.762   8.330   5.075  1.00  0.00    -0.031 C 
ATOM      5  C   UNL     1      28.506   8.851   3.858  1.00  0.00    -0.028 C 
BRANCH   5   6
ATOM      6  C   UNL     1      27.309   8.596   2.956  1.00  0.00     0.005 C 
ATOM      7  C   UNL     1      26.867   9.822   2.151  1.00  0.00     0.012 C 
ATOM      8  C   UNL     1      27.490   7.352   2.079  1.00  0.00     0.012 C 
ENDBRANCH   5   6
ENDBRANCH   3   4
ENDBRANCH   2   3
ENDBRANCH   1   2
BRANCH   1   9
ATOM      9  C   UNL     1      30.710   6.950   8.535  1.00  0.00     0.100 C 
BRANCH   9  10
ATOM     10  C   UNL     1      31.523   5.868   7.891  1.00  0.00     0.220 C 
ATOM     11  O   UNL     1      31.406   4.680   8.298  1.00  0.00    -0.275 OA
ATOM     12  N   UNL     1      32.379   6.174   6.780  1.00  0.00    -0.352 N 
ATOM     13  H   UNL     1      32.506   7.173   6.501  1.00  0.00     0.163 HD
BRANCH  12  14
ATOM     14  C   UNL     1      32.884   5.140   5.883  1.00  0.00     0.151 C 
BRANCH  14  15
ATOM     15  C   UNL     1      32.476   5.455   4.469  1.00  0.00    -0.025 A 
ATOM     16  C   UNL     1      33.449   5.635   3.472  1.00  0.00     0.056 A 
ATOM     17  C   UNL     1      31.119   5.494   4.124  1.00  0.00     0.009 A 
ATOM     18  C   UNL     1      33.068   5.874   2.136  1.00  0.00     0.160 A 
ATOM     19  C   UNL     1      30.735   5.733   2.805  1.00  0.00     0.050 A 
ATOM     20  C   UNL     1      31.699   5.924   1.810  1.00  0.00     0.157 A 
BRANCH  18  21
ATOM     21  O   UNL     1      34.015   6.062   1.117  1.00  0.00    -0.493 OA
ATOM     22  C   UNL     1      34.800   5.023   0.541  1.00  0.00     0.278 C 
ENDBRANCH  18  21
BRANCH  20  23
ATOM     23  O   UNL     1      31.278   6.161   0.503  1.00  0.00    -0.504 OA
ATOM     24  H   UNL     1      31.799   5.833  -0.301  1.00  0.00     0.293 HD
ENDBRANCH  20  23
ENDBRANCH  14  15
ENDBRANCH  12  14
ENDBRANCH   9  10
ENDBRANCH   1   9
TORSDOF 10
ENDMDL
MODEL 3
REMARK VINA RESULT:    -3.752      2.740      4.403
REMARK INTER + INTRA:          -7.629
REMARK INTER:                  -5.829
REMARK INTRA:                  -1.800
REMARK UNBOUND:                -1.793
REMARK SMILES COc1cc(CNC(=O)CCCCC=CC(C)C)ccc1O
REMARK SMILES IDX 11 1 12 2 13 3 14 4 15 5 16 6 17 7 18 8 10 9 8 10 9 11 7 12
REMARK SMILES IDX 6 14 5 15 4 16 19 17 3 18 20 19 21 20 2 21 1 22 22 23
REMARK H PARENT 7 13 22 24
REMARK Flexibility Score: inf
ROOT
ATOM      1  C   UNL     1      29.158   7.439  10.951  1.00  0.00     0.010 C 
ENDROOT
BRANCH   1   2
ATOM      2  C   UNL     1      30.530   8.046  10.633  1.00  0.00     0.005 C 
BRANCH   2   3
ATOM      3  C   UNL     1      31.652   6.998  10.659  1.00  0.00     0.027 C 
BRANCH   3   4
ATOM      4  C   UNL     1      31.243   5.729   9.954  1.00  0.00    -0.031 C 
ATOM      5  C   UNL     1      31.287   5.491   8.627  1.00  0.00    -0.028 C 
BRANCH   5   6
ATOM      6  C   UNL     1      31.846   6.382   7.528  1.00  0.00     0.005 C 
ATOM      7  C   UNL     1      32.490   5.610   6.373  1.00  0.00     0.012 C 
ATOM      8  C   UNL     1      30.829   7.423   7.045  1.00  0.00     0.012 C 
ENDBRANCH   5   6
ENDBRANCH   3   4
ENDBRANCH   2   3
ENDBRANCH   1   2
BRANCH   1   9
ATOM      9  C   UNL     1      28.058   8.085  10.102  1.00  0.00     0.100 C 
BRANCH   9  10
ATOM     10  C   UNL     1      27.734   7.210   8.930  1.00  0.00     0.220 C 
ATOM     11  O   UNL     1      27.795   5.957   9.058  1.00  0.00    -0.275 OA
ATOM     12  N   UNL     1      27.298   7.792   7.694  1.00  0.00    -0.352 N 
ATOM     13  H   UNL     1      27.314   8.833   7.592  1.00  0.00     0.163 HD
BRANCH  12  14
ATOM     14  C   UNL     1      26.611   7.013   6.667  1.00  0.00     0.151 C 
BRANCH  14  15
ATOM     15  C   UNL     1      27.459   6.958   5.425  1.00  0.00    -0.025 A 
ATOM     16  C   UNL     1      27.491   8.045   4.538  1.00  0.00     0.056 A 
ATOM     17  C   UNL     1      28.281   5.848   5.187  1.00  0.00     0.009 A 
ATOM     18  C   UNL     1      28.327   8.019   3.403  1.00  0.00     0.160 A 
ATOM     19  C   UNL     1      29.108   5.815   4.065  1.00  0.00     0.050 A 
ATOM     20  C   UNL     1      29.136   6.890   3.172  1.00  0.00     0.157 A 
BRANCH  18  21
ATOM     21  O   UNL     1      28.380   9.088   2.495  1.00  0.00    -0.493 OA
ATOM     22  C   UNL     1      27.257   9.869   2.100  1.00  0.00     0.278 C 
ENDBRANCH  18  21
BRANCH  20  23
ATOM     23  O   UNL     1      29.975   6.820   2.062  1.00  0.00    -0.504 OA
ATOM     24  H   UNL     1      30.311   5.940   1.692  1.00  0.00     0.293 HD
ENDBRANCH  20  23
ENDBRANCH  14  15
ENDBRANCH  12  14
ENDBRANCH   9  10
ENDBRANCH   1   9
TORSDOF 10
ENDMDL
MODEL 4
REMARK VINA RESULT:    -3.702      7.965     11.739
REMARK INTER + INTRA:          -7.550
REMARK INTER:                  -6.847
REMARK INTRA:                  -0.703
REMARK UNBOUND:                -1.793
REMARK SMILES COc1cc(CNC(=O)CCCCC=CC(C)C)ccc1O
REMARK SMILES IDX 11 1 12 2 13 3 14 4 15 5 16 6 17 7 18 8 10 9 8 10 9 11 7 12
REMARK SMILES IDX 6 14 5 15 4 16 19 17 3 18 20 19 21 20 2 21 1 22 22 23
REMARK H PARENT 7 13 22 24
REMARK Flexibility Score: inf
ROOT
ATOM      1  C   UNL     1      24.995  11.264  -2.561  1.00  0.00     0.010 C 
ENDROOT
BRANCH   1   2
ATOM      2  C   UNL     1      25.623  11.482  -3.944  1.00  0.00     0.005 C 
BRANCH   2   3
ATOM      3  C   UNL     1      24.570  11.778  -5.023  1.00  0.00     0.027 C 
BRANCH   3   4
ATOM      4  C   UNL     1      23.246  11.129  -4.699  1.00  0.00    -0.031 C 
ATOM      5  C   UNL     1      22.574  10.241  -5.459  1.00  0.00    -0.028 C 
BRANCH   5   6
ATOM      6  C   UNL     1      23.012   9.596  -6.765  1.00  0.00     0.005 C 
ATOM      7  C   UNL     1      22.529   8.153  -6.935  1.00  0.00     0.012 C 
ATOM      8  C   UNL     1      22.697  10.469  -7.985  1.00  0.00     0.012 C 
ENDBRANCH   5   6
ENDBRANCH   3   4
ENDBRANCH   2   3
ENDBRANCH   1   2
BRANCH   1   9
ATOM      9  C   UNL     1      25.967  10.541  -1.623  1.00  0.00     0.100 C 
BRANCH   9  10
ATOM     10  C   UNL     1      25.662  10.891  -0.199  1.00  0.00     0.220 C 
ATOM     11  O   UNL     1      24.504  11.284   0.107  1.00  0.00    -0.275 OA
ATOM     12  N   UNL     1      26.663  10.721   0.816  1.00  0.00    -0.352 N 
ATOM     13  H   UNL     1      27.632  10.454   0.530  1.00  0.00     0.163 HD
BRANCH  12  14
ATOM     14  C   UNL     1      26.328  10.672   2.235  1.00  0.00     0.151 C 
BRANCH  14  15
ATOM     15  C   UNL     1      27.117   9.577   2.902  1.00  0.00    -0.025 A 
ATOM     16  C   UNL     1      27.839   8.652   2.132  1.00  0.00     0.056 A 
ATOM     17  C   UNL     1      27.197   9.524   4.300  1.00  0.00     0.009 A 
ATOM     18  C   UNL     1      28.624   7.661   2.756  1.00  0.00     0.160 A 
ATOM     19  C   UNL     1      27.969   8.544   4.923  1.00  0.00     0.050 A 
ATOM     20  C   UNL     1      28.682   7.612   4.161  1.00  0.00     0.157 A 
BRANCH  18  21
ATOM     21  O   UNL     1      29.355   6.718   2.015  1.00  0.00    -0.493 OA
ATOM     22  C   UNL     1      28.849   5.458   1.588  1.00  0.00     0.278 C 
ENDBRANCH  18  21
BRANCH  20  23
ATOM     23  O   UNL     1      29.443   6.648   4.819  1.00  0.00    -0.504 OA
ATOM     24  H   UNL     1      30.369   6.842   5.178  1.00  0.00     0.293 HD
ENDBRANCH  20  23
ENDBRANCH  14  15
ENDBRANCH  12  14
ENDBRANCH   9  10
ENDBRANCH   1   9
TORSDOF 10
ENDMDL
MODEL 5
REMARK VINA RESULT:    -3.681      2.496      4.166
REMARK INTER + INTRA:          -7.517
REMARK INTER:                  -5.759
REMARK INTRA:                  -1.759
REMARK UNBOUND:                -1.793
REMARK SMILES COc1cc(CNC(=O)CCCCC=CC(C)C)ccc1O
REMARK SMILES IDX 11 1 12 2 13 3 14 4 15 5 16 6 17 7 18 8 10 9 8 10 9 11 7 12
REMARK SMILES IDX 6 14 5 15 4 16 19 17 3 18 20 19 21 20 2 21 1 22 22 23
REMARK H PARENT 7 13 22 24
REMARK Flexibility Score: inf
ROOT
ATOM      1  C   UNL     1      29.400   7.893   9.631  1.00  0.00     0.010 C 
ENDROOT
BRANCH   1   2
ATOM      2  C   UNL     1      30.810   7.644  10.182  1.00  0.00     0.005 C 
BRANCH   2   3
ATOM      3  C   UNL     1      31.654   6.763   9.248  1.00  0.00     0.027 C 
BRANCH   3   4
ATOM      4  C   UNL     1      31.414   7.104   7.797  1.00  0.00    -0.031 C 
ATOM      5  C   UNL     1      31.711   6.338   6.727  1.00  0.00    -0.028 C 
BRANCH   5   6
ATOM      6  C   UNL     1      32.259   4.920   6.706  1.00  0.00     0.005 C 
ATOM      7  C   UNL     1      31.212   3.847   7.016  1.00  0.00     0.012 C 
ATOM      8  C   UNL     1      33.052   4.617   5.429  1.00  0.00     0.012 C 
ENDBRANCH   5   6
ENDBRANCH   3   4
ENDBRANCH   2   3
ENDBRANCH   1   2
BRANCH   1   9
ATOM      9  C   UNL     1      28.394   6.903  10.225  1.00  0.00     0.100 C 
BRANCH   9  10
ATOM     10  C   UNL     1      27.686   6.169   9.127  1.00  0.00     0.220 C 
ATOM     11  O   UNL     1      26.438   6.005   9.197  1.00  0.00    -0.275 OA
ATOM     12  N   UNL     1      28.415   5.712   7.979  1.00  0.00    -0.352 N 
ATOM     13  H   UNL     1      29.456   5.805   7.971  1.00  0.00     0.163 HD
BRANCH  12  14
ATOM     14  C   UNL     1      27.750   5.349   6.731  1.00  0.00     0.151 C 
BRANCH  14  15
ATOM     15  C   UNL     1      28.092   6.354   5.665  1.00  0.00    -0.025 A 
ATOM     16  C   UNL     1      28.254   5.948   4.331  1.00  0.00     0.056 A 
ATOM     17  C   UNL     1      28.174   7.716   5.987  1.00  0.00     0.009 A 
ATOM     18  C   UNL     1      28.517   6.896   3.321  1.00  0.00     0.160 A 
ATOM     19  C   UNL     1      28.437   8.658   4.993  1.00  0.00     0.050 A 
ATOM     20  C   UNL     1      28.611   8.258   3.664  1.00  0.00     0.157 A 
BRANCH  18  21
ATOM     21  O   UNL     1      28.689   6.522   1.979  1.00  0.00    -0.493 OA
ATOM     22  C   UNL     1      29.846   5.876   1.461  1.00  0.00     0.278 C 
ENDBRANCH  18  21
BRANCH  20  23
ATOM     23  O   UNL     1      28.873   9.228   2.699  1.00  0.00    -0.504 OA
ATOM     24  H   UNL     1      29.779   9.321   2.258  1.00  0.00     0.293 HD
ENDBRANCH  20  23
ENDBRANCH  14  15
ENDBRANCH  12  14
ENDBRANCH   9  10
ENDBRANCH   1   9
TORSDOF 10
ENDMDL
MODEL 6
REMARK VINA RESULT:    -3.678      8.575     12.499
REMARK INTER + INTRA:          -7.513
REMARK INTER:                  -6.015
REMARK INTRA:                  -1.498
REMARK UNBOUND:                -1.793
REMARK SMILES COc1cc(CNC(=O)CCCCC=CC(C)C)ccc1O
REMARK SMILES IDX 11 1 12 2 13 3 14 4 15 5 16 6 17 7 18 8 10 9 8 10 9 11 7 12
REMARK SMILES IDX 6 14 5 15 4 16 19 17 3 18 20 19 21 20 2 21 1 22 22 23
REMARK H PARENT 7 13 22 24
REMARK Flexibility Score: inf
ROOT
ATOM      1  C   UNL     1      28.528   3.241  -6.178  1.00  0.00     0.010 C 
ENDROOT
BRANCH   1   2
ATOM      2  C   UNL     1      29.323   2.168  -5.425  1.00  0.00     0.005 C 
BRANCH   2   3
ATOM      3  C   UNL     1      30.330   2.774  -4.436  1.00  0.00     0.027 C 
BRANCH   3   4
ATOM      4  C   UNL     1      30.144   4.265  -4.299  1.00  0.00    -0.031 C 
ATOM      5  C   UNL     1      29.948   4.954  -3.156  1.00  0.00    -0.028 C 
BRANCH   5   6
ATOM      6  C   UNL     1      29.964   4.433  -1.728  1.00  0.00     0.005 C 
ATOM      7  C   UNL     1      30.841   5.256  -0.778  1.00  0.00     0.012 C 
ATOM      8  C   UNL     1      28.554   4.200  -1.172  1.00  0.00     0.012 C 
ENDBRANCH   5   6
ENDBRANCH   3   4
ENDBRANCH   2   3
ENDBRANCH   1   2
BRANCH   1   9
ATOM      9  C   UNL     1      28.578   3.002  -7.691  1.00  0.00     0.100 C 
BRANCH   9  10
ATOM     10  C   UNL     1      29.939   3.336  -8.219  1.00  0.00     0.220 C 
ATOM     11  O   UNL     1      30.531   2.513  -8.969  1.00  0.00    -0.275 OA
ATOM     12  N   UNL     1      30.536   4.607  -7.923  1.00  0.00    -0.352 N 
ATOM     13  H   UNL     1      30.055   5.247  -7.251  1.00  0.00     0.163 HD
BRANCH  12  14
ATOM     14  C   UNL     1      31.652   5.141  -8.698  1.00  0.00     0.151 C 
BRANCH  14  15
ATOM     15  C   UNL     1      32.656   5.769  -7.770  1.00  0.00    -0.025 A 
ATOM     16  C   UNL     1      32.981   5.152  -6.552  1.00  0.00     0.056 A 
ATOM     17  C   UNL     1      33.330   6.937  -8.154  1.00  0.00     0.009 A 
ATOM     18  C   UNL     1      33.964   5.709  -5.708  1.00  0.00     0.160 A 
ATOM     19  C   UNL     1      34.300   7.494  -7.322  1.00  0.00     0.050 A 
ATOM     20  C   UNL     1      34.620   6.890  -6.102  1.00  0.00     0.157 A 
BRANCH  18  21
ATOM     21  O   UNL     1      34.310   5.119  -4.482  1.00  0.00    -0.493 OA
ATOM     22  C   UNL     1      33.701   5.432  -3.234  1.00  0.00     0.278 C 
ENDBRANCH  18  21
BRANCH  20  23
ATOM     23  O   UNL     1      35.594   7.477  -5.297  1.00  0.00    -0.504 OA
ATOM     24  H   UNL     1      36.584   7.337  -5.458  1.00  0.00     0.293 HD
ENDBRANCH  20  23
ENDBRANCH  14  15
ENDBRANCH  12  14
ENDBRANCH   9  10
ENDBRANCH   1   9
TORSDOF 10
ENDMDL
MODEL 7
REMARK VINA RESULT:    -3.666      8.727     12.786
REMARK INTER + INTRA:          -7.494
REMARK INTER:                  -6.137
REMARK INTRA:                  -1.357
REMARK UNBOUND:                -1.793
REMARK SMILES COc1cc(CNC(=O)CCCCC=CC(C)C)ccc1O
REMARK SMILES IDX 11 1 12 2 13 3 14 4 15 5 16 6 17 7 18 8 10 9 8 10 9 11 7 12
REMARK SMILES IDX 6 14 5 15 4 16 19 17 3 18 20 19 21 20 2 21 1 22 22 23
REMARK H PARENT 7 13 22 24
REMARK Flexibility Score: inf
ROOT
ATOM      1  C   UNL     1      28.600   3.648  -7.275  1.00  0.00     0.010 C 
ENDROOT
BRANCH   1   2
ATOM      2  C   UNL     1      29.197   2.977  -6.032  1.00  0.00     0.005 C 
BRANCH   2   3
ATOM      3  C   UNL     1      29.735   3.999  -5.019  1.00  0.00     0.027 C 
BRANCH   3   4
ATOM      4  C   UNL     1      30.721   3.369  -4.065  1.00  0.00    -0.031 C 
ATOM      5  C   UNL     1      30.976   3.751  -2.797  1.00  0.00    -0.028 C 
BRANCH   5   6
ATOM      6  C   UNL     1      30.280   4.827  -1.979  1.00  0.00     0.005 C 
ATOM      7  C   UNL     1      28.956   4.374  -1.358  1.00  0.00     0.012 C 
ATOM      8  C   UNL     1      31.215   5.484  -0.957  1.00  0.00     0.012 C 
ENDBRANCH   5   6
ENDBRANCH   3   4
ENDBRANCH   2   3
ENDBRANCH   1   2
BRANCH   1   9
ATOM      9  C   UNL     1      29.267   3.129  -8.554  1.00  0.00     0.100 C 
BRANCH   9  10
ATOM     10  C   UNL     1      30.677   3.628  -8.636  1.00  0.00     0.220 C 
ATOM     11  O   UNL     1      31.592   2.841  -9.002  1.00  0.00    -0.275 OA
ATOM     12  N   UNL     1      30.972   5.005  -8.360  1.00  0.00    -0.352 N 
ATOM     13  H   UNL     1      30.210   5.623  -7.999  1.00  0.00     0.163 HD
BRANCH  12  14
ATOM     14  C   UNL     1      32.220   5.632  -8.785  1.00  0.00     0.151 C 
BRANCH  14  15
ATOM     15  C   UNL     1      33.067   5.941  -7.580  1.00  0.00    -0.025 A 
ATOM     16  C   UNL     1      33.870   7.092  -7.552  1.00  0.00     0.056 A 
ATOM     17  C   UNL     1      32.997   5.120  -6.446  1.00  0.00     0.009 A 
ATOM     18  C   UNL     1      34.619   7.414  -6.402  1.00  0.00     0.160 A 
ATOM     19  C   UNL     1      33.739   5.431  -5.307  1.00  0.00     0.050 A 
ATOM     20  C   UNL     1      34.549   6.570  -5.278  1.00  0.00     0.157 A 
BRANCH  18  21
ATOM     21  O   UNL     1      35.435   8.555  -6.344  1.00  0.00    -0.493 OA
ATOM     22  C   UNL     1      36.771   8.619  -6.828  1.00  0.00     0.278 C 
ENDBRANCH  18  21
BRANCH  20  23
ATOM     23  O   UNL     1      35.276   6.848  -4.122  1.00  0.00    -0.504 OA
ATOM     24  H   UNL     1      34.906   6.676  -3.196  1.00  0.00     0.293 HD
ENDBRANCH  20  23
ENDBRANCH  14  15
ENDBRANCH  12  14
ENDBRANCH   9  10
ENDBRANCH   1   9
TORSDOF 10
ENDMDL
MODEL 8
REMARK VINA RESULT:    -3.641      3.859      6.591
REMARK INTER + INTRA:          -7.456
REMARK INTER:                  -5.969
REMARK INTRA:                  -1.487
REMARK UNBOUND:                -1.793
REMARK SMILES COc1cc(CNC(=O)CCCCC=CC(C)C)ccc1O
REMARK SMILES IDX 11 1 12 2 13 3 14 4 15 5 16 6 17 7 18 8 10 9 8 10 9 11 7 12
REMARK SMILES IDX 6 14 5 15 4 16 19 17 3 18 20 19 21 20 2 21 1 22 22 23
REMARK H PARENT 7 13 22 24
REMARK Flexibility Score: inf
ROOT
ATOM      1  C   UNL     1      27.428   6.702   2.876  1.00  0.00     0.010 C 
ENDROOT
BRANCH   1   2
ATOM      2  C   UNL     1      27.906   8.009   3.521  1.00  0.00     0.005 C 
BRANCH   2   3
ATOM      3  C   UNL     1      28.131   9.122   2.486  1.00  0.00     0.027 C 
BRANCH   3   4
ATOM      4  C   UNL     1      26.997  10.119   2.489  1.00  0.00    -0.031 C 
ATOM      5  C   UNL     1      26.080  10.303   1.517  1.00  0.00    -0.028 C 
BRANCH   5   6
ATOM      6  C   UNL     1      25.890   9.502   0.238  1.00  0.00     0.005 C 
ATOM      7  C   UNL     1      24.955   8.299   0.394  1.00  0.00     0.012 C 
ATOM      8  C   UNL     1      25.514  10.387  -0.957  1.00  0.00     0.012 C 
ENDBRANCH   5   6
ENDBRANCH   3   4
ENDBRANCH   2   3
ENDBRANCH   1   2
BRANCH   1   9
ATOM      9  C   UNL     1      28.201   6.410   1.586  1.00  0.00     0.100 C 
BRANCH   9  10
ATOM     10  C   UNL     1      29.453   5.649   1.899  1.00  0.00     0.220 C 
ATOM     11  O   UNL     1      30.526   5.952   1.308  1.00  0.00    -0.275 OA
ATOM     12  N   UNL     1      29.444   4.628   2.907  1.00  0.00    -0.352 N 
ATOM     13  H   UNL     1      28.533   4.353   3.339  1.00  0.00     0.163 HD
BRANCH  12  14
ATOM     14  C   UNL     1      30.672   4.132   3.521  1.00  0.00     0.151 C 
BRANCH  14  15
ATOM     15  C   UNL     1      31.031   4.995   4.701  1.00  0.00    -0.025 A 
ATOM     16  C   UNL     1      30.058   5.801   5.313  1.00  0.00     0.056 A 
ATOM     17  C   UNL     1      32.322   4.937   5.243  1.00  0.00     0.009 A 
ATOM     18  C   UNL     1      30.378   6.565   6.454  1.00  0.00     0.160 A 
ATOM     19  C   UNL     1      32.645   5.694   6.369  1.00  0.00     0.050 A 
ATOM     20  C   UNL     1      31.684   6.508   6.977  1.00  0.00     0.157 A 
BRANCH  18  21
ATOM     21  O   UNL     1      29.430   7.385   7.088  1.00  0.00    -0.493 OA
ATOM     22  C   UNL     1      28.476   6.929   8.041  1.00  0.00     0.278 C 
ENDBRANCH  18  21
BRANCH  20  23
ATOM     23  O   UNL     1      32.044   7.249   8.100  1.00  0.00    -0.504 OA
ATOM     24  H   UNL     1      31.581   7.137   8.993  1.00  0.00     0.293 HD
ENDBRANCH  20  23
ENDBRANCH  14  15
ENDBRANCH  12  14
ENDBRANCH   9  10
ENDBRANCH   1   9
TORSDOF 10
ENDMDL
MODEL 9
REMARK VINA RESULT:    -3.634      2.368      3.893
REMARK INTER + INTRA:          -7.445
REMARK INTER:                  -6.082
REMARK INTRA:                  -1.363
REMARK UNBOUND:                -1.793
REMARK SMILES COc1cc(CNC(=O)CCCCC=CC(C)C)ccc1O
REMARK SMILES IDX 11 1 12 2 13 3 14 4 15 5 16 6 17 7 18 8 10 9 8 10 9 11 7 12
REMARK SMILES IDX 6 14 5 15 4 16 19 17 3 18 20 19 21 20 2 21 1 22 22 23
REMARK H PARENT 7 13 22 24
REMARK Flexibility Score: inf
ROOT
ATOM      1  C   UNL     1      29.728   7.731   6.682  1.00  0.00     0.010 C 
ENDROOT
BRANCH   1   2
ATOM      2  C   UNL     1      28.228   7.422   6.593  1.00  0.00     0.005 C 
BRANCH   2   3
ATOM      3  C   UNL     1      27.562   8.104   5.388  1.00  0.00     0.027 C 
BRANCH   3   4
ATOM      4  C   UNL     1      28.584   8.570   4.380  1.00  0.00    -0.031 C 
ATOM      5  C   UNL     1      28.345   8.981   3.118  1.00  0.00    -0.028 C 
BRANCH   5   6
ATOM      6  C   UNL     1      27.003   9.175   2.428  1.00  0.00     0.005 C 
ATOM      7  C   UNL     1      26.931  10.432   1.556  1.00  0.00     0.012 C 
ATOM      8  C   UNL     1      26.538   7.917   1.686  1.00  0.00     0.012 C 
ENDBRANCH   5   6
ENDBRANCH   3   4
ENDBRANCH   2   3
ENDBRANCH   1   2
BRANCH   1   9
ATOM      9  C   UNL     1      30.377   6.979   7.849  1.00  0.00     0.100 C 
BRANCH   9  10
ATOM     10  C   UNL     1      31.330   5.947   7.327  1.00  0.00     0.220 C 
ATOM     11  O   UNL     1      31.267   4.767   7.769  1.00  0.00    -0.275 OA
ATOM     12  N   UNL     1      32.262   6.284   6.290  1.00  0.00    -0.352 N 
ATOM     13  H   UNL     1      32.337   7.280   5.983  1.00  0.00     0.163 HD
BRANCH  12  14
ATOM     14  C   UNL     1      32.930   5.266   5.485  1.00  0.00     0.151 C 
BRANCH  14  15
ATOM     15  C   UNL     1      32.565   5.446   4.036  1.00  0.00    -0.025 A 
ATOM     16  C   UNL     1      31.219   5.557   3.652  1.00  0.00     0.056 A 
ATOM     17  C   UNL     1      33.572   5.583   3.072  1.00  0.00     0.009 A 
ATOM     18  C   UNL     1      30.877   5.784   2.303  1.00  0.00     0.160 A 
ATOM     19  C   UNL     1      33.240   5.803   1.736  1.00  0.00     0.050 A 
ATOM     20  C   UNL     1      31.901   5.903   1.345  1.00  0.00     0.157 A 
BRANCH  18  21
ATOM     21  O   UNL     1      29.541   5.896   1.885  1.00  0.00    -0.493 OA
ATOM     22  C   UNL     1      28.569   4.863   2.000  1.00  0.00     0.278 C 
ENDBRANCH  18  21
BRANCH  20  23
ATOM     23  O   UNL     1      31.608   6.125   0.001  1.00  0.00    -0.504 OA
ATOM     24  H   UNL     1      30.659   6.136  -0.351  1.00  0.00     0.293 HD
ENDBRANCH  20  23
ENDBRANCH  14  15
ENDBRANCH  12  14
ENDBRANCH   9  10
ENDBRANCH   1   9
TORSDOF 10
ENDMDL
