MODEL 1
REMARK VINA RESULT:    -6.517      0.000      0.000
REMARK INTER + INTRA:          -6.517
REMARK INTER:                  -6.517
REMARK INTRA:                   0.000
REMARK UNBOUND:                 0.000
REMARK SMILES C=C1CCC[C@]2(C)CC(=O)C(=C(C)C)C[C@@H]12
REMARK SMILES IDX 13 1 12 2 11 3 15 4 16 5 2 6 1 7 3 8 4 9 5 10 6 11 8 12 9 13
REMARK SMILES IDX 10 14 7 15 14 16
REMARK H PARENT
REMARK Flexibility Score: inf
ROOT
ATOM      1  C   UNL     1      28.574 -22.510  19.370  1.00  0.00     0.039 C 
ATOM      2  C   UNL     1      27.641 -23.695  19.267  1.00  0.00    -0.070 C 
ATOM      3  C   UNL     1      26.286 -23.530  19.233  1.00  0.00    -0.006 C 
ATOM      4  C   UNL     1      25.658 -22.146  19.321  1.00  0.00     0.047 C 
ATOM      5  C   UNL     1      24.264 -22.160  19.997  1.00  0.00     0.025 C 
ATOM      6  C   UNL     1      23.567 -20.801  20.077  1.00  0.00    -0.073 C 
ATOM      7  C   UNL     1      24.088 -19.656  19.598  1.00  0.00     0.008 C 
ATOM      8  C   UNL     1      22.232 -20.778  20.784  1.00  0.00     0.031 C 
ATOM      9  C   UNL     1      21.292 -21.828  20.185  1.00  0.00     0.005 C 
ATOM     10  C   UNL     1      21.953 -23.216  20.132  1.00  0.00     0.008 C 
ATOM     11  C   UNL     1      23.308 -23.220  19.363  1.00  0.00    -0.018 C 
ATOM     12  C   UNL     1      23.949 -24.621  19.522  1.00  0.00     0.088 C 
ATOM     13  C   UNL     1      25.351 -24.666  18.986  1.00  0.00     0.159 C 
ATOM     14  O   UNL     1      25.708 -25.674  18.318  1.00  0.00    -0.295 OA
ATOM     15  C   UNL     1      23.052 -22.939  17.856  1.00  0.00     0.012 C 
ATOM     16  C   UNL     1      28.278 -25.066  19.241  1.00  0.00     0.039 C 
ENDROOT
TORSDOF 0
ENDMDL
MODEL 2
REMARK VINA RESULT:    -6.318      2.347      3.942
REMARK INTER + INTRA:          -6.318
REMARK INTER:                  -6.318
REMARK INTRA:                   0.000
REMARK UNBOUND:                 0.000
REMARK SMILES C=C1CCC[C@]2(C)CC(=O)C(=C(C)C)C[C@@H]12
REMARK SMILES IDX 13 1 12 2 11 3 15 4 16 5 2 6 1 7 3 8 4 9 5 10 6 11 8 12 9 13
REMARK SMILES IDX 10 14 7 15 14 16
REMARK H PARENT
REMARK Flexibility Score: inf
ROOT
ATOM      1  C   UNL     1      28.629 -22.297  19.563  1.00  0.00     0.039 C 
ATOM      2  C   UNL     1      27.873 -21.012  19.313  1.00  0.00    -0.070 C 
ATOM      3  C   UNL     1      26.540 -21.020  19.016  1.00  0.00    -0.006 C 
ATOM      4  C   UNL     1      25.766 -22.326  18.901  1.00  0.00     0.047 C 
ATOM      5  C   UNL     1      24.591 -22.242  17.894  1.00  0.00     0.025 C 
ATOM      6  C   UNL     1      23.752 -23.514  17.767  1.00  0.00    -0.073 C 
ATOM      7  C   UNL     1      23.979 -24.641  18.468  1.00  0.00     0.008 C 
ATOM      8  C   UNL     1      22.637 -23.478  16.749  1.00  0.00     0.031 C 
ATOM      9  C   UNL     1      21.735 -22.263  16.987  1.00  0.00     0.005 C 
ATOM     10  C   UNL     1      22.550 -20.961  17.077  1.00  0.00     0.008 C 
ATOM     11  C   UNL     1      23.667 -21.012  18.162  1.00  0.00    -0.018 C 
ATOM     12  C   UNL     1      24.515 -19.722  18.041  1.00  0.00     0.088 C 
ATOM     13  C   UNL     1      25.740 -19.765  18.909  1.00  0.00     0.159 C 
ATOM     14  O   UNL     1      26.062 -18.727  19.549  1.00  0.00    -0.295 OA
ATOM     15  C   UNL     1      23.020 -21.071  19.573  1.00  0.00     0.012 C 
ATOM     16  C   UNL     1      28.668 -19.728  19.372  1.00  0.00     0.039 C 
ENDROOT
TORSDOF 0
ENDMDL
MODEL 3
REMARK VINA RESULT:    -6.190      2.665      6.070
REMARK INTER + INTRA:          -6.190
REMARK INTER:                  -6.190
REMARK INTRA:                   0.000
REMARK UNBOUND:                 0.000
REMARK SMILES C=C1CCC[C@]2(C)CC(=O)C(=C(C)C)C[C@@H]12
REMARK SMILES IDX 13 1 12 2 11 3 15 4 16 5 2 6 1 7 3 8 4 9 5 10 6 11 8 12 9 13
REMARK SMILES IDX 10 14 7 15 14 16
REMARK H PARENT
REMARK Flexibility Score: inf
ROOT
ATOM      1  C   UNL     1      18.109 -21.625  18.382  1.00  0.00     0.039 C 
ATOM      2  C   UNL     1      18.902 -21.441  19.656  1.00  0.00    -0.070 C 
ATOM      3  C   UNL     1      20.243 -21.700  19.700  1.00  0.00    -0.006 C 
ATOM      4  C   UNL     1      20.988 -22.207  18.473  1.00  0.00     0.047 C 
ATOM      5  C   UNL     1      22.193 -23.113  18.834  1.00  0.00     0.025 C 
ATOM      6  C   UNL     1      23.004 -23.620  17.640  1.00  0.00    -0.073 C 
ATOM      7  C   UNL     1      22.731 -23.316  16.358  1.00  0.00     0.008 C 
ATOM      8  C   UNL     1      24.148 -24.552  17.961  1.00  0.00     0.031 C 
ATOM      9  C   UNL     1      25.071 -23.925  19.009  1.00  0.00     0.005 C 
ATOM     10  C   UNL     1      24.286 -23.444  20.241  1.00  0.00     0.008 C 
ATOM     11  C   UNL     1      23.138 -22.453  19.887  1.00  0.00    -0.018 C 
ATOM     12  C   UNL     1      22.324 -22.176  21.175  1.00  0.00     0.088 C 
ATOM     13  C   UNL     1      21.075 -21.390  20.899  1.00  0.00     0.159 C 
ATOM     14  O   UNL     1      20.760 -20.461  21.692  1.00  0.00    -0.295 OA
ATOM     15  C   UNL     1      23.744 -21.121  19.365  1.00  0.00     0.012 C 
ATOM     16  C   UNL     1      18.137 -20.995  20.880  1.00  0.00     0.039 C 
ENDROOT
TORSDOF 0
ENDMDL
MODEL 4
REMARK VINA RESULT:    -6.152      2.514      3.659
REMARK INTER + INTRA:          -6.152
REMARK INTER:                  -6.152
REMARK INTRA:                   0.000
REMARK UNBOUND:                 0.000
REMARK SMILES C=C1CCC[C@]2(C)CC(=O)C(=C(C)C)C[C@@H]12
REMARK SMILES IDX 13 1 12 2 11 3 15 4 16 5 2 6 1 7 3 8 4 9 5 10 6 11 8 12 9 13
REMARK SMILES IDX 10 14 7 15 14 16
REMARK H PARENT
REMARK Flexibility Score: inf
ROOT
ATOM      1  C   UNL     1      27.510 -17.474  21.130  1.00  0.00     0.039 C 
ATOM      2  C   UNL     1      27.580 -18.662  20.198  1.00  0.00    -0.070 C 
ATOM      3  C   UNL     1      26.456 -19.354  19.845  1.00  0.00    -0.006 C 
ATOM      4  C   UNL     1      25.090 -18.970  20.395  1.00  0.00     0.047 C 
ATOM      5  C   UNL     1      24.134 -20.183  20.529  1.00  0.00     0.025 C 
ATOM      6  C   UNL     1      22.731 -19.850  21.040  1.00  0.00    -0.073 C 
ATOM      7  C   UNL     1      22.315 -18.608  21.349  1.00  0.00     0.008 C 
ATOM      8  C   UNL     1      21.799 -21.022  21.236  1.00  0.00     0.031 C 
ATOM      9  C   UNL     1      21.719 -21.861  19.957  1.00  0.00     0.005 C 
ATOM     10  C   UNL     1      23.117 -22.247  19.445  1.00  0.00     0.008 C 
ATOM     11  C   UNL     1      24.045 -21.017  19.213  1.00  0.00    -0.018 C 
ATOM     12  C   UNL     1      25.460 -21.540  18.863  1.00  0.00     0.088 C 
ATOM     13  C   UNL     1      26.477 -20.435  18.817  1.00  0.00     0.159 C 
ATOM     14  O   UNL     1      27.330 -20.440  17.889  1.00  0.00    -0.295 OA
ATOM     15  C   UNL     1      23.501 -20.172  18.028  1.00  0.00     0.012 C 
ATOM     16  C   UNL     1      28.952 -19.067  19.709  1.00  0.00     0.039 C 
ENDROOT
TORSDOF 0
ENDMDL
MODEL 5
REMARK VINA RESULT:    -5.925      7.059      9.313
REMARK INTER + INTRA:          -5.925
REMARK INTER:                  -5.925
REMARK INTRA:                   0.000
REMARK UNBOUND:                 0.000
REMARK SMILES C=C1CCC[C@]2(C)CC(=O)C(=C(C)C)C[C@@H]12
REMARK SMILES IDX 13 1 12 2 11 3 15 4 16 5 2 6 1 7 3 8 4 9 5 10 6 11 8 12 9 13
REMARK SMILES IDX 10 14 7 15 14 16
REMARK H PARENT
REMARK Flexibility Score: inf
ROOT
ATOM      1  C   UNL     1      22.210 -25.381  15.274  1.00  0.00     0.039 C 
ATOM      2  C   UNL     1      21.277 -24.191  15.264  1.00  0.00    -0.070 C 
ATOM      3  C   UNL     1      20.068 -24.244  14.632  1.00  0.00    -0.006 C 
ATOM      4  C   UNL     1      19.620 -25.496  13.891  1.00  0.00     0.047 C 
ATOM      5  C   UNL     1      18.693 -25.185  12.689  1.00  0.00     0.025 C 
ATOM      6  C   UNL     1      18.179 -26.410  11.930  1.00  0.00    -0.073 C 
ATOM      7  C   UNL     1      18.479 -27.680  12.257  1.00  0.00     0.008 C 
ATOM      8  C   UNL     1      17.321 -26.131  10.719  1.00  0.00     0.031 C 
ATOM      9  C   UNL     1      16.161 -25.203  11.088  1.00  0.00     0.005 C 
ATOM     10  C   UNL     1      16.654 -23.940  11.815  1.00  0.00     0.008 C 
ATOM     11  C   UNL     1      17.502 -24.256  13.084  1.00  0.00    -0.018 C 
ATOM     12  C   UNL     1      18.073 -22.923  13.626  1.00  0.00     0.088 C 
ATOM     13  C   UNL     1      19.069 -23.140  14.729  1.00  0.00     0.159 C 
ATOM     14  O   UNL     1      19.028 -22.381  15.734  1.00  0.00    -0.295 OA
ATOM     15  C   UNL     1      16.597 -24.906  14.166  1.00  0.00     0.012 C 
ATOM     16  C   UNL     1      21.762 -22.936  15.953  1.00  0.00     0.039 C 
ENDROOT
TORSDOF 0
ENDMDL
MODEL 6
REMARK VINA RESULT:    -5.805      2.965      5.813
REMARK INTER + INTRA:          -5.805
REMARK INTER:                  -5.805
REMARK INTRA:                   0.000
REMARK UNBOUND:                 0.000
REMARK SMILES C=C1CCC[C@]2(C)CC(=O)C(=C(C)C)C[C@@H]12
REMARK SMILES IDX 13 1 12 2 11 3 15 4 16 5 2 6 1 7 3 8 4 9 5 10 6 11 8 12 9 13
REMARK SMILES IDX 10 14 7 15 14 16
REMARK H PARENT
REMARK Flexibility Score: inf
ROOT
ATOM      1  C   UNL     1      17.831 -21.974  17.715  1.00  0.00     0.039 C 
ATOM      2  C   UNL     1      18.886 -22.232  16.663  1.00  0.00    -0.070 C 
ATOM      3  C   UNL     1      20.216 -22.217  16.975  1.00  0.00    -0.006 C 
ATOM      4  C   UNL     1      20.691 -21.917  18.389  1.00  0.00     0.047 C 
ATOM      5  C   UNL     1      22.077 -21.225  18.424  1.00  0.00     0.025 C 
ATOM      6  C   UNL     1      22.624 -20.936  19.823  1.00  0.00    -0.073 C 
ATOM      7  C   UNL     1      21.983 -21.252  20.964  1.00  0.00     0.008 C 
ATOM      8  C   UNL     1      23.947 -20.209  19.884  1.00  0.00     0.031 C 
ATOM      9  C   UNL     1      24.996 -20.938  19.039  1.00  0.00     0.005 C 
ATOM     10  C   UNL     1      24.488 -21.204  17.612  1.00  0.00     0.008 C 
ATOM     11  C   UNL     1      23.143 -21.990  17.577  1.00  0.00    -0.018 C 
ATOM     12  C   UNL     1      22.656 -22.048  16.108  1.00  0.00     0.088 C 
ATOM     13  C   UNL     1      21.268 -22.610  15.993  1.00  0.00     0.159 C 
ATOM     14  O   UNL     1      21.024 -23.424  15.062  1.00  0.00    -0.295 OA
ATOM     15  C   UNL     1      23.371 -23.435  18.101  1.00  0.00     0.012 C 
ATOM     16  C   UNL     1      18.401 -22.469  15.252  1.00  0.00     0.039 C 
ENDROOT
TORSDOF 0
ENDMDL
MODEL 7
REMARK VINA RESULT:    -5.656      2.147      4.272
REMARK INTER + INTRA:          -5.656
REMARK INTER:                  -5.656
REMARK INTRA:                   0.000
REMARK UNBOUND:                 0.000
REMARK SMILES C=C1CCC[C@]2(C)CC(=O)C(=C(C)C)C[C@@H]12
REMARK SMILES IDX 13 1 12 2 11 3 15 4 16 5 2 6 1 7 3 8 4 9 5 10 6 11 8 12 9 13
REMARK SMILES IDX 10 14 7 15 14 16
REMARK H PARENT
REMARK Flexibility Score: inf
ROOT
ATOM      1  C   UNL     1      25.872 -25.035  18.624  1.00  0.00     0.039 C 
ATOM      2  C   UNL     1      24.698 -24.147  18.971  1.00  0.00    -0.070 C 
ATOM      3  C   UNL     1      24.840 -22.792  19.067  1.00  0.00    -0.006 C 
ATOM      4  C   UNL     1      26.190 -22.123  18.854  1.00  0.00     0.047 C 
ATOM      5  C   UNL     1      26.355 -20.823  19.681  1.00  0.00     0.025 C 
ATOM      6  C   UNL     1      27.679 -20.085  19.475  1.00  0.00    -0.073 C 
ATOM      7  C   UNL     1      28.650 -20.497  18.639  1.00  0.00     0.008 C 
ATOM      8  C   UNL     1      27.889 -18.847  20.314  1.00  0.00     0.031 C 
ATOM      9  C   UNL     1      26.708 -17.885  20.151  1.00  0.00     0.005 C 
ATOM     10  C   UNL     1      25.364 -18.591  20.395  1.00  0.00     0.008 C 
ATOM     11  C   UNL     1      25.156 -19.842  19.489  1.00  0.00    -0.018 C 
ATOM     12  C   UNL     1      23.857 -20.554  19.941  1.00  0.00     0.088 C 
ATOM     13  C   UNL     1      23.674 -21.881  19.263  1.00  0.00     0.159 C 
ATOM     14  O   UNL     1      22.523 -22.195  18.856  1.00  0.00    -0.295 OA
ATOM     15  C   UNL     1      25.007 -19.393  18.009  1.00  0.00     0.012 C 
ATOM     16  C   UNL     1      23.378 -24.831  19.239  1.00  0.00     0.039 C 
ENDROOT
TORSDOF 0
ENDMDL
MODEL 8
REMARK VINA RESULT:    -5.534      8.795     11.059
REMARK INTER + INTRA:          -5.534
REMARK INTER:                  -5.534
REMARK INTRA:                   0.000
REMARK UNBOUND:                 0.000
REMARK SMILES C=C1CCC[C@]2(C)CC(=O)C(=C(C)C)C[C@@H]12
REMARK SMILES IDX 13 1 12 2 11 3 15 4 16 5 2 6 1 7 3 8 4 9 5 10 6 11 8 12 9 13
REMARK SMILES IDX 10 14 7 15 14 16
REMARK H PARENT
REMARK Flexibility Score: inf
ROOT
ATOM      1  C   UNL     1      20.730 -25.956  14.485  1.00  0.00     0.039 C 
ATOM      2  C   UNL     1      19.746 -24.815  14.356  1.00  0.00    -0.070 C 
ATOM      3  C   UNL     1      18.561 -24.972  13.695  1.00  0.00    -0.006 C 
ATOM      4  C   UNL     1      18.194 -26.296  13.040  1.00  0.00     0.047 C 
ATOM      5  C   UNL     1      17.293 -26.120  11.791  1.00  0.00     0.025 C 
ATOM      6  C   UNL     1      16.859 -27.421  11.115  1.00  0.00    -0.073 C 
ATOM      7  C   UNL     1      17.204 -28.648  11.548  1.00  0.00     0.008 C 
ATOM      8  C   UNL     1      16.029 -27.276   9.861  1.00  0.00     0.031 C 
ATOM      9  C   UNL     1      14.817 -26.377  10.124  1.00  0.00     0.005 C 
ATOM     10  C   UNL     1      15.230 -25.042  10.766  1.00  0.00     0.008 C 
ATOM     11  C   UNL     1      16.050 -25.221  12.079  1.00  0.00    -0.018 C 
ATOM     12  C   UNL     1      16.545 -23.825  12.533  1.00  0.00     0.088 C 
ATOM     13  C   UNL     1      17.512 -23.912  13.678  1.00  0.00     0.159 C 
ATOM     14  O   UNL     1      17.406 -23.081  14.620  1.00  0.00    -0.295 OA
ATOM     15  C   UNL     1      15.140 -25.828  13.182  1.00  0.00     0.012 C 
ATOM     16  C   UNL     1      20.152 -23.490  14.959  1.00  0.00     0.039 C 
ENDROOT
TORSDOF 0
ENDMDL
MODEL 9
REMARK VINA RESULT:    -5.288     10.133     12.169
REMARK INTER + INTRA:          -5.288
REMARK INTER:                  -5.288
REMARK INTRA:                   0.000
REMARK UNBOUND:                 0.000
REMARK SMILES C=C1CCC[C@]2(C)CC(=O)C(=C(C)C)C[C@@H]12
REMARK SMILES IDX 13 1 12 2 11 3 15 4 16 5 2 6 1 7 3 8 4 9 5 10 6 11 8 12 9 13
REMARK SMILES IDX 10 14 7 15 14 16
REMARK H PARENT
REMARK Flexibility Score: inf
ROOT
ATOM      1  C   UNL     1      18.271 -23.126  13.812  1.00  0.00     0.039 C 
ATOM      2  C   UNL     1      18.403 -24.579  13.416  1.00  0.00    -0.070 C 
ATOM      3  C   UNL     1      17.614 -25.123  12.443  1.00  0.00    -0.006 C 
ATOM      4  C   UNL     1      16.554 -24.294  11.732  1.00  0.00     0.047 C 
ATOM      5  C   UNL     1      15.338 -25.138  11.273  1.00  0.00     0.025 C 
ATOM      6  C   UNL     1      14.258 -24.363  10.517  1.00  0.00    -0.073 C 
ATOM      7  C   UNL     1      14.326 -23.047  10.242  1.00  0.00     0.008 C 
ATOM      8  C   UNL     1      13.035 -25.151  10.109  1.00  0.00     0.031 C 
ATOM      9  C   UNL     1      13.443 -26.404   9.328  1.00  0.00     0.005 C 
ATOM     10  C   UNL     1      14.499 -27.226  10.087  1.00  0.00     0.008 C 
ATOM     11  C   UNL     1      15.766 -26.400  10.459  1.00  0.00    -0.018 C 
ATOM     12  C   UNL     1      16.671 -27.282  11.355  1.00  0.00     0.088 C 
ATOM     13  C   UNL     1      17.822 -26.510  11.933  1.00  0.00     0.159 C 
ATOM     14  O   UNL     1      18.958 -27.055  11.961  1.00  0.00    -0.295 OA
ATOM     15  C   UNL     1      16.538 -26.019   9.166  1.00  0.00     0.012 C 
ATOM     16  C   UNL     1      19.419 -25.404  14.173  1.00  0.00     0.039 C 
ENDROOT
TORSDOF 0
ENDMDL
