MODEL 1
REMARK VINA RESULT:    -3.673      0.000      0.000
REMARK INTER + INTRA:          -5.366
REMARK INTER:                  -4.746
REMARK INTRA:                  -0.620
REMARK UNBOUND:                -0.620
REMARK SMILES CCCCCCC(C)=O
REMARK SMILES IDX 4 1 3 2 2 3 1 4 5 5 6 6 7 7 9 8 8 9
REMARK H PARENT
REMARK Flexibility Score: inf
ROOT
ATOM      1  C   UNL     1     117.874 117.886 117.697  1.00  0.00     0.000 C 
ENDROOT
BRANCH   1   2
ATOM      2  C   UNL     1     117.759 117.043 118.976  1.00  0.00    -0.000 C 
BRANCH   2   3
ATOM      3  C   UNL     1     117.164 117.868 120.123  1.00  0.00    -0.003 C 
ATOM      4  C   UNL     1     116.407 119.084 119.596  1.00  0.00     0.004 C 
ENDBRANCH   2   3
ENDBRANCH   1   2
BRANCH   1   5
ATOM      5  C   UNL     1     119.331 118.231 117.346  1.00  0.00     0.008 C 
BRANCH   5   6
ATOM      6  C   UNL     1     119.637 119.728 117.497  1.00  0.00     0.075 C 
BRANCH   6   7
ATOM      7  C   UNL     1     119.984 120.059 118.923  1.00  0.00     0.129 C 
ATOM      8  O   UNL     1     120.700 119.305 119.563  1.00  0.00    -0.300 OA
ATOM      9  C   UNL     1     119.438 121.296 119.571  1.00  0.00     0.087 C 
ENDBRANCH   6   7
ENDBRANCH   5   6
ENDBRANCH   1   5
TORSDOF 5
ENDMDL
MODEL 2
REMARK VINA RESULT:    -3.665      1.880      2.878
REMARK INTER + INTRA:          -5.356
REMARK INTER:                  -4.829
REMARK INTRA:                  -0.527
REMARK UNBOUND:                -0.620
REMARK SMILES CCCCCCC(C)=O
REMARK SMILES IDX 4 1 3 2 2 3 1 4 5 5 6 6 7 7 9 8 8 9
REMARK H PARENT
REMARK Flexibility Score: inf
ROOT
ATOM      1  C   UNL     1     118.221 118.222 117.417  1.00  0.00     0.000 C 
ENDROOT
BRANCH   1   2
ATOM      2  C   UNL     1     119.725 117.959 117.592  1.00  0.00    -0.000 C 
BRANCH   2   3
ATOM      3  C   UNL     1     120.047 117.572 119.040  1.00  0.00    -0.003 C 
ATOM      4  C   UNL     1     121.336 118.235 119.515  1.00  0.00     0.004 C 
ENDBRANCH   2   3
ENDBRANCH   1   2
BRANCH   1   5
ATOM      5  C   UNL     1     117.848 119.695 117.647  1.00  0.00     0.008 C 
BRANCH   5   6
ATOM      6  C   UNL     1     117.084 119.914 118.961  1.00  0.00     0.075 C 
BRANCH   6   7
ATOM      7  C   UNL     1     117.939 120.652 119.955  1.00  0.00     0.129 C 
ATOM      8  O   UNL     1     117.574 120.745 121.117  1.00  0.00    -0.300 OA
ATOM      9  C   UNL     1     119.225 121.292 119.526  1.00  0.00     0.087 C 
ENDBRANCH   6   7
ENDBRANCH   5   6
ENDBRANCH   1   5
TORSDOF 5
ENDMDL
MODEL 3
REMARK VINA RESULT:    -3.664      1.441      3.416
REMARK INTER + INTRA:          -5.355
REMARK INTER:                  -4.821
REMARK INTRA:                  -0.533
REMARK UNBOUND:                -0.620
REMARK SMILES CCCCCCC(C)=O
REMARK SMILES IDX 4 1 3 2 2 3 1 4 5 5 6 6 7 7 9 8 8 9
REMARK H PARENT
REMARK Flexibility Score: inf
ROOT
ATOM      1  C   UNL     1     119.391 118.251 117.400  1.00  0.00     0.000 C 
ENDROOT
BRANCH   1   2
ATOM      2  C   UNL     1     119.646 119.756 117.573  1.00  0.00    -0.000 C 
BRANCH   2   3
ATOM      3  C   UNL     1     120.105 120.073 119.001  1.00  0.00    -0.003 C 
ATOM      4  C   UNL     1     119.439 121.341 119.527  1.00  0.00     0.004 C 
ENDBRANCH   2   3
ENDBRANCH   1   2
BRANCH   1   5
ATOM      5  C   UNL     1     117.912 117.877 117.595  1.00  0.00     0.008 C 
BRANCH   5   6
ATOM      6  C   UNL     1     117.657 117.142 118.918  1.00  0.00     0.075 C 
BRANCH   6   7
ATOM      7  C   UNL     1     117.008 118.059 119.918  1.00  0.00     0.129 C 
ATOM      8  O   UNL     1     117.004 117.759 121.103  1.00  0.00    -0.300 OA
ATOM      9  C   UNL     1     116.345 119.327 119.469  1.00  0.00     0.087 C 
ENDBRANCH   6   7
ENDBRANCH   5   6
ENDBRANCH   1   5
TORSDOF 5
ENDMDL
MODEL 4
REMARK VINA RESULT:    -3.655      1.674      2.627
REMARK INTER + INTRA:          -5.343
REMARK INTER:                  -4.782
REMARK INTRA:                  -0.561
REMARK UNBOUND:                -0.620
REMARK SMILES CCCCCCC(C)=O
REMARK SMILES IDX 4 1 3 2 2 3 1 4 5 5 6 6 7 7 9 8 8 9
REMARK H PARENT
REMARK Flexibility Score: inf
ROOT
ATOM      1  C   UNL     1     117.930 119.752 117.744  1.00  0.00     0.000 C 
ENDROOT
BRANCH   1   2
ATOM      2  C   UNL     1     117.029 119.838 118.985  1.00  0.00    -0.000 C 
BRANCH   2   3
ATOM      3  C   UNL     1     117.646 120.757 120.045  1.00  0.00    -0.003 C 
ATOM      4  C   UNL     1     119.037 121.226 119.629  1.00  0.00     0.004 C 
ENDBRANCH   2   3
ENDBRANCH   1   2
BRANCH   1   5
ATOM      5  C   UNL     1     118.257 118.302 117.351  1.00  0.00     0.008 C 
BRANCH   5   6
ATOM      6  C   UNL     1     119.747 117.967 117.511  1.00  0.00     0.075 C 
BRANCH   6   7
ATOM      7  C   UNL     1     120.072 117.663 118.947  1.00  0.00     0.129 C 
ATOM      8  O   UNL     1     119.329 116.945 119.599  1.00  0.00    -0.300 OA
ATOM      9  C   UNL     1     121.291 118.252 119.592  1.00  0.00     0.087 C 
ENDBRANCH   6   7
ENDBRANCH   5   6
ENDBRANCH   1   5
TORSDOF 5
ENDMDL
MODEL 5
REMARK VINA RESULT:    -3.653      1.670      2.620
REMARK INTER + INTRA:          -5.341
REMARK INTER:                  -4.728
REMARK INTRA:                  -0.613
REMARK UNBOUND:                -0.620
REMARK SMILES CCCCCCC(C)=O
REMARK SMILES IDX 4 1 3 2 2 3 1 4 5 5 6 6 7 7 9 8 8 9
REMARK H PARENT
REMARK Flexibility Score: inf
ROOT
ATOM      1  C   UNL     1     119.713 117.915 117.670  1.00  0.00     0.000 C 
ENDROOT
BRANCH   1   2
ATOM      2  C   UNL     1     120.592 117.747 118.919  1.00  0.00    -0.000 C 
BRANCH   2   3
ATOM      3  C   UNL     1     119.790 117.136 120.074  1.00  0.00    -0.003 C 
ATOM      4  C   UNL     1     118.540 116.424 119.564  1.00  0.00     0.004 C 
ENDBRANCH   2   3
ENDBRANCH   1   2
BRANCH   1   5
ATOM      5  C   UNL     1     119.379 119.386 117.375  1.00  0.00     0.008 C 
BRANCH   5   6
ATOM      6  C   UNL     1     117.885 119.699 117.548  1.00  0.00     0.075 C 
BRANCH   6   7
ATOM      7  C   UNL     1     117.573 120.023 118.983  1.00  0.00     0.129 C 
ATOM      8  O   UNL     1     118.331 120.736 119.623  1.00  0.00    -0.300 OA
ATOM      9  C   UNL     1     116.349 119.459 119.641  1.00  0.00     0.087 C 
ENDBRANCH   6   7
ENDBRANCH   5   6
ENDBRANCH   1   5
TORSDOF 5
ENDMDL
MODEL 6
REMARK VINA RESULT:    -3.647      1.697      3.744
REMARK INTER + INTRA:          -5.333
REMARK INTER:                  -4.757
REMARK INTRA:                  -0.576
REMARK UNBOUND:                -0.620
REMARK SMILES CCCCCCC(C)=O
REMARK SMILES IDX 4 1 3 2 2 3 1 4 5 5 6 6 7 7 9 8 8 9
REMARK H PARENT
REMARK Flexibility Score: inf
ROOT
ATOM      1  C   UNL     1     119.753 119.649 117.702  1.00  0.00     0.000 C 
ENDROOT
BRANCH   1   2
ATOM      2  C   UNL     1     119.931 120.393 119.035  1.00  0.00    -0.000 C 
BRANCH   2   3
ATOM      3  C   UNL     1     120.812 119.589 119.997  1.00  0.00    -0.003 C 
ATOM      4  C   UNL     1     121.254 118.270 119.370  1.00  0.00     0.004 C 
ENDBRANCH   2   3
ENDBRANCH   1   2
BRANCH   1   5
ATOM      5  C   UNL     1     118.281 119.328 117.396  1.00  0.00     0.008 C 
BRANCH   5   6
ATOM      6  C   UNL     1     117.954 117.837 117.560  1.00  0.00     0.075 C 
BRANCH   6   7
ATOM      7  C   UNL     1     117.611 117.522 118.990  1.00  0.00     0.129 C 
ATOM      8  O   UNL     1     116.931 118.305 119.637  1.00  0.00    -0.300 OA
ATOM      9  C   UNL     1     118.115 116.265 119.634  1.00  0.00     0.087 C 
ENDBRANCH   6   7
ENDBRANCH   5   6
ENDBRANCH   1   5
TORSDOF 5
ENDMDL
MODEL 7
REMARK VINA RESULT:    -3.607      1.327      2.706
REMARK INTER + INTRA:          -5.281
REMARK INTER:                  -4.696
REMARK INTRA:                  -0.585
REMARK UNBOUND:                -0.620
REMARK SMILES CCCCCCC(C)=O
REMARK SMILES IDX 4 1 3 2 2 3 1 4 5 5 6 6 7 7 9 8 8 9
REMARK H PARENT
REMARK Flexibility Score: inf
ROOT
ATOM      1  C   UNL     1     119.451 119.736 117.622  1.00  0.00     0.000 C 
ENDROOT
BRANCH   1   2
ATOM      2  C   UNL     1     119.414 118.200 117.625  1.00  0.00    -0.000 C 
BRANCH   2   3
ATOM      3  C   UNL     1     117.969 117.689 117.653  1.00  0.00    -0.003 C 
ATOM      4  C   UNL     1     117.742 116.738 118.825  1.00  0.00     0.004 C 
ENDBRANCH   2   3
ENDBRANCH   1   2
BRANCH   1   5
ATOM      5  C   UNL     1     120.016 120.316 118.929  1.00  0.00     0.008 C 
BRANCH   5   6
ATOM      6  C   UNL     1     119.008 121.214 119.661  1.00  0.00     0.075 C 
BRANCH   6   7
ATOM      7  C   UNL     1     117.857 120.403 120.188  1.00  0.00     0.129 C 
ATOM      8  O   UNL     1     118.053 119.558 121.048  1.00  0.00    -0.300 OA
ATOM      9  C   UNL     1     116.473 120.607 119.649  1.00  0.00     0.087 C 
ENDBRANCH   6   7
ENDBRANCH   5   6
ENDBRANCH   1   5
TORSDOF 5
ENDMDL
MODEL 8
REMARK VINA RESULT:    -3.604      1.684      3.287
REMARK INTER + INTRA:          -5.277
REMARK INTER:                  -4.679
REMARK INTRA:                  -0.598
REMARK UNBOUND:                -0.620
REMARK SMILES CCCCCCC(C)=O
REMARK SMILES IDX 4 1 3 2 2 3 1 4 5 5 6 6 7 7 9 8 8 9
REMARK H PARENT
REMARK Flexibility Score: inf
ROOT
ATOM      1  C   UNL     1     118.099 117.856 117.572  1.00  0.00     0.000 C 
ENDROOT
BRANCH   1   2
ATOM      2  C   UNL     1     118.167 119.387 117.464  1.00  0.00    -0.000 C 
BRANCH   2   3
ATOM      3  C   UNL     1     119.595 119.889 117.705  1.00  0.00    -0.003 C 
ATOM      4  C   UNL     1     119.671 120.758 118.957  1.00  0.00     0.004 C 
ENDBRANCH   2   3
ENDBRANCH   1   2
BRANCH   1   5
ATOM      5  C   UNL     1     117.613 117.382 118.952  1.00  0.00     0.008 C 
BRANCH   5   6
ATOM      6  C   UNL     1     118.601 116.420 119.628  1.00  0.00     0.075 C 
BRANCH   6   7
ATOM      7  C   UNL     1     119.775 117.174 120.192  1.00  0.00     0.129 C 
ATOM      8  O   UNL     1     119.612 117.933 121.135  1.00  0.00    -0.300 OA
ATOM      9  C   UNL     1     121.139 117.017 119.590  1.00  0.00     0.087 C 
ENDBRANCH   6   7
ENDBRANCH   5   6
ENDBRANCH   1   5
TORSDOF 5
ENDMDL
MODEL 9
REMARK VINA RESULT:    -3.601      1.469      2.008
REMARK INTER + INTRA:          -5.274
REMARK INTER:                  -4.683
REMARK INTRA:                  -0.591
REMARK UNBOUND:                -0.620
REMARK SMILES CCCCCCC(C)=O
REMARK SMILES IDX 4 1 3 2 2 3 1 4 5 5 6 6 7 7 9 8 8 9
REMARK H PARENT
REMARK Flexibility Score: inf
ROOT
ATOM      1  C   UNL     1     119.767 118.240 117.542  1.00  0.00     0.000 C 
ENDROOT
BRANCH   1   2
ATOM      2  C   UNL     1     118.232 118.252 117.473  1.00  0.00    -0.000 C 
BRANCH   2   3
ATOM      3  C   UNL     1     117.686 119.667 117.694  1.00  0.00    -0.003 C 
ATOM      4  C   UNL     1     116.766 119.721 118.911  1.00  0.00     0.004 C 
ENDBRANCH   2   3
ENDBRANCH   1   2
BRANCH   1   5
ATOM      5  C   UNL     1     120.295 117.691 118.878  1.00  0.00     0.008 C 
BRANCH   5   6
ATOM      6  C   UNL     1     121.209 118.687 119.607  1.00  0.00     0.075 C 
BRANCH   6   7
ATOM      7  C   UNL     1     120.409 119.828 120.171  1.00  0.00     0.129 C 
ATOM      8  O   UNL     1     119.614 119.623 121.076  1.00  0.00    -0.300 OA
ATOM      9  C   UNL     1     120.564 121.213 119.617  1.00  0.00     0.087 C 
ENDBRANCH   6   7
ENDBRANCH   5   6
ENDBRANCH   1   5
TORSDOF 5
ENDMDL
