MODEL 1
REMARK VINA RESULT:     0.951      0.000      0.000
REMARK INTER + INTRA:           0.945
REMARK INTER:                   1.506
REMARK INTRA:                  -0.561
REMARK UNBOUND:                -0.561
REMARK SMILES CCCCCCCCCCCC(=O)[O-]
REMARK SMILES IDX 7 1 8 2 9 3 10 4 11 5 12 6 13 7 14 8 6 9 5 10 4 11 3 12 2 13
REMARK SMILES IDX 1 14
REMARK H PARENT
REMARK Flexibility Score: inf
ROOT
ATOM      1  C   UNL     1     -17.160   4.637 -19.288  1.00  0.00     0.000 C 
ENDROOT
BRANCH   1   2
ATOM      2  C   UNL     1     -18.195   3.508 -19.383  1.00  0.00     0.000 C 
BRANCH   2   3
ATOM      3  C   UNL     1     -18.444   2.875 -18.006  1.00  0.00     0.000 C 
BRANCH   3   4
ATOM      4  C   UNL     1     -19.851   3.172 -17.462  1.00  0.00     0.006 C 
BRANCH   4   5
ATOM      5  C   UNL     1     -20.953   2.898 -18.494  1.00  0.00     0.053 C 
BRANCH   5   6
ATOM      6  C   UNL     1     -21.627   4.173 -18.888  1.00  0.00     0.041 C 
ATOM      7  O   UNL     1     -22.859   4.183 -19.151  1.00  0.00    -0.550 OA
ATOM      8  O   UNL     1     -20.907   5.360 -18.918  1.00  0.00    -0.550 OA
ENDBRANCH   5   6
ENDBRANCH   4   5
ENDBRANCH   3   4
ENDBRANCH   2   3
ENDBRANCH   1   2
BRANCH   1   9
ATOM      9  C   UNL     1     -15.741   4.183 -19.676  1.00  0.00     0.000 C 
BRANCH   9  10
ATOM     10  C   UNL     1     -14.602   5.086 -19.161  1.00  0.00    -0.000 C 
BRANCH  10  11
ATOM     11  C   UNL     1     -13.875   4.568 -17.907  1.00  0.00    -0.000 C 
BRANCH  11  12
ATOM     12  C   UNL     1     -14.447   3.239 -17.393  1.00  0.00    -0.000 C 
BRANCH  12  13
ATOM     13  C   UNL     1     -13.928   2.928 -15.984  1.00  0.00    -0.003 C 
ATOM     14  C   UNL     1     -14.985   3.232 -14.926  1.00  0.00     0.004 C 
ENDBRANCH  12  13
ENDBRANCH  11  12
ENDBRANCH  10  11
ENDBRANCH   9  10
ENDBRANCH   1   9
TORSDOF 10
ENDMDL
MODEL 2
REMARK VINA RESULT:     2.037      1.907      2.909
REMARK INTER + INTRA:           2.667
REMARK INTER:                   2.974
REMARK INTRA:                  -0.307
REMARK UNBOUND:                -0.561
REMARK SMILES CCCCCCCCCCCC(=O)[O-]
REMARK SMILES IDX 7 1 8 2 9 3 10 4 11 5 12 6 13 7 14 8 6 9 5 10 4 11 3 12 2 13
REMARK SMILES IDX 1 14
REMARK H PARENT
REMARK Flexibility Score: inf
ROOT
ATOM      1  C   UNL     1     -18.912   5.421 -19.652  1.00  0.00     0.000 C 
ENDROOT
BRANCH   1   2
ATOM      2  C   UNL     1     -20.140   6.121 -19.055  1.00  0.00     0.000 C 
BRANCH   2   3
ATOM      3  C   UNL     1     -20.905   5.178 -18.115  1.00  0.00     0.000 C 
BRANCH   3   4
ATOM      4  C   UNL     1     -21.371   3.891 -18.816  1.00  0.00     0.006 C 
BRANCH   4   5
ATOM      5  C   UNL     1     -21.981   2.875 -17.842  1.00  0.00     0.053 C 
BRANCH   5   6
ATOM      6  C   UNL     1     -21.230   2.875 -16.549  1.00  0.00     0.041 C 
ATOM      7  O   UNL     1     -19.971   2.877 -16.548  1.00  0.00    -0.550 OA
ATOM      8  O   UNL     1     -21.920   2.924 -15.344  1.00  0.00    -0.550 OA
ENDBRANCH   5   6
ENDBRANCH   4   5
ENDBRANCH   3   4
ENDBRANCH   2   3
ENDBRANCH   1   2
BRANCH   1   9
ATOM      9  C   UNL     1     -18.047   4.719 -18.589  1.00  0.00     0.000 C 
BRANCH   9  10
ATOM     10  C   UNL     1     -17.384   3.405 -19.050  1.00  0.00    -0.000 C 
BRANCH  10  11
ATOM     11  C   UNL     1     -16.074   3.577 -19.838  1.00  0.00    -0.000 C 
BRANCH  11  12
ATOM     12  C   UNL     1     -15.032   4.418 -19.086  1.00  0.00    -0.000 C 
BRANCH  12  13
ATOM     13  C   UNL     1     -13.972   3.523 -18.434  1.00  0.00    -0.003 C 
ATOM     14  C   UNL     1     -14.230   3.362 -16.938  1.00  0.00     0.004 C 
ENDBRANCH  12  13
ENDBRANCH  11  12
ENDBRANCH  10  11
ENDBRANCH   9  10
ENDBRANCH   1   9
TORSDOF 10
ENDMDL
MODEL 3
REMARK VINA RESULT:     3.032      4.017      7.078
REMARK INTER + INTRA:           4.244
REMARK INTER:                   4.587
REMARK INTRA:                  -0.344
REMARK UNBOUND:                -0.561
REMARK SMILES CCCCCCCCCCCC(=O)[O-]
REMARK SMILES IDX 7 1 8 2 9 3 10 4 11 5 12 6 13 7 14 8 6 9 5 10 4 11 3 12 2 13
REMARK SMILES IDX 1 14
REMARK H PARENT
REMARK Flexibility Score: inf
ROOT
ATOM      1  C   UNL     1     -19.600   5.175 -19.055  1.00  0.00     0.000 C 
ENDROOT
BRANCH   1   2
ATOM      2  C   UNL     1     -19.474   3.661 -19.270  1.00  0.00     0.000 C 
BRANCH   2   3
ATOM      3  C   UNL     1     -18.095   3.302 -19.845  1.00  0.00     0.000 C 
BRANCH   3   4
ATOM      4  C   UNL     1     -16.938   3.771 -18.948  1.00  0.00     0.006 C 
BRANCH   4   5
ATOM      5  C   UNL     1     -15.742   4.295 -19.752  1.00  0.00     0.053 C 
BRANCH   5   6
ATOM      6  C   UNL     1     -14.598   4.610 -18.842  1.00  0.00     0.041 C 
ATOM      7  O   UNL     1     -14.187   3.749 -18.020  1.00  0.00    -0.550 OA
ATOM      8  O   UNL     1     -13.952   5.836 -18.934  1.00  0.00    -0.550 OA
ENDBRANCH   5   6
ENDBRANCH   4   5
ENDBRANCH   3   4
ENDBRANCH   2   3
ENDBRANCH   1   2
BRANCH   1   9
ATOM      9  C   UNL     1     -20.973   5.728 -19.477  1.00  0.00     0.000 C 
BRANCH   9  10
ATOM     10  C   UNL     1     -21.117   7.261 -19.384  1.00  0.00    -0.000 C 
BRANCH  10  11
ATOM     11  C   UNL     1     -21.725   7.781 -18.070  1.00  0.00    -0.000 C 
BRANCH  11  12
ATOM     12  C   UNL     1     -22.951   8.677 -18.293  1.00  0.00    -0.000 C 
BRANCH  12  13
ATOM     13  C   UNL     1     -23.133   9.657 -17.128  1.00  0.00    -0.003 C 
ATOM     14  C   UNL     1     -22.090   9.421 -16.040  1.00  0.00     0.004 C 
ENDBRANCH  12  13
ENDBRANCH  11  12
ENDBRANCH  10  11
ENDBRANCH   9  10
ENDBRANCH   1   9
TORSDOF 10
ENDMDL
MODEL 4
REMARK VINA RESULT:     3.335     19.611     22.300
REMARK INTER + INTRA:           4.724
REMARK INTER:                   3.035
REMARK INTRA:                   1.689
REMARK UNBOUND:                -0.561
REMARK SMILES CCCCCCCCCCCC(=O)[O-]
REMARK SMILES IDX 7 1 8 2 9 3 10 4 11 5 12 6 13 7 14 8 6 9 5 10 4 11 3 12 2 13
REMARK SMILES IDX 1 14
REMARK H PARENT
REMARK Flexibility Score: inf
ROOT
ATOM      1  C   UNL     1     -31.868  18.109 -10.431  1.00  0.00     0.000 C 
ENDROOT
BRANCH   1   2
ATOM      2  C   UNL     1     -32.209  16.613 -10.390  1.00  0.00     0.000 C 
BRANCH   2   3
ATOM      3  C   UNL     1     -31.130  15.785 -11.103  1.00  0.00     0.000 C 
BRANCH   3   4
ATOM      4  C   UNL     1     -29.717  16.360 -10.910  1.00  0.00     0.006 C 
BRANCH   4   5
ATOM      5  C   UNL     1     -29.613  17.829 -11.340  1.00  0.00     0.053 C 
BRANCH   5   6
ATOM      6  C   UNL     1     -29.160  17.925 -12.762  1.00  0.00     0.041 C 
ATOM      7  O   UNL     1     -28.682  19.003 -13.204  1.00  0.00    -0.550 OA
ATOM      8  O   UNL     1     -29.217  16.809 -13.587  1.00  0.00    -0.550 OA
ENDBRANCH   5   6
ENDBRANCH   4   5
ENDBRANCH   3   4
ENDBRANCH   2   3
ENDBRANCH   1   2
BRANCH   1   9
ATOM      9  C   UNL     1     -33.116  19.009 -10.398  1.00  0.00     0.000 C 
BRANCH   9  10
ATOM     10  C   UNL     1     -32.841  20.496 -10.094  1.00  0.00    -0.000 C 
BRANCH  10  11
ATOM     11  C   UNL     1     -31.912  21.206 -11.096  1.00  0.00    -0.000 C 
BRANCH  11  12
ATOM     12  C   UNL     1     -31.577  22.646 -10.681  1.00  0.00    -0.000 C 
BRANCH  12  13
ATOM     13  C   UNL     1     -32.492  23.117  -9.546  1.00  0.00    -0.003 C 
ATOM     14  C   UNL     1     -33.954  23.125  -9.983  1.00  0.00     0.004 C 
ENDBRANCH  12  13
ENDBRANCH  11  12
ENDBRANCH  10  11
ENDBRANCH   9  10
ENDBRANCH   1   9
TORSDOF 10
ENDMDL
MODEL 5
REMARK VINA RESULT:     3.395      3.433      4.650
REMARK INTER + INTRA:           4.819
REMARK INTER:                   5.250
REMARK INTRA:                  -0.431
REMARK UNBOUND:                -0.561
REMARK SMILES CCCCCCCCCCCC(=O)[O-]
REMARK SMILES IDX 7 1 8 2 9 3 10 4 11 5 12 6 13 7 14 8 6 9 5 10 4 11 3 12 2 13
REMARK SMILES IDX 1 14
REMARK H PARENT
REMARK Flexibility Score: inf
ROOT
ATOM      1  C   UNL     1     -20.633   4.865 -19.722  1.00  0.00     0.000 C 
ENDROOT
BRANCH   1   2
ATOM      2  C   UNL     1     -20.167   6.297 -19.425  1.00  0.00     0.000 C 
BRANCH   2   3
ATOM      3  C   UNL     1     -21.362   7.261 -19.370  1.00  0.00     0.000 C 
BRANCH   3   4
ATOM      4  C   UNL     1     -21.687   7.722 -17.940  1.00  0.00     0.006 C 
BRANCH   4   5
ATOM      5  C   UNL     1     -22.719   8.857 -17.905  1.00  0.00     0.053 C 
BRANCH   5   6
ATOM      6  C   UNL     1     -22.695   9.543 -16.577  1.00  0.00     0.041 C 
ATOM      7  O   UNL     1     -23.773   9.855 -16.005  1.00  0.00    -0.550 OA
ATOM      8  O   UNL     1     -21.484   9.794 -15.945  1.00  0.00    -0.550 OA
ENDBRANCH   5   6
ENDBRANCH   4   5
ENDBRANCH   3   4
ENDBRANCH   2   3
ENDBRANCH   1   2
BRANCH   1   9
ATOM      9  C   UNL     1     -19.468   3.864 -19.820  1.00  0.00     0.000 C 
BRANCH   9  10
ATOM     10  C   UNL     1     -18.112   4.386 -19.304  1.00  0.00    -0.000 C 
BRANCH  10  11
ATOM     11  C   UNL     1     -17.531   3.614 -18.106  1.00  0.00    -0.000 C 
BRANCH  11  12
ATOM     12  C   UNL     1     -16.040   3.287 -18.274  1.00  0.00    -0.000 C 
BRANCH  12  13
ATOM     13  C   UNL     1     -15.415   4.135 -19.389  1.00  0.00    -0.003 C 
ATOM     14  C   UNL     1     -14.232   4.945 -18.868  1.00  0.00     0.004 C 
ENDBRANCH  12  13
ENDBRANCH  11  12
ENDBRANCH  10  11
ENDBRANCH   9  10
ENDBRANCH   1   9
TORSDOF 10
ENDMDL
MODEL 6
REMARK VINA RESULT:     3.464      3.719      5.598
REMARK INTER + INTRA:           4.927
REMARK INTER:                   5.167
REMARK INTRA:                  -0.239
REMARK UNBOUND:                -0.561
REMARK SMILES CCCCCCCCCCCC(=O)[O-]
REMARK SMILES IDX 7 1 8 2 9 3 10 4 11 5 12 6 13 7 14 8 6 9 5 10 4 11 3 12 2 13
REMARK SMILES IDX 1 14
REMARK H PARENT
REMARK Flexibility Score: inf
ROOT
ATOM      1  C   UNL     1     -20.281   6.268 -19.239  1.00  0.00     0.000 C 
ENDROOT
BRANCH   1   2
ATOM      2  C   UNL     1     -21.476   7.213 -19.422  1.00  0.00     0.000 C 
BRANCH   2   3
ATOM      3  C   UNL     1     -21.850   7.888 -18.094  1.00  0.00     0.000 C 
BRANCH   3   4
ATOM      4  C   UNL     1     -23.060   8.826 -18.225  1.00  0.00     0.006 C 
BRANCH   4   5
ATOM      5  C   UNL     1     -23.272   9.695 -16.979  1.00  0.00     0.053 C 
BRANCH   5   6
ATOM      6  C   UNL     1     -22.132   9.529 -16.026  1.00  0.00     0.041 C 
ATOM      7  O   UNL     1     -22.238   8.754 -15.038  1.00  0.00    -0.550 OA
ATOM      8  O   UNL     1     -20.932  10.190 -16.256  1.00  0.00    -0.550 OA
ENDBRANCH   5   6
ENDBRANCH   4   5
ENDBRANCH   3   4
ENDBRANCH   2   3
ENDBRANCH   1   2
BRANCH   1   9
ATOM      9  C   UNL     1     -20.535   4.862 -19.812  1.00  0.00     0.000 C 
BRANCH   9  10
ATOM     10  C   UNL     1     -21.050   3.824 -18.795  1.00  0.00    -0.000 C 
BRANCH  10  11
ATOM     11  C   UNL     1     -19.955   3.007 -18.086  1.00  0.00    -0.000 C 
BRANCH  11  12
ATOM     12  C   UNL     1     -18.669   2.886 -18.917  1.00  0.00    -0.000 C 
BRANCH  12  13
ATOM     13  C   UNL     1     -17.446   3.315 -18.100  1.00  0.00    -0.003 C 
ATOM     14  C   UNL     1     -16.408   4.006 -18.980  1.00  0.00     0.004 C 
ENDBRANCH  12  13
ENDBRANCH  11  12
ENDBRANCH  10  11
ENDBRANCH   9  10
ENDBRANCH   1   9
TORSDOF 10
ENDMDL
