MODEL 1
REMARK VINA RESULT:    -6.217      0.000      0.000
REMARK INTER + INTRA:          -8.473
REMARK INTER:                  -7.852
REMARK INTRA:                  -0.621
REMARK UNBOUND:                -0.621
REMARK SMILES O=C(C=Cc1ccc(O)cc1)c1ccc(O)cc1O
REMARK SMILES IDX 4 1 3 2 5 3 6 4 7 5 8 6 11 7 10 8 9 9 2 11 1 12 12 13 18 14
REMARK SMILES IDX 13 15 17 16 14 17 15 18 19 19 16 21
REMARK H PARENT 9 10 19 20 16 22
REMARK Flexibility Score: inf
ROOT
ATOM      1  C   UNL     1      14.914  17.536  17.849  1.00  0.00     0.012 C 
ATOM      2  C   UNL     1      13.805  18.245  18.103  1.00  0.00     0.053 C 
ENDROOT
BRANCH   1   3
ATOM      3  C   UNL     1      15.378  16.406  18.691  1.00  0.00    -0.025 A 
ATOM      4  C   UNL     1      15.058  16.298  20.060  1.00  0.00     0.012 A 
ATOM      5  C   UNL     1      15.510  15.206  20.809  1.00  0.00     0.047 A 
ATOM      6  C   UNL     1      16.276  14.205  20.204  1.00  0.00     0.115 A 
ATOM      7  C   UNL     1      16.135  15.385  18.090  1.00  0.00     0.012 A 
ATOM      8  C   UNL     1      16.585  14.296  18.842  1.00  0.00     0.047 A 
BRANCH   6   9
ATOM      9  O   UNL     1      16.720  13.126  20.965  1.00  0.00    -0.508 OA
ATOM     10  H   UNL     1      16.116  12.338  21.168  1.00  0.00     0.293 HD
ENDBRANCH   6   9
ENDBRANCH   1   3
BRANCH   2  11
ATOM     11  C   UNL     1      13.380  19.376  17.249  1.00  0.00     0.189 C 
ATOM     12  O   UNL     1      14.242  20.123  16.711  1.00  0.00    -0.289 OA
BRANCH  11  13
ATOM     13  C   UNL     1      11.944  19.620  16.992  1.00  0.00     0.064 A 
ATOM     14  C   UNL     1      11.435  19.785  15.680  1.00  0.00     0.130 A 
ATOM     15  C   UNL     1      11.051  19.649  18.079  1.00  0.00     0.020 A 
ATOM     16  C   UNL     1      10.057  19.940  15.485  1.00  0.00     0.093 A 
ATOM     17  C   UNL     1       9.681  19.819  17.871  1.00  0.00     0.047 A 
ATOM     18  C   UNL     1       9.179  19.960  16.576  1.00  0.00     0.119 A 
BRANCH  14  19
ATOM     19  O   UNL     1      12.265  19.829  14.558  1.00  0.00    -0.507 OA
ATOM     20  H   UNL     1      12.668  19.005  14.134  1.00  0.00     0.293 HD
ENDBRANCH  14  19
BRANCH  18  21
ATOM     21  O   UNL     1       7.809  20.121  16.383  1.00  0.00    -0.508 OA
ATOM     22  H   UNL     1       7.444  20.778  15.703  1.00  0.00     0.293 HD
ENDBRANCH  18  21
ENDBRANCH  11  13
ENDBRANCH   2  11
TORSDOF 6
ENDMDL
MODEL 2
REMARK VINA RESULT:    -5.994      2.084      7.653
REMARK INTER + INTRA:          -8.192
REMARK INTER:                  -7.666
REMARK INTRA:                  -0.526
REMARK UNBOUND:                -0.621
REMARK SMILES O=C(C=Cc1ccc(O)cc1)c1ccc(O)cc1O
REMARK SMILES IDX 4 1 3 2 5 3 6 4 7 5 8 6 11 7 10 8 9 9 2 11 1 12 12 13 18 14
REMARK SMILES IDX 13 15 17 16 14 17 15 18 19 19 16 21
REMARK H PARENT 9 10 19 20 16 22
REMARK Flexibility Score: inf
ROOT
ATOM      1  C   UNL     1      13.570  18.624  18.425  1.00  0.00     0.012 C 
ATOM      2  C   UNL     1      13.782  17.392  18.907  1.00  0.00     0.053 C 
ENDROOT
BRANCH   1   3
ATOM      3  C   UNL     1      12.324  19.031  17.728  1.00  0.00    -0.025 A 
ATOM      4  C   UNL     1      12.300  19.394  16.366  1.00  0.00     0.012 A 
ATOM      5  C   UNL     1      11.097  19.759  15.752  1.00  0.00     0.047 A 
ATOM      6  C   UNL     1       9.905  19.757  16.481  1.00  0.00     0.115 A 
ATOM      7  C   UNL     1      11.116  19.017  18.447  1.00  0.00     0.012 A 
ATOM      8  C   UNL     1       9.916  19.383  17.829  1.00  0.00     0.047 A 
BRANCH   6   9
ATOM      9  O   UNL     1       8.716  20.125  15.855  1.00  0.00    -0.508 OA
ATOM     10  H   UNL     1       7.941  19.477  15.768  1.00  0.00     0.293 HD
ENDBRANCH   6   9
ENDBRANCH   1   3
BRANCH   2  11
ATOM     11  C   UNL     1      15.043  17.017  19.584  1.00  0.00     0.189 C 
ATOM     12  O   UNL     1      15.144  17.117  20.837  1.00  0.00    -0.289 OA
BRANCH  11  13
ATOM     13  C   UNL     1      16.183  16.491  18.802  1.00  0.00     0.064 A 
ATOM     14  C   UNL     1      16.346  15.106  18.553  1.00  0.00     0.130 A 
ATOM     15  C   UNL     1      17.112  17.396  18.255  1.00  0.00     0.020 A 
ATOM     16  C   UNL     1      17.401  14.665  17.745  1.00  0.00     0.093 A 
ATOM     17  C   UNL     1      18.167  16.941  17.463  1.00  0.00     0.047 A 
ATOM     18  C   UNL     1      18.313  15.578  17.201  1.00  0.00     0.119 A 
BRANCH  14  19
ATOM     19  O   UNL     1      15.502  14.144  19.112  1.00  0.00    -0.507 OA
ATOM     20  H   UNL     1      15.767  13.176  19.231  1.00  0.00     0.293 HD
ENDBRANCH  14  19
BRANCH  18  21
ATOM     21  O   UNL     1      19.367  15.139  16.403  1.00  0.00    -0.508 OA
ATOM     22  H   UNL     1      20.333  15.292  16.670  1.00  0.00     0.293 HD
ENDBRANCH  18  21
ENDBRANCH  11  13
ENDBRANCH   2  11
TORSDOF 6
ENDMDL
MODEL 3
REMARK VINA RESULT:    -5.743      1.746      2.531
REMARK INTER + INTRA:          -7.875
REMARK INTER:                  -7.186
REMARK INTRA:                  -0.689
REMARK UNBOUND:                -0.621
REMARK SMILES O=C(C=Cc1ccc(O)cc1)c1ccc(O)cc1O
REMARK SMILES IDX 4 1 3 2 5 3 6 4 7 5 8 6 11 7 10 8 9 9 2 11 1 12 12 13 18 14
REMARK SMILES IDX 13 15 17 16 14 17 15 18 19 19 16 21
REMARK H PARENT 9 10 19 20 16 22
REMARK Flexibility Score: inf
ROOT
ATOM      1  C   UNL     1      13.788  17.611  18.493  1.00  0.00     0.012 C 
ATOM      2  C   UNL     1      13.614  18.937  18.400  1.00  0.00     0.053 C 
ENDROOT
BRANCH   1   3
ATOM      3  C   UNL     1      15.114  16.964  18.648  1.00  0.00    -0.025 A 
ATOM      4  C   UNL     1      15.326  15.861  19.500  1.00  0.00     0.012 A 
ATOM      5  C   UNL     1      16.594  15.279  19.602  1.00  0.00     0.047 A 
ATOM      6  C   UNL     1      17.662  15.778  18.851  1.00  0.00     0.115 A 
ATOM      7  C   UNL     1      16.191  17.447  17.885  1.00  0.00     0.012 A 
ATOM      8  C   UNL     1      17.457  16.862  17.990  1.00  0.00     0.047 A 
BRANCH   6   9
ATOM      9  O   UNL     1      18.918  15.188  18.966  1.00  0.00    -0.508 OA
ATOM     10  H   UNL     1      19.390  15.117  19.860  1.00  0.00     0.293 HD
ENDBRANCH   6   9
ENDBRANCH   1   3
BRANCH   2  11
ATOM     11  C   UNL     1      12.277  19.546  18.232  1.00  0.00     0.189 C 
ATOM     12  O   UNL     1      11.661  20.010  19.231  1.00  0.00    -0.289 OA
BRANCH  11  13
ATOM     13  C   UNL     1      11.664  19.646  16.889  1.00  0.00     0.064 A 
ATOM     14  C   UNL     1      10.259  19.693  16.709  1.00  0.00     0.130 A 
ATOM     15  C   UNL     1      12.500  19.739  15.762  1.00  0.00     0.020 A 
ATOM     16  C   UNL     1       9.730  19.862  15.423  1.00  0.00     0.093 A 
ATOM     17  C   UNL     1      11.958  19.894  14.484  1.00  0.00     0.047 A 
ATOM     18  C   UNL     1      10.575  19.961  14.311  1.00  0.00     0.119 A 
BRANCH  14  19
ATOM     19  O   UNL     1       9.365  19.545  17.771  1.00  0.00    -0.507 OA
ATOM     20  H   UNL     1       9.634  19.183  18.676  1.00  0.00     0.293 HD
ENDBRANCH  14  19
BRANCH  18  21
ATOM     21  O   UNL     1      10.049  20.123  13.031  1.00  0.00    -0.508 OA
ATOM     22  H   UNL     1       9.520  20.949  12.776  1.00  0.00     0.293 HD
ENDBRANCH  18  21
ENDBRANCH  11  13
ENDBRANCH   2  11
TORSDOF 6
ENDMDL
MODEL 4
REMARK VINA RESULT:    -5.724     13.762     17.282
REMARK INTER + INTRA:          -7.851
REMARK INTER:                  -7.249
REMARK INTRA:                  -0.601
REMARK UNBOUND:                -0.621
REMARK SMILES O=C(C=Cc1ccc(O)cc1)c1ccc(O)cc1O
REMARK SMILES IDX 4 1 3 2 5 3 6 4 7 5 8 6 11 7 10 8 9 9 2 11 1 12 12 13 18 14
REMARK SMILES IDX 13 15 17 16 14 17 15 18 19 19 16 21
REMARK H PARENT 9 10 19 20 16 22
REMARK Flexibility Score: inf
ROOT
ATOM      1  C   UNL     1       2.403  18.637   5.917  1.00  0.00     0.012 C 
ATOM      2  C   UNL     1       2.785  17.433   5.470  1.00  0.00     0.053 C 
ENDROOT
BRANCH   1   3
ATOM      3  C   UNL     1       2.234  18.965   7.355  1.00  0.00    -0.025 A 
ATOM      4  C   UNL     1       1.213  19.817   7.823  1.00  0.00     0.012 A 
ATOM      5  C   UNL     1       1.088  20.085   9.191  1.00  0.00     0.047 A 
ATOM      6  C   UNL     1       1.967  19.502  10.107  1.00  0.00     0.115 A 
ATOM      7  C   UNL     1       3.102  18.371   8.287  1.00  0.00     0.012 A 
ATOM      8  C   UNL     1       2.974  18.643   9.652  1.00  0.00     0.047 A 
BRANCH   6   9
ATOM      9  O   UNL     1       1.830  19.782  11.465  1.00  0.00    -0.508 OA
ATOM     10  H   UNL     1       1.322  19.161  12.084  1.00  0.00     0.293 HD
ENDBRANCH   6   9
ENDBRANCH   1   3
BRANCH   2  11
ATOM     11  C   UNL     1       2.930  17.138   4.027  1.00  0.00     0.189 C 
ATOM     12  O   UNL     1       2.913  18.076   3.183  1.00  0.00    -0.289 OA
BRANCH  11  13
ATOM     13  C   UNL     1       3.127  15.747   3.565  1.00  0.00     0.064 A 
ATOM     14  C   UNL     1       2.268  15.145   2.612  1.00  0.00     0.130 A 
ATOM     15  C   UNL     1       4.223  15.012   4.054  1.00  0.00     0.020 A 
ATOM     16  C   UNL     1       2.540  13.851   2.152  1.00  0.00     0.093 A 
ATOM     17  C   UNL     1       4.473  13.718   3.597  1.00  0.00     0.047 A 
ATOM     18  C   UNL     1       3.639  13.135   2.642  1.00  0.00     0.119 A 
BRANCH  14  19
ATOM     19  O   UNL     1       1.126  15.787   2.127  1.00  0.00    -0.507 OA
ATOM     20  H   UNL     1       0.230  15.329   2.034  1.00  0.00     0.293 HD
ENDBRANCH  14  19
BRANCH  18  21
ATOM     21  O   UNL     1       3.906  11.845   2.190  1.00  0.00    -0.508 OA
ATOM     22  H   UNL     1       3.736  11.033   2.773  1.00  0.00     0.293 HD
ENDBRANCH  18  21
ENDBRANCH  11  13
ENDBRANCH   2  11
TORSDOF 6
ENDMDL
MODEL 5
REMARK VINA RESULT:    -5.697     13.727     17.228
REMARK INTER + INTRA:          -7.817
REMARK INTER:                  -7.202
REMARK INTRA:                  -0.615
REMARK UNBOUND:                -0.621
REMARK SMILES O=C(C=Cc1ccc(O)cc1)c1ccc(O)cc1O
REMARK SMILES IDX 4 1 3 2 5 3 6 4 7 5 8 6 11 7 10 8 9 9 2 11 1 12 12 13 18 14
REMARK SMILES IDX 13 15 17 16 14 17 15 18 19 19 16 21
REMARK H PARENT 9 10 19 20 16 22
REMARK Flexibility Score: inf
ROOT
ATOM      1  C   UNL     1       2.507  18.620   5.768  1.00  0.00     0.012 C 
ATOM      2  C   UNL     1       2.886  17.446   5.243  1.00  0.00     0.053 C 
ENDROOT
BRANCH   1   3
ATOM      3  C   UNL     1       2.377  18.864   7.226  1.00  0.00    -0.025 A 
ATOM      4  C   UNL     1       3.272  18.319   8.170  1.00  0.00     0.012 A 
ATOM      5  C   UNL     1       3.113  18.589   9.533  1.00  0.00     0.047 A 
ATOM      6  C   UNL     1       2.072  19.411   9.973  1.00  0.00     0.115 A 
ATOM      7  C   UNL     1       1.343  19.702   7.678  1.00  0.00     0.012 A 
ATOM      8  C   UNL     1       1.188  19.969   9.042  1.00  0.00     0.047 A 
BRANCH   6   9
ATOM      9  O   UNL     1       1.927  19.668  11.334  1.00  0.00    -0.508 OA
ATOM     10  H   UNL     1       1.262  20.353  11.675  1.00  0.00     0.293 HD
ENDBRANCH   6   9
ENDBRANCH   1   3
BRANCH   2  11
ATOM     11  C   UNL     1       2.991  17.234   3.782  1.00  0.00     0.189 C 
ATOM     12  O   UNL     1       2.841  18.203   2.988  1.00  0.00    -0.289 OA
BRANCH  11  13
ATOM     13  C   UNL     1       3.303  15.893   3.242  1.00  0.00     0.064 A 
ATOM     14  C   UNL     1       4.399  15.674   2.371  1.00  0.00     0.130 A 
ATOM     15  C   UNL     1       2.516  14.796   3.637  1.00  0.00     0.020 A 
ATOM     16  C   UNL     1       4.697  14.373   1.945  1.00  0.00     0.093 A 
ATOM     17  C   UNL     1       2.816  13.507   3.194  1.00  0.00     0.047 A 
ATOM     18  C   UNL     1       3.908  13.290   2.353  1.00  0.00     0.119 A 
BRANCH  14  19
ATOM     19  O   UNL     1       5.188  16.719   1.886  1.00  0.00    -0.507 OA
ATOM     20  H   UNL     1       5.716  16.663   1.026  1.00  0.00     0.293 HD
ENDBRANCH  14  19
BRANCH  18  21
ATOM     21  O   UNL     1       4.201  11.998   1.925  1.00  0.00    -0.508 OA
ATOM     22  H   UNL     1       3.469  11.314   1.763  1.00  0.00     0.293 HD
ENDBRANCH  18  21
ENDBRANCH  11  13
ENDBRANCH   2  11
TORSDOF 6
ENDMDL
MODEL 6
REMARK VINA RESULT:    -5.658      2.562      7.626
REMARK INTER + INTRA:          -7.768
REMARK INTER:                  -7.105
REMARK INTRA:                  -0.662
REMARK UNBOUND:                -0.621
REMARK SMILES O=C(C=Cc1ccc(O)cc1)c1ccc(O)cc1O
REMARK SMILES IDX 4 1 3 2 5 3 6 4 7 5 8 6 11 7 10 8 9 9 2 11 1 12 12 13 18 14
REMARK SMILES IDX 13 15 17 16 14 17 15 18 19 19 16 21
REMARK H PARENT 9 10 19 20 16 22
REMARK Flexibility Score: inf
ROOT
ATOM      1  C   UNL     1      13.954  19.139  18.208  1.00  0.00     0.012 C 
ATOM      2  C   UNL     1      14.206  18.234  19.163  1.00  0.00     0.053 C 
ENDROOT
BRANCH   1   3
ATOM      3  C   UNL     1      12.603  19.385  17.644  1.00  0.00    -0.025 A 
ATOM      4  C   UNL     1      12.385  19.612  16.269  1.00  0.00     0.012 A 
ATOM      5  C   UNL     1      11.090  19.827  15.785  1.00  0.00     0.047 A 
ATOM      6  C   UNL     1       9.999  19.809  16.658  1.00  0.00     0.115 A 
ATOM      7  C   UNL     1      11.497  19.354  18.510  1.00  0.00     0.012 A 
ATOM      8  C   UNL     1      10.205  19.570  18.021  1.00  0.00     0.047 A 
BRANCH   6   9
ATOM      9  O   UNL     1       8.716  20.028  16.160  1.00  0.00    -0.508 OA
ATOM     10  H   UNL     1       8.178  20.844  16.424  1.00  0.00     0.293 HD
ENDBRANCH   6   9
ENDBRANCH   1   3
BRANCH   2  11
ATOM     11  C   UNL     1      15.569  18.005  19.692  1.00  0.00     0.189 C 
ATOM     12  O   UNL     1      15.854  18.338  20.875  1.00  0.00    -0.289 OA
BRANCH  11  13
ATOM     13  C   UNL     1      16.598  17.356  18.851  1.00  0.00     0.064 A 
ATOM     14  C   UNL     1      17.975  17.661  18.984  1.00  0.00     0.130 A 
ATOM     15  C   UNL     1      16.203  16.378  17.920  1.00  0.00     0.020 A 
ATOM     16  C   UNL     1      18.918  16.966  18.215  1.00  0.00     0.093 A 
ATOM     17  C   UNL     1      17.152  15.703  17.150  1.00  0.00     0.047 A 
ATOM     18  C   UNL     1      18.510  15.989  17.298  1.00  0.00     0.119 A 
BRANCH  14  19
ATOM     19  O   UNL     1      18.439  18.662  19.841  1.00  0.00    -0.507 OA
ATOM     20  H   UNL     1      18.457  18.566  20.847  1.00  0.00     0.293 HD
ENDBRANCH  14  19
BRANCH  18  21
ATOM     21  O   UNL     1      19.446  15.303  16.529  1.00  0.00    -0.508 OA
ATOM     22  H   UNL     1      19.692  14.339  16.728  1.00  0.00     0.293 HD
ENDBRANCH  18  21
ENDBRANCH  11  13
ENDBRANCH   2  11
TORSDOF 6
ENDMDL
MODEL 7
REMARK VINA RESULT:    -5.605      1.415      7.451
REMARK INTER + INTRA:          -7.701
REMARK INTER:                  -7.149
REMARK INTRA:                  -0.552
REMARK UNBOUND:                -0.621
REMARK SMILES O=C(C=Cc1ccc(O)cc1)c1ccc(O)cc1O
REMARK SMILES IDX 4 1 3 2 5 3 6 4 7 5 8 6 11 7 10 8 9 9 2 11 1 12 12 13 18 14
REMARK SMILES IDX 13 15 17 16 14 17 15 18 19 19 16 21
REMARK H PARENT 9 10 19 20 16 22
REMARK Flexibility Score: inf
ROOT
ATOM      1  C   UNL     1      13.405  18.803  18.209  1.00  0.00     0.012 C 
ATOM      2  C   UNL     1      14.412  18.273  17.501  1.00  0.00     0.053 C 
ENDROOT
BRANCH   1   3
ATOM      3  C   UNL     1      12.088  19.160  17.625  1.00  0.00    -0.025 A 
ATOM      4  C   UNL     1      11.907  19.391  16.246  1.00  0.00     0.012 A 
ATOM      5  C   UNL     1      10.642  19.714  15.743  1.00  0.00     0.047 A 
ATOM      6  C   UNL     1       9.543  19.800  16.601  1.00  0.00     0.115 A 
ATOM      7  C   UNL     1      10.972  19.234  18.477  1.00  0.00     0.012 A 
ATOM      8  C   UNL     1       9.710  19.557  17.969  1.00  0.00     0.047 A 
BRANCH   6   9
ATOM      9  O   UNL     1       8.291  20.124  16.084  1.00  0.00    -0.508 OA
ATOM     10  H   UNL     1       7.876  19.591  15.329  1.00  0.00     0.293 HD
ENDBRANCH   6   9
ENDBRANCH   1   3
BRANCH   2  11
ATOM     11  C   UNL     1      15.717  17.942  18.114  1.00  0.00     0.189 C 
ATOM     12  O   UNL     1      16.669  18.769  18.064  1.00  0.00    -0.289 OA
BRANCH  11  13
ATOM     13  C   UNL     1      15.908  16.656  18.818  1.00  0.00     0.064 A 
ATOM     14  C   UNL     1      16.821  15.677  18.355  1.00  0.00     0.130 A 
ATOM     15  C   UNL     1      15.192  16.413  20.005  1.00  0.00     0.020 A 
ATOM     16  C   UNL     1      17.020  14.506  19.097  1.00  0.00     0.093 A 
ATOM     17  C   UNL     1      15.390  15.235  20.727  1.00  0.00     0.047 A 
ATOM     18  C   UNL     1      16.306  14.282  20.281  1.00  0.00     0.119 A 
BRANCH  14  19
ATOM     19  O   UNL     1      17.521  15.818  17.155  1.00  0.00    -0.507 OA
ATOM     20  H   UNL     1      17.068  15.950  16.261  1.00  0.00     0.293 HD
ENDBRANCH  14  19
BRANCH  18  21
ATOM     21  O   UNL     1      16.497  13.114  21.016  1.00  0.00    -0.508 OA
ATOM     22  H   UNL     1      16.505  12.203  20.571  1.00  0.00     0.293 HD
ENDBRANCH  18  21
ENDBRANCH  11  13
ENDBRANCH   2  11
TORSDOF 6
ENDMDL
MODEL 8
REMARK VINA RESULT:    -5.548     13.948     16.937
REMARK INTER + INTRA:          -7.628
REMARK INTER:                  -7.017
REMARK INTRA:                  -0.611
REMARK UNBOUND:                -0.621
REMARK SMILES O=C(C=Cc1ccc(O)cc1)c1ccc(O)cc1O
REMARK SMILES IDX 4 1 3 2 5 3 6 4 7 5 8 6 11 7 10 8 9 9 2 11 1 12 12 13 18 14
REMARK SMILES IDX 13 15 17 16 14 17 15 18 19 19 16 21
REMARK H PARENT 9 10 19 20 16 22
REMARK Flexibility Score: inf
ROOT
ATOM      1  C   UNL     1       3.076  17.064   3.660  1.00  0.00     0.012 C 
ATOM      2  C   UNL     1       2.940  17.362   4.960  1.00  0.00     0.053 C 
ENDROOT
BRANCH   1   3
ATOM      3  C   UNL     1       3.393  15.704   3.157  1.00  0.00    -0.025 A 
ATOM      4  C   UNL     1       2.741  14.548   3.634  1.00  0.00     0.012 A 
ATOM      5  C   UNL     1       3.068  13.289   3.119  1.00  0.00     0.047 A 
ATOM      6  C   UNL     1       4.036  13.165   2.119  1.00  0.00     0.115 A 
ATOM      7  C   UNL     1       4.354  15.570   2.140  1.00  0.00     0.012 A 
ATOM      8  C   UNL     1       4.677  14.309   1.629  1.00  0.00     0.047 A 
BRANCH   6   9
ATOM      9  O   UNL     1       4.351  11.904   1.618  1.00  0.00    -0.508 OA
ATOM     10  H   UNL     1       5.297  11.664   1.348  1.00  0.00     0.293 HD
ENDBRANCH   6   9
ENDBRANCH   1   3
BRANCH   2  11
ATOM     11  C   UNL     1       2.637  18.733   5.426  1.00  0.00     0.189 C 
ATOM     12  O   UNL     1       2.549  19.680   4.597  1.00  0.00    -0.289 OA
BRANCH  11  13
ATOM     13  C   UNL     1       2.404  19.000   6.862  1.00  0.00     0.064 A 
ATOM     14  C   UNL     1       1.221  19.628   7.325  1.00  0.00     0.130 A 
ATOM     15  C   UNL     1       3.365  18.582   7.800  1.00  0.00     0.020 A 
ATOM     16  C   UNL     1       1.014  19.792   8.700  1.00  0.00     0.093 A 
ATOM     17  C   UNL     1       3.153  18.765   9.168  1.00  0.00     0.047 A 
ATOM     18  C   UNL     1       1.977  19.364   9.622  1.00  0.00     0.119 A 
BRANCH  14  19
ATOM     19  O   UNL     1       0.250  20.125   6.452  1.00  0.00    -0.507 OA
ATOM     20  H   UNL     1      -0.498  19.559   6.074  1.00  0.00     0.293 HD
ENDBRANCH  14  19
BRANCH  18  21
ATOM     21  O   UNL     1       1.775  19.533  10.990  1.00  0.00    -0.508 OA
ATOM     22  H   UNL     1       1.027  20.116  11.347  1.00  0.00     0.293 HD
ENDBRANCH  18  21
ENDBRANCH  11  13
ENDBRANCH   2  11
TORSDOF 6
ENDMDL
MODEL 9
REMARK VINA RESULT:    -5.408      1.952      2.447
REMARK INTER + INTRA:          -7.451
REMARK INTER:                  -7.633
REMARK INTRA:                   0.181
REMARK UNBOUND:                -0.621
REMARK SMILES O=C(C=Cc1ccc(O)cc1)c1ccc(O)cc1O
REMARK SMILES IDX 4 1 3 2 5 3 6 4 7 5 8 6 11 7 10 8 9 9 2 11 1 12 12 13 18 14
REMARK SMILES IDX 13 15 17 16 14 17 15 18 19 19 16 21
REMARK H PARENT 9 10 19 20 16 22
REMARK Flexibility Score: inf
ROOT
ATOM      1  C   UNL     1      14.313  17.525  18.692  1.00  0.00     0.012 C 
ATOM      2  C   UNL     1      14.150  18.855  18.686  1.00  0.00     0.053 C 
ENDROOT
BRANCH   1   3
ATOM      3  C   UNL     1      15.476  16.836  18.078  1.00  0.00    -0.025 A 
ATOM      4  C   UNL     1      15.763  15.476  18.315  1.00  0.00     0.012 A 
ATOM      5  C   UNL     1      16.865  14.869  17.703  1.00  0.00     0.047 A 
ATOM      6  C   UNL     1      17.686  15.602  16.842  1.00  0.00     0.115 A 
ATOM      7  C   UNL     1      16.299  17.560  17.198  1.00  0.00     0.012 A 
ATOM      8  C   UNL     1      17.399  16.949  16.589  1.00  0.00     0.047 A 
BRANCH   6   9
ATOM      9  O   UNL     1      18.780  14.983  16.242  1.00  0.00    -0.508 OA
ATOM     10  H   UNL     1      18.768  14.719  15.264  1.00  0.00     0.293 HD
ENDBRANCH   6   9
ENDBRANCH   1   3
BRANCH   2  11
ATOM     11  C   UNL     1      12.970  19.507  19.295  1.00  0.00     0.189 C 
ATOM     12  O   UNL     1      13.018  19.919  20.487  1.00  0.00    -0.289 OA
BRANCH  11  13
ATOM     13  C   UNL     1      11.737  19.712  18.504  1.00  0.00     0.064 A 
ATOM     14  C   UNL     1      11.733  19.634  17.089  1.00  0.00     0.130 A 
ATOM     15  C   UNL     1      10.525  19.950  19.177  1.00  0.00     0.020 A 
ATOM     16  C   UNL     1      10.527  19.762  16.390  1.00  0.00     0.093 A 
ATOM     17  C   UNL     1       9.332  20.090  18.467  1.00  0.00     0.047 A 
ATOM     18  C   UNL     1       9.326  19.991  17.075  1.00  0.00     0.119 A 
BRANCH  14  19
ATOM     19  O   UNL     1      12.905  19.462  16.349  1.00  0.00    -0.507 OA
ATOM     20  H   UNL     1      12.981  19.698  15.369  1.00  0.00     0.293 HD
ENDBRANCH  14  19
BRANCH  18  21
ATOM     21  O   UNL     1       8.127  20.125  16.380  1.00  0.00    -0.508 OA
ATOM     22  H   UNL     1       7.766  21.035  16.116  1.00  0.00     0.293 HD
ENDBRANCH  18  21
ENDBRANCH  11  13
ENDBRANCH   2  11
TORSDOF 6
ENDMDL
