MODEL 1
REMARK VINA RESULT:    -4.072      0.000      0.000
REMARK INTER + INTRA:         -16.318
REMARK INTER:                 -10.738
REMARK INTRA:                  -5.580
REMARK UNBOUND:                -5.580
REMARK SMILES CCCCCCCCCCCCCCCCCCCCCCCCCCCCCC(=O)[O-]
REMARK SMILES IDX 16 1 17 2 18 3 19 4 20 5 21 6 22 7 23 8 24 9 25 10 26 11
REMARK SMILES IDX 27 12 28 13 29 14 30 15 31 16 32 17 15 18 14 19 13 20 12 21
REMARK SMILES IDX 11 22 10 23 9 24 8 25 7 26 6 27 5 28 4 29 3 30 2 31 1 32
REMARK H PARENT
REMARK Flexibility Score: inf
ROOT
ATOM      1  C   UNL     1     -43.867 -50.933  35.572  1.00  0.00     0.000 C 
ENDROOT
BRANCH   1   2
ATOM      2  C   UNL     1     -43.053 -50.215  34.481  1.00  0.00     0.000 C 
BRANCH   2   3
ATOM      3  C   UNL     1     -43.076 -48.675  34.554  1.00  0.00     0.000 C 
BRANCH   3   4
ATOM      4  C   UNL     1     -41.674 -48.029  34.569  1.00  0.00     0.000 C 
BRANCH   4   5
ATOM      5  C   UNL     1     -40.564 -49.035  34.925  1.00  0.00     0.000 C 
BRANCH   5   6
ATOM      6  C   UNL     1     -39.583 -48.478  35.969  1.00  0.00     0.000 C 
BRANCH   6   7
ATOM      7  C   UNL     1     -39.525 -49.346  37.238  1.00  0.00     0.000 C 
BRANCH   7   8
ATOM      8  C   UNL     1     -40.797 -50.185  37.446  1.00  0.00     0.000 C 
BRANCH   8   9
ATOM      9  C   UNL     1     -41.733 -49.682  38.561  1.00  0.00     0.000 C 
BRANCH   9  10
ATOM     10  C   UNL     1     -42.213 -48.239  38.332  1.00  0.00     0.000 C 
BRANCH  10  11
ATOM     11  C   UNL     1     -42.010 -47.335  39.563  1.00  0.00     0.000 C 
BRANCH  11  12
ATOM     12  C   UNL     1     -43.287 -46.657  40.103  1.00  0.00     0.000 C 
BRANCH  12  13
ATOM     13  C   UNL     1     -43.069 -45.298  40.793  1.00  0.00     0.006 C 
BRANCH  13  14
ATOM     14  C   UNL     1     -41.869 -45.299  41.751  1.00  0.00     0.053 C 
BRANCH  14  15
ATOM     15  C   UNL     1     -40.765 -44.435  41.222  1.00  0.00     0.041 C 
ATOM     16  O   UNL     1     -39.563 -44.775  41.384  1.00  0.00    -0.550 OA
ATOM     17  O   UNL     1     -41.062 -43.253  40.553  1.00  0.00    -0.550 OA
ENDBRANCH  14  15
ENDBRANCH  13  14
ENDBRANCH  12  13
ENDBRANCH  11  12
ENDBRANCH  10  11
ENDBRANCH   9  10
ENDBRANCH   8   9
ENDBRANCH   7   8
ENDBRANCH   6   7
ENDBRANCH   5   6
ENDBRANCH   4   5
ENDBRANCH   3   4
ENDBRANCH   2   3
ENDBRANCH   1   2
BRANCH   1  18
ATOM     18  C   UNL     1     -44.848 -50.037  36.355  1.00  0.00     0.000 C 
BRANCH  18  19
ATOM     19  C   UNL     1     -46.086 -50.782  36.906  1.00  0.00     0.000 C 
BRANCH  19  20
ATOM     20  C   UNL     1     -46.540 -50.338  38.313  1.00  0.00     0.000 C 
BRANCH  20  21
ATOM     21  C   UNL     1     -45.628 -49.310  39.011  1.00  0.00     0.000 C 
BRANCH  21  22
ATOM     22  C   UNL     1     -44.959 -49.854  40.282  1.00  0.00     0.000 C 
BRANCH  22  23
ATOM     23  C   UNL     1     -45.820 -50.955  40.919  1.00  0.00     0.000 C 
BRANCH  23  24
ATOM     24  C   UNL     1     -45.048 -52.268  41.121  1.00  0.00    -0.000 C 
BRANCH  24  25
ATOM     25  C   UNL     1     -43.809 -52.373  40.213  1.00  0.00    -0.000 C 
BRANCH  25  26
ATOM     26  C   UNL     1     -44.092 -53.148  38.917  1.00  0.00    -0.000 C 
BRANCH  26  27
ATOM     27  C   UNL     1     -45.068 -54.315  39.128  1.00  0.00    -0.000 C 
BRANCH  27  28
ATOM     28  C   UNL     1     -46.088 -54.389  37.981  1.00  0.00    -0.000 C 
BRANCH  28  29
ATOM     29  C   UNL     1     -47.522 -54.628  38.484  1.00  0.00    -0.000 C 
BRANCH  29  30
ATOM     30  C   UNL     1     -48.094 -53.413  39.230  1.00  0.00    -0.000 C 
BRANCH  30  31
ATOM     31  C   UNL     1     -48.445 -53.777  40.677  1.00  0.00    -0.003 C 
ATOM     32  C   UNL     1     -49.169 -52.630  41.374  1.00  0.00     0.004 C 
ENDBRANCH  30  31
ENDBRANCH  29  30
ENDBRANCH  28  29
ENDBRANCH  27  28
ENDBRANCH  26  27
ENDBRANCH  25  26
ENDBRANCH  24  25
ENDBRANCH  23  24
ENDBRANCH  22  23
ENDBRANCH  21  22
ENDBRANCH  20  21
ENDBRANCH  19  20
ENDBRANCH  18  19
ENDBRANCH   1  18
TORSDOF 28
ENDMDL
MODEL 2
REMARK VINA RESULT:    -4.070      1.788      6.666
REMARK INTER + INTRA:         -16.310
REMARK INTER:                 -10.286
REMARK INTRA:                  -6.025
REMARK UNBOUND:                -5.580
REMARK SMILES CCCCCCCCCCCCCCCCCCCCCCCCCCCCCC(=O)[O-]
REMARK SMILES IDX 16 1 17 2 18 3 19 4 20 5 21 6 22 7 23 8 24 9 25 10 26 11
REMARK SMILES IDX 27 12 28 13 29 14 30 15 31 16 32 17 15 18 14 19 13 20 12 21
REMARK SMILES IDX 11 22 10 23 9 24 8 25 7 26 6 27 5 28 4 29 3 30 2 31 1 32
REMARK H PARENT
REMARK Flexibility Score: inf
ROOT
ATOM      1  C   UNL     1     -47.111 -50.628  41.235  1.00  0.00     0.000 C 
ENDROOT
BRANCH   1   2
ATOM      2  C   UNL     1     -48.279 -51.402  41.873  1.00  0.00     0.000 C 
BRANCH   2   3
ATOM      3  C   UNL     1     -48.113 -52.935  41.896  1.00  0.00     0.000 C 
BRANCH   3   4
ATOM      4  C   UNL     1     -48.716 -53.648  40.668  1.00  0.00     0.000 C 
BRANCH   4   5
ATOM      5  C   UNL     1     -47.812 -54.774  40.135  1.00  0.00     0.000 C 
BRANCH   5   6
ATOM      6  C   UNL     1     -47.487 -54.607  38.642  1.00  0.00     0.000 C 
BRANCH   6   7
ATOM      7  C   UNL     1     -47.942 -53.244  38.092  1.00  0.00     0.000 C 
BRANCH   7   8
ATOM      8  C   UNL     1     -46.820 -52.494  37.354  1.00  0.00     0.000 C 
BRANCH   8   9
ATOM      9  C   UNL     1     -46.843 -50.963  37.519  1.00  0.00     0.000 C 
BRANCH   9  10
ATOM     10  C   UNL     1     -45.790 -50.254  36.651  1.00  0.00     0.000 C 
BRANCH  10  11
ATOM     11  C   UNL     1     -45.339 -48.903  37.236  1.00  0.00     0.000 C 
BRANCH  11  12
ATOM     12  C   UNL     1     -43.876 -48.851  37.728  1.00  0.00     0.000 C 
BRANCH  12  13
ATOM     13  C   UNL     1     -43.695 -48.868  39.257  1.00  0.00     0.006 C 
BRANCH  13  14
ATOM     14  C   UNL     1     -44.321 -47.648  39.947  1.00  0.00     0.053 C 
BRANCH  14  15
ATOM     15  C   UNL     1     -43.301 -46.568  40.147  1.00  0.00     0.041 C 
ATOM     16  O   UNL     1     -42.083 -46.801  39.933  1.00  0.00    -0.550 OA
ATOM     17  O   UNL     1     -43.696 -45.303  40.573  1.00  0.00    -0.550 OA
ENDBRANCH  14  15
ENDBRANCH  13  14
ENDBRANCH  12  13
ENDBRANCH  11  12
ENDBRANCH  10  11
ENDBRANCH   9  10
ENDBRANCH   8   9
ENDBRANCH   7   8
ENDBRANCH   6   7
ENDBRANCH   5   6
ENDBRANCH   4   5
ENDBRANCH   3   4
ENDBRANCH   2   3
ENDBRANCH   1   2
BRANCH   1  18
ATOM     18  C   UNL     1     -45.870 -51.478  40.892  1.00  0.00     0.000 C 
BRANCH  18  19
ATOM     19  C   UNL     1     -44.728 -51.380  41.930  1.00  0.00     0.000 C 
BRANCH  19  20
ATOM     20  C   UNL     1     -44.092 -52.729  42.327  1.00  0.00     0.000 C 
BRANCH  20  21
ATOM     21  C   UNL     1     -44.516 -53.940  41.472  1.00  0.00     0.000 C 
BRANCH  21  22
ATOM     22  C   UNL     1     -43.443 -54.377  40.463  1.00  0.00     0.000 C 
BRANCH  22  23
ATOM     23  C   UNL     1     -43.846 -53.975  39.035  1.00  0.00     0.000 C 
BRANCH  23  24
ATOM     24  C   UNL     1     -43.327 -52.584  38.643  1.00  0.00    -0.000 C 
BRANCH  24  25
ATOM     25  C   UNL     1     -42.079 -52.647  37.744  1.00  0.00    -0.000 C 
BRANCH  25  26
ATOM     26  C   UNL     1     -42.218 -51.784  36.480  1.00  0.00    -0.000 C 
BRANCH  26  27
ATOM     27  C   UNL     1     -43.267 -52.336  35.502  1.00  0.00    -0.000 C 
BRANCH  27  28
ATOM     28  C   UNL     1     -42.834 -52.101  34.046  1.00  0.00    -0.000 C 
BRANCH  28  29
ATOM     29  C   UNL     1     -42.178 -50.725  33.842  1.00  0.00    -0.000 C 
BRANCH  29  30
ATOM     30  C   UNL     1     -43.211 -49.606  33.636  1.00  0.00    -0.000 C 
BRANCH  30  31
ATOM     31  C   UNL     1     -42.810 -48.344  34.408  1.00  0.00    -0.003 C 
ATOM     32  C   UNL     1     -41.326 -48.358  34.756  1.00  0.00     0.004 C 
ENDBRANCH  30  31
ENDBRANCH  29  30
ENDBRANCH  28  29
ENDBRANCH  27  28
ENDBRANCH  26  27
ENDBRANCH  25  26
ENDBRANCH  24  25
ENDBRANCH  23  24
ENDBRANCH  22  23
ENDBRANCH  21  22
ENDBRANCH  20  21
ENDBRANCH  19  20
ENDBRANCH  18  19
ENDBRANCH   1  18
TORSDOF 28
ENDMDL
MODEL 3
REMARK VINA RESULT:    -3.937      2.322      6.053
REMARK INTER + INTRA:         -15.961
REMARK INTER:                  -9.570
REMARK INTRA:                  -6.391
REMARK UNBOUND:                -5.580
REMARK SMILES CCCCCCCCCCCCCCCCCCCCCCCCCCCCCC(=O)[O-]
REMARK SMILES IDX 16 1 17 2 18 3 19 4 20 5 21 6 22 7 23 8 24 9 25 10 26 11
REMARK SMILES IDX 27 12 28 13 29 14 30 15 31 16 32 17 15 18 14 19 13 20 12 21
REMARK SMILES IDX 11 22 10 23 9 24 8 25 7 26 6 27 5 28 4 29 3 30 2 31 1 32
REMARK H PARENT
REMARK Flexibility Score: inf
ROOT
ATOM      1  C   UNL     1     -48.344 -53.253  39.701  1.00  0.00     0.000 C 
ENDROOT
BRANCH   1   2
ATOM      2  C   UNL     1     -47.212 -54.068  39.051  1.00  0.00     0.000 C 
BRANCH   2   3
ATOM      3  C   UNL     1     -46.580 -53.426  37.798  1.00  0.00     0.000 C 
BRANCH   3   4
ATOM      4  C   UNL     1     -47.330 -52.176  37.291  1.00  0.00     0.000 C 
BRANCH   4   5
ATOM      5  C   UNL     1     -46.466 -50.903  37.353  1.00  0.00     0.000 C 
BRANCH   5   6
ATOM      6  C   UNL     1     -47.314 -49.623  37.427  1.00  0.00     0.000 C 
BRANCH   6   7
ATOM      7  C   UNL     1     -46.461 -48.349  37.319  1.00  0.00     0.000 C 
BRANCH   7   8
ATOM      8  C   UNL     1     -45.050 -48.523  37.907  1.00  0.00     0.000 C 
BRANCH   8   9
ATOM      9  C   UNL     1     -44.728 -47.616  39.109  1.00  0.00     0.000 C 
BRANCH   9  10
ATOM     10  C   UNL     1     -43.460 -48.052  39.863  1.00  0.00     0.000 C 
BRANCH  10  11
ATOM     11  C   UNL     1     -42.189 -47.977  38.996  1.00  0.00     0.000 C 
BRANCH  11  12
ATOM     12  C   UNL     1     -41.027 -48.886  39.448  1.00  0.00     0.000 C 
BRANCH  12  13
ATOM     13  C   UNL     1     -40.844 -49.014  40.971  1.00  0.00     0.006 C 
BRANCH  13  14
ATOM     14  C   UNL     1     -41.058 -50.446  41.481  1.00  0.00     0.053 C 
BRANCH  14  15
ATOM     15  C   UNL     1     -39.779 -51.020  42.010  1.00  0.00     0.041 C 
ATOM     16  O   UNL     1     -38.812 -50.262  42.286  1.00  0.00    -0.550 OA
ATOM     17  O   UNL     1     -39.652 -52.393  42.196  1.00  0.00    -0.550 OA
ENDBRANCH  14  15
ENDBRANCH  13  14
ENDBRANCH  12  13
ENDBRANCH  11  12
ENDBRANCH  10  11
ENDBRANCH   9  10
ENDBRANCH   8   9
ENDBRANCH   7   8
ENDBRANCH   6   7
ENDBRANCH   5   6
ENDBRANCH   4   5
ENDBRANCH   3   4
ENDBRANCH   2   3
ENDBRANCH   1   2
BRANCH   1  18
ATOM     18  C   UNL     1     -48.432 -53.362  41.237  1.00  0.00     0.000 C 
BRANCH  18  19
ATOM     19  C   UNL     1     -47.804 -52.169  41.995  1.00  0.00     0.000 C 
BRANCH  19  20
ATOM     20  C   UNL     1     -47.463 -50.947  41.116  1.00  0.00     0.000 C 
BRANCH  20  21
ATOM     21  C   UNL     1     -45.960 -50.672  40.915  1.00  0.00     0.000 C 
BRANCH  21  22
ATOM     22  C   UNL     1     -45.055 -51.717  41.586  1.00  0.00     0.000 C 
BRANCH  22  23
ATOM     23  C   UNL     1     -44.167 -52.413  40.543  1.00  0.00     0.000 C 
BRANCH  23  24
ATOM     24  C   UNL     1     -43.811 -51.498  39.362  1.00  0.00    -0.000 C 
BRANCH  24  25
ATOM     25  C   UNL     1     -43.018 -52.228  38.263  1.00  0.00    -0.000 C 
BRANCH  25  26
ATOM     26  C   UNL     1     -42.581 -51.290  37.127  1.00  0.00    -0.000 C 
BRANCH  26  27
ATOM     27  C   UNL     1     -43.184 -51.686  35.771  1.00  0.00    -0.000 C 
BRANCH  27  28
ATOM     28  C   UNL     1     -43.896 -50.490  35.119  1.00  0.00    -0.000 C 
BRANCH  28  29
ATOM     29  C   UNL     1     -42.991 -49.736  34.130  1.00  0.00    -0.000 C 
BRANCH  29  30
ATOM     30  C   UNL     1     -42.660 -48.312  34.603  1.00  0.00    -0.000 C 
BRANCH  30  31
ATOM     31  C   UNL     1     -41.317 -48.281  35.341  1.00  0.00    -0.003 C 
ATOM     32  C   UNL     1     -40.287 -49.168  34.650  1.00  0.00     0.004 C 
ENDBRANCH  30  31
ENDBRANCH  29  30
ENDBRANCH  28  29
ENDBRANCH  27  28
ENDBRANCH  26  27
ENDBRANCH  25  26
ENDBRANCH  24  25
ENDBRANCH  23  24
ENDBRANCH  22  23
ENDBRANCH  21  22
ENDBRANCH  20  21
ENDBRANCH  19  20
ENDBRANCH  18  19
ENDBRANCH   1  18
TORSDOF 28
ENDMDL
MODEL 4
REMARK VINA RESULT:    -3.909      3.508      6.798
REMARK INTER + INTRA:         -15.887
REMARK INTER:                  -9.960
REMARK INTRA:                  -5.927
REMARK UNBOUND:                -5.580
REMARK SMILES CCCCCCCCCCCCCCCCCCCCCCCCCCCCCC(=O)[O-]
REMARK SMILES IDX 16 1 17 2 18 3 19 4 20 5 21 6 22 7 23 8 24 9 25 10 26 11
REMARK SMILES IDX 27 12 28 13 29 14 30 15 31 16 32 17 15 18 14 19 13 20 12 21
REMARK SMILES IDX 11 22 10 23 9 24 8 25 7 26 6 27 5 28 4 29 3 30 2 31 1 32
REMARK H PARENT
REMARK Flexibility Score: inf
ROOT
ATOM      1  C   UNL     1     -47.258 -50.174  37.229  1.00  0.00     0.000 C 
ENDROOT
BRANCH   1   2
ATOM      2  C   UNL     1     -46.309 -48.963  37.287  1.00  0.00     0.000 C 
BRANCH   2   3
ATOM      3  C   UNL     1     -44.822 -49.285  37.034  1.00  0.00     0.000 C 
BRANCH   3   4
ATOM      4  C   UNL     1     -43.855 -48.578  38.008  1.00  0.00     0.000 C 
BRANCH   4   5
ATOM      5  C   UNL     1     -44.591 -47.695  39.033  1.00  0.00     0.000 C 
BRANCH   5   6
ATOM      6  C   UNL     1     -43.636 -47.089  40.075  1.00  0.00     0.000 C 
BRANCH   6   7
ATOM      7  C   UNL     1     -42.301 -47.848  40.156  1.00  0.00     0.000 C 
BRANCH   7   8
ATOM      8  C   UNL     1     -42.040 -48.449  41.548  1.00  0.00     0.000 C 
BRANCH   8   9
ATOM      9  C   UNL     1     -42.197 -49.979  41.636  1.00  0.00     0.000 C 
BRANCH   9  10
ATOM     10  C   UNL     1     -43.619 -50.410  42.034  1.00  0.00     0.000 C 
BRANCH  10  11
ATOM     11  C   UNL     1     -44.406 -51.035  40.867  1.00  0.00     0.000 C 
BRANCH  11  12
ATOM     12  C   UNL     1     -45.841 -50.499  40.676  1.00  0.00     0.000 C 
BRANCH  12  13
ATOM     13  C   UNL     1     -46.945 -51.308  41.380  1.00  0.00     0.006 C 
BRANCH  13  14
ATOM     14  C   UNL     1     -46.575 -52.785  41.572  1.00  0.00     0.053 C 
BRANCH  14  15
ATOM     15  C   UNL     1     -47.760 -53.576  42.036  1.00  0.00     0.041 C 
ATOM     16  O   UNL     1     -48.924 -53.225  41.706  1.00  0.00    -0.550 OA
ATOM     17  O   UNL     1     -47.582 -54.700  42.836  1.00  0.00    -0.550 OA
ENDBRANCH  14  15
ENDBRANCH  13  14
ENDBRANCH  12  13
ENDBRANCH  11  12
ENDBRANCH  10  11
ENDBRANCH   9  10
ENDBRANCH   8   9
ENDBRANCH   7   8
ENDBRANCH   6   7
ENDBRANCH   5   6
ENDBRANCH   4   5
ENDBRANCH   3   4
ENDBRANCH   2   3
ENDBRANCH   1   2
BRANCH   1  18
ATOM     18  C   UNL     1     -46.564 -51.551  37.196  1.00  0.00     0.000 C 
BRANCH  18  19
ATOM     19  C   UNL     1     -47.488 -52.736  37.561  1.00  0.00     0.000 C 
BRANCH  19  20
ATOM     20  C   UNL     1     -46.765 -53.969  38.141  1.00  0.00     0.000 C 
BRANCH  20  21
ATOM     21  C   UNL     1     -45.354 -54.237  37.581  1.00  0.00     0.000 C 
BRANCH  21  22
ATOM     22  C   UNL     1     -44.306 -54.501  38.672  1.00  0.00     0.000 C 
BRANCH  22  23
ATOM     23  C   UNL     1     -42.967 -53.840  38.308  1.00  0.00     0.000 C 
BRANCH  23  24
ATOM     24  C   UNL     1     -43.134 -52.390  37.830  1.00  0.00    -0.000 C 
BRANCH  24  25
ATOM     25  C   UNL     1     -42.606 -52.172  36.400  1.00  0.00    -0.000 C 
BRANCH  25  26
ATOM     26  C   UNL     1     -41.102 -51.857  36.367  1.00  0.00    -0.000 C 
BRANCH  26  27
ATOM     27  C   UNL     1     -40.731 -50.659  37.254  1.00  0.00    -0.000 C 
BRANCH  27  28
ATOM     28  C   UNL     1     -40.006 -49.578  36.437  1.00  0.00    -0.000 C 
BRANCH  28  29
ATOM     29  C   UNL     1     -40.906 -48.367  36.134  1.00  0.00    -0.000 C 
BRANCH  29  30
ATOM     30  C   UNL     1     -41.221 -48.228  34.637  1.00  0.00    -0.000 C 
BRANCH  30  31
ATOM     31  C   UNL     1     -42.735 -48.249  34.394  1.00  0.00    -0.003 C 
ATOM     32  C   UNL     1     -43.182 -49.588  33.819  1.00  0.00     0.004 C 
ENDBRANCH  30  31
ENDBRANCH  29  30
ENDBRANCH  28  29
ENDBRANCH  27  28
ENDBRANCH  26  27
ENDBRANCH  25  26
ENDBRANCH  24  25
ENDBRANCH  23  24
ENDBRANCH  22  23
ENDBRANCH  21  22
ENDBRANCH  20  21
ENDBRANCH  19  20
ENDBRANCH  18  19
ENDBRANCH   1  18
TORSDOF 28
ENDMDL
MODEL 5
REMARK VINA RESULT:    -3.884      0.770      2.148
REMARK INTER + INTRA:         -15.822
REMARK INTER:                 -10.802
REMARK INTRA:                  -5.019
REMARK UNBOUND:                -5.580
REMARK SMILES CCCCCCCCCCCCCCCCCCCCCCCCCCCCCC(=O)[O-]
REMARK SMILES IDX 16 1 17 2 18 3 19 4 20 5 21 6 22 7 23 8 24 9 25 10 26 11
REMARK SMILES IDX 27 12 28 13 29 14 30 15 31 16 32 17 15 18 14 19 13 20 12 21
REMARK SMILES IDX 11 22 10 23 9 24 8 25 7 26 6 27 5 28 4 29 3 30 2 31 1 32
REMARK H PARENT
REMARK Flexibility Score: inf
ROOT
ATOM      1  C   UNL     1     -44.234 -50.685  35.691  1.00  0.00     0.000 C 
ENDROOT
BRANCH   1   2
ATOM      2  C   UNL     1     -43.407 -49.948  34.622  1.00  0.00     0.000 C 
BRANCH   2   3
ATOM      3  C   UNL     1     -43.109 -48.467  34.931  1.00  0.00     0.000 C 
BRANCH   3   4
ATOM      4  C   UNL     1     -41.699 -48.010  34.502  1.00  0.00     0.000 C 
BRANCH   4   5
ATOM      5  C   UNL     1     -40.587 -48.900  35.087  1.00  0.00     0.000 C 
BRANCH   5   6
ATOM      6  C   UNL     1     -39.753 -48.171  36.152  1.00  0.00     0.000 C 
BRANCH   6   7
ATOM      7  C   UNL     1     -39.730 -48.924  37.494  1.00  0.00     0.000 C 
BRANCH   7   8
ATOM      8  C   UNL     1     -40.826 -49.998  37.593  1.00  0.00     0.000 C 
BRANCH   8   9
ATOM      9  C   UNL     1     -41.890 -49.745  38.678  1.00  0.00     0.000 C 
BRANCH   9  10
ATOM     10  C   UNL     1     -42.553 -48.363  38.553  1.00  0.00     0.000 C 
BRANCH  10  11
ATOM     11  C   UNL     1     -42.322 -47.471  39.786  1.00  0.00     0.000 C 
BRANCH  11  12
ATOM     12  C   UNL     1     -43.494 -46.537  40.155  1.00  0.00     0.000 C 
BRANCH  12  13
ATOM     13  C   UNL     1     -43.146 -45.397  41.130  1.00  0.00     0.006 C 
BRANCH  13  14
ATOM     14  C   UNL     1     -41.787 -45.591  41.816  1.00  0.00     0.053 C 
BRANCH  14  15
ATOM     15  C   UNL     1     -40.790 -44.591  41.316  1.00  0.00     0.041 C 
ATOM     16  O   UNL     1     -39.564 -44.741  41.565  1.00  0.00    -0.550 OA
ATOM     17  O   UNL     1     -41.212 -43.491  40.576  1.00  0.00    -0.550 OA
ENDBRANCH  14  15
ENDBRANCH  13  14
ENDBRANCH  12  13
ENDBRANCH  11  12
ENDBRANCH  10  11
ENDBRANCH   9  10
ENDBRANCH   8   9
ENDBRANCH   7   8
ENDBRANCH   6   7
ENDBRANCH   5   6
ENDBRANCH   4   5
ENDBRANCH   3   4
ENDBRANCH   2   3
ENDBRANCH   1   2
BRANCH   1  18
ATOM     18  C   UNL     1     -45.131 -49.783  36.563  1.00  0.00     0.000 C 
BRANCH  18  19
ATOM     19  C   UNL     1     -46.404 -50.480  37.097  1.00  0.00     0.000 C 
BRANCH  19  20
ATOM     20  C   UNL     1     -46.728 -50.196  38.579  1.00  0.00     0.000 C 
BRANCH  20  21
ATOM     21  C   UNL     1     -45.513 -50.149  39.527  1.00  0.00     0.000 C 
BRANCH  21  22
ATOM     22  C   UNL     1     -45.808 -50.719  40.923  1.00  0.00     0.000 C 
BRANCH  22  23
ATOM     23  C   UNL     1     -47.318 -50.698  41.209  1.00  0.00     0.000 C 
BRANCH  23  24
ATOM     24  C   UNL     1     -47.857 -52.070  41.642  1.00  0.00    -0.000 C 
BRANCH  24  25
ATOM     25  C   UNL     1     -47.352 -53.216  40.747  1.00  0.00    -0.000 C 
BRANCH  25  26
ATOM     26  C   UNL     1     -48.136 -53.328  39.431  1.00  0.00    -0.000 C 
BRANCH  26  27
ATOM     27  C   UNL     1     -47.650 -54.490  38.552  1.00  0.00    -0.000 C 
BRANCH  27  28
ATOM     28  C   UNL     1     -46.332 -55.067  39.089  1.00  0.00    -0.000 C 
BRANCH  28  29
ATOM     29  C   UNL     1     -45.295 -55.298  37.976  1.00  0.00    -0.000 C 
BRANCH  29  30
ATOM     30  C   UNL     1     -44.788 -53.985  37.362  1.00  0.00    -0.000 C 
BRANCH  30  31
ATOM     31  C   UNL     1     -44.108 -53.112  38.422  1.00  0.00    -0.003 C 
ATOM     32  C   UNL     1     -42.798 -53.736  38.892  1.00  0.00     0.004 C 
ENDBRANCH  30  31
ENDBRANCH  29  30
ENDBRANCH  28  29
ENDBRANCH  27  28
ENDBRANCH  26  27
ENDBRANCH  25  26
ENDBRANCH  24  25
ENDBRANCH  23  24
ENDBRANCH  22  23
ENDBRANCH  21  22
ENDBRANCH  20  21
ENDBRANCH  19  20
ENDBRANCH  18  19
ENDBRANCH   1  18
TORSDOF 28
ENDMDL
MODEL 6
REMARK VINA RESULT:    -3.858      1.208      3.331
REMARK INTER + INTRA:         -15.753
REMARK INTER:                 -10.400
REMARK INTRA:                  -5.353
REMARK UNBOUND:                -5.580
REMARK SMILES CCCCCCCCCCCCCCCCCCCCCCCCCCCCCC(=O)[O-]
REMARK SMILES IDX 16 1 17 2 18 3 19 4 20 5 21 6 22 7 23 8 24 9 25 10 26 11
REMARK SMILES IDX 27 12 28 13 29 14 30 15 31 16 32 17 15 18 14 19 13 20 12 21
REMARK SMILES IDX 11 22 10 23 9 24 8 25 7 26 6 27 5 28 4 29 3 30 2 31 1 32
REMARK H PARENT
REMARK Flexibility Score: inf
ROOT
ATOM      1  C   UNL     1     -40.387 -50.191  37.671  1.00  0.00     0.000 C 
ENDROOT
BRANCH   1   2
ATOM      2  C   UNL     1     -40.789 -48.780  37.206  1.00  0.00     0.000 C 
BRANCH   2   3
ATOM      3  C   UNL     1     -39.934 -48.200  36.061  1.00  0.00     0.000 C 
BRANCH   3   4
ATOM      4  C   UNL     1     -40.449 -48.561  34.651  1.00  0.00     0.000 C 
BRANCH   4   5
ATOM      5  C   UNL     1     -41.984 -48.507  34.552  1.00  0.00     0.000 C 
BRANCH   5   6
ATOM      6  C   UNL     1     -42.592 -49.858  34.142  1.00  0.00     0.000 C 
BRANCH   6   7
ATOM      7  C   UNL     1     -43.793 -50.250  35.020  1.00  0.00     0.000 C 
BRANCH   7   8
ATOM      8  C   UNL     1     -44.231 -49.122  35.969  1.00  0.00     0.000 C 
BRANCH   8   9
ATOM      9  C   UNL     1     -45.286 -49.525  37.016  1.00  0.00     0.000 C 
BRANCH   9  10
ATOM     10  C   UNL     1     -45.368 -48.536  38.191  1.00  0.00     0.000 C 
BRANCH  10  11
ATOM     11  C   UNL     1     -43.998 -47.952  38.583  1.00  0.00     0.000 C 
BRANCH  11  12
ATOM     12  C   UNL     1     -43.877 -47.475  40.046  1.00  0.00     0.000 C 
BRANCH  12  13
ATOM     13  C   UNL     1     -42.494 -46.929  40.448  1.00  0.00     0.006 C 
BRANCH  13  14
ATOM     14  C   UNL     1     -42.500 -45.416  40.705  1.00  0.00     0.053 C 
BRANCH  14  15
ATOM     15  C   UNL     1     -41.653 -45.074  41.893  1.00  0.00     0.041 C 
ATOM     16  O   UNL     1     -41.239 -45.984  42.658  1.00  0.00    -0.550 OA
ATOM     17  O   UNL     1     -41.322 -43.749  42.158  1.00  0.00    -0.550 OA
ENDBRANCH  14  15
ENDBRANCH  13  14
ENDBRANCH  12  13
ENDBRANCH  11  12
ENDBRANCH  10  11
ENDBRANCH   9  10
ENDBRANCH   8   9
ENDBRANCH   7   8
ENDBRANCH   6   7
ENDBRANCH   5   6
ENDBRANCH   4   5
ENDBRANCH   3   4
ENDBRANCH   2   3
ENDBRANCH   1   2
BRANCH   1  18
ATOM     18  C   UNL     1     -41.506 -51.249  37.599  1.00  0.00     0.000 C 
BRANCH  18  19
ATOM     19  C   UNL     1     -41.892 -51.859  38.966  1.00  0.00     0.000 C 
BRANCH  19  20
ATOM     20  C   UNL     1     -43.271 -51.425  39.506  1.00  0.00     0.000 C 
BRANCH  20  21
ATOM     21  C   UNL     1     -43.311 -51.051  41.001  1.00  0.00     0.000 C 
BRANCH  21  22
ATOM     22  C   UNL     1     -44.725 -51.090  41.601  1.00  0.00     0.000 C 
BRANCH  22  23
ATOM     23  C   UNL     1     -45.786 -51.034  40.491  1.00  0.00     0.000 C 
BRANCH  23  24
ATOM     24  C   UNL     1     -47.186 -50.695  41.027  1.00  0.00    -0.000 C 
BRANCH  24  25
ATOM     25  C   UNL     1     -47.713 -51.749  42.018  1.00  0.00    -0.000 C 
BRANCH  25  26
ATOM     26  C   UNL     1     -48.886 -52.562  41.447  1.00  0.00    -0.000 C 
BRANCH  26  27
ATOM     27  C   UNL     1     -48.478 -53.989  41.053  1.00  0.00    -0.000 C 
BRANCH  27  28
ATOM     28  C   UNL     1     -48.011 -54.040  39.590  1.00  0.00    -0.000 C 
BRANCH  28  29
ATOM     29  C   UNL     1     -46.899 -55.079  39.363  1.00  0.00    -0.000 C 
BRANCH  29  30
ATOM     30  C   UNL     1     -45.508 -54.437  39.249  1.00  0.00    -0.000 C 
BRANCH  30  31
ATOM     31  C   UNL     1     -45.010 -54.467  37.800  1.00  0.00    -0.003 C 
ATOM     32  C   UNL     1     -45.355 -53.173  37.072  1.00  0.00     0.004 C 
ENDBRANCH  30  31
ENDBRANCH  29  30
ENDBRANCH  28  29
ENDBRANCH  27  28
ENDBRANCH  26  27
ENDBRANCH  25  26
ENDBRANCH  24  25
ENDBRANCH  23  24
ENDBRANCH  22  23
ENDBRANCH  21  22
ENDBRANCH  20  21
ENDBRANCH  19  20
ENDBRANCH  18  19
ENDBRANCH   1  18
TORSDOF 28
ENDMDL
MODEL 7
REMARK VINA RESULT:    -3.857      3.544      7.321
REMARK INTER + INTRA:         -15.749
REMARK INTER:                  -9.803
REMARK INTRA:                  -5.946
REMARK UNBOUND:                -5.580
REMARK SMILES CCCCCCCCCCCCCCCCCCCCCCCCCCCCCC(=O)[O-]
REMARK SMILES IDX 16 1 17 2 18 3 19 4 20 5 21 6 22 7 23 8 24 9 25 10 26 11
REMARK SMILES IDX 27 12 28 13 29 14 30 15 31 16 32 17 15 18 14 19 13 20 12 21
REMARK SMILES IDX 11 22 10 23 9 24 8 25 7 26 6 27 5 28 4 29 3 30 2 31 1 32
REMARK H PARENT
REMARK Flexibility Score: inf
ROOT
ATOM      1  C   UNL     1     -43.194 -47.548  39.390  1.00  0.00     0.000 C 
ENDROOT
BRANCH   1   2
ATOM      2  C   UNL     1     -42.841 -47.204  40.848  1.00  0.00     0.000 C 
BRANCH   2   3
ATOM      3  C   UNL     1     -42.076 -48.303  41.613  1.00  0.00     0.000 C 
BRANCH   3   4
ATOM      4  C   UNL     1     -41.268 -49.252  40.701  1.00  0.00     0.000 C 
BRANCH   4   5
ATOM      5  C   UNL     1     -41.201 -50.687  41.255  1.00  0.00     0.000 C 
BRANCH   5   6
ATOM      6  C   UNL     1     -41.800 -51.718  40.285  1.00  0.00     0.000 C 
BRANCH   6   7
ATOM      7  C   UNL     1     -43.140 -51.252  39.690  1.00  0.00     0.000 C 
BRANCH   7   8
ATOM      8  C   UNL     1     -44.356 -51.862  40.407  1.00  0.00     0.000 C 
BRANCH   8   9
ATOM      9  C   UNL     1     -45.159 -50.880  41.279  1.00  0.00     0.000 C 
BRANCH   9  10
ATOM     10  C   UNL     1     -46.550 -50.568  40.700  1.00  0.00     0.000 C 
BRANCH  10  11
ATOM     11  C   UNL     1     -47.695 -50.895  41.676  1.00  0.00     0.000 C 
BRANCH  11  12
ATOM     12  C   UNL     1     -47.491 -52.164  42.533  1.00  0.00     0.000 C 
BRANCH  12  13
ATOM     13  C   UNL     1     -48.251 -53.413  42.050  1.00  0.00     0.006 C 
BRANCH  13  14
ATOM     14  C   UNL     1     -49.002 -53.184  40.732  1.00  0.00     0.053 C 
BRANCH  14  15
ATOM     15  C   UNL     1     -48.262 -53.798  39.583  1.00  0.00     0.041 C 
ATOM     16  O   UNL     1     -48.204 -53.199  38.476  1.00  0.00    -0.550 OA
ATOM     17  O   UNL     1     -47.638 -55.032  39.731  1.00  0.00    -0.550 OA
ENDBRANCH  14  15
ENDBRANCH  13  14
ENDBRANCH  12  13
ENDBRANCH  11  12
ENDBRANCH  10  11
ENDBRANCH   9  10
ENDBRANCH   8   9
ENDBRANCH   7   8
ENDBRANCH   6   7
ENDBRANCH   5   6
ENDBRANCH   4   5
ENDBRANCH   3   4
ENDBRANCH   2   3
ENDBRANCH   1   2
BRANCH   1  18
ATOM     18  C   UNL     1     -44.683 -47.853  39.130  1.00  0.00     0.000 C 
BRANCH  18  19
ATOM     19  C   UNL     1     -44.994 -48.318  37.689  1.00  0.00     0.000 C 
BRANCH  19  20
ATOM     20  C   UNL     1     -46.421 -48.867  37.475  1.00  0.00     0.000 C 
BRANCH  20  21
ATOM     21  C   UNL     1     -46.508 -50.354  37.081  1.00  0.00     0.000 C 
BRANCH  21  22
ATOM     22  C   UNL     1     -45.155 -50.956  36.673  1.00  0.00     0.000 C 
BRANCH  22  23
ATOM     23  C   UNL     1     -45.162 -52.482  36.862  1.00  0.00     0.000 C 
BRANCH  23  24
ATOM     24  C   UNL     1     -43.946 -53.163  36.215  1.00  0.00    -0.000 C 
BRANCH  24  25
ATOM     25  C   UNL     1     -42.840 -52.164  35.832  1.00  0.00    -0.000 C 
BRANCH  25  26
ATOM     26  C   UNL     1     -42.420 -52.285  34.358  1.00  0.00    -0.000 C 
BRANCH  26  27
ATOM     27  C   UNL     1     -42.013 -50.935  33.749  1.00  0.00    -0.000 C 
BRANCH  27  28
ATOM     28  C   UNL     1     -43.194 -49.953  33.757  1.00  0.00    -0.000 C 
BRANCH  28  29
ATOM     29  C   UNL     1     -42.901 -48.686  34.580  1.00  0.00    -0.000 C 
BRANCH  29  30
ATOM     30  C   UNL     1     -41.456 -48.644  35.100  1.00  0.00    -0.000 C 
BRANCH  30  31
ATOM     31  C   UNL     1     -41.423 -48.735  36.629  1.00  0.00    -0.003 C 
ATOM     32  C   UNL     1     -40.380 -49.744  37.099  1.00  0.00     0.004 C 
ENDBRANCH  30  31
ENDBRANCH  29  30
ENDBRANCH  28  29
ENDBRANCH  27  28
ENDBRANCH  26  27
ENDBRANCH  25  26
ENDBRANCH  24  25
ENDBRANCH  23  24
ENDBRANCH  22  23
ENDBRANCH  21  22
ENDBRANCH  20  21
ENDBRANCH  19  20
ENDBRANCH  18  19
ENDBRANCH   1  18
TORSDOF 28
ENDMDL
MODEL 8
REMARK VINA RESULT:    -3.847      1.532      5.033
REMARK INTER + INTRA:         -15.723
REMARK INTER:                 -10.257
REMARK INTRA:                  -5.466
REMARK UNBOUND:                -5.580
REMARK SMILES CCCCCCCCCCCCCCCCCCCCCCCCCCCCCC(=O)[O-]
REMARK SMILES IDX 16 1 17 2 18 3 19 4 20 5 21 6 22 7 23 8 24 9 25 10 26 11
REMARK SMILES IDX 27 12 28 13 29 14 30 15 31 16 32 17 15 18 14 19 13 20 12 21
REMARK SMILES IDX 11 22 10 23 9 24 8 25 7 26 6 27 5 28 4 29 3 30 2 31 1 32
REMARK H PARENT
REMARK Flexibility Score: inf
ROOT
ATOM      1  C   UNL     1     -43.873 -48.802  36.047  1.00  0.00     0.000 C 
ENDROOT
BRANCH   1   2
ATOM      2  C   UNL     1     -44.831 -49.936  36.455  1.00  0.00     0.000 C 
BRANCH   2   3
ATOM      3  C   UNL     1     -46.216 -49.476  36.953  1.00  0.00     0.000 C 
BRANCH   3   4
ATOM      4  C   UNL     1     -47.235 -50.623  37.116  1.00  0.00     0.000 C 
BRANCH   4   5
ATOM      5  C   UNL     1     -46.584 -51.924  37.619  1.00  0.00     0.000 C 
BRANCH   5   6
ATOM      6  C   UNL     1     -47.623 -52.963  38.071  1.00  0.00     0.000 C 
BRANCH   6   7
ATOM      7  C   UNL     1     -47.682 -53.104  39.601  1.00  0.00     0.000 C 
BRANCH   7   8
ATOM      8  C   UNL     1     -47.366 -51.789  40.334  1.00  0.00     0.000 C 
BRANCH   8   9
ATOM      9  C   UNL     1     -46.455 -51.934  41.568  1.00  0.00     0.000 C 
BRANCH   9  10
ATOM     10  C   UNL     1     -45.110 -51.207  41.406  1.00  0.00     0.000 C 
BRANCH  10  11
ATOM     11  C   UNL     1     -45.116 -50.181  40.257  1.00  0.00     0.000 C 
BRANCH  11  12
ATOM     12  C   UNL     1     -43.840 -49.321  40.132  1.00  0.00     0.000 C 
BRANCH  12  13
ATOM     13  C   UNL     1     -44.061 -47.886  39.621  1.00  0.00     0.006 C 
BRANCH  13  14
ATOM     14  C   UNL     1     -42.807 -47.008  39.742  1.00  0.00     0.053 C 
BRANCH  14  15
ATOM     15  C   UNL     1     -43.127 -45.711  40.421  1.00  0.00     0.041 C 
ATOM     16  O   UNL     1     -44.323 -45.334  40.532  1.00  0.00    -0.550 OA
ATOM     17  O   UNL     1     -42.105 -44.917  40.930  1.00  0.00    -0.550 OA
ENDBRANCH  14  15
ENDBRANCH  13  14
ENDBRANCH  12  13
ENDBRANCH  11  12
ENDBRANCH  10  11
ENDBRANCH   9  10
ENDBRANCH   8   9
ENDBRANCH   7   8
ENDBRANCH   6   7
ENDBRANCH   5   6
ENDBRANCH   4   5
ENDBRANCH   3   4
ENDBRANCH   2   3
ENDBRANCH   1   2
BRANCH   1  18
ATOM     18  C   UNL     1     -43.159 -49.002  34.695  1.00  0.00     0.000 C 
BRANCH  18  19
ATOM     19  C   UNL     1     -41.918 -48.102  34.494  1.00  0.00     0.000 C 
BRANCH  19  20
ATOM     20  C   UNL     1     -40.604 -48.666  35.075  1.00  0.00     0.000 C 
BRANCH  20  21
ATOM     21  C   UNL     1     -40.326 -48.316  36.549  1.00  0.00     0.000 C 
BRANCH  21  22
ATOM     22  C   UNL     1     -40.178 -49.550  37.451  1.00  0.00     0.000 C 
BRANCH  22  23
ATOM     23  C   UNL     1     -40.697 -50.808  36.738  1.00  0.00     0.000 C 
BRANCH  23  24
ATOM     24  C   UNL     1     -41.739 -51.573  37.568  1.00  0.00    -0.000 C 
BRANCH  24  25
ATOM     25  C   UNL     1     -42.573 -52.550  36.719  1.00  0.00    -0.000 C 
BRANCH  25  26
ATOM     26  C   UNL     1     -43.186 -53.684  37.556  1.00  0.00    -0.000 C 
BRANCH  26  27
ATOM     27  C   UNL     1     -43.455 -53.265  39.009  1.00  0.00    -0.000 C 
BRANCH  27  28
ATOM     28  C   UNL     1     -44.017 -54.441  39.822  1.00  0.00    -0.000 C 
BRANCH  28  29
ATOM     29  C   UNL     1     -44.959 -55.331  38.993  1.00  0.00    -0.000 C 
BRANCH  29  30
ATOM     30  C   UNL     1     -45.694 -56.371  39.853  1.00  0.00    -0.000 C 
BRANCH  30  31
ATOM     31  C   UNL     1     -46.498 -57.336  38.975  1.00  0.00    -0.003 C 
ATOM     32  C   UNL     1     -47.820 -56.714  38.539  1.00  0.00     0.004 C 
ENDBRANCH  30  31
ENDBRANCH  29  30
ENDBRANCH  28  29
ENDBRANCH  27  28
ENDBRANCH  26  27
ENDBRANCH  25  26
ENDBRANCH  24  25
ENDBRANCH  23  24
ENDBRANCH  22  23
ENDBRANCH  21  22
ENDBRANCH  20  21
ENDBRANCH  19  20
ENDBRANCH  18  19
ENDBRANCH   1  18
TORSDOF 28
ENDMDL
MODEL 9
REMARK VINA RESULT:    -3.830      3.468      7.427
REMARK INTER + INTRA:         -15.678
REMARK INTER:                 -10.169
REMARK INTRA:                  -5.509
REMARK UNBOUND:                -5.580
REMARK SMILES CCCCCCCCCCCCCCCCCCCCCCCCCCCCCC(=O)[O-]
REMARK SMILES IDX 16 1 17 2 18 3 19 4 20 5 21 6 22 7 23 8 24 9 25 10 26 11
REMARK SMILES IDX 27 12 28 13 29 14 30 15 31 16 32 17 15 18 14 19 13 20 12 21
REMARK SMILES IDX 11 22 10 23 9 24 8 25 7 26 6 27 5 28 4 29 3 30 2 31 1 32
REMARK H PARENT
REMARK Flexibility Score: inf
ROOT
ATOM      1  C   UNL     1     -42.642 -51.785  35.212  1.00  0.00     0.000 C 
ENDROOT
BRANCH   1   2
ATOM      2  C   UNL     1     -43.627 -52.667  36.001  1.00  0.00     0.000 C 
BRANCH   2   3
ATOM      3  C   UNL     1     -44.350 -51.960  37.166  1.00  0.00     0.000 C 
BRANCH   3   4
ATOM      4  C   UNL     1     -45.844 -52.326  37.290  1.00  0.00     0.000 C 
BRANCH   4   5
ATOM      5  C   UNL     1     -46.766 -51.102  37.140  1.00  0.00     0.000 C 
BRANCH   5   6
ATOM      6  C   UNL     1     -46.009 -49.856  36.651  1.00  0.00     0.000 C 
BRANCH   6   7
ATOM      7  C   UNL     1     -46.117 -48.681  37.638  1.00  0.00     0.000 C 
BRANCH   7   8
ATOM      8  C   UNL     1     -44.773 -48.333  38.301  1.00  0.00     0.000 C 
BRANCH   8   9
ATOM      9  C   UNL     1     -44.643 -48.763  39.774  1.00  0.00     0.000 C 
BRANCH   9  10
ATOM     10  C   UNL     1     -43.670 -49.939  39.968  1.00  0.00     0.000 C 
BRANCH  10  11
ATOM     11  C   UNL     1     -44.040 -50.834  41.164  1.00  0.00     0.000 C 
BRANCH  11  12
ATOM     12  C   UNL     1     -45.167 -51.856  40.902  1.00  0.00     0.000 C 
BRANCH  12  13
ATOM     13  C   UNL     1     -46.520 -51.527  41.557  1.00  0.00     0.006 C 
BRANCH  13  14
ATOM     14  C   UNL     1     -47.679 -51.490  40.551  1.00  0.00     0.053 C 
BRANCH  14  15
ATOM     15  C   UNL     1     -48.373 -52.817  40.490  1.00  0.00     0.041 C 
ATOM     16  O   UNL     1     -48.035 -53.668  39.625  1.00  0.00    -0.550 OA
ATOM     17  O   UNL     1     -49.396 -53.113  41.384  1.00  0.00    -0.550 OA
ENDBRANCH  14  15
ENDBRANCH  13  14
ENDBRANCH  12  13
ENDBRANCH  11  12
ENDBRANCH  10  11
ENDBRANCH   9  10
ENDBRANCH   8   9
ENDBRANCH   7   8
ENDBRANCH   6   7
ENDBRANCH   5   6
ENDBRANCH   4   5
ENDBRANCH   3   4
ENDBRANCH   2   3
ENDBRANCH   1   2
BRANCH   1  18
ATOM     18  C   UNL     1     -43.130 -51.342  33.818  1.00  0.00     0.000 C 
BRANCH  18  19
ATOM     19  C   UNL     1     -43.179 -49.809  33.620  1.00  0.00     0.000 C 
BRANCH  19  20
ATOM     20  C   UNL     1     -43.000 -48.981  34.910  1.00  0.00     0.000 C 
BRANCH  20  21
ATOM     21  C   UNL     1     -41.722 -48.121  34.975  1.00  0.00     0.000 C 
BRANCH  21  22
ATOM     22  C   UNL     1     -40.654 -48.689  35.921  1.00  0.00     0.000 C 
BRANCH  22  23
ATOM     23  C   UNL     1     -41.296 -49.199  37.220  1.00  0.00     0.000 C 
BRANCH  23  24
ATOM     24  C   UNL     1     -41.208 -48.177  38.364  1.00  0.00    -0.000 C 
BRANCH  24  25
ATOM     25  C   UNL     1     -40.021 -48.443  39.308  1.00  0.00    -0.000 C 
BRANCH  25  26
ATOM     26  C   UNL     1     -39.867 -47.356  40.383  1.00  0.00    -0.000 C 
BRANCH  26  27
ATOM     27  C   UNL     1     -40.234 -47.860  41.787  1.00  0.00    -0.000 C 
BRANCH  27  28
ATOM     28  C   UNL     1     -41.748 -47.758  42.026  1.00  0.00    -0.000 C 
BRANCH  28  29
ATOM     29  C   UNL     1     -42.204 -46.315  42.304  1.00  0.00    -0.000 C 
BRANCH  29  30
ATOM     30  C   UNL     1     -43.159 -45.781  41.226  1.00  0.00    -0.000 C 
BRANCH  30  31
ATOM     31  C   UNL     1     -42.504 -44.648  40.428  1.00  0.00    -0.003 C 
ATOM     32  C   UNL     1     -41.258 -44.126  41.135  1.00  0.00     0.004 C 
ENDBRANCH  30  31
ENDBRANCH  29  30
ENDBRANCH  28  29
ENDBRANCH  27  28
ENDBRANCH  26  27
ENDBRANCH  25  26
ENDBRANCH  24  25
ENDBRANCH  23  24
ENDBRANCH  22  23
ENDBRANCH  21  22
ENDBRANCH  20  21
ENDBRANCH  19  20
ENDBRANCH  18  19
ENDBRANCH   1  18
TORSDOF 28
ENDMDL
