MODEL 1
REMARK VINA RESULT:    -5.029      0.000      0.000
REMARK INTER + INTRA:         -10.876
REMARK INTER:                  -9.733
REMARK INTRA:                  -1.143
REMARK UNBOUND:                -1.143
REMARK SMILES CCCCCC=CCC=CCCCCCCCCOC(C)=O
REMARK SMILES IDX 12 1 11 2 10 3 9 4 8 5 7 6 6 7 5 8 4 9 3 10 2 11 1 12 13 13
REMARK SMILES IDX 14 14 15 15 16 16 17 17 18 18 19 19 20 20 22 21 21 22
REMARK H PARENT
REMARK Flexibility Score: inf
ROOT
ATOM      1  C   UNL     1      71.971  51.903  25.172  1.00  0.00     0.004 C 
ENDROOT
BRANCH   1   2
ATOM      2  C   UNL     1      72.028  50.371  25.240  1.00  0.00     0.027 C 
BRANCH   2   3
ATOM      3  C   UNL     1      71.264  49.738  24.110  1.00  0.00    -0.031 C 
ATOM      4  C   UNL     1      70.180  50.324  23.577  1.00  0.00    -0.027 C 
BRANCH   4   5
ATOM      5  C   UNL     1      69.429  49.694  22.436  1.00  0.00     0.054 C 
BRANCH   5   6
ATOM      6  C   UNL     1      69.669  50.446  21.157  1.00  0.00    -0.027 C 
ATOM      7  C   UNL     1      70.260  51.649  21.155  1.00  0.00    -0.031 C 
BRANCH   7   8
ATOM      8  C   UNL     1      70.414  52.452  19.892  1.00  0.00     0.027 C 
BRANCH   8   9
ATOM      9  C   UNL     1      69.051  52.771  19.256  1.00  0.00     0.004 C 
BRANCH   9  10
ATOM     10  C   UNL     1      68.565  51.728  18.227  1.00  0.00     0.000 C 
BRANCH  10  11
ATOM     11  C   UNL     1      67.093  51.309  18.376  1.00  0.00    -0.003 C 
ATOM     12  C   UNL     1      66.922  49.968  19.088  1.00  0.00     0.004 C 
ENDBRANCH  10  11
ENDBRANCH   9  10
ENDBRANCH   8   9
ENDBRANCH   7   8
ENDBRANCH   5   6
ENDBRANCH   4   5
ENDBRANCH   2   3
ENDBRANCH   1   2
BRANCH   1  13
ATOM     13  C   UNL     1      71.759  52.540  26.557  1.00  0.00     0.000 C 
BRANCH  13  14
ATOM     14  C   UNL     1      71.372  54.025  26.479  1.00  0.00     0.000 C 
BRANCH  14  15
ATOM     15  C   UNL     1      70.434  54.453  27.622  1.00  0.00     0.000 C 
BRANCH  15  16
ATOM     16  C   UNL     1      68.971  54.607  27.165  1.00  0.00     0.003 C 
BRANCH  16  17
ATOM     17  C   UNL     1      68.765  55.497  25.926  1.00  0.00     0.042 C 
BRANCH  17  18
ATOM     18  C   UNL     1      67.549  56.424  26.053  1.00  0.00     0.233 C 
BRANCH  18  19
ATOM     19  O   UNL     1      67.019  56.731  24.763  1.00  0.00    -0.466 OA
BRANCH  19  20
ATOM     20  C   UNL     1      65.657  56.643  24.450  1.00  0.00     0.302 C 
ATOM     21  O   UNL     1      65.036  55.553  24.569  1.00  0.00    -0.253 OA
ATOM     22  C   UNL     1      64.924  57.866  24.013  1.00  0.00     0.139 C 
ENDBRANCH  19  20
ENDBRANCH  18  19
ENDBRANCH  17  18
ENDBRANCH  16  17
ENDBRANCH  15  16
ENDBRANCH  14  15
ENDBRANCH  13  14
ENDBRANCH   1  13
TORSDOF 16
ENDMDL
MODEL 2
REMARK VINA RESULT:    -4.973      1.724      2.248
REMARK INTER + INTRA:         -10.768
REMARK INTER:                  -9.195
REMARK INTRA:                  -1.572
REMARK UNBOUND:                -1.143
REMARK SMILES CCCCCC=CCC=CCCCCCCCCOC(C)=O
REMARK SMILES IDX 12 1 11 2 10 3 9 4 8 5 7 6 6 7 5 8 4 9 3 10 2 11 1 12 13 13
REMARK SMILES IDX 14 14 15 15 16 16 17 17 18 18 19 19 20 20 22 21 21 22
REMARK H PARENT
REMARK Flexibility Score: inf
ROOT
ATOM      1  C   UNL     1      72.998  51.328  24.605  1.00  0.00     0.004 C 
ENDROOT
BRANCH   1   2
ATOM      2  C   UNL     1      72.049  50.269  25.181  1.00  0.00     0.027 C 
BRANCH   2   3
ATOM      3  C   UNL     1      71.166  49.679  24.117  1.00  0.00    -0.031 C 
ATOM      4  C   UNL     1      70.131  50.362  23.601  1.00  0.00    -0.027 C 
BRANCH   4   5
ATOM      5  C   UNL     1      69.261  49.773  22.526  1.00  0.00     0.054 C 
BRANCH   5   6
ATOM      6  C   UNL     1      69.607  50.348  21.181  1.00  0.00    -0.027 C 
ATOM      7  C   UNL     1      69.655  51.673  20.980  1.00  0.00    -0.031 C 
BRANCH   7   8
ATOM      8  C   UNL     1      69.902  52.257  19.615  1.00  0.00     0.027 C 
BRANCH   8   9
ATOM      9  C   UNL     1      69.096  51.522  18.533  1.00  0.00     0.004 C 
BRANCH   9  10
ATOM     10  C   UNL     1      67.727  52.159  18.210  1.00  0.00     0.000 C 
BRANCH  10  11
ATOM     11  C   UNL     1      66.512  51.397  18.766  1.00  0.00    -0.003 C 
ATOM     12  C   UNL     1      66.832  49.949  19.135  1.00  0.00     0.004 C 
ENDBRANCH  10  11
ENDBRANCH   9  10
ENDBRANCH   8   9
ENDBRANCH   7   8
ENDBRANCH   5   6
ENDBRANCH   4   5
ENDBRANCH   2   3
ENDBRANCH   1   2
BRANCH   1  13
ATOM     13  C   UNL     1      72.706  52.735  25.157  1.00  0.00     0.000 C 
BRANCH  13  14
ATOM     14  C   UNL     1      71.926  52.707  26.480  1.00  0.00     0.000 C 
BRANCH  14  15
ATOM     15  C   UNL     1      71.849  54.090  27.152  1.00  0.00     0.000 C 
BRANCH  15  16
ATOM     16  C   UNL     1      71.983  55.248  26.146  1.00  0.00     0.003 C 
BRANCH  16  17
ATOM     17  C   UNL     1      72.036  56.653  26.773  1.00  0.00     0.042 C 
BRANCH  17  18
ATOM     18  C   UNL     1      71.148  57.668  26.042  1.00  0.00     0.233 C 
BRANCH  18  19
ATOM     19  O   UNL     1      70.019  57.015  25.461  1.00  0.00    -0.466 OA
BRANCH  19  20
ATOM     20  C   UNL     1      68.739  57.041  26.026  1.00  0.00     0.302 C 
ATOM     21  O   UNL     1      68.208  58.129  26.376  1.00  0.00    -0.253 OA
ATOM     22  C   UNL     1      67.975  55.768  26.173  1.00  0.00     0.139 C 
ENDBRANCH  19  20
ENDBRANCH  18  19
ENDBRANCH  17  18
ENDBRANCH  16  17
ENDBRANCH  15  16
ENDBRANCH  14  15
ENDBRANCH  13  14
ENDBRANCH   1  13
TORSDOF 16
ENDMDL
MODEL 3
REMARK VINA RESULT:    -4.950      2.622      7.135
REMARK INTER + INTRA:         -10.722
REMARK INTER:                  -9.153
REMARK INTRA:                  -1.569
REMARK UNBOUND:                -1.143
REMARK SMILES CCCCCC=CCC=CCCCCCCCCOC(C)=O
REMARK SMILES IDX 12 1 11 2 10 3 9 4 8 5 7 6 6 7 5 8 4 9 3 10 2 11 1 12 13 13
REMARK SMILES IDX 14 14 15 15 16 16 17 17 18 18 19 19 20 20 22 21 21 22
REMARK H PARENT
REMARK Flexibility Score: inf
ROOT
ATOM      1  C   UNL     1      69.767  50.676  21.184  1.00  0.00     0.004 C 
ENDROOT
BRANCH   1   2
ATOM      2  C   UNL     1      69.579  49.810  22.436  1.00  0.00     0.027 C 
BRANCH   2   3
ATOM      3  C   UNL     1      70.345  50.359  23.609  1.00  0.00    -0.031 C 
ATOM      4  C   UNL     1      71.331  49.663  24.195  1.00  0.00    -0.027 C 
BRANCH   4   5
ATOM      5  C   UNL     1      72.104  50.223  25.357  1.00  0.00     0.054 C 
BRANCH   5   6
ATOM      6  C   UNL     1      72.080  51.726  25.342  1.00  0.00    -0.027 C 
ATOM      7  C   UNL     1      72.053  52.436  26.480  1.00  0.00    -0.031 C 
BRANCH   7   8
ATOM      8  C   UNL     1      71.928  53.935  26.473  1.00  0.00     0.027 C 
BRANCH   8   9
ATOM      9  C   UNL     1      71.227  54.448  27.741  1.00  0.00     0.004 C 
BRANCH   9  10
ATOM     10  C   UNL     1      69.686  54.350  27.705  1.00  0.00     0.000 C 
BRANCH  10  11
ATOM     11  C   UNL     1      69.047  54.696  26.350  1.00  0.00    -0.003 C 
ATOM     12  C   UNL     1      68.125  55.913  26.417  1.00  0.00     0.004 C 
ENDBRANCH  10  11
ENDBRANCH   9  10
ENDBRANCH   8   9
ENDBRANCH   7   8
ENDBRANCH   5   6
ENDBRANCH   4   5
ENDBRANCH   2   3
ENDBRANCH   1   2
BRANCH   1  13
ATOM     13  C   UNL     1      70.096  52.139  21.532  1.00  0.00     0.000 C 
BRANCH  13  14
ATOM     14  C   UNL     1      71.191  52.735  20.633  1.00  0.00     0.000 C 
BRANCH  14  15
ATOM     15  C   UNL     1      70.809  54.116  20.072  1.00  0.00     0.000 C 
BRANCH  15  16
ATOM     16  C   UNL     1      69.535  54.077  19.207  1.00  0.00     0.003 C 
BRANCH  16  17
ATOM     17  C   UNL     1      69.701  53.404  17.833  1.00  0.00     0.042 C 
BRANCH  17  18
ATOM     18  C   UNL     1      68.719  52.246  17.613  1.00  0.00     0.233 C 
BRANCH  18  19
ATOM     19  O   UNL     1      67.940  52.022  18.787  1.00  0.00    -0.466 OA
BRANCH  19  20
ATOM     20  C   UNL     1      66.792  51.220  18.809  1.00  0.00     0.302 C 
ATOM     21  O   UNL     1      65.694  51.652  18.366  1.00  0.00    -0.253 OA
ATOM     22  C   UNL     1      66.882  49.823  19.321  1.00  0.00     0.139 C 
ENDBRANCH  19  20
ENDBRANCH  18  19
ENDBRANCH  17  18
ENDBRANCH  16  17
ENDBRANCH  15  16
ENDBRANCH  14  15
ENDBRANCH  13  14
ENDBRANCH   1  13
TORSDOF 16
ENDMDL
MODEL 4
REMARK VINA RESULT:    -4.947      1.509      2.362
REMARK INTER + INTRA:         -10.716
REMARK INTER:                  -8.678
REMARK INTRA:                  -2.038
REMARK UNBOUND:                -1.143
REMARK SMILES CCCCCC=CCC=CCCCCCCCCOC(C)=O
REMARK SMILES IDX 12 1 11 2 10 3 9 4 8 5 7 6 6 7 5 8 4 9 3 10 2 11 1 12 13 13
REMARK SMILES IDX 14 14 15 15 16 16 17 17 18 18 19 19 20 20 22 21 21 22
REMARK H PARENT
REMARK Flexibility Score: inf
ROOT
ATOM      1  C   UNL     1      70.871  53.521  27.020  1.00  0.00     0.004 C 
ENDROOT
BRANCH   1   2
ATOM      2  C   UNL     1      71.949  52.527  26.568  1.00  0.00     0.027 C 
BRANCH   2   3
ATOM      3  C   UNL     1      72.328  52.738  25.128  1.00  0.00    -0.031 C 
ATOM      4  C   UNL     1      71.542  52.321  24.124  1.00  0.00    -0.027 C 
BRANCH   4   5
ATOM      5  C   UNL     1      71.919  52.549  22.686  1.00  0.00     0.054 C 
BRANCH   5   6
ATOM      6  C   UNL     1      70.797  52.150  21.768  1.00  0.00    -0.027 C 
ATOM      7  C   UNL     1      70.177  50.967  21.896  1.00  0.00    -0.031 C 
BRANCH   7   8
ATOM      8  C   UNL     1      69.123  50.518  20.921  1.00  0.00     0.027 C 
BRANCH   8   9
ATOM      9  C   UNL     1      69.585  50.701  19.466  1.00  0.00     0.004 C 
BRANCH   9  10
ATOM     10  C   UNL     1      68.438  50.806  18.439  1.00  0.00     0.000 C 
BRANCH  10  11
ATOM     11  C   UNL     1      67.040  50.489  18.995  1.00  0.00    -0.003 C 
ATOM     12  C   UNL     1      66.002  51.557  18.647  1.00  0.00     0.004 C 
ENDBRANCH  10  11
ENDBRANCH   9  10
ENDBRANCH   8   9
ENDBRANCH   7   8
ENDBRANCH   5   6
ENDBRANCH   4   5
ENDBRANCH   2   3
ENDBRANCH   1   2
BRANCH   1  13
ATOM     13  C   UNL     1      71.471  54.859  27.486  1.00  0.00     0.000 C 
BRANCH  13  14
ATOM     14  C   UNL     1      71.206  56.008  26.501  1.00  0.00     0.000 C 
BRANCH  14  15
ATOM     15  C   UNL     1      70.031  55.715  25.553  1.00  0.00     0.000 C 
BRANCH  15  16
ATOM     16  C   UNL     1      70.399  55.909  24.070  1.00  0.00     0.003 C 
BRANCH  16  17
ATOM     17  C   UNL     1      69.232  55.743  23.081  1.00  0.00     0.042 C 
BRANCH  17  18
ATOM     18  C   UNL     1      68.121  56.781  23.289  1.00  0.00     0.233 C 
BRANCH  18  19
ATOM     19  O   UNL     1      66.846  56.143  23.347  1.00  0.00    -0.466 OA
BRANCH  19  20
ATOM     20  C   UNL     1      66.015  56.182  24.473  1.00  0.00     0.302 C 
ATOM     21  O   UNL     1      64.889  55.616  24.466  1.00  0.00    -0.253 OA
ATOM     22  C   UNL     1      66.489  56.864  25.712  1.00  0.00     0.139 C 
ENDBRANCH  19  20
ENDBRANCH  18  19
ENDBRANCH  17  18
ENDBRANCH  16  17
ENDBRANCH  15  16
ENDBRANCH  14  15
ENDBRANCH  13  14
ENDBRANCH   1  13
TORSDOF 16
ENDMDL
MODEL 5
REMARK VINA RESULT:    -4.941      3.254      6.563
REMARK INTER + INTRA:         -10.706
REMARK INTER:                  -8.131
REMARK INTRA:                  -2.575
REMARK UNBOUND:                -1.143
REMARK SMILES CCCCCC=CCC=CCCCCCCCCOC(C)=O
REMARK SMILES IDX 12 1 11 2 10 3 9 4 8 5 7 6 6 7 5 8 4 9 3 10 2 11 1 12 13 13
REMARK SMILES IDX 14 14 15 15 16 16 17 17 18 18 19 19 20 20 22 21 21 22
REMARK H PARENT
REMARK Flexibility Score: inf
ROOT
ATOM      1  C   UNL     1      67.624  50.537  19.008  1.00  0.00     0.004 C 
ENDROOT
BRANCH   1   2
ATOM      2  C   UNL     1      66.843  51.756  18.502  1.00  0.00     0.027 C 
BRANCH   2   3
ATOM      3  C   UNL     1      67.496  53.045  18.921  1.00  0.00    -0.031 C 
ATOM      4  C   UNL     1      67.314  53.561  20.146  1.00  0.00    -0.027 C 
BRANCH   4   5
ATOM      5  C   UNL     1      67.982  54.841  20.566  1.00  0.00     0.054 C 
BRANCH   5   6
ATOM      6  C   UNL     1      69.393  54.903  20.051  1.00  0.00    -0.027 C 
ATOM      7  C   UNL     1      70.414  54.384  20.748  1.00  0.00    -0.031 C 
BRANCH   7   8
ATOM      8  C   UNL     1      71.840  54.530  20.289  1.00  0.00     0.027 C 
BRANCH   8   9
ATOM      9  C   UNL     1      71.953  55.495  19.098  1.00  0.00     0.004 C 
BRANCH   9  10
ATOM     10  C   UNL     1      72.464  54.846  17.794  1.00  0.00     0.000 C 
BRANCH  10  11
ATOM     11  C   UNL     1      71.873  53.460  17.486  1.00  0.00    -0.003 C 
ATOM     12  C   UNL     1      70.510  53.532  16.797  1.00  0.00     0.004 C 
ENDBRANCH  10  11
ENDBRANCH   9  10
ENDBRANCH   8   9
ENDBRANCH   7   8
ENDBRANCH   5   6
ENDBRANCH   4   5
ENDBRANCH   2   3
ENDBRANCH   1   2
BRANCH   1  13
ATOM     13  C   UNL     1      69.145  50.712  18.848  1.00  0.00     0.000 C 
BRANCH  13  14
ATOM     14  C   UNL     1      69.875  50.851  20.194  1.00  0.00     0.000 C 
BRANCH  14  15
ATOM     15  C   UNL     1      69.051  50.305  21.373  1.00  0.00     0.000 C 
BRANCH  15  16
ATOM     16  C   UNL     1      69.808  50.376  22.712  1.00  0.00     0.003 C 
BRANCH  16  17
ATOM     17  C   UNL     1      70.868  51.488  22.803  1.00  0.00     0.042 C 
BRANCH  17  18
ATOM     18  C   UNL     1      71.952  51.196  23.849  1.00  0.00     0.233 C 
BRANCH  18  19
ATOM     19  O   UNL     1      71.564  51.704  25.126  1.00  0.00    -0.466 OA
BRANCH  19  20
ATOM     20  C   UNL     1      72.334  52.613  25.860  1.00  0.00     0.302 C 
ATOM     21  O   UNL     1      73.528  52.855  25.539  1.00  0.00    -0.253 OA
ATOM     22  C   UNL     1      71.717  53.340  27.007  1.00  0.00     0.139 C 
ENDBRANCH  19  20
ENDBRANCH  18  19
ENDBRANCH  17  18
ENDBRANCH  16  17
ENDBRANCH  15  16
ENDBRANCH  14  15
ENDBRANCH  13  14
ENDBRANCH   1  13
TORSDOF 16
ENDMDL
MODEL 6
REMARK VINA RESULT:    -4.937      2.582      7.276
REMARK INTER + INTRA:         -10.698
REMARK INTER:                  -9.184
REMARK INTRA:                  -1.515
REMARK UNBOUND:                -1.143
REMARK SMILES CCCCCC=CCC=CCCCCCCCCOC(C)=O
REMARK SMILES IDX 12 1 11 2 10 3 9 4 8 5 7 6 6 7 5 8 4 9 3 10 2 11 1 12 13 13
REMARK SMILES IDX 14 14 15 15 16 16 17 17 18 18 19 19 20 20 22 21 21 22
REMARK H PARENT
REMARK Flexibility Score: inf
ROOT
ATOM      1  C   UNL     1      70.122  50.529  23.755  1.00  0.00     0.004 C 
ENDROOT
BRANCH   1   2
ATOM      2  C   UNL     1      71.397  49.812  24.217  1.00  0.00     0.027 C 
BRANCH   2   3
ATOM      3  C   UNL     1      72.385  50.774  24.818  1.00  0.00    -0.031 C 
ATOM      4  C   UNL     1      72.257  52.101  24.669  1.00  0.00    -0.027 C 
BRANCH   4   5
ATOM      5  C   UNL     1      73.240  53.058  25.285  1.00  0.00     0.054 C 
BRANCH   5   6
ATOM      6  C   UNL     1      72.550  53.997  26.236  1.00  0.00    -0.027 C 
ATOM      7  C   UNL     1      71.397  53.662  26.834  1.00  0.00    -0.031 C 
BRANCH   7   8
ATOM      8  C   UNL     1      70.649  54.632  27.707  1.00  0.00     0.027 C 
BRANCH   8   9
ATOM      9  C   UNL     1      69.133  54.382  27.659  1.00  0.00     0.004 C 
BRANCH   9  10
ATOM     10  C   UNL     1      68.346  55.386  26.789  1.00  0.00     0.000 C 
BRANCH  10  11
ATOM     11  C   UNL     1      69.185  56.538  26.211  1.00  0.00    -0.003 C 
ATOM     12  C   UNL     1      68.383  57.826  26.024  1.00  0.00     0.004 C 
ENDBRANCH  10  11
ENDBRANCH   9  10
ENDBRANCH   8   9
ENDBRANCH   7   8
ENDBRANCH   5   6
ENDBRANCH   4   5
ENDBRANCH   2   3
ENDBRANCH   1   2
BRANCH   1  13
ATOM     13  C   UNL     1      69.399  49.765  22.631  1.00  0.00     0.000 C 
BRANCH  13  14
ATOM     14  C   UNL     1      69.734  50.305  21.231  1.00  0.00     0.000 C 
BRANCH  14  15
ATOM     15  C   UNL     1      70.344  51.717  21.271  1.00  0.00     0.000 C 
BRANCH  15  16
ATOM     16  C   UNL     1      70.042  52.533  20.000  1.00  0.00     0.003 C 
BRANCH  16  17
ATOM     17  C   UNL     1      70.003  51.716  18.696  1.00  0.00     0.042 C 
BRANCH  17  18
ATOM     18  C   UNL     1      68.824  52.095  17.790  1.00  0.00     0.233 C 
BRANCH  18  19
ATOM     19  O   UNL     1      67.653  52.338  18.569  1.00  0.00    -0.466 OA
BRANCH  19  20
ATOM     20  C   UNL     1      66.617  51.409  18.714  1.00  0.00     0.302 C 
ATOM     21  O   UNL     1      65.427  51.719  18.438  1.00  0.00    -0.253 OA
ATOM     22  C   UNL     1      66.932  50.020  19.157  1.00  0.00     0.139 C 
ENDBRANCH  19  20
ENDBRANCH  18  19
ENDBRANCH  17  18
ENDBRANCH  16  17
ENDBRANCH  15  16
ENDBRANCH  14  15
ENDBRANCH  13  14
ENDBRANCH   1  13
TORSDOF 16
ENDMDL
MODEL 7
REMARK VINA RESULT:    -4.815      2.921      7.502
REMARK INTER + INTRA:         -10.462
REMARK INTER:                  -8.512
REMARK INTRA:                  -1.951
REMARK UNBOUND:                -1.143
REMARK SMILES CCCCCC=CCC=CCCCCCCCCOC(C)=O
REMARK SMILES IDX 12 1 11 2 10 3 9 4 8 5 7 6 6 7 5 8 4 9 3 10 2 11 1 12 13 13
REMARK SMILES IDX 14 14 15 15 16 16 17 17 18 18 19 19 20 20 22 21 21 22
REMARK H PARENT
REMARK Flexibility Score: inf
ROOT
ATOM      1  C   UNL     1      69.811  50.434  21.051  1.00  0.00     0.004 C 
ENDROOT
BRANCH   1   2
ATOM      2  C   UNL     1      69.352  49.866  22.401  1.00  0.00     0.027 C 
BRANCH   2   3
ATOM      3  C   UNL     1      70.296  50.244  23.509  1.00  0.00    -0.031 C 
ATOM      4  C   UNL     1      70.755  51.498  23.648  1.00  0.00    -0.027 C 
BRANCH   4   5
ATOM      5  C   UNL     1      71.685  51.874  24.767  1.00  0.00     0.054 C 
BRANCH   5   6
ATOM      6  C   UNL     1      71.229  53.137  25.443  1.00  0.00    -0.027 C 
ATOM      7  C   UNL     1      71.285  53.275  26.776  1.00  0.00    -0.031 C 
BRANCH   7   8
ATOM      8  C   UNL     1      70.737  54.494  27.467  1.00  0.00     0.027 C 
BRANCH   8   9
ATOM      9  C   UNL     1      69.218  54.390  27.675  1.00  0.00     0.004 C 
BRANCH   9  10
ATOM     10  C   UNL     1      68.380  55.274  26.727  1.00  0.00     0.000 C 
BRANCH  10  11
ATOM     11  C   UNL     1      69.187  56.311  25.928  1.00  0.00    -0.003 C 
ATOM     12  C   UNL     1      69.153  56.061  24.420  1.00  0.00     0.004 C 
ENDBRANCH  10  11
ENDBRANCH   9  10
ENDBRANCH   8   9
ENDBRANCH   7   8
ENDBRANCH   5   6
ENDBRANCH   4   5
ENDBRANCH   2   3
ENDBRANCH   1   2
BRANCH   1  13
ATOM     13  C   UNL     1      68.647  51.047  20.252  1.00  0.00     0.000 C 
BRANCH  13  14
ATOM     14  C   UNL     1      68.793  50.847  18.735  1.00  0.00     0.000 C 
BRANCH  14  15
ATOM     15  C   UNL     1      68.303  52.062  17.928  1.00  0.00     0.000 C 
BRANCH  15  16
ATOM     16  C   UNL     1      69.439  52.766  17.162  1.00  0.00     0.003 C 
BRANCH  16  17
ATOM     17  C   UNL     1      70.793  52.802  17.893  1.00  0.00     0.042 C 
BRANCH  17  18
ATOM     18  C   UNL     1      71.294  54.228  18.152  1.00  0.00     0.233 C 
BRANCH  18  19
ATOM     19  O   UNL     1      72.135  54.261  19.305  1.00  0.00    -0.466 OA
BRANCH  19  20
ATOM     20  C   UNL     1      71.734  53.802  20.565  1.00  0.00     0.302 C 
ATOM     21  O   UNL     1      72.472  53.032  21.237  1.00  0.00    -0.253 OA
ATOM     22  C   UNL     1      70.438  54.267  21.138  1.00  0.00     0.139 C 
ENDBRANCH  19  20
ENDBRANCH  18  19
ENDBRANCH  17  18
ENDBRANCH  16  17
ENDBRANCH  15  16
ENDBRANCH  14  15
ENDBRANCH  13  14
ENDBRANCH   1  13
TORSDOF 16
ENDMDL
MODEL 8
REMARK VINA RESULT:    -4.812      2.436      5.635
REMARK INTER + INTRA:         -10.456
REMARK INTER:                  -7.665
REMARK INTRA:                  -2.792
REMARK UNBOUND:                -1.143
REMARK SMILES CCCCCC=CCC=CCCCCCCCCOC(C)=O
REMARK SMILES IDX 12 1 11 2 10 3 9 4 8 5 7 6 6 7 5 8 4 9 3 10 2 11 1 12 13 13
REMARK SMILES IDX 14 14 15 15 16 16 17 17 18 18 19 19 20 20 22 21 21 22
REMARK H PARENT
REMARK Flexibility Score: inf
ROOT
ATOM      1  C   UNL     1      71.956  53.473  18.441  1.00  0.00     0.004 C 
ENDROOT
BRANCH   1   2
ATOM      2  C   UNL     1      70.906  53.762  17.360  1.00  0.00     0.027 C 
BRANCH   2   3
ATOM      3  C   UNL     1      69.719  52.847  17.483  1.00  0.00    -0.031 C 
ATOM      4  C   UNL     1      69.746  51.759  18.269  1.00  0.00    -0.027 C 
BRANCH   4   5
ATOM      5  C   UNL     1      68.550  50.857  18.400  1.00  0.00     0.054 C 
BRANCH   5   6
ATOM      6  C   UNL     1      68.314  50.485  19.838  1.00  0.00    -0.027 C 
ATOM      7  C   UNL     1      69.301  50.543  20.744  1.00  0.00    -0.031 C 
BRANCH   7   8
ATOM      8  C   UNL     1      69.100  50.078  22.161  1.00  0.00     0.027 C 
BRANCH   8   9
ATOM      9  C   UNL     1      70.305  50.432  23.047  1.00  0.00     0.004 C 
BRANCH   9  10
ATOM     10  C   UNL     1      71.038  51.729  22.643  1.00  0.00     0.000 C 
BRANCH  10  11
ATOM     11  C   UNL     1      72.172  52.154  23.591  1.00  0.00    -0.003 C 
ATOM     12  C   UNL     1      72.306  51.240  24.809  1.00  0.00     0.004 C 
ENDBRANCH  10  11
ENDBRANCH   9  10
ENDBRANCH   8   9
ENDBRANCH   7   8
ENDBRANCH   5   6
ENDBRANCH   4   5
ENDBRANCH   2   3
ENDBRANCH   1   2
BRANCH   1  13
ATOM     13  C   UNL     1      71.945  54.529  19.561  1.00  0.00     0.000 C 
BRANCH  13  14
ATOM     14  C   UNL     1      70.917  55.645  19.319  1.00  0.00     0.000 C 
BRANCH  14  15
ATOM     15  C   UNL     1      69.955  55.832  20.505  1.00  0.00     0.000 C 
BRANCH  15  16
ATOM     16  C   UNL     1      69.387  54.499  21.027  1.00  0.00     0.003 C 
BRANCH  16  17
ATOM     17  C   UNL     1      67.984  54.139  20.507  1.00  0.00     0.042 C 
BRANCH  17  18
ATOM     18  C   UNL     1      67.054  55.355  20.408  1.00  0.00     0.233 C 
BRANCH  18  19
ATOM     19  O   UNL     1      66.082  55.326  21.453  1.00  0.00    -0.466 OA
BRANCH  19  20
ATOM     20  C   UNL     1      66.190  56.080  22.627  1.00  0.00     0.302 C 
ATOM     21  O   UNL     1      65.555  55.754  23.666  1.00  0.00    -0.253 OA
ATOM     22  C   UNL     1      67.105  57.257  22.663  1.00  0.00     0.139 C 
ENDBRANCH  19  20
ENDBRANCH  18  19
ENDBRANCH  17  18
ENDBRANCH  16  17
ENDBRANCH  15  16
ENDBRANCH  14  15
ENDBRANCH  13  14
ENDBRANCH   1  13
TORSDOF 16
ENDMDL
MODEL 9
REMARK VINA RESULT:    -4.766      3.434      7.375
REMARK INTER + INTRA:         -10.367
REMARK INTER:                  -8.162
REMARK INTRA:                  -2.205
REMARK UNBOUND:                -1.143
REMARK SMILES CCCCCC=CCC=CCCCCCCCCOC(C)=O
REMARK SMILES IDX 12 1 11 2 10 3 9 4 8 5 7 6 6 7 5 8 4 9 3 10 2 11 1 12 13 13
REMARK SMILES IDX 14 14 15 15 16 16 17 17 18 18 19 19 20 20 22 21 21 22
REMARK H PARENT
REMARK Flexibility Score: inf
ROOT
ATOM      1  C   UNL     1      68.707  52.343  18.459  1.00  0.00     0.004 C 
ENDROOT
BRANCH   1   2
ATOM      2  C   UNL     1      69.225  50.938  18.794  1.00  0.00     0.027 C 
BRANCH   2   3
ATOM      3  C   UNL     1      68.818  50.514  20.179  1.00  0.00    -0.031 C 
ATOM      4  C   UNL     1      69.700  50.467  21.189  1.00  0.00    -0.027 C 
BRANCH   4   5
ATOM      5  C   UNL     1      69.285  50.057  22.575  1.00  0.00     0.054 C 
BRANCH   5   6
ATOM      6  C   UNL     1      70.427  50.202  23.542  1.00  0.00    -0.027 C 
ATOM      7  C   UNL     1      71.305  51.210  23.439  1.00  0.00    -0.031 C 
BRANCH   7   8
ATOM      8  C   UNL     1      72.507  51.306  24.339  1.00  0.00     0.027 C 
BRANCH   8   9
ATOM      9  C   UNL     1      72.120  51.784  25.748  1.00  0.00     0.004 C 
BRANCH   9  10
ATOM     10  C   UNL     1      71.938  53.311  25.878  1.00  0.00     0.000 C 
BRANCH  10  11
ATOM     11  C   UNL     1      71.403  53.785  27.240  1.00  0.00    -0.003 C 
ATOM     12  C   UNL     1      69.947  54.246  27.182  1.00  0.00     0.004 C 
ENDBRANCH  10  11
ENDBRANCH   9  10
ENDBRANCH   8   9
ENDBRANCH   7   8
ENDBRANCH   5   6
ENDBRANCH   4   5
ENDBRANCH   2   3
ENDBRANCH   1   2
BRANCH   1  13
ATOM     13  C   UNL     1      67.483  52.730  19.308  1.00  0.00     0.000 C 
BRANCH  13  14
ATOM     14  C   UNL     1      67.739  53.954  20.202  1.00  0.00     0.000 C 
BRANCH  14  15
ATOM     15  C   UNL     1      69.216  54.385  20.206  1.00  0.00     0.000 C 
BRANCH  15  16
ATOM     16  C   UNL     1      69.916  54.097  21.548  1.00  0.00     0.003 C 
BRANCH  16  17
ATOM     17  C   UNL     1      71.413  54.452  21.591  1.00  0.00     0.042 C 
BRANCH  17  18
ATOM     18  C   UNL     1      71.950  54.941  20.240  1.00  0.00     0.233 C 
BRANCH  18  19
ATOM     19  O   UNL     1      72.658  53.894  19.576  1.00  0.00    -0.466 OA
BRANCH  19  20
ATOM     20  C   UNL     1      72.940  53.904  18.205  1.00  0.00     0.302 C 
ATOM     21  O   UNL     1      74.118  54.074  17.789  1.00  0.00    -0.253 OA
ATOM     22  C   UNL     1      71.840  53.665  17.226  1.00  0.00     0.139 C 
ENDBRANCH  19  20
ENDBRANCH  18  19
ENDBRANCH  17  18
ENDBRANCH  16  17
ENDBRANCH  15  16
ENDBRANCH  14  15
ENDBRANCH  13  14
ENDBRANCH   1  13
TORSDOF 16
ENDMDL
