MODEL 1
REMARK VINA RESULT:    -4.118      0.000      0.000
REMARK INTER + INTRA:          -4.816
REMARK INTER:                  -4.600
REMARK INTRA:                  -0.216
REMARK UNBOUND:                -0.216
REMARK SMILES CC(C)c1ccc(C(=O)[O-])cc1
REMARK SMILES IDX 7 1 6 2 11 3 5 4 12 5 4 6 8 7 9 8 10 9 2 10 1 11 3 12
REMARK H PARENT
REMARK Flexibility Score: inf
ROOT
ATOM      1  C   UNL     1      33.346 169.602 156.401  1.00  0.00    -0.003 A 
ATOM      2  C   UNL     1      31.990 169.740 156.745  1.00  0.00     0.010 A 
ATOM      3  C   UNL     1      33.820 170.237 155.242  1.00  0.00     0.010 A 
ATOM      4  C   UNL     1      31.129 170.497 155.947  1.00  0.00     0.004 A 
ATOM      5  C   UNL     1      32.959 170.994 154.443  1.00  0.00     0.004 A 
ATOM      6  C   UNL     1      31.604 171.134 154.786  1.00  0.00    -0.045 A 
ENDROOT
BRANCH   1   7
ATOM      7  C   UNL     1      34.261 168.802 157.243  1.00  0.00     0.071 C 
ATOM      8  O   UNL     1      33.847 168.257 158.302  1.00  0.00    -0.545 OA
ATOM      9  O   UNL     1      35.593 168.639 156.879  1.00  0.00    -0.545 OA
ENDBRANCH   1   7
BRANCH   6  10
ATOM     10  C   UNL     1      30.680 171.959 153.910  1.00  0.00     0.013 C 
ATOM     11  C   UNL     1      31.117 173.427 153.875  1.00  0.00     0.012 C 
ATOM     12  C   UNL     1      29.222 171.827 154.368  1.00  0.00     0.012 C 
ENDBRANCH   6  10
TORSDOF 2
ENDMDL
MODEL 2
REMARK VINA RESULT:    -4.058      3.902      5.685
REMARK INTER + INTRA:          -4.748
REMARK INTER:                  -4.530
REMARK INTRA:                  -0.218
REMARK UNBOUND:                -0.216
REMARK SMILES CC(C)c1ccc(C(=O)[O-])cc1
REMARK SMILES IDX 7 1 6 2 11 3 5 4 12 5 4 6 8 7 9 8 10 9 2 10 1 11 3 12
REMARK H PARENT
REMARK Flexibility Score: inf
ROOT
ATOM      1  C   UNL     1      29.530 172.262 154.550  1.00  0.00    -0.003 A 
ATOM      2  C   UNL     1      30.752 172.543 153.915  1.00  0.00     0.010 A 
ATOM      3  C   UNL     1      29.442 171.138 155.387  1.00  0.00     0.010 A 
ATOM      4  C   UNL     1      31.862 171.718 154.115  1.00  0.00     0.004 A 
ATOM      5  C   UNL     1      30.552 170.313 155.586  1.00  0.00     0.004 A 
ATOM      6  C   UNL     1      31.774 170.592 154.953  1.00  0.00    -0.045 A 
ENDROOT
BRANCH   1   7
ATOM      7  C   UNL     1      28.353 173.133 154.341  1.00  0.00     0.071 C 
ATOM      8  O   UNL     1      28.490 174.297 153.877  1.00  0.00    -0.545 OA
ATOM      9  O   UNL     1      27.076 172.680 154.655  1.00  0.00    -0.545 OA
ENDBRANCH   1   7
BRANCH   6  10
ATOM     10  C   UNL     1      32.971 169.688 155.179  1.00  0.00     0.013 C 
ATOM     11  C   UNL     1      32.621 168.535 156.126  1.00  0.00     0.012 C 
ATOM     12  C   UNL     1      34.175 170.484 155.700  1.00  0.00     0.012 C 
ENDBRANCH   6  10
TORSDOF 2
ENDMDL
MODEL 3
REMARK VINA RESULT:    -3.978     23.034     23.670
REMARK INTER + INTRA:          -4.659
REMARK INTER:                  -4.449
REMARK INTRA:                  -0.210
REMARK UNBOUND:                -0.216
REMARK SMILES CC(C)c1ccc(C(=O)[O-])cc1
REMARK SMILES IDX 7 1 6 2 11 3 5 4 12 5 4 6 8 7 9 8 10 9 2 10 1 11 3 12
REMARK H PARENT
REMARK Flexibility Score: inf
ROOT
ATOM      1  C   UNL     1      42.386 183.499 172.658  1.00  0.00    -0.003 A 
ATOM      2  C   UNL     1      42.406 184.723 173.350  1.00  0.00     0.010 A 
ATOM      3  C   UNL     1      41.273 183.188 171.861  1.00  0.00     0.010 A 
ATOM      4  C   UNL     1      41.335 185.614 173.246  1.00  0.00     0.004 A 
ATOM      5  C   UNL     1      40.202 184.080 171.756  1.00  0.00     0.004 A 
ATOM      6  C   UNL     1      40.220 185.303 172.447  1.00  0.00    -0.045 A 
ENDROOT
BRANCH   1   7
ATOM      7  C   UNL     1      43.517 182.553 172.766  1.00  0.00     0.071 C 
ATOM      8  O   UNL     1      44.452 182.571 171.920  1.00  0.00    -0.545 OA
ATOM      9  O   UNL     1      43.566 181.627 173.802  1.00  0.00    -0.545 OA
ENDBRANCH   1   7
BRANCH   6  10
ATOM     10  C   UNL     1      39.051 186.262 172.324  1.00  0.00     0.013 C 
ATOM     11  C   UNL     1      38.519 186.664 173.704  1.00  0.00     0.012 C 
ATOM     12  C   UNL     1      37.936 185.665 171.455  1.00  0.00     0.012 C 
ENDBRANCH   6  10
TORSDOF 2
ENDMDL
MODEL 4
REMARK VINA RESULT:    -3.908     21.986     22.785
REMARK INTER + INTRA:          -4.581
REMARK INTER:                  -4.379
REMARK INTRA:                  -0.202
REMARK UNBOUND:                -0.216
REMARK SMILES CC(C)c1ccc(C(=O)[O-])cc1
REMARK SMILES IDX 7 1 6 2 11 3 5 4 12 5 4 6 8 7 9 8 10 9 2 10 1 11 3 12
REMARK H PARENT
REMARK Flexibility Score: inf
ROOT
ATOM      1  C   UNL     1      38.508 185.134 170.084  1.00  0.00    -0.003 A 
ATOM      2  C   UNL     1      38.121 185.683 171.319  1.00  0.00     0.010 A 
ATOM      3  C   UNL     1      39.669 184.346 170.025  1.00  0.00     0.010 A 
ATOM      4  C   UNL     1      38.878 185.447 172.469  1.00  0.00     0.004 A 
ATOM      5  C   UNL     1      40.426 184.110 171.176  1.00  0.00     0.004 A 
ATOM      6  C   UNL     1      40.041 184.657 172.411  1.00  0.00    -0.045 A 
ENDROOT
BRANCH   1   7
ATOM      7  C   UNL     1      37.709 185.382 168.865  1.00  0.00     0.071 C 
ATOM      8  O   UNL     1      36.995 184.469 168.369  1.00  0.00    -0.545 OA
ATOM      9  O   UNL     1      37.736 186.626 168.245  1.00  0.00    -0.545 OA
ENDBRANCH   1   7
BRANCH   6  10
ATOM     10  C   UNL     1      40.873 184.392 173.652  1.00  0.00     0.013 C 
ATOM     11  C   UNL     1      42.265 185.019 173.527  1.00  0.00     0.012 C 
ATOM     12  C   UNL     1      40.968 182.889 173.942  1.00  0.00     0.012 C 
ENDBRANCH   6  10
TORSDOF 2
ENDMDL
MODEL 5
REMARK VINA RESULT:    -3.780     21.851     22.776
REMARK INTER + INTRA:          -4.438
REMARK INTER:                  -4.232
REMARK INTRA:                  -0.207
REMARK UNBOUND:                -0.216
REMARK SMILES CC(C)c1ccc(C(=O)[O-])cc1
REMARK SMILES IDX 7 1 6 2 11 3 5 4 12 5 4 6 8 7 9 8 10 9 2 10 1 11 3 12
REMARK H PARENT
REMARK Flexibility Score: inf
ROOT
ATOM      1  C   UNL     1      37.671 184.003 171.770  1.00  0.00    -0.003 A 
ATOM      2  C   UNL     1      38.488 184.441 170.714  1.00  0.00     0.010 A 
ATOM      3  C   UNL     1      38.274 183.596 172.971  1.00  0.00     0.010 A 
ATOM      4  C   UNL     1      39.878 184.471 170.857  1.00  0.00     0.004 A 
ATOM      5  C   UNL     1      39.664 183.626 173.114  1.00  0.00     0.004 A 
ATOM      6  C   UNL     1      40.482 184.064 172.060  1.00  0.00    -0.045 A 
ENDROOT
BRANCH   1   7
ATOM      7  C   UNL     1      36.200 183.969 171.623  1.00  0.00     0.071 C 
ATOM      8  O   UNL     1      35.672 183.611 170.536  1.00  0.00    -0.545 OA
ATOM      9  O   UNL     1      35.377 184.333 172.683  1.00  0.00    -0.545 OA
ENDBRANCH   1   7
BRANCH   6  10
ATOM     10  C   UNL     1      41.990 184.091 172.229  1.00  0.00     0.013 C 
ATOM     11  C   UNL     1      42.553 182.676 172.396  1.00  0.00     0.012 C 
ATOM     12  C   UNL     1      42.397 184.991 173.403  1.00  0.00     0.012 C 
ENDBRANCH   6  10
TORSDOF 2
ENDMDL
MODEL 6
REMARK VINA RESULT:    -3.749      3.744      5.377
REMARK INTER + INTRA:          -4.404
REMARK INTER:                  -4.184
REMARK INTRA:                  -0.220
REMARK UNBOUND:                -0.216
REMARK SMILES CC(C)c1ccc(C(=O)[O-])cc1
REMARK SMILES IDX 7 1 6 2 11 3 5 4 12 5 4 6 8 7 9 8 10 9 2 10 1 11 3 12
REMARK H PARENT
REMARK Flexibility Score: inf
ROOT
ATOM      1  C   UNL     1      31.889 169.226 160.865  1.00  0.00    -0.003 A 
ATOM      2  C   UNL     1      31.516 170.164 159.887  1.00  0.00     0.010 A 
ATOM      3  C   UNL     1      32.881 168.281 160.556  1.00  0.00     0.010 A 
ATOM      4  C   UNL     1      32.121 170.156 158.628  1.00  0.00     0.004 A 
ATOM      5  C   UNL     1      33.487 168.273 159.297  1.00  0.00     0.004 A 
ATOM      6  C   UNL     1      33.115 169.209 158.318  1.00  0.00    -0.045 A 
ENDROOT
BRANCH   1   7
ATOM      7  C   UNL     1      31.251 169.231 162.199  1.00  0.00     0.071 C 
ATOM      8  O   UNL     1      31.248 168.192 162.914  1.00  0.00    -0.545 OA
ATOM      9  O   UNL     1      30.641 170.383 162.684  1.00  0.00    -0.545 OA
ENDBRANCH   1   7
BRANCH   6  10
ATOM     10  C   UNL     1      33.782 169.189 156.956  1.00  0.00     0.013 C 
ATOM     11  C   UNL     1      35.248 168.757 157.064  1.00  0.00     0.012 C 
ATOM     12  C   UNL     1      33.657 170.550 156.259  1.00  0.00     0.012 C 
ENDBRANCH   6  10
TORSDOF 2
ENDMDL
MODEL 7
REMARK VINA RESULT:    -3.743     22.003     23.061
REMARK INTER + INTRA:          -4.397
REMARK INTER:                  -4.186
REMARK INTRA:                  -0.211
REMARK UNBOUND:                -0.216
REMARK SMILES CC(C)c1ccc(C(=O)[O-])cc1
REMARK SMILES IDX 7 1 6 2 11 3 5 4 12 5 4 6 8 7 9 8 10 9 2 10 1 11 3 12
REMARK H PARENT
REMARK Flexibility Score: inf
ROOT
ATOM      1  C   UNL     1      39.094 184.113 171.818  1.00  0.00    -0.003 A 
ATOM      2  C   UNL     1      39.047 183.572 173.114  1.00  0.00     0.010 A 
ATOM      3  C   UNL     1      40.306 184.076 171.110  1.00  0.00     0.010 A 
ATOM      4  C   UNL     1      40.188 183.007 173.689  1.00  0.00     0.004 A 
ATOM      5  C   UNL     1      41.447 183.510 171.685  1.00  0.00     0.004 A 
ATOM      6  C   UNL     1      41.402 182.969 172.981  1.00  0.00    -0.045 A 
ENDROOT
BRANCH   1   7
ATOM      7  C   UNL     1      37.889 184.712 171.205  1.00  0.00     0.071 C 
ATOM      8  O   UNL     1      36.821 184.049 171.107  1.00  0.00    -0.545 OA
ATOM      9  O   UNL     1      37.916 186.018 170.728  1.00  0.00    -0.545 OA
ENDBRANCH   1   7
BRANCH   6  10
ATOM     10  C   UNL     1      42.649 182.358 173.593  1.00  0.00     0.013 C 
ATOM     11  C   UNL     1      43.856 182.517 172.662  1.00  0.00     0.012 C 
ATOM     12  C   UNL     1      42.421 180.885 173.955  1.00  0.00     0.012 C 
ENDBRANCH   6  10
TORSDOF 2
ENDMDL
MODEL 8
REMARK VINA RESULT:    -3.743     21.813     22.429
REMARK INTER + INTRA:          -4.397
REMARK INTER:                  -4.178
REMARK INTRA:                  -0.219
REMARK UNBOUND:                -0.216
REMARK SMILES CC(C)c1ccc(C(=O)[O-])cc1
REMARK SMILES IDX 7 1 6 2 11 3 5 4 12 5 4 6 8 7 9 8 10 9 2 10 1 11 3 12
REMARK H PARENT
REMARK Flexibility Score: inf
ROOT
ATOM      1  C   UNL     1      41.311 182.822 172.744  1.00  0.00    -0.003 A 
ATOM      2  C   UNL     1      41.336 183.422 171.473  1.00  0.00     0.010 A 
ATOM      3  C   UNL     1      40.132 182.890 173.504  1.00  0.00     0.010 A 
ATOM      4  C   UNL     1      40.205 184.075 170.974  1.00  0.00     0.004 A 
ATOM      5  C   UNL     1      39.002 183.543 173.006  1.00  0.00     0.004 A 
ATOM      6  C   UNL     1      39.025 184.142 171.735  1.00  0.00    -0.045 A 
ENDROOT
BRANCH   1   7
ATOM      7  C   UNL     1      42.505 182.130 173.276  1.00  0.00     0.071 C 
ATOM      8  O   UNL     1      42.386 181.205 174.125  1.00  0.00    -0.545 OA
ATOM      9  O   UNL     1      43.777 182.490 172.848  1.00  0.00    -0.545 OA
ENDBRANCH   1   7
BRANCH   6  10
ATOM     10  C   UNL     1      37.790 184.848 171.206  1.00  0.00     0.013 C 
ATOM     11  C   UNL     1      36.524 184.031 171.486  1.00  0.00     0.012 C 
ATOM     12  C   UNL     1      37.929 185.156 169.710  1.00  0.00     0.012 C 
ENDBRANCH   6  10
TORSDOF 2
ENDMDL
