MODEL 1
REMARK VINA RESULT:    -3.150      0.000      0.000
REMARK INTER + INTRA:          -3.548
REMARK INTER:                  -3.519
REMARK INTRA:                  -0.029
REMARK UNBOUND:                -0.029
REMARK SMILES CCCC(=O)[O-]
REMARK SMILES IDX 3 1 4 2 5 3 6 4 2 5 1 6
REMARK H PARENT
REMARK Flexibility Score: inf
ROOT
ATOM      1  C   UNL     1      22.376  -7.581 -37.441  1.00  0.00     0.052 C 
ENDROOT
BRANCH   1   2
ATOM      2  C   UNL     1      22.634  -7.936 -38.873  1.00  0.00     0.041 C 
ATOM      3  O   UNL     1      23.593  -8.694 -39.176  1.00  0.00    -0.550 OA
ATOM      4  O   UNL     1      21.796  -7.455 -39.871  1.00  0.00    -0.550 OA
ENDBRANCH   1   2
BRANCH   1   5
ATOM      5  C   UNL     1      22.571  -6.081 -37.184  1.00  0.00     0.003 C 
ATOM      6  C   UNL     1      21.246  -5.321 -37.152  1.00  0.00     0.004 C 
ENDBRANCH   1   5
TORSDOF 2
ENDMDL
MODEL 2
REMARK VINA RESULT:    -3.111      0.157      1.327
REMARK INTER + INTRA:          -3.505
REMARK INTER:                  -3.477
REMARK INTRA:                  -0.027
REMARK UNBOUND:                -0.029
REMARK SMILES CCCC(=O)[O-]
REMARK SMILES IDX 3 1 4 2 5 3 6 4 2 5 1 6
REMARK H PARENT
REMARK Flexibility Score: inf
ROOT
ATOM      1  C   UNL     1      22.356  -7.548 -37.558  1.00  0.00     0.052 C 
ENDROOT
BRANCH   1   2
ATOM      2  C   UNL     1      22.510  -7.880 -39.010  1.00  0.00     0.041 C 
ATOM      3  O   UNL     1      21.693  -7.427 -39.855  1.00  0.00    -0.550 OA
ATOM      4  O   UNL     1      23.576  -8.663 -39.436  1.00  0.00    -0.550 OA
ENDBRANCH   1   2
BRANCH   1   5
ATOM      5  C   UNL     1      22.576  -6.053 -37.291  1.00  0.00     0.003 C 
ATOM      6  C   UNL     1      21.260  -5.294 -37.123  1.00  0.00     0.004 C 
ENDBRANCH   1   5
TORSDOF 2
ENDMDL
MODEL 3
REMARK VINA RESULT:    -3.073      8.931     10.435
REMARK INTER + INTRA:          -3.461
REMARK INTER:                  -3.456
REMARK INTRA:                  -0.005
REMARK UNBOUND:                -0.029
REMARK SMILES CCCC(=O)[O-]
REMARK SMILES IDX 3 1 4 2 5 3 6 4 2 5 1 6
REMARK H PARENT
REMARK Flexibility Score: inf
ROOT
ATOM      1  C   UNL     1      24.254 -16.402 -41.696  1.00  0.00     0.052 C 
ENDROOT
BRANCH   1   2
ATOM      2  C   UNL     1      23.341 -15.730 -40.718  1.00  0.00     0.041 C 
ATOM      3  O   UNL     1      22.092 -15.799 -40.865  1.00  0.00    -0.550 OA
ATOM      4  O   UNL     1      23.868 -15.053 -39.625  1.00  0.00    -0.550 OA
ENDBRANCH   1   2
BRANCH   1   5
ATOM      5  C   UNL     1      25.013 -17.570 -41.053  1.00  0.00     0.003 C 
ATOM      6  C   UNL     1      25.458 -18.610 -42.080  1.00  0.00     0.004 C 
ENDBRANCH   1   5
TORSDOF 2
ENDMDL
MODEL 4
REMARK VINA RESULT:    -3.071      1.961      3.097
REMARK INTER + INTRA:          -3.460
REMARK INTER:                  -3.401
REMARK INTRA:                  -0.058
REMARK UNBOUND:                -0.029
REMARK SMILES CCCC(=O)[O-]
REMARK SMILES IDX 3 1 4 2 5 3 6 4 2 5 1 6
REMARK H PARENT
REMARK Flexibility Score: inf
ROOT
ATOM      1  C   UNL     1      23.188  -8.358 -38.150  1.00  0.00     0.052 C 
ENDROOT
BRANCH   1   2
ATOM      2  C   UNL     1      22.715  -7.303 -39.103  1.00  0.00     0.041 C 
ATOM      3  O   UNL     1      23.314  -6.197 -39.174  1.00  0.00    -0.550 OA
ATOM      4  O   UNL     1      21.632  -7.553 -39.937  1.00  0.00    -0.550 OA
ENDBRANCH   1   2
BRANCH   1   5
ATOM      5  C   UNL     1      24.700  -8.592 -38.268  1.00  0.00     0.003 C 
ATOM      6  C   UNL     1      25.064  -9.433 -39.491  1.00  0.00     0.004 C 
ENDBRANCH   1   5
TORSDOF 2
ENDMDL
MODEL 5
REMARK VINA RESULT:    -3.040      1.947      2.344
REMARK INTER + INTRA:          -3.425
REMARK INTER:                  -3.353
REMARK INTRA:                  -0.072
REMARK UNBOUND:                -0.029
REMARK SMILES CCCC(=O)[O-]
REMARK SMILES IDX 3 1 4 2 5 3 6 4 2 5 1 6
REMARK H PARENT
REMARK Flexibility Score: inf
ROOT
ATOM      1  C   UNL     1      23.047  -8.191 -39.114  1.00  0.00     0.052 C 
ENDROOT
BRANCH   1   2
ATOM      2  C   UNL     1      24.526  -8.422 -39.063  1.00  0.00     0.041 C 
ATOM      3  O   UNL     1      24.987  -9.475 -38.549  1.00  0.00    -0.550 OA
ATOM      4  O   UNL     1      25.395  -7.488 -39.614  1.00  0.00    -0.550 OA
ENDBRANCH   1   2
BRANCH   1   5
ATOM      5  C   UNL     1      22.449  -8.036 -37.709  1.00  0.00     0.003 C 
ATOM      6  C   UNL     1      23.013  -6.823 -36.970  1.00  0.00     0.004 C 
ENDBRANCH   1   5
TORSDOF 2
ENDMDL
MODEL 6
REMARK VINA RESULT:    -2.996      9.766     10.558
REMARK INTER + INTRA:          -3.375
REMARK INTER:                  -3.344
REMARK INTRA:                  -0.032
REMARK UNBOUND:                -0.029
REMARK SMILES CCCC(=O)[O-]
REMARK SMILES IDX 3 1 4 2 5 3 6 4 2 5 1 6
REMARK H PARENT
REMARK Flexibility Score: inf
ROOT
ATOM      1  C   UNL     1      24.152 -16.503 -42.009  1.00  0.00     0.052 C 
ENDROOT
BRANCH   1   2
ATOM      2  C   UNL     1      24.858 -17.674 -41.398  1.00  0.00     0.041 C 
ATOM      3  O   UNL     1      25.169 -17.661 -40.178  1.00  0.00    -0.550 OA
ATOM      4  O   UNL     1      25.144 -18.794 -42.169  1.00  0.00    -0.550 OA
ENDBRANCH   1   2
BRANCH   1   5
ATOM      5  C   UNL     1      23.468 -15.635 -40.945  1.00  0.00     0.003 C 
ATOM      6  C   UNL     1      21.944 -15.740 -41.003  1.00  0.00     0.004 C 
ENDBRANCH   1   5
TORSDOF 2
ENDMDL
MODEL 7
REMARK VINA RESULT:    -2.989      1.269      1.653
REMARK INTER + INTRA:          -3.368
REMARK INTER:                  -3.334
REMARK INTRA:                  -0.033
REMARK UNBOUND:                -0.029
REMARK SMILES CCCC(=O)[O-]
REMARK SMILES IDX 3 1 4 2 5 3 6 4 2 5 1 6
REMARK H PARENT
REMARK Flexibility Score: inf
ROOT
ATOM      1  C   UNL     1      22.056  -6.514 -37.576  1.00  0.00     0.052 C 
ENDROOT
BRANCH   1   2
ATOM      2  C   UNL     1      22.382  -6.581 -39.036  1.00  0.00     0.041 C 
ATOM      3  O   UNL     1      23.258  -5.821 -39.527  1.00  0.00    -0.550 OA
ATOM      4  O   UNL     1      21.742  -7.508 -39.850  1.00  0.00    -0.550 OA
ENDBRANCH   1   2
BRANCH   1   5
ATOM      5  C   UNL     1      21.206  -5.281 -37.241  1.00  0.00     0.003 C 
ATOM      6  C   UNL     1      21.925  -4.318 -36.297  1.00  0.00     0.004 C 
ENDBRANCH   1   5
TORSDOF 2
ENDMDL
MODEL 8
REMARK VINA RESULT:    -2.941      1.374      2.008
REMARK INTER + INTRA:          -3.314
REMARK INTER:                  -3.288
REMARK INTRA:                  -0.026
REMARK UNBOUND:                -0.029
REMARK SMILES CCCC(=O)[O-]
REMARK SMILES IDX 3 1 4 2 5 3 6 4 2 5 1 6
REMARK H PARENT
REMARK Flexibility Score: inf
ROOT
ATOM      1  C   UNL     1      21.922  -6.017 -38.174  1.00  0.00     0.052 C 
ENDROOT
BRANCH   1   2
ATOM      2  C   UNL     1      21.949  -6.497 -39.593  1.00  0.00     0.041 C 
ATOM      3  O   UNL     1      21.918  -7.730 -39.846  1.00  0.00    -0.550 OA
ATOM      4  O   UNL     1      21.976  -5.581 -40.637  1.00  0.00    -0.550 OA
ENDBRANCH   1   2
BRANCH   1   5
ATOM      5  C   UNL     1      22.583  -7.023 -37.222  1.00  0.00     0.003 C 
ATOM      6  C   UNL     1      23.911  -6.510 -36.668  1.00  0.00     0.004 C 
ENDBRANCH   1   5
TORSDOF 2
ENDMDL
MODEL 9
REMARK VINA RESULT:    -2.915      1.850      3.101
REMARK INTER + INTRA:          -3.285
REMARK INTER:                  -3.248
REMARK INTRA:                  -0.037
REMARK UNBOUND:                -0.029
REMARK SMILES CCCC(=O)[O-]
REMARK SMILES IDX 3 1 4 2 5 3 6 4 2 5 1 6
REMARK H PARENT
REMARK Flexibility Score: inf
ROOT
ATOM      1  C   UNL     1      22.678  -6.984 -37.235  1.00  0.00     0.052 C 
ENDROOT
BRANCH   1   2
ATOM      2  C   UNL     1      21.842  -5.974 -37.959  1.00  0.00     0.041 C 
ATOM      3  O   UNL     1      21.035  -5.246 -37.324  1.00  0.00    -0.550 OA
ATOM      4  O   UNL     1      21.978  -5.814 -39.333  1.00  0.00    -0.550 OA
ENDBRANCH   1   2
BRANCH   1   5
ATOM      5  C   UNL     1      22.714  -8.327 -37.977  1.00  0.00     0.003 C 
ATOM      6  C   UNL     1      24.122  -8.698 -38.438  1.00  0.00     0.004 C 
ENDBRANCH   1   5
TORSDOF 2
ENDMDL
