MODEL 1
REMARK VINA RESULT:    -3.272      0.000      0.000
REMARK INTER + INTRA:          -4.220
REMARK INTER:                  -3.942
REMARK INTRA:                  -0.278
REMARK UNBOUND:                -0.278
REMARK SMILES O=c1c(O)c(-c2ccc(O)c(O)c2)oc2cc(O)cc(O)c12
REMARK SMILES IDX 5 1 3 2 2 3 1 4 22 5 20 6 19 7 17 8 16 9 15 10 14 11 6 12
REMARK SMILES IDX 7 13 8 14 9 15 13 16 11 17 10 18 12 20 4 22 21 24 18 26
REMARK H PARENT 10 19 12 21 4 23 21 25 18 27
REMARK Flexibility Score: inf
ROOT
ATOM      1  C   UNL     1      -2.500   2.805  21.330  1.00  0.00     0.180 A 
ATOM      2  C   UNL     1      -3.897   2.703  21.440  1.00  0.00     0.208 A 
ATOM      3  C   UNL     1      -4.466   2.459  22.700  1.00  0.00     0.238 A 
ATOM      4  O   UNL     1      -5.720   2.423  22.801  1.00  0.00    -0.285 OA
ATOM      5  C   UNL     1      -3.630   2.305  23.832  1.00  0.00     0.111 A 
ATOM      6  C   UNL     1      -4.094   2.016  25.150  1.00  0.00     0.134 A 
ATOM      7  C   UNL     1      -3.188   2.013  26.218  1.00  0.00     0.093 A 
ATOM      8  C   UNL     1      -1.826   2.225  26.007  1.00  0.00     0.123 A 
ATOM      9  C   UNL     1      -1.352   2.450  24.713  1.00  0.00     0.094 A 
ATOM     10  C   UNL     1      -2.236   2.494  23.633  1.00  0.00     0.146 A 
ATOM     11  O   UNL     1      -1.746   2.721  22.421  1.00  0.00    -0.452 OA
ENDROOT
BRANCH   1  12
ATOM     12  C   UNL     1      -1.826   3.036  20.031  1.00  0.00     0.025 A 
ATOM     13  C   UNL     1      -1.366   4.311  19.662  1.00  0.00     0.016 A 
ATOM     14  C   UNL     1      -0.755   4.510  18.421  1.00  0.00     0.051 A 
ATOM     15  C   UNL     1      -0.607   3.445  17.527  1.00  0.00     0.157 A 
ATOM     16  C   UNL     1      -1.695   1.973  19.122  1.00  0.00     0.062 A 
ATOM     17  C   UNL     1      -1.081   2.170  17.877  1.00  0.00     0.158 A 
BRANCH  15  18
ATOM     18  O   UNL     1       0.008   3.674  16.297  1.00  0.00    -0.504 OA
ATOM     19  H   UNL     1       0.777   4.326  16.193  1.00  0.00     0.293 HD
ENDBRANCH  15  18
BRANCH  17  20
ATOM     20  O   UNL     1      -0.944   1.105  16.988  1.00  0.00    -0.504 OA
ATOM     21  H   UNL     1      -0.107   0.535  16.967  1.00  0.00     0.293 HD
ENDBRANCH  17  20
ENDBRANCH   1  12
BRANCH   2  22
ATOM     22  O   UNL     1      -4.706   2.880  20.314  1.00  0.00    -0.502 OA
ATOM     23  H   UNL     1      -5.685   3.132  20.381  1.00  0.00     0.293 HD
ENDBRANCH   2  22
BRANCH   6  24
ATOM     24  O   UNL     1      -5.421   1.698  25.457  1.00  0.00    -0.507 OA
ATOM     25  H   UNL     1      -5.727   0.818  25.841  1.00  0.00     0.293 HD
ENDBRANCH   6  24
BRANCH   8  26
ATOM     26  O   UNL     1      -0.951   2.201  27.089  1.00  0.00    -0.508 OA
ATOM     27  H   UNL     1      -0.732   1.339  27.576  1.00  0.00     0.293 HD
ENDBRANCH   8  26
TORSDOF 6
ENDMDL
MODEL 2
REMARK VINA RESULT:    -3.095      9.114     10.199
REMARK INTER + INTRA:          -4.006
REMARK INTER:                  -3.686
REMARK INTRA:                  -0.320
REMARK UNBOUND:                -0.278
REMARK SMILES O=c1c(O)c(-c2ccc(O)c(O)c2)oc2cc(O)cc(O)c12
REMARK SMILES IDX 5 1 3 2 2 3 1 4 22 5 20 6 19 7 17 8 16 9 15 10 14 11 6 12
REMARK SMILES IDX 7 13 8 14 9 15 13 16 11 17 10 18 12 20 4 22 21 24 18 26
REMARK H PARENT 10 19 12 21 4 23 21 25 18 27
REMARK Flexibility Score: inf
ROOT
ATOM      1  C   UNL     1       5.317  -2.871  20.712  1.00  0.00     0.180 A 
ATOM      2  C   UNL     1       5.544  -1.505  20.951  1.00  0.00     0.208 A 
ATOM      3  C   UNL     1       6.058  -1.107  22.196  1.00  0.00     0.238 A 
ATOM      4  O   UNL     1       6.311   0.112  22.384  1.00  0.00    -0.285 OA
ATOM      5  C   UNL     1       6.324  -2.078  23.191  1.00  0.00     0.111 A 
ATOM      6  C   UNL     1       6.808  -1.785  24.501  1.00  0.00     0.134 A 
ATOM      7  C   UNL     1       7.158  -2.835  25.360  1.00  0.00     0.093 A 
ATOM      8  C   UNL     1       6.981  -4.164  24.980  1.00  0.00     0.123 A 
ATOM      9  C   UNL     1       6.453  -4.462  23.723  1.00  0.00     0.094 A 
ATOM     10  C   UNL     1       6.127  -3.438  22.832  1.00  0.00     0.146 A 
ATOM     11  O   UNL     1       5.637  -3.763  21.642  1.00  0.00    -0.452 OA
ENDROOT
BRANCH   1  12
ATOM     12  C   UNL     1       4.753  -3.364  19.434  1.00  0.00     0.025 A 
ATOM     13  C   UNL     1       5.584  -3.751  18.370  1.00  0.00     0.016 A 
ATOM     14  C   UNL     1       5.029  -4.190  17.164  1.00  0.00     0.051 A 
ATOM     15  C   UNL     1       3.642  -4.236  17.000  1.00  0.00     0.157 A 
ATOM     16  C   UNL     1       3.360  -3.392  19.259  1.00  0.00     0.062 A 
ATOM     17  C   UNL     1       2.801  -3.833  18.050  1.00  0.00     0.158 A 
BRANCH  15  18
ATOM     18  O   UNL     1       3.118  -4.681  15.786  1.00  0.00    -0.504 OA
ATOM     19  H   UNL     1       2.731  -4.042  15.101  1.00  0.00     0.293 HD
ENDBRANCH  15  18
BRANCH  17  20
ATOM     20  O   UNL     1       1.417  -3.869  17.891  1.00  0.00    -0.504 OA
ATOM     21  H   UNL     1       0.989  -3.966  16.978  1.00  0.00     0.293 HD
ENDBRANCH  17  20
ENDBRANCH   1  12
BRANCH   2  22
ATOM     22  O   UNL     1       5.295  -0.564  19.948  1.00  0.00    -0.502 OA
ATOM     23  H   UNL     1       4.703  -0.763  19.150  1.00  0.00     0.293 HD
ENDBRANCH   2  22
BRANCH   6  24
ATOM     24  O   UNL     1       6.934  -0.490  25.014  1.00  0.00    -0.507 OA
ATOM     25  H   UNL     1       6.162   0.120  25.232  1.00  0.00     0.293 HD
ENDBRANCH   6  24
BRANCH   8  26
ATOM     26  O   UNL     1       7.326  -5.183  25.865  1.00  0.00    -0.508 OA
ATOM     27  H   UNL     1       8.056  -5.852  25.645  1.00  0.00     0.293 HD
ENDBRANCH   8  26
TORSDOF 6
ENDMDL
MODEL 3
REMARK VINA RESULT:    -3.055      3.782      7.627
REMARK INTER + INTRA:          -3.958
REMARK INTER:                  -3.685
REMARK INTRA:                  -0.272
REMARK UNBOUND:                -0.278
REMARK SMILES O=c1c(O)c(-c2ccc(O)c(O)c2)oc2cc(O)cc(O)c12
REMARK SMILES IDX 5 1 3 2 2 3 1 4 22 5 20 6 19 7 17 8 16 9 15 10 14 11 6 12
REMARK SMILES IDX 7 13 8 14 9 15 13 16 11 17 10 18 12 20 4 22 21 24 18 26
REMARK H PARENT 10 19 12 21 4 23 21 25 18 27
REMARK Flexibility Score: inf
ROOT
ATOM      1  C   UNL     1      -2.862  -1.241  21.765  1.00  0.00     0.180 A 
ATOM      2  C   UNL     1      -3.683  -2.244  21.223  1.00  0.00     0.208 A 
ATOM      3  C   UNL     1      -3.870  -2.294  19.832  1.00  0.00     0.238 A 
ATOM      4  O   UNL     1      -4.562  -3.227  19.348  1.00  0.00    -0.285 OA
ATOM      5  C   UNL     1      -3.247  -1.331  19.002  1.00  0.00     0.111 A 
ATOM      6  C   UNL     1      -3.399  -1.262  17.585  1.00  0.00     0.134 A 
ATOM      7  C   UNL     1      -2.633  -0.347  16.852  1.00  0.00     0.093 A 
ATOM      8  C   UNL     1      -1.770   0.544  17.489  1.00  0.00     0.123 A 
ATOM      9  C   UNL     1      -1.658   0.525  18.880  1.00  0.00     0.094 A 
ATOM     10  C   UNL     1      -2.382  -0.400  19.636  1.00  0.00     0.146 A 
ATOM     11  O   UNL     1      -2.239  -0.392  20.955  1.00  0.00    -0.452 OA
ENDROOT
BRANCH   1  12
ATOM     12  C   UNL     1      -2.638  -1.109  23.223  1.00  0.00     0.025 A 
ATOM     13  C   UNL     1      -3.633  -0.598  24.073  1.00  0.00     0.016 A 
ATOM     14  C   UNL     1      -3.390  -0.460  25.442  1.00  0.00     0.051 A 
ATOM     15  C   UNL     1      -2.149  -0.816  25.979  1.00  0.00     0.157 A 
ATOM     16  C   UNL     1      -1.386  -1.446  23.762  1.00  0.00     0.062 A 
ATOM     17  C   UNL     1      -1.140  -1.309  25.137  1.00  0.00     0.158 A 
BRANCH  15  18
ATOM     18  O   UNL     1      -1.937  -0.669  27.350  1.00  0.00    -0.504 OA
ATOM     19  H   UNL     1      -1.588   0.194  27.750  1.00  0.00     0.293 HD
ENDBRANCH  15  18
BRANCH  17  20
ATOM     20  O   UNL     1       0.102  -1.660  25.664  1.00  0.00    -0.504 OA
ATOM     21  H   UNL     1       0.447  -1.254  26.526  1.00  0.00     0.293 HD
ENDBRANCH  17  20
ENDBRANCH   1  12
BRANCH   2  22
ATOM     22  O   UNL     1      -4.271  -3.199  22.057  1.00  0.00    -0.502 OA
ATOM     23  H   UNL     1      -4.538  -2.995  23.013  1.00  0.00     0.293 HD
ENDBRANCH   2  22
BRANCH   6  24
ATOM     24  O   UNL     1      -4.303  -2.042  16.858  1.00  0.00    -0.507 OA
ATOM     25  H   UNL     1      -4.873  -2.776  17.249  1.00  0.00     0.293 HD
ENDBRANCH   6  24
BRANCH   8  26
ATOM     26  O   UNL     1      -1.034   1.450  16.729  1.00  0.00    -0.508 OA
ATOM     27  H   UNL     1      -1.477   2.045  16.038  1.00  0.00     0.293 HD
ENDBRANCH   8  26
TORSDOF 6
ENDMDL
MODEL 4
REMARK VINA RESULT:    -3.005      2.695      3.157
REMARK INTER + INTRA:          -3.898
REMARK INTER:                  -3.574
REMARK INTRA:                  -0.324
REMARK UNBOUND:                -0.278
REMARK SMILES O=c1c(O)c(-c2ccc(O)c(O)c2)oc2cc(O)cc(O)c12
REMARK SMILES IDX 5 1 3 2 2 3 1 4 22 5 20 6 19 7 17 8 16 9 15 10 14 11 6 12
REMARK SMILES IDX 7 13 8 14 9 15 13 16 11 17 10 18 12 20 4 22 21 24 18 26
REMARK H PARENT 10 19 12 21 4 23 21 25 18 27
REMARK Flexibility Score: inf
ROOT
ATOM      1  C   UNL     1      -2.878   0.342  20.960  1.00  0.00     0.180 A 
ATOM      2  C   UNL     1      -3.787   1.170  21.640  1.00  0.00     0.208 A 
ATOM      3  C   UNL     1      -3.942   1.018  23.027  1.00  0.00     0.238 A 
ATOM      4  O   UNL     1      -4.717   1.799  23.639  1.00  0.00    -0.285 OA
ATOM      5  C   UNL     1      -3.197   0.030  23.715  1.00  0.00     0.111 A 
ATOM      6  C   UNL     1      -3.303  -0.240  25.112  1.00  0.00     0.134 A 
ATOM      7  C   UNL     1      -2.424  -1.152  25.709  1.00  0.00     0.093 A 
ATOM      8  C   UNL     1      -1.488  -1.852  24.949  1.00  0.00     0.123 A 
ATOM      9  C   UNL     1      -1.415  -1.640  23.572  1.00  0.00     0.094 A 
ATOM     10  C   UNL     1      -2.255  -0.711  22.953  1.00  0.00     0.146 A 
ATOM     11  O   UNL     1      -2.146  -0.531  21.643  1.00  0.00    -0.452 OA
ENDROOT
BRANCH   1  12
ATOM     12  C   UNL     1      -2.679   0.426  19.495  1.00  0.00     0.025 A 
ATOM     13  C   UNL     1      -3.390  -0.404  18.611  1.00  0.00     0.016 A 
ATOM     14  C   UNL     1      -3.168  -0.324  17.233  1.00  0.00     0.051 A 
ATOM     15  C   UNL     1      -2.227   0.574  16.720  1.00  0.00     0.157 A 
ATOM     16  C   UNL     1      -1.720   1.312  18.977  1.00  0.00     0.062 A 
ATOM     17  C   UNL     1      -1.496   1.395  17.595  1.00  0.00     0.158 A 
BRANCH  15  18
ATOM     18  O   UNL     1      -2.029   0.633  15.341  1.00  0.00    -0.504 OA
ATOM     19  H   UNL     1      -1.809   1.500  14.866  1.00  0.00     0.293 HD
ENDBRANCH  15  18
BRANCH  17  20
ATOM     20  O   UNL     1      -0.551   2.287  17.091  1.00  0.00    -0.504 OA
ATOM     21  H   UNL     1       0.035   2.050  16.299  1.00  0.00     0.293 HD
ENDBRANCH  17  20
ENDBRANCH   1  12
BRANCH   2  22
ATOM     22  O   UNL     1      -4.496   2.155  20.946  1.00  0.00    -0.502 OA
ATOM     23  H   UNL     1      -5.509   2.177  20.917  1.00  0.00     0.293 HD
ENDBRANCH   2  22
BRANCH   6  24
ATOM     24  O   UNL     1      -4.266   0.336  25.946  1.00  0.00    -0.507 OA
ATOM     25  H   UNL     1      -4.131   1.177  26.486  1.00  0.00     0.293 HD
ENDBRANCH   6  24
BRANCH   8  26
ATOM     26  O   UNL     1      -0.640  -2.764  25.573  1.00  0.00    -0.508 OA
ATOM     27  H   UNL     1      -0.670  -2.917  26.575  1.00  0.00     0.293 HD
ENDBRANCH   8  26
TORSDOF 6
ENDMDL
MODEL 5
REMARK VINA RESULT:    -3.000      3.702      4.210
REMARK INTER + INTRA:          -3.892
REMARK INTER:                  -3.575
REMARK INTRA:                  -0.316
REMARK UNBOUND:                -0.278
REMARK SMILES O=c1c(O)c(-c2ccc(O)c(O)c2)oc2cc(O)cc(O)c12
REMARK SMILES IDX 5 1 3 2 2 3 1 4 22 5 20 6 19 7 17 8 16 9 15 10 14 11 6 12
REMARK SMILES IDX 7 13 8 14 9 15 13 16 11 17 10 18 12 20 4 22 21 24 18 26
REMARK H PARENT 10 19 12 21 4 23 21 25 18 27
REMARK Flexibility Score: inf
ROOT
ATOM      1  C   UNL     1      -2.627  -0.729  20.927  1.00  0.00     0.180 A 
ATOM      2  C   UNL     1      -2.591  -2.125  21.078  1.00  0.00     0.208 A 
ATOM      3  C   UNL     1      -2.300  -2.668  22.340  1.00  0.00     0.238 A 
ATOM      4  O   UNL     1      -2.323  -3.918  22.480  1.00  0.00    -0.285 OA
ATOM      5  C   UNL     1      -2.033  -1.808  23.432  1.00  0.00     0.111 A 
ATOM      6  C   UNL     1      -1.688  -2.247  24.745  1.00  0.00     0.134 A 
ATOM      7  C   UNL     1      -1.573  -1.310  25.779  1.00  0.00     0.093 A 
ATOM      8  C   UNL     1      -1.726   0.054  25.536  1.00  0.00     0.123 A 
ATOM      9  C   UNL     1      -2.005   0.500  24.243  1.00  0.00     0.094 A 
ATOM     10  C   UNL     1      -2.161  -0.413  23.197  1.00  0.00     0.146 A 
ATOM     11  O   UNL     1      -2.437   0.052  21.985  1.00  0.00    -0.452 OA
ENDROOT
BRANCH   1  12
ATOM     12  C   UNL     1      -2.902  -0.083  19.623  1.00  0.00     0.025 A 
ATOM     13  C   UNL     1      -4.217   0.142  19.181  1.00  0.00     0.016 A 
ATOM     14  C   UNL     1      -4.453   0.731  17.935  1.00  0.00     0.051 A 
ATOM     15  C   UNL     1      -3.383   1.089  17.109  1.00  0.00     0.157 A 
ATOM     16  C   UNL     1      -1.831   0.259  18.782  1.00  0.00     0.062 A 
ATOM     17  C   UNL     1      -2.065   0.850  17.531  1.00  0.00     0.158 A 
BRANCH  15  18
ATOM     18  O   UNL     1      -3.650   1.676  15.873  1.00  0.00    -0.504 OA
ATOM     19  H   UNL     1      -3.572   2.675  15.724  1.00  0.00     0.293 HD
ENDBRANCH  15  18
BRANCH  17  20
ATOM     20  O   UNL     1      -0.994   1.198  16.710  1.00  0.00    -0.504 OA
ATOM     21  H   UNL     1      -1.096   1.268  15.704  1.00  0.00     0.293 HD
ENDBRANCH  17  20
ENDBRANCH   1  12
BRANCH   2  22
ATOM     22  O   UNL     1      -2.879  -2.957  19.992  1.00  0.00    -0.502 OA
ATOM     23  H   UNL     1      -3.421  -3.808  20.087  1.00  0.00     0.293 HD
ENDBRANCH   2  22
BRANCH   6  24
ATOM     24  O   UNL     1      -1.421  -3.579  25.076  1.00  0.00    -0.507 OA
ATOM     25  H   UNL     1      -1.885  -4.093  25.808  1.00  0.00     0.293 HD
ENDBRANCH   6  24
BRANCH   8  26
ATOM     26  O   UNL     1      -1.589   0.960  26.585  1.00  0.00    -0.508 OA
ATOM     27  H   UNL     1      -2.029   0.800  27.484  1.00  0.00     0.293 HD
ENDBRANCH   8  26
TORSDOF 6
ENDMDL
MODEL 6
REMARK VINA RESULT:    -2.945      8.077     10.453
REMARK INTER + INTRA:          -3.825
REMARK INTER:                  -3.502
REMARK INTRA:                  -0.323
REMARK UNBOUND:                -0.278
REMARK SMILES O=c1c(O)c(-c2ccc(O)c(O)c2)oc2cc(O)cc(O)c12
REMARK SMILES IDX 5 1 3 2 2 3 1 4 22 5 20 6 19 7 17 8 16 9 15 10 14 11 6 12
REMARK SMILES IDX 7 13 8 14 9 15 13 16 11 17 10 18 12 20 4 22 21 24 18 26
REMARK H PARENT 10 19 12 21 4 23 21 25 18 27
REMARK Flexibility Score: inf
ROOT
ATOM      1  C   UNL     1       4.791  -2.167  19.448  1.00  0.00     0.180 A 
ATOM      2  C   UNL     1       5.717  -2.167  18.392  1.00  0.00     0.208 A 
ATOM      3  C   UNL     1       6.860  -1.356  18.487  1.00  0.00     0.238 A 
ATOM      4  O   UNL     1       7.713  -1.402  17.563  1.00  0.00    -0.285 OA
ATOM      5  C   UNL     1       7.054  -0.545  19.631  1.00  0.00     0.111 A 
ATOM      6  C   UNL     1       8.154   0.345  19.817  1.00  0.00     0.134 A 
ATOM      7  C   UNL     1       8.312   1.002  21.044  1.00  0.00     0.093 A 
ATOM      8  C   UNL     1       7.377   0.852  22.066  1.00  0.00     0.123 A 
ATOM      9  C   UNL     1       6.265   0.030  21.874  1.00  0.00     0.094 A 
ATOM     10  C   UNL     1       6.099  -0.666  20.675  1.00  0.00     0.146 A 
ATOM     11  O   UNL     1       5.034  -1.445  20.536  1.00  0.00    -0.452 OA
ENDROOT
BRANCH   1  12
ATOM     12  C   UNL     1       3.551  -2.976  19.408  1.00  0.00     0.025 A 
ATOM     13  C   UNL     1       3.517  -4.288  19.910  1.00  0.00     0.016 A 
ATOM     14  C   UNL     1       2.342  -5.042  19.840  1.00  0.00     0.051 A 
ATOM     15  C   UNL     1       1.191  -4.503  19.257  1.00  0.00     0.157 A 
ATOM     16  C   UNL     1       2.399  -2.446  18.805  1.00  0.00     0.062 A 
ATOM     17  C   UNL     1       1.218  -3.200  18.734  1.00  0.00     0.158 A 
BRANCH  15  18
ATOM     18  O   UNL     1       0.033  -5.278  19.203  1.00  0.00    -0.504 OA
ATOM     19  H   UNL     1      -0.443  -5.594  20.040  1.00  0.00     0.293 HD
ENDBRANCH  15  18
BRANCH  17  20
ATOM     20  O   UNL     1       0.076  -2.659  18.145  1.00  0.00    -0.504 OA
ATOM     21  H   UNL     1      -0.026  -1.661  18.003  1.00  0.00     0.293 HD
ENDBRANCH  17  20
ENDBRANCH   1  12
BRANCH   2  22
ATOM     22  O   UNL     1       5.518  -2.992  17.281  1.00  0.00    -0.502 OA
ATOM     23  H   UNL     1       5.804  -2.725  16.347  1.00  0.00     0.293 HD
ENDBRANCH   2  22
BRANCH   6  24
ATOM     24  O   UNL     1       9.095   0.639  18.826  1.00  0.00    -0.507 OA
ATOM     25  H   UNL     1       9.687   1.455  18.818  1.00  0.00     0.293 HD
ENDBRANCH   6  24
BRANCH   8  26
ATOM     26  O   UNL     1       7.558   1.533  23.268  1.00  0.00    -0.508 OA
ATOM     27  H   UNL     1       7.167   1.187  24.137  1.00  0.00     0.293 HD
ENDBRANCH   8  26
TORSDOF 6
ENDMDL
MODEL 7
REMARK VINA RESULT:    -2.944      7.879     10.310
REMARK INTER + INTRA:          -3.824
REMARK INTER:                  -3.511
REMARK INTRA:                  -0.313
REMARK UNBOUND:                -0.278
REMARK SMILES O=c1c(O)c(-c2ccc(O)c(O)c2)oc2cc(O)cc(O)c12
REMARK SMILES IDX 5 1 3 2 2 3 1 4 22 5 20 6 19 7 17 8 16 9 15 10 14 11 6 12
REMARK SMILES IDX 7 13 8 14 9 15 13 16 11 17 10 18 12 20 4 22 21 24 18 26
REMARK H PARENT 10 19 12 21 4 23 21 25 18 27
REMARK Flexibility Score: inf
ROOT
ATOM      1  C   UNL     1       2.286  -3.902  18.131  1.00  0.00     0.180 A 
ATOM      2  C   UNL     1       2.522  -4.533  16.899  1.00  0.00     0.208 A 
ATOM      3  C   UNL     1       1.432  -4.833  16.066  1.00  0.00     0.238 A 
ATOM      4  O   UNL     1       1.654  -5.348  14.940  1.00  0.00    -0.285 OA
ATOM      5  C   UNL     1       0.118  -4.511  16.483  1.00  0.00     0.111 A 
ATOM      6  C   UNL     1      -1.064  -4.804  15.739  1.00  0.00     0.134 A 
ATOM      7  C   UNL     1      -2.301  -4.324  16.189  1.00  0.00     0.093 A 
ATOM      8  C   UNL     1      -2.407  -3.618  17.386  1.00  0.00     0.123 A 
ATOM      9  C   UNL     1      -1.266  -3.377  18.152  1.00  0.00     0.094 A 
ATOM     10  C   UNL     1      -0.013  -3.813  17.713  1.00  0.00     0.146 A 
ATOM     11  O   UNL     1       1.049  -3.554  18.466  1.00  0.00    -0.452 OA
ENDROOT
BRANCH   1  12
ATOM     12  C   UNL     1       3.382  -3.577  19.073  1.00  0.00     0.025 A 
ATOM     13  C   UNL     1       3.924  -4.552  19.928  1.00  0.00     0.016 A 
ATOM     14  C   UNL     1       4.941  -4.217  20.826  1.00  0.00     0.051 A 
ATOM     15  C   UNL     1       5.422  -2.906  20.893  1.00  0.00     0.157 A 
ATOM     16  C   UNL     1       3.853  -2.257  19.158  1.00  0.00     0.062 A 
ATOM     17  C   UNL     1       4.874  -1.919  20.058  1.00  0.00     0.158 A 
BRANCH  15  18
ATOM     18  O   UNL     1       6.439  -2.603  21.798  1.00  0.00    -0.504 OA
ATOM     19  H   UNL     1       6.243  -2.291  22.742  1.00  0.00     0.293 HD
ENDBRANCH  15  18
BRANCH  17  20
ATOM     20  O   UNL     1       5.343  -0.608  20.124  1.00  0.00    -0.504 OA
ATOM     21  H   UNL     1       6.161  -0.309  19.606  1.00  0.00     0.293 HD
ENDBRANCH  17  20
ENDBRANCH   1  12
BRANCH   2  22
ATOM     22  O   UNL     1       3.829  -4.823  16.496  1.00  0.00    -0.502 OA
ATOM     23  H   UNL     1       4.640  -4.423  16.952  1.00  0.00     0.293 HD
ENDBRANCH   2  22
BRANCH   6  24
ATOM     24  O   UNL     1      -1.081  -5.581  14.577  1.00  0.00    -0.507 OA
ATOM     25  H   UNL     1      -0.285  -5.741  13.980  1.00  0.00     0.293 HD
ENDBRANCH   6  24
BRANCH   8  26
ATOM     26  O   UNL     1      -3.655  -3.169  17.811  1.00  0.00    -0.508 OA
ATOM     27  H   UNL     1      -3.775  -2.701  18.702  1.00  0.00     0.293 HD
ENDBRANCH   8  26
TORSDOF 6
ENDMDL
MODEL 8
REMARK VINA RESULT:    -2.942      1.452      2.027
REMARK INTER + INTRA:          -3.822
REMARK INTER:                  -3.492
REMARK INTRA:                  -0.330
REMARK UNBOUND:                -0.278
REMARK SMILES O=c1c(O)c(-c2ccc(O)c(O)c2)oc2cc(O)cc(O)c12
REMARK SMILES IDX 5 1 3 2 2 3 1 4 22 5 20 6 19 7 17 8 16 9 15 10 14 11 6 12
REMARK SMILES IDX 7 13 8 14 9 15 13 16 11 17 10 18 12 20 4 22 21 24 18 26
REMARK H PARENT 10 19 12 21 4 23 21 25 18 27
REMARK Flexibility Score: inf
ROOT
ATOM      1  C   UNL     1      -2.892   2.708  21.122  1.00  0.00     0.180 A 
ATOM      2  C   UNL     1      -3.868   3.696  21.337  1.00  0.00     0.208 A 
ATOM      3  C   UNL     1      -4.127   4.123  22.649  1.00  0.00     0.238 A 
ATOM      4  O   UNL     1      -4.963   5.046  22.831  1.00  0.00    -0.285 OA
ATOM      5  C   UNL     1      -3.419   3.546  23.731  1.00  0.00     0.111 A 
ATOM      6  C   UNL     1      -3.628   3.873  25.104  1.00  0.00     0.134 A 
ATOM      7  C   UNL     1      -2.780   3.335  26.080  1.00  0.00     0.093 A 
ATOM      8  C   UNL     1      -1.773   2.432  25.740  1.00  0.00     0.123 A 
ATOM      9  C   UNL     1      -1.597   2.059  24.407  1.00  0.00     0.094 A 
ATOM     10  C   UNL     1      -2.405   2.606  23.407  1.00  0.00     0.146 A 
ATOM     11  O   UNL     1      -2.198   2.233  22.150  1.00  0.00    -0.452 OA
ENDROOT
BRANCH   1  12
ATOM     12  C   UNL     1      -2.580   2.190  19.769  1.00  0.00     0.025 A 
ATOM     13  C   UNL     1      -3.248   1.070  19.244  1.00  0.00     0.016 A 
ATOM     14  C   UNL     1      -2.920   0.584  17.975  1.00  0.00     0.051 A 
ATOM     15  C   UNL     1      -1.916   1.197  17.220  1.00  0.00     0.157 A 
ATOM     16  C   UNL     1      -1.558   2.791  19.017  1.00  0.00     0.062 A 
ATOM     17  C   UNL     1      -1.229   2.304  17.743  1.00  0.00     0.158 A 
BRANCH  15  18
ATOM     18  O   UNL     1      -1.613   0.690  15.957  1.00  0.00    -0.504 OA
ATOM     19  H   UNL     1      -1.045  -0.139  15.833  1.00  0.00     0.293 HD
ENDBRANCH  15  18
BRANCH  17  20
ATOM     20  O   UNL     1      -0.221   2.917  16.999  1.00  0.00    -0.504 OA
ATOM     21  H   UNL     1       0.444   3.551  17.426  1.00  0.00     0.293 HD
ENDBRANCH  17  20
ENDBRANCH   1  12
BRANCH   2  22
ATOM     22  O   UNL     1      -4.540   4.268  20.254  1.00  0.00    -0.502 OA
ATOM     23  H   UNL     1      -5.183   3.742  19.673  1.00  0.00     0.293 HD
ENDBRANCH   2  22
BRANCH   6  24
ATOM     24  O   UNL     1      -4.665   4.692  25.561  1.00  0.00    -0.507 OA
ATOM     25  H   UNL     1      -5.622   4.398  25.677  1.00  0.00     0.293 HD
ENDBRANCH   6  24
BRANCH   8  26
ATOM     26  O   UNL     1      -0.958   1.905  26.739  1.00  0.00    -0.508 OA
ATOM     27  H   UNL     1      -0.756   0.913  26.789  1.00  0.00     0.293 HD
ENDBRANCH   8  26
TORSDOF 6
ENDMDL
MODEL 9
REMARK VINA RESULT:    -2.872      9.496     11.146
REMARK INTER + INTRA:          -3.738
REMARK INTER:                  -3.424
REMARK INTRA:                  -0.314
REMARK UNBOUND:                -0.278
REMARK SMILES O=c1c(O)c(-c2ccc(O)c(O)c2)oc2cc(O)cc(O)c12
REMARK SMILES IDX 5 1 3 2 2 3 1 4 22 5 20 6 19 7 17 8 16 9 15 10 14 11 6 12
REMARK SMILES IDX 7 13 8 14 9 15 13 16 11 17 10 18 12 20 4 22 21 24 18 26
REMARK H PARENT 10 19 12 21 4 23 21 25 18 27
REMARK Flexibility Score: inf
ROOT
ATOM      1  C   UNL     1       6.576  -2.569  24.014  1.00  0.00     0.180 A 
ATOM      2  C   UNL     1       7.932  -2.637  24.375  1.00  0.00     0.208 A 
ATOM      3  C   UNL     1       8.270  -2.844  25.723  1.00  0.00     0.238 A 
ATOM      4  O   UNL     1       9.484  -2.958  26.031  1.00  0.00    -0.285 OA
ATOM      5  C   UNL     1       7.247  -2.964  26.694  1.00  0.00     0.111 A 
ATOM      6  C   UNL     1       7.473  -3.135  28.093  1.00  0.00     0.134 A 
ATOM      7  C   UNL     1       6.387  -3.374  28.945  1.00  0.00     0.093 A 
ATOM      8  C   UNL     1       5.080  -3.382  28.460  1.00  0.00     0.123 A 
ATOM      9  C   UNL     1       4.843  -3.157  27.103  1.00  0.00     0.094 A 
ATOM     10  C   UNL     1       5.907  -2.951  26.223  1.00  0.00     0.146 A 
ATOM     11  O   UNL     1       5.639  -2.752  24.938  1.00  0.00    -0.452 OA
ENDROOT
BRANCH   1  12
ATOM     12  C   UNL     1       6.143  -2.329  22.618  1.00  0.00     0.025 A 
ATOM     13  C   UNL     1       5.841  -3.394  21.752  1.00  0.00     0.016 A 
ATOM     14  C   UNL     1       5.459  -3.144  20.432  1.00  0.00     0.051 A 
ATOM     15  C   UNL     1       5.384  -1.832  19.954  1.00  0.00     0.157 A 
ATOM     16  C   UNL     1       6.087  -1.014  22.129  1.00  0.00     0.062 A 
ATOM     17  C   UNL     1       5.703  -0.761  20.804  1.00  0.00     0.158 A 
BRANCH  15  18
ATOM     18  O   UNL     1       4.997  -1.614  18.632  1.00  0.00    -0.504 OA
ATOM     19  H   UNL     1       5.348  -2.180  17.868  1.00  0.00     0.293 HD
ENDBRANCH  15  18
BRANCH  17  20
ATOM     20  O   UNL     1       5.637   0.549  20.332  1.00  0.00    -0.504 OA
ATOM     21  H   UNL     1       6.163   1.298  20.768  1.00  0.00     0.293 HD
ENDBRANCH  17  20
ENDBRANCH   1  12
BRANCH   2  22
ATOM     22  O   UNL     1       8.926  -2.538  23.398  1.00  0.00    -0.502 OA
ATOM     23  H   UNL     1       9.856  -2.916  23.527  1.00  0.00     0.293 HD
ENDBRANCH   2  22
BRANCH   6  24
ATOM     24  O   UNL     1       8.732  -3.052  28.695  1.00  0.00    -0.507 OA
ATOM     25  H   UNL     1       9.378  -2.288  28.574  1.00  0.00     0.293 HD
ENDBRANCH   6  24
BRANCH   8  26
ATOM     26  O   UNL     1       4.023  -3.607  29.338  1.00  0.00    -0.508 OA
ATOM     27  H   UNL     1       3.519  -4.486  29.347  1.00  0.00     0.293 HD
ENDBRANCH   8  26
TORSDOF 6
ENDMDL
