MODEL 1
REMARK VINA RESULT:    -3.341      0.000      0.000
REMARK INTER + INTRA:          -7.093
REMARK INTER:                  -5.782
REMARK INTRA:                  -1.311
REMARK UNBOUND:                -1.311
REMARK SMILES OC[C@H]1O[C@H](O[C@@H]2[C@@H](O)[C@H](O)[C@@H](O[C@@H]3[C@H](O)[C@H](O)[C@@H](O)O[C@@H]3CO)O[C@@H]2CO)[C@@H](O)[C@H](O)[C@@H]1O
REMARK SMILES IDX 7 1 26 2 25 3 12 4 10 5 8 6 6 7 5 8 3 9 33 10 4 11 31 12
REMARK SMILES IDX 29 13 2 14 1 15 34 17 32 19 30 21 27 23 28 24 9 26 11 28
REMARK SMILES IDX 13 30 14 31 22 32 15 33 21 34 17 35 19 36 23 37 24 38 16 40
REMARK SMILES IDX 18 42 20 44
REMARK H PARENT 1 16 34 18 32 20 30 22 28 25 9 27 11 29 24 39 16 41 18 43
REMARK H PARENT 20 45
REMARK Flexibility Score: inf
ROOT
ATOM      1  C   UNL     1      -9.700   5.152  -5.851  1.00  0.00     0.184 C 
ATOM      2  C   UNL     1      -9.821   5.004  -7.397  1.00  0.00     0.178 C 
ATOM      3  O   UNL     1      -8.624   4.485  -7.961  1.00  0.00    -0.341 OA
ATOM      4  C   UNL     1      -8.201   3.223  -7.453  1.00  0.00     0.282 C 
ATOM      5  C   UNL     1      -9.031   2.720  -6.229  1.00  0.00     0.202 C 
ATOM      6  C   UNL     1      -9.119   3.867  -5.208  1.00  0.00     0.180 C 
ENDROOT
BRANCH   1   7
ATOM      7  O   UNL     1      -8.858   6.257  -5.571  1.00  0.00    -0.341 OA
BRANCH   7   8
ATOM      8  C   UNL     1      -9.524   7.315  -4.889  1.00  0.00     0.282 C 
ATOM      9  C   UNL     1      -8.818   6.556  -2.773  1.00  0.00     0.178 C 
ATOM     10  C   UNL     1      -7.998   7.838  -2.438  1.00  0.00     0.177 C 
ATOM     11  O   UNL     1      -9.937   6.835  -3.610  1.00  0.00    -0.341 OA
ATOM     12  C   UNL     1      -8.497   9.030  -3.275  1.00  0.00     0.179 C 
ATOM     13  C   UNL     1      -8.644   8.605  -4.751  1.00  0.00     0.202 C 
BRANCH   9  14
ATOM     14  C   UNL     1      -9.291   5.823  -1.512  1.00  0.00     0.191 C 
BRANCH  14  15
ATOM     15  O   UNL     1      -8.242   5.674  -0.596  1.00  0.00    -0.394 OA
ATOM     16  H   UNL     1      -8.590   5.928   0.302  1.00  0.00     0.210 HD
ENDBRANCH  14  15
ENDBRANCH   9  14
BRANCH  10  17
ATOM     17  O   UNL     1      -6.638   7.588  -2.711  1.00  0.00    -0.387 OA
ATOM     18  H   UNL     1      -6.210   8.450  -2.967  1.00  0.00     0.211 HD
ENDBRANCH  10  17
BRANCH  12  19
ATOM     19  O   UNL     1      -7.603  10.115  -3.196  1.00  0.00    -0.387 OA
ATOM     20  H   UNL     1      -6.684   9.740  -3.263  1.00  0.00     0.211 HD
ENDBRANCH  12  19
BRANCH  13  21
ATOM     21  O   UNL     1      -9.175   9.656  -5.515  1.00  0.00    -0.385 OA
ATOM     22  H   UNL     1      -9.024  10.499  -5.010  1.00  0.00     0.211 HD
ENDBRANCH  13  21
ENDBRANCH   7   8
ENDBRANCH   1   7
BRANCH   2  23
ATOM     23  C   UNL     1     -10.125   6.351  -8.098  1.00  0.00     0.191 C 
BRANCH  23  24
ATOM     24  O   UNL     1      -8.977   7.127  -8.252  1.00  0.00    -0.394 OA
ATOM     25  H   UNL     1      -8.569   6.862  -9.116  1.00  0.00     0.210 HD
ENDBRANCH  23  24
ENDBRANCH   2  23
BRANCH   6  26
ATOM     26  O   UNL     1      -9.854   3.479  -4.065  1.00  0.00    -0.387 OA
ATOM     27  H   UNL     1     -10.776   3.834  -4.176  1.00  0.00     0.211 HD
ENDBRANCH   6  26
BRANCH   5  28
ATOM     28  O   UNL     1      -8.484   1.581  -5.632  1.00  0.00    -0.385 OA
ATOM     29  H   UNL     1      -7.552   1.457  -5.952  1.00  0.00     0.211 HD
ENDBRANCH   5  28
BRANCH   4  30
ATOM     30  O   UNL     1      -8.301   2.257  -8.470  1.00  0.00    -0.341 OA
BRANCH  30  31
ATOM     31  C   UNL     1      -7.064   1.751  -8.962  1.00  0.00     0.184 C 
ATOM     32  C   UNL     1      -5.864   2.733  -9.160  1.00  0.00     0.178 C 
ATOM     33  C   UNL     1      -6.662   0.350  -8.425  1.00  0.00     0.180 C 
ATOM     34  O   UNL     1      -4.869   2.101  -9.962  1.00  0.00    -0.342 OA
ATOM     35  C   UNL     1      -5.450  -0.168  -9.248  1.00  0.00     0.201 C 
ATOM     36  C   UNL     1      -4.352   0.917  -9.360  1.00  0.00     0.279 C 
BRANCH  32  37
ATOM     37  C   UNL     1      -5.232   3.421  -7.923  1.00  0.00     0.191 C 
BRANCH  37  38
ATOM     38  O   UNL     1      -4.438   4.506  -8.318  1.00  0.00    -0.394 OA
ATOM     39  H   UNL     1      -4.826   5.318  -7.909  1.00  0.00     0.210 HD
ENDBRANCH  37  38
ENDBRANCH  32  37
BRANCH  33  40
ATOM     40  O   UNL     1      -6.420   0.347  -7.036  1.00  0.00    -0.387 OA
ATOM     41  H   UNL     1      -6.931   1.083  -6.614  1.00  0.00     0.211 HD
ENDBRANCH  33  40
BRANCH  35  42
ATOM     42  O   UNL     1      -4.957  -1.376  -8.733  1.00  0.00    -0.385 OA
ATOM     43  H   UNL     1      -5.700  -2.036  -8.711  1.00  0.00     0.211 HD
ENDBRANCH  35  42
BRANCH  36  44
ATOM     44  O   UNL     1      -3.273   0.435 -10.120  1.00  0.00    -0.366 OA
ATOM     45  H   UNL     1      -3.025   1.133 -10.785  1.00  0.00     0.213 HD
ENDBRANCH  36  44
ENDBRANCH  30  31
ENDBRANCH   4  30
TORSDOF 18
ENDMDL
MODEL 2
REMARK VINA RESULT:    -2.810      1.895      8.362
REMARK INTER + INTRA:          -6.175
REMARK INTER:                  -4.262
REMARK INTRA:                  -1.913
REMARK UNBOUND:                -1.311
REMARK SMILES OC[C@H]1O[C@H](O[C@@H]2[C@@H](O)[C@H](O)[C@@H](O[C@@H]3[C@H](O)[C@H](O)[C@@H](O)O[C@@H]3CO)O[C@@H]2CO)[C@@H](O)[C@H](O)[C@@H]1O
REMARK SMILES IDX 7 1 26 2 25 3 12 4 10 5 8 6 6 7 5 8 3 9 33 10 4 11 31 12
REMARK SMILES IDX 29 13 2 14 1 15 34 17 32 19 30 21 27 23 28 24 9 26 11 28
REMARK SMILES IDX 13 30 14 31 22 32 15 33 21 34 17 35 19 36 23 37 24 38 16 40
REMARK SMILES IDX 18 42 20 44
REMARK H PARENT 1 16 34 18 32 20 30 22 28 25 9 27 11 29 24 39 16 41 18 43
REMARK H PARENT 20 45
REMARK Flexibility Score: inf
ROOT
ATOM      1  C   UNL     1      -9.662   5.079  -5.689  1.00  0.00     0.184 C 
ATOM      2  C   UNL     1     -10.013   4.915  -4.179  1.00  0.00     0.178 C 
ATOM      3  O   UNL     1      -9.124   5.663  -3.359  1.00  0.00    -0.341 OA
ATOM      4  C   UNL     1      -9.070   7.061  -3.625  1.00  0.00     0.282 C 
ATOM      5  C   UNL     1      -9.860   7.497  -4.900  1.00  0.00     0.202 C 
ATOM      6  C   UNL     1      -9.450   6.570  -6.057  1.00  0.00     0.180 C 
ENDROOT
BRANCH   1   7
ATOM      7  O   UNL     1      -8.483   4.341  -5.957  1.00  0.00    -0.341 OA
BRANCH   7   8
ATOM      8  C   UNL     1      -8.540   3.611  -7.178  1.00  0.00     0.282 C 
ATOM      9  C   UNL     1      -7.025   5.060  -8.254  1.00  0.00     0.178 C 
ATOM     10  C   UNL     1      -5.944   3.965  -8.501  1.00  0.00     0.177 C 
ATOM     11  O   UNL     1      -8.346   4.525  -8.257  1.00  0.00    -0.341 OA
ATOM     12  C   UNL     1      -6.583   2.563  -8.471  1.00  0.00     0.179 C 
ATOM     13  C   UNL     1      -7.504   2.436  -7.240  1.00  0.00     0.202 C 
BRANCH   9  14
ATOM     14  C   UNL     1      -6.934   6.204  -9.270  1.00  0.00     0.191 C 
BRANCH  14  15
ATOM     15  O   UNL     1      -8.198   6.751  -9.524  1.00  0.00    -0.394 OA
ATOM     16  H   UNL     1      -8.474   6.457 -10.435  1.00  0.00     0.210 HD
ENDBRANCH  14  15
ENDBRANCH   9  14
BRANCH  10  17
ATOM     17  O   UNL     1      -4.958   4.071  -7.500  1.00  0.00    -0.387 OA
ATOM     18  H   UNL     1      -5.360   3.781  -6.636  1.00  0.00     0.211 HD
ENDBRANCH  10  17
BRANCH  12  19
ATOM     19  O   UNL     1      -5.597   1.558  -8.413  1.00  0.00    -0.387 OA
ATOM     20  H   UNL     1      -4.854   1.845  -9.009  1.00  0.00     0.211 HD
ENDBRANCH  12  19
BRANCH  13  21
ATOM     21  O   UNL     1      -8.157   1.194  -7.240  1.00  0.00    -0.385 OA
ATOM     22  H   UNL     1      -7.676   0.603  -6.601  1.00  0.00     0.211 HD
ENDBRANCH  13  21
ENDBRANCH   7   8
ENDBRANCH   1   7
BRANCH   2  23
ATOM     23  C   UNL     1      -9.953   3.440  -3.715  1.00  0.00     0.191 C 
BRANCH  23  24
ATOM     24  O   UNL     1      -9.373   3.316  -2.453  1.00  0.00    -0.394 OA
ATOM     25  H   UNL     1      -9.058   4.219  -2.195  1.00  0.00     0.210 HD
ENDBRANCH  23  24
ENDBRANCH   2  23
BRANCH   6  26
ATOM     26  O   UNL     1     -10.125   6.912  -7.251  1.00  0.00    -0.387 OA
ATOM     27  H   UNL     1      -9.841   7.834  -7.492  1.00  0.00     0.211 HD
ENDBRANCH   6  26
BRANCH   5  28
ATOM     28  O   UNL     1      -9.640   8.832  -5.247  1.00  0.00    -0.385 OA
ATOM     29  H   UNL     1      -9.115   8.870  -6.090  1.00  0.00     0.211 HD
ENDBRANCH   5  28
BRANCH   4  30
ATOM     30  O   UNL     1      -9.598   7.763  -2.527  1.00  0.00    -0.341 OA
BRANCH  30  31
ATOM     31  C   UNL     1      -8.646   8.448  -1.718  1.00  0.00     0.184 C 
ATOM     32  C   UNL     1      -8.449   8.002  -0.234  1.00  0.00     0.178 C 
ATOM     33  C   UNL     1      -7.336   8.858  -2.444  1.00  0.00     0.180 C 
ATOM     34  O   UNL     1      -7.726   9.012   0.466  1.00  0.00    -0.342 OA
ATOM     35  C   UNL     1      -6.534   9.814  -1.517  1.00  0.00     0.201 C 
ATOM     36  C   UNL     1      -6.430   9.239  -0.084  1.00  0.00     0.279 C 
BRANCH  32  37
ATOM     37  C   UNL     1      -7.876   6.594   0.068  1.00  0.00     0.191 C 
BRANCH  37  38
ATOM     38  O   UNL     1      -8.608   5.610  -0.613  1.00  0.00    -0.394 OA
ATOM     39  H   UNL     1      -8.392   5.697  -1.574  1.00  0.00     0.210 HD
ENDBRANCH  37  38
ENDBRANCH  32  37
BRANCH  33  40
ATOM     40  O   UNL     1      -6.577   7.748  -2.870  1.00  0.00    -0.387 OA
ATOM     41  H   UNL     1      -5.947   7.489  -2.152  1.00  0.00     0.211 HD
ENDBRANCH  33  40
BRANCH  35  42
ATOM     42  O   UNL     1      -5.279  10.125  -2.061  1.00  0.00    -0.385 OA
ATOM     43  H   UNL     1      -4.578   9.859  -1.408  1.00  0.00     0.211 HD
ENDBRANCH  35  42
BRANCH  36  44
ATOM     44  O   UNL     1      -5.717  10.125   0.741  1.00  0.00    -0.366 OA
ATOM     45  H   UNL     1      -4.820  10.273   0.335  1.00  0.00     0.213 HD
ENDBRANCH  36  44
ENDBRANCH  30  31
ENDBRANCH   4  30
TORSDOF 18
ENDMDL
MODEL 3
REMARK VINA RESULT:    -2.410      1.861      8.437
REMARK INTER + INTRA:          -5.482
REMARK INTER:                  -3.735
REMARK INTRA:                  -1.747
REMARK UNBOUND:                -1.311
REMARK SMILES OC[C@H]1O[C@H](O[C@@H]2[C@@H](O)[C@H](O)[C@@H](O[C@@H]3[C@H](O)[C@H](O)[C@@H](O)O[C@@H]3CO)O[C@@H]2CO)[C@@H](O)[C@H](O)[C@@H]1O
REMARK SMILES IDX 7 1 26 2 25 3 12 4 10 5 8 6 6 7 5 8 3 9 33 10 4 11 31 12
REMARK SMILES IDX 29 13 2 14 1 15 34 17 32 19 30 21 27 23 28 24 9 26 11 28
REMARK SMILES IDX 13 30 14 31 22 32 15 33 21 34 17 35 19 36 23 37 24 38 16 40
REMARK SMILES IDX 18 42 20 44
REMARK H PARENT 1 16 34 18 32 20 30 22 28 25 9 27 11 29 24 39 16 41 18 43
REMARK H PARENT 20 45
REMARK Flexibility Score: inf
ROOT
ATOM      1  C   UNL     1      -9.515   6.235  -6.953  1.00  0.00     0.184 C 
ATOM      2  C   UNL     1      -9.919   5.937  -5.478  1.00  0.00     0.178 C 
ATOM      3  O   UNL     1      -9.175   6.737  -4.567  1.00  0.00    -0.341 OA
ATOM      4  C   UNL     1      -9.284   8.144  -4.754  1.00  0.00     0.282 C 
ATOM      5  C   UNL     1     -10.057   8.557  -6.047  1.00  0.00     0.202 C 
ATOM      6  C   UNL     1      -9.474   7.760  -7.227  1.00  0.00     0.180 C 
ENDROOT
BRANCH   1   7
ATOM      7  O   UNL     1      -8.239   5.665  -7.192  1.00  0.00    -0.341 OA
BRANCH   7   8
ATOM      8  C   UNL     1      -8.002   5.370  -8.564  1.00  0.00     0.282 C 
ATOM      9  C   UNL     1      -6.251   3.875  -8.064  1.00  0.00     0.178 C 
ATOM     10  C   UNL     1      -6.960   2.629  -8.674  1.00  0.00     0.177 C 
ATOM     11  O   UNL     1      -6.614   5.082  -8.728  1.00  0.00    -0.341 OA
ATOM     12  C   UNL     1      -8.026   3.064  -9.698  1.00  0.00     0.179 C 
ATOM     13  C   UNL     1      -8.890   4.194  -9.101  1.00  0.00     0.202 C 
BRANCH   9  14
ATOM     14  C   UNL     1      -4.725   3.731  -8.060  1.00  0.00     0.191 C 
BRANCH  14  15
ATOM     15  O   UNL     1      -4.244   3.459  -9.347  1.00  0.00    -0.394 OA
ATOM     16  H   UNL     1      -4.284   2.472  -9.480  1.00  0.00     0.210 HD
ENDBRANCH  14  15
ENDBRANCH   9  14
BRANCH  10  17
ATOM     17  O   UNL     1      -7.559   1.894  -7.631  1.00  0.00    -0.387 OA
ATOM     18  H   UNL     1      -6.888   1.786  -6.904  1.00  0.00     0.211 HD
ENDBRANCH  10  17
BRANCH  12  19
ATOM     19  O   UNL     1      -8.859   1.985 -10.051  1.00  0.00    -0.387 OA
ATOM     20  H   UNL     1      -8.443   1.542 -10.838  1.00  0.00     0.211 HD
ENDBRANCH  12  19
BRANCH  13  21
ATOM     21  O   UNL     1      -9.815   4.659 -10.048  1.00  0.00    -0.385 OA
ATOM     22  H   UNL     1     -10.644   4.119  -9.947  1.00  0.00     0.211 HD
ENDBRANCH  13  21
ENDBRANCH   7   8
ENDBRANCH   1   7
BRANCH   2  23
ATOM     23  C   UNL     1      -9.696   4.455  -5.091  1.00  0.00     0.191 C 
BRANCH  23  24
ATOM     24  O   UNL     1      -8.343   4.156  -4.935  1.00  0.00    -0.394 OA
ATOM     25  H   UNL     1      -7.852   4.709  -5.594  1.00  0.00     0.210 HD
ENDBRANCH  23  24
ENDBRANCH   2  23
BRANCH   6  26
ATOM     26  O   UNL     1     -10.125   8.089  -8.437  1.00  0.00    -0.387 OA
ATOM     27  H   UNL     1     -10.550   8.979  -8.308  1.00  0.00     0.211 HD
ENDBRANCH   6  26
BRANCH   5  28
ATOM     28  O   UNL     1      -9.989   9.928  -6.308  1.00  0.00    -0.385 OA
ATOM     29  H   UNL     1      -9.516  10.075  -7.169  1.00  0.00     0.211 HD
ENDBRANCH   5  28
BRANCH   4  30
ATOM     30  O   UNL     1      -9.952   8.708  -3.652  1.00  0.00    -0.341 OA
BRANCH  30  31
ATOM     31  C   UNL     1      -9.120   9.116  -2.570  1.00  0.00     0.184 C 
ATOM     32  C   UNL     1      -9.362   8.506  -1.152  1.00  0.00     0.178 C 
ATOM     33  C   UNL     1      -7.624   9.326  -2.929  1.00  0.00     0.180 C 
ATOM     34  O   UNL     1      -8.668   9.287  -0.182  1.00  0.00    -0.342 OA
ATOM     35  C   UNL     1      -6.917  10.017  -1.730  1.00  0.00     0.201 C 
ATOM     36  C   UNL     1      -7.259   9.305  -0.400  1.00  0.00     0.279 C 
BRANCH  32  37
ATOM     37  C   UNL     1      -9.126   6.992  -0.924  1.00  0.00     0.191 C 
BRANCH  37  38
ATOM     38  O   UNL     1      -9.737   6.242  -1.939  1.00  0.00    -0.394 OA
ATOM     39  H   UNL     1      -9.087   5.557  -2.230  1.00  0.00     0.210 HD
ENDBRANCH  37  38
ENDBRANCH  32  37
BRANCH  33  40
ATOM     40  O   UNL     1      -6.985   8.132  -3.325  1.00  0.00    -0.387 OA
ATOM     41  H   UNL     1      -6.419   7.804  -2.582  1.00  0.00     0.211 HD
ENDBRANCH  33  40
BRANCH  35  42
ATOM     42  O   UNL     1      -5.534  10.125  -1.940  1.00  0.00    -0.385 OA
ATOM     43  H   UNL     1      -5.245   9.375  -2.524  1.00  0.00     0.211 HD
ENDBRANCH  35  42
BRANCH  36  44
ATOM     44  O   UNL     1      -6.625   9.955   0.673  1.00  0.00    -0.366 OA
ATOM     45  H   UNL     1      -7.045  10.850   0.785  1.00  0.00     0.213 HD
ENDBRANCH  36  44
ENDBRANCH  30  31
ENDBRANCH   4  30
TORSDOF 18
ENDMDL
MODEL 4
REMARK VINA RESULT:    -1.934      2.066      3.624
REMARK INTER + INTRA:          -4.659
REMARK INTER:                  -4.433
REMARK INTRA:                  -0.226
REMARK UNBOUND:                -1.311
REMARK SMILES OC[C@H]1O[C@H](O[C@@H]2[C@@H](O)[C@H](O)[C@@H](O[C@@H]3[C@H](O)[C@H](O)[C@@H](O)O[C@@H]3CO)O[C@@H]2CO)[C@@H](O)[C@H](O)[C@@H]1O
REMARK SMILES IDX 7 1 26 2 25 3 12 4 10 5 8 6 6 7 5 8 3 9 33 10 4 11 31 12
REMARK SMILES IDX 29 13 2 14 1 15 34 17 32 19 30 21 27 23 28 24 9 26 11 28
REMARK SMILES IDX 13 30 14 31 22 32 15 33 21 34 17 35 19 36 23 37 24 38 16 40
REMARK SMILES IDX 18 42 20 44
REMARK H PARENT 1 16 34 18 32 20 30 22 28 25 9 27 11 29 24 39 16 41 18 43
REMARK H PARENT 20 45
REMARK Flexibility Score: inf
ROOT
ATOM      1  C   UNL     1      -7.962   4.755  -8.243  1.00  0.00     0.184 C 
ATOM      2  C   UNL     1      -6.595   4.104  -8.612  1.00  0.00     0.178 C 
ATOM      3  O   UNL     1      -6.582   2.718  -8.295  1.00  0.00    -0.341 OA
ATOM      4  C   UNL     1      -7.598   1.935  -8.914  1.00  0.00     0.282 C 
ATOM      5  C   UNL     1      -8.664   2.774  -9.688  1.00  0.00     0.202 C 
ATOM      6  C   UNL     1      -9.148   3.903  -8.762  1.00  0.00     0.180 C 
ENDROOT
BRANCH   1   7
ATOM      7  O   UNL     1      -8.033   4.878  -6.833  1.00  0.00    -0.341 OA
BRANCH   7   8
ATOM      8  C   UNL     1      -9.230   5.505  -6.382  1.00  0.00     0.282 C 
ATOM      9  C   UNL     1      -9.119   4.466  -4.270  1.00  0.00     0.178 C 
ATOM     10  C   UNL     1      -8.988   5.798  -3.472  1.00  0.00     0.177 C 
ATOM     11  O   UNL     1      -9.879   4.625  -5.465  1.00  0.00    -0.341 OA
ATOM     12  C   UNL     1      -9.538   6.976  -4.298  1.00  0.00     0.179 C 
ATOM     13  C   UNL     1      -8.979   6.911  -5.735  1.00  0.00     0.202 C 
BRANCH   9  14
ATOM     14  C   UNL     1      -9.724   3.340  -3.424  1.00  0.00     0.191 C 
BRANCH  14  15
ATOM     15  O   UNL     1      -9.257   3.397  -2.105  1.00  0.00    -0.394 OA
ATOM     16  H   UNL     1      -9.949   2.979  -1.523  1.00  0.00     0.210 HD
ENDBRANCH  14  15
ENDBRANCH   9  14
BRANCH  10  17
ATOM     17  O   UNL     1      -7.628   6.010  -3.168  1.00  0.00    -0.387 OA
ATOM     18  H   UNL     1      -7.563   6.279  -2.212  1.00  0.00     0.211 HD
ENDBRANCH  10  17
BRANCH  12  19
ATOM     19  O   UNL     1      -9.180   8.210  -3.721  1.00  0.00    -0.387 OA
ATOM     20  H   UNL     1      -8.767   8.010  -2.839  1.00  0.00     0.211 HD
ENDBRANCH  12  19
BRANCH  13  21
ATOM     21  O   UNL     1      -9.532   7.930  -6.525  1.00  0.00    -0.385 OA
ATOM     22  H   UNL     1      -8.868   8.156  -7.229  1.00  0.00     0.211 HD
ENDBRANCH  13  21
ENDBRANCH   7   8
ENDBRANCH   1   7
BRANCH   2  23
ATOM     23  C   UNL     1      -5.406   4.766  -7.875  1.00  0.00     0.191 C 
BRANCH  23  24
ATOM     24  O   UNL     1      -4.247   4.762  -8.649  1.00  0.00    -0.394 OA
ATOM     25  H   UNL     1      -4.069   3.817  -8.890  1.00  0.00     0.210 HD
ENDBRANCH  23  24
ENDBRANCH   2  23
BRANCH   6  26
ATOM     26  O   UNL     1     -10.125   4.703  -9.398  1.00  0.00    -0.387 OA
ATOM     27  H   UNL     1     -10.949   4.150  -9.476  1.00  0.00     0.211 HD
ENDBRANCH   6  26
BRANCH   5  28
ATOM     28  O   UNL     1      -9.748   2.007 -10.125  1.00  0.00    -0.385 OA
ATOM     29  H   UNL     1     -10.154   1.541  -9.348  1.00  0.00     0.211 HD
ENDBRANCH   5  28
BRANCH   4  30
ATOM     30  O   UNL     1      -7.005   1.043  -9.825  1.00  0.00    -0.341 OA
BRANCH  30  31
ATOM     31  C   UNL     1      -6.995  -0.326  -9.428  1.00  0.00     0.184 C 
ATOM     32  C   UNL     1      -6.220  -0.738  -8.135  1.00  0.00     0.178 C 
ATOM     33  C   UNL     1      -8.332  -1.086  -9.643  1.00  0.00     0.180 C 
ATOM     34  O   UNL     1      -6.056  -2.154  -8.118  1.00  0.00    -0.342 OA
ATOM     35  C   UNL     1      -8.081  -2.603  -9.419  1.00  0.00     0.201 C 
ATOM     36  C   UNL     1      -7.301  -2.848  -8.106  1.00  0.00     0.279 C 
BRANCH  32  37
ATOM     37  C   UNL     1      -6.705  -0.214  -6.759  1.00  0.00     0.191 C 
BRANCH  37  38
ATOM     38  O   UNL     1      -7.715   0.743  -6.926  1.00  0.00    -0.394 OA
ATOM     39  H   UNL     1      -7.325   1.623  -6.702  1.00  0.00     0.210 HD
ENDBRANCH  37  38
ENDBRANCH  32  37
BRANCH  33  40
ATOM     40  O   UNL     1      -9.380  -0.583  -8.845  1.00  0.00    -0.387 OA
ATOM     41  H   UNL     1     -10.028  -1.308  -8.663  1.00  0.00     0.211 HD
ENDBRANCH  33  40
BRANCH  35  42
ATOM     42  O   UNL     1      -9.276  -3.336  -9.476  1.00  0.00    -0.385 OA
ATOM     43  H   UNL     1      -9.750  -3.233  -8.609  1.00  0.00     0.211 HD
ENDBRANCH  35  42
BRANCH  36  44
ATOM     44  O   UNL     1      -7.070  -4.224  -7.931  1.00  0.00    -0.366 OA
ATOM     45  H   UNL     1      -6.350  -4.334  -7.253  1.00  0.00     0.213 HD
ENDBRANCH  36  44
ENDBRANCH  30  31
ENDBRANCH   4  30
TORSDOF 18
ENDMDL
MODEL 5
REMARK VINA RESULT:    -1.802      1.530      3.526
REMARK INTER + INTRA:          -4.429
REMARK INTER:                  -3.431
REMARK INTRA:                  -0.999
REMARK UNBOUND:                -1.311
REMARK SMILES OC[C@H]1O[C@H](O[C@@H]2[C@@H](O)[C@H](O)[C@@H](O[C@@H]3[C@H](O)[C@H](O)[C@@H](O)O[C@@H]3CO)O[C@@H]2CO)[C@@H](O)[C@H](O)[C@@H]1O
REMARK SMILES IDX 7 1 26 2 25 3 12 4 10 5 8 6 6 7 5 8 3 9 33 10 4 11 31 12
REMARK SMILES IDX 29 13 2 14 1 15 34 17 32 19 30 21 27 23 28 24 9 26 11 28
REMARK SMILES IDX 13 30 14 31 22 32 15 33 21 34 17 35 19 36 23 37 24 38 16 40
REMARK SMILES IDX 18 42 20 44
REMARK H PARENT 1 16 34 18 32 20 30 22 28 25 9 27 11 29 24 39 16 41 18 43
REMARK H PARENT 20 45
REMARK Flexibility Score: inf
ROOT
ATOM      1  C   UNL     1      -8.880   6.629  -4.784  1.00  0.00     0.184 C 
ATOM      2  C   UNL     1      -8.830   5.093  -5.045  1.00  0.00     0.178 C 
ATOM      3  O   UNL     1      -9.954   4.661  -5.801  1.00  0.00    -0.341 OA
ATOM      4  C   UNL     1     -10.125   5.294  -7.065  1.00  0.00     0.282 C 
ATOM      5  C   UNL     1      -9.149   6.487  -7.316  1.00  0.00     0.202 C 
ATOM      6  C   UNL     1      -9.194   7.409  -6.086  1.00  0.00     0.180 C 
ENDROOT
BRANCH   1   7
ATOM      7  O   UNL     1      -9.878   6.886  -3.812  1.00  0.00    -0.341 OA
BRANCH   7   8
ATOM      8  C   UNL     1      -9.612   8.041  -3.022  1.00  0.00     0.282 C 
ATOM      9  C   UNL     1      -8.504   6.795  -1.358  1.00  0.00     0.178 C 
ATOM     10  C   UNL     1      -7.132   7.507  -1.548  1.00  0.00     0.177 C 
ATOM     11  O   UNL     1      -9.603   7.653  -1.649  1.00  0.00    -0.341 OA
ATOM     12  C   UNL     1      -7.328   8.887  -2.204  1.00  0.00     0.179 C 
ATOM     13  C   UNL     1      -8.274   8.757  -3.416  1.00  0.00     0.202 C 
BRANCH   9  14
ATOM     14  C   UNL     1      -8.666   6.214   0.052  1.00  0.00     0.191 C 
BRANCH  14  15
ATOM     15  O   UNL     1      -7.539   6.484   0.838  1.00  0.00    -0.394 OA
ATOM     16  H   UNL     1      -7.748   6.201   1.770  1.00  0.00     0.210 HD
ENDBRANCH  14  15
ENDBRANCH   9  14
BRANCH  10  17
ATOM     17  O   UNL     1      -6.311   6.697  -2.357  1.00  0.00    -0.387 OA
ATOM     18  H   UNL     1      -5.591   7.269  -2.739  1.00  0.00     0.211 HD
ENDBRANCH  10  17
BRANCH  12  19
ATOM     19  O   UNL     1      -6.100   9.423  -2.635  1.00  0.00    -0.387 OA
ATOM     20  H   UNL     1      -5.670   8.738  -3.215  1.00  0.00     0.211 HD
ENDBRANCH  12  19
BRANCH  13  21
ATOM     21  O   UNL     1      -8.530  10.018  -3.978  1.00  0.00    -0.385 OA
ATOM     22  H   UNL     1      -8.911  10.593  -3.262  1.00  0.00     0.211 HD
ENDBRANCH  13  21
ENDBRANCH   7   8
ENDBRANCH   1   7
BRANCH   2  23
ATOM     23  C   UNL     1      -8.802   4.271  -3.733  1.00  0.00     0.191 C 
BRANCH  23  24
ATOM     24  O   UNL     1     -10.012   3.618  -3.503  1.00  0.00    -0.394 OA
ATOM     25  H   UNL     1     -10.635   4.295  -3.134  1.00  0.00     0.210 HD
ENDBRANCH  23  24
ENDBRANCH   2  23
BRANCH   6  26
ATOM     26  O   UNL     1      -8.336   8.520  -6.247  1.00  0.00    -0.387 OA
ATOM     27  H   UNL     1      -7.425   8.227  -5.974  1.00  0.00     0.211 HD
ENDBRANCH   6  26
BRANCH   5  28
ATOM     28  O   UNL     1      -9.457   7.208  -8.474  1.00  0.00    -0.385 OA
ATOM     29  H   UNL     1      -9.915   8.053  -8.222  1.00  0.00     0.211 HD
ENDBRANCH   5  28
BRANCH   4  30
ATOM     30  O   UNL     1      -9.925   4.349  -8.087  1.00  0.00    -0.341 OA
BRANCH  30  31
ATOM     31  C   UNL     1      -8.849   3.439  -7.882  1.00  0.00     0.184 C 
ATOM     32  C   UNL     1      -9.164   1.923  -7.671  1.00  0.00     0.178 C 
ATOM     33  C   UNL     1      -7.578   3.716  -8.730  1.00  0.00     0.180 C 
ATOM     34  O   UNL     1      -8.005   1.271  -7.155  1.00  0.00    -0.342 OA
ATOM     35  C   UNL     1      -6.424   2.819  -8.203  1.00  0.00     0.201 C 
ATOM     36  C   UNL     1      -6.892   1.353  -8.041  1.00  0.00     0.279 C 
BRANCH  32  37
ATOM     37  C   UNL     1      -9.795   1.109  -8.829  1.00  0.00     0.191 C 
BRANCH  37  38
ATOM     38  O   UNL     1     -10.099   1.948  -9.910  1.00  0.00    -0.394 OA
ATOM     39  H   UNL     1     -10.670   1.432 -10.530  1.00  0.00     0.210 HD
ENDBRANCH  37  38
ENDBRANCH  32  37
BRANCH  33  40
ATOM     40  O   UNL     1      -7.801   3.562 -10.114  1.00  0.00    -0.387 OA
ATOM     41  H   UNL     1      -8.650   3.074 -10.255  1.00  0.00     0.211 HD
ENDBRANCH  33  40
BRANCH  35  42
ATOM     42  O   UNL     1      -5.278   2.929  -9.006  1.00  0.00    -0.385 OA
ATOM     43  H   UNL     1      -5.563   2.978  -9.956  1.00  0.00     0.211 HD
ENDBRANCH  35  42
BRANCH  36  44
ATOM     44  O   UNL     1      -5.839   0.562  -7.549  1.00  0.00    -0.366 OA
ATOM     45  H   UNL     1      -6.075  -0.394  -7.694  1.00  0.00     0.213 HD
ENDBRANCH  36  44
ENDBRANCH  30  31
ENDBRANCH   4  30
TORSDOF 18
ENDMDL
MODEL 6
REMARK VINA RESULT:    -0.967      1.592      7.604
REMARK INTER + INTRA:          -2.984
REMARK INTER:                  -4.076
REMARK INTRA:                   1.092
REMARK UNBOUND:                -1.311
REMARK SMILES OC[C@H]1O[C@H](O[C@@H]2[C@@H](O)[C@H](O)[C@@H](O[C@@H]3[C@H](O)[C@H](O)[C@@H](O)O[C@@H]3CO)O[C@@H]2CO)[C@@H](O)[C@H](O)[C@@H]1O
REMARK SMILES IDX 7 1 26 2 25 3 12 4 10 5 8 6 6 7 5 8 3 9 33 10 4 11 31 12
REMARK SMILES IDX 29 13 2 14 1 15 34 17 32 19 30 21 27 23 28 24 9 26 11 28
REMARK SMILES IDX 13 30 14 31 22 32 15 33 21 34 17 35 19 36 23 37 24 38 16 40
REMARK SMILES IDX 18 42 20 44
REMARK H PARENT 1 16 34 18 32 20 30 22 28 25 9 27 11 29 24 39 16 41 18 43
REMARK H PARENT 20 45
REMARK Flexibility Score: inf
ROOT
ATOM      1  C   UNL     1      -7.988   4.717  -7.308  1.00  0.00     0.184 C 
ATOM      2  C   UNL     1      -8.081   6.231  -6.952  1.00  0.00     0.178 C 
ATOM      3  O   UNL     1      -9.404   6.593  -6.576  1.00  0.00    -0.341 OA
ATOM      4  C   UNL     1      -9.950   5.872  -5.476  1.00  0.00     0.282 C 
ATOM      5  C   UNL     1      -9.064   4.678  -4.995  1.00  0.00     0.202 C 
ATOM      6  C   UNL     1      -8.677   3.843  -6.227  1.00  0.00     0.180 C 
ENDROOT
BRANCH   1   7
ATOM      7  O   UNL     1      -8.610   4.513  -8.565  1.00  0.00    -0.341 OA
BRANCH   7   8
ATOM      8  C   UNL     1      -7.930   3.565  -9.382  1.00  0.00     0.282 C 
ATOM      9  C   UNL     1      -5.885   4.725  -9.235  1.00  0.00     0.178 C 
ATOM     10  C   UNL     1      -5.123   3.565  -8.527  1.00  0.00     0.177 C 
ATOM     11  O   UNL     1      -6.907   4.248 -10.105  1.00  0.00    -0.341 OA
ATOM     12  C   UNL     1      -5.821   2.219  -8.798  1.00  0.00     0.179 C 
ATOM     13  C   UNL     1      -7.340   2.364  -8.566  1.00  0.00     0.202 C 
BRANCH   9  14
ATOM     14  C   UNL     1      -4.941   5.650 -10.012  1.00  0.00     0.191 C 
BRANCH  14  15
ATOM     15  O   UNL     1      -3.701   5.754  -9.370  1.00  0.00    -0.394 OA
ATOM     16  H   UNL     1      -3.875   5.974  -8.414  1.00  0.00     0.210 HD
ENDBRANCH  14  15
ENDBRANCH   9  14
BRANCH  10  17
ATOM     17  O   UNL     1      -5.091   3.825  -7.142  1.00  0.00    -0.387 OA
ATOM     18  H   UNL     1      -5.348   2.990  -6.664  1.00  0.00     0.211 HD
ENDBRANCH  10  17
BRANCH  12  19
ATOM     19  O   UNL     1      -5.321   1.209  -7.953  1.00  0.00    -0.387 OA
ATOM     20  H   UNL     1      -4.882   1.664  -7.185  1.00  0.00     0.211 HD
ENDBRANCH  12  19
BRANCH  13  21
ATOM     21  O   UNL     1      -8.003   1.168  -8.887  1.00  0.00    -0.385 OA
ATOM     22  H   UNL     1      -7.745   0.492  -8.205  1.00  0.00     0.211 HD
ENDBRANCH  13  21
ENDBRANCH   7   8
ENDBRANCH   1   7
BRANCH   2  23
ATOM     23  C   UNL     1      -7.662   7.142  -8.131  1.00  0.00     0.191 C 
BRANCH  23  24
ATOM     24  O   UNL     1      -8.759   7.773  -8.716  1.00  0.00    -0.394 OA
ATOM     25  H   UNL     1      -8.958   8.569  -8.160  1.00  0.00     0.210 HD
ENDBRANCH  23  24
ENDBRANCH   2  23
BRANCH   6  26
ATOM     26  O   UNL     1      -7.876   2.737  -5.865  1.00  0.00    -0.387 OA
ATOM     27  H   UNL     1      -6.927   3.010  -5.989  1.00  0.00     0.211 HD
ENDBRANCH   6  26
BRANCH   5  28
ATOM     28  O   UNL     1      -9.702   3.875  -4.046  1.00  0.00    -0.385 OA
ATOM     29  H   UNL     1      -9.222   3.948  -3.179  1.00  0.00     0.211 HD
ENDBRANCH   5  28
BRANCH   4  30
ATOM     30  O   UNL     1     -10.125   6.746  -4.390  1.00  0.00    -0.341 OA
BRANCH  30  31
ATOM     31  C   UNL     1      -8.940   7.371  -3.905  1.00  0.00     0.184 C 
ATOM     32  C   UNL     1      -8.682   8.876  -4.238  1.00  0.00     0.178 C 
ATOM     33  C   UNL     1      -8.508   6.949  -2.474  1.00  0.00     0.180 C 
ATOM     34  O   UNL     1      -7.320   9.191  -3.959  1.00  0.00    -0.342 OA
ATOM     35  C   UNL     1      -7.081   7.501  -2.204  1.00  0.00     0.201 C 
ATOM     36  C   UNL     1      -6.983   8.996  -2.588  1.00  0.00     0.279 C 
BRANCH  32  37
ATOM     37  C   UNL     1      -9.634   9.956  -3.664  1.00  0.00     0.191 C 
BRANCH  37  38
ATOM     38  O   UNL     1      -9.975   9.654  -2.338  1.00  0.00    -0.394 OA
ATOM     39  H   UNL     1     -10.945   9.467  -2.320  1.00  0.00     0.210 HD
ENDBRANCH  37  38
ENDBRANCH  32  37
BRANCH  33  40
ATOM     40  O   UNL     1      -9.438   7.335  -1.487  1.00  0.00    -0.387 OA
ATOM     41  H   UNL     1      -9.054   7.162  -0.592  1.00  0.00     0.211 HD
ENDBRANCH  33  40
BRANCH  35  42
ATOM     42  O   UNL     1      -6.678   7.260  -0.881  1.00  0.00    -0.385 OA
ATOM     43  H   UNL     1      -6.002   6.532  -0.886  1.00  0.00     0.211 HD
ENDBRANCH  35  42
BRANCH  36  44
ATOM     44  O   UNL     1      -5.681   9.471  -2.351  1.00  0.00    -0.366 OA
ATOM     45  H   UNL     1      -5.089   9.126  -3.073  1.00  0.00     0.213 HD
ENDBRANCH  36  44
ENDBRANCH  30  31
ENDBRANCH   4  30
TORSDOF 18
ENDMDL
