MODEL 1
REMARK VINA RESULT:    -3.520      0.000      0.000
REMARK INTER + INTRA:          -5.748
REMARK INTER:                  -4.755
REMARK INTRA:                  -0.993
REMARK UNBOUND:                -0.993
REMARK SMILES O=C[C@H](O)[C@@H](O)[C@@H](O)CO
REMARK SMILES IDX 7 1 9 2 10 3 5 5 3 6 2 7 1 8 4 9 6 11 8 13
REMARK H PARENT 10 4 4 10 6 12 8 14
REMARK Flexibility Score: inf
ROOT
ATOM      1  C   UNL     1      61.911  -3.223  -5.522  1.00  0.00     0.171 C 
ENDROOT
BRANCH   1   2
ATOM      2  C   UNL     1      60.696  -4.037  -6.002  1.00  0.00     0.190 C 
BRANCH   2   3
ATOM      3  O   UNL     1      60.238  -4.882  -4.981  1.00  0.00    -0.394 OA
ATOM      4  H   UNL     1      60.243  -5.804  -5.349  1.00  0.00     0.210 HD
ENDBRANCH   2   3
ENDBRANCH   1   2
BRANCH   1   5
ATOM      5  C   UNL     1      63.170  -4.093  -5.259  1.00  0.00     0.181 C 
BRANCH   5   6
ATOM      6  C   UNL     1      63.377  -4.423  -3.762  1.00  0.00     0.209 C 
BRANCH   6   7
ATOM      7  C   UNL     1      63.345  -5.913  -3.540  1.00  0.00     0.258 C 
ATOM      8  O   UNL     1      62.278  -6.498  -3.428  1.00  0.00    -0.300 OA
ENDBRANCH   6   7
BRANCH   6   9
ATOM      9  O   UNL     1      62.367  -3.823  -2.992  1.00  0.00    -0.383 OA
ATOM     10  H   UNL     1      61.553  -4.381  -3.099  1.00  0.00     0.211 HD
ENDBRANCH   6   9
ENDBRANCH   5   6
BRANCH   5  11
ATOM     11  O   UNL     1      63.121  -5.283  -6.006  1.00  0.00    -0.387 OA
ATOM     12  H   UNL     1      62.307  -5.237  -6.573  1.00  0.00     0.211 HD
ENDBRANCH   5  11
ENDBRANCH   1   5
BRANCH   1  13
ATOM     13  O   UNL     1      62.210  -2.249  -6.490  1.00  0.00    -0.388 OA
ATOM     14  H   UNL     1      63.103  -2.473  -6.861  1.00  0.00     0.211 HD
ENDBRANCH   1  13
TORSDOF 8
ENDMDL
MODEL 2
REMARK VINA RESULT:    -3.447      1.510      2.323
REMARK INTER + INTRA:          -5.650
REMARK INTER:                  -5.241
REMARK INTRA:                  -0.409
REMARK UNBOUND:                -0.993
REMARK SMILES O=C[C@H](O)[C@@H](O)[C@@H](O)CO
REMARK SMILES IDX 7 1 9 2 10 3 5 5 3 6 2 7 1 8 4 9 6 11 8 13
REMARK H PARENT 10 4 4 10 6 12 8 14
REMARK Flexibility Score: inf
ROOT
ATOM      1  C   UNL     1      61.548  -4.575  -5.435  1.00  0.00     0.171 C 
ENDROOT
BRANCH   1   2
ATOM      2  C   UNL     1      62.725  -3.638  -5.756  1.00  0.00     0.190 C 
BRANCH   2   3
ATOM      3  O   UNL     1      62.948  -2.749  -4.694  1.00  0.00    -0.394 OA
ATOM      4  H   UNL     1      62.291  -2.012  -4.796  1.00  0.00     0.210 HD
ENDBRANCH   2   3
ENDBRANCH   1   2
BRANCH   1   5
ATOM      5  C   UNL     1      61.704  -5.319  -4.081  1.00  0.00     0.181 C 
BRANCH   5   6
ATOM      6  C   UNL     1      63.122  -5.897  -3.866  1.00  0.00     0.209 C 
BRANCH   6   7
ATOM      7  C   UNL     1      63.048  -7.359  -3.509  1.00  0.00     0.258 C 
ATOM      8  O   UNL     1      62.583  -7.710  -2.435  1.00  0.00    -0.300 OA
ENDBRANCH   6   7
BRANCH   6   9
ATOM      9  O   UNL     1      63.773  -5.205  -2.831  1.00  0.00    -0.383 OA
ATOM     10  H   UNL     1      63.255  -5.375  -2.000  1.00  0.00     0.211 HD
ENDBRANCH   6   9
ENDBRANCH   5   6
BRANCH   5  11
ATOM     11  O   UNL     1      61.364  -4.479  -3.005  1.00  0.00    -0.387 OA
ATOM     12  H   UNL     1      60.429  -4.694  -2.753  1.00  0.00     0.211 HD
ENDBRANCH   5  11
ENDBRANCH   1   5
BRANCH   1  13
ATOM     13  O   UNL     1      60.363  -3.819  -5.419  1.00  0.00    -0.388 OA
ATOM     14  H   UNL     1      60.627  -2.864  -5.484  1.00  0.00     0.211 HD
ENDBRANCH   1  13
TORSDOF 8
ENDMDL
MODEL 3
REMARK VINA RESULT:    -3.433     16.671     17.639
REMARK INTER + INTRA:          -5.631
REMARK INTER:                  -5.078
REMARK INTRA:                  -0.553
REMARK UNBOUND:                -0.993
REMARK SMILES O=C[C@H](O)[C@@H](O)[C@@H](O)CO
REMARK SMILES IDX 7 1 9 2 10 3 5 5 3 6 2 7 1 8 4 9 6 11 8 13
REMARK H PARENT 10 4 4 10 6 12 8 14
REMARK Flexibility Score: inf
ROOT
ATOM      1  C   UNL     1      45.263  -6.557   1.316  1.00  0.00     0.171 C 
ENDROOT
BRANCH   1   2
ATOM      2  C   UNL     1      45.853  -6.861  -0.072  1.00  0.00     0.190 C 
BRANCH   2   3
ATOM      3  O   UNL     1      46.792  -5.882  -0.430  1.00  0.00    -0.394 OA
ATOM      4  H   UNL     1      47.632  -6.103   0.050  1.00  0.00     0.210 HD
ENDBRANCH   2   3
ENDBRANCH   1   2
BRANCH   1   5
ATOM      5  C   UNL     1      45.679  -7.587   2.402  1.00  0.00     0.181 C 
BRANCH   5   6
ATOM      6  C   UNL     1      47.202  -7.854   2.432  1.00  0.00     0.209 C 
BRANCH   6   7
ATOM      7  C   UNL     1      47.582  -8.602   3.684  1.00  0.00     0.258 C 
ATOM      8  O   UNL     1      46.922  -9.560   4.056  1.00  0.00    -0.300 OA
ENDBRANCH   6   7
BRANCH   6   9
ATOM      9  O   UNL     1      47.906  -6.638   2.393  1.00  0.00    -0.383 OA
ATOM     10  H   UNL     1      47.400  -6.032   1.791  1.00  0.00     0.211 HD
ENDBRANCH   6   9
ENDBRANCH   5   6
BRANCH   5  11
ATOM     11  O   UNL     1      45.242  -7.178   3.674  1.00  0.00    -0.387 OA
ATOM     12  H   UNL     1      44.436  -6.615   3.537  1.00  0.00     0.211 HD
ENDBRANCH   5  11
ENDBRANCH   1   5
BRANCH   1  13
ATOM     13  O   UNL     1      45.674  -5.272   1.708  1.00  0.00    -0.388 OA
ATOM     14  H   UNL     1      46.294  -4.940   1.008  1.00  0.00     0.211 HD
ENDBRANCH   1  13
TORSDOF 8
ENDMDL
MODEL 4
REMARK VINA RESULT:    -3.430      1.547      3.634
REMARK INTER + INTRA:          -5.626
REMARK INTER:                  -5.140
REMARK INTRA:                  -0.487
REMARK UNBOUND:                -0.993
REMARK SMILES O=C[C@H](O)[C@@H](O)[C@@H](O)CO
REMARK SMILES IDX 7 1 9 2 10 3 5 5 3 6 2 7 1 8 4 9 6 11 8 13
REMARK H PARENT 10 4 4 10 6 12 8 14
REMARK Flexibility Score: inf
ROOT
ATOM      1  C   UNL     1      61.883  -4.084  -3.907  1.00  0.00     0.171 C 
ENDROOT
BRANCH   1   2
ATOM      2  C   UNL     1      63.363  -4.224  -3.510  1.00  0.00     0.190 C 
BRANCH   2   3
ATOM      3  O   UNL     1      63.586  -5.454  -2.875  1.00  0.00    -0.394 OA
ATOM      4  H   UNL     1      62.837  -6.051  -3.137  1.00  0.00     0.210 HD
ENDBRANCH   2   3
ENDBRANCH   1   2
BRANCH   1   5
ATOM      5  C   UNL     1      61.572  -4.629  -5.328  1.00  0.00     0.181 C 
BRANCH   5   6
ATOM      6  C   UNL     1      61.150  -3.523  -6.324  1.00  0.00     0.209 C 
BRANCH   6   7
ATOM      7  C   UNL     1      61.276  -4.014  -7.742  1.00  0.00     0.258 C 
ATOM      8  O   UNL     1      60.739  -5.056  -8.086  1.00  0.00    -0.300 OA
ENDBRANCH   6   7
BRANCH   6   9
ATOM      9  O   UNL     1      61.963  -2.390  -6.157  1.00  0.00    -0.383 OA
ATOM     10  H   UNL     1      62.669  -2.635  -5.504  1.00  0.00     0.211 HD
ENDBRANCH   6   9
ENDBRANCH   5   6
BRANCH   5  11
ATOM     11  O   UNL     1      62.670  -5.340  -5.843  1.00  0.00    -0.387 OA
ATOM     12  H   UNL     1      62.380  -6.283  -5.955  1.00  0.00     0.211 HD
ENDBRANCH   5  11
ENDBRANCH   1   5
BRANCH   1  13
ATOM     13  O   UNL     1      61.097  -4.767  -2.962  1.00  0.00    -0.388 OA
ATOM     14  H   UNL     1      61.358  -5.724  -3.005  1.00  0.00     0.211 HD
ENDBRANCH   1  13
TORSDOF 8
ENDMDL
MODEL 5
REMARK VINA RESULT:    -3.367     15.685     16.634
REMARK INTER + INTRA:          -5.542
REMARK INTER:                  -5.244
REMARK INTRA:                  -0.298
REMARK UNBOUND:                -0.993
REMARK SMILES O=C[C@H](O)[C@@H](O)[C@@H](O)CO
REMARK SMILES IDX 7 1 9 2 10 3 5 5 3 6 2 7 1 8 4 9 6 11 8 13
REMARK H PARENT 10 4 4 10 6 12 8 14
REMARK Flexibility Score: inf
ROOT
ATOM      1  C   UNL     1      45.706  -7.078  -0.128  1.00  0.00     0.171 C 
ENDROOT
BRANCH   1   2
ATOM      2  C   UNL     1      46.476  -7.420  -1.416  1.00  0.00     0.190 C 
BRANCH   2   3
ATOM      3  O   UNL     1      46.597  -6.285  -2.230  1.00  0.00    -0.394 OA
ATOM      4  H   UNL     1      45.719  -6.159  -2.677  1.00  0.00     0.210 HD
ENDBRANCH   2   3
ENDBRANCH   1   2
BRANCH   1   5
ATOM      5  C   UNL     1      46.542  -6.253   0.889  1.00  0.00     0.181 C 
BRANCH   5   6
ATOM      6  C   UNL     1      47.723  -7.050   1.492  1.00  0.00     0.209 C 
BRANCH   6   7
ATOM      7  C   UNL     1      47.338  -7.638   2.824  1.00  0.00     0.258 C 
ATOM      8  O   UNL     1      48.002  -7.399   3.820  1.00  0.00    -0.300 OA
ENDBRANCH   6   7
BRANCH   6   9
ATOM      9  O   UNL     1      48.833  -6.207   1.667  1.00  0.00    -0.383 OA
ATOM     10  H   UNL     1      49.616  -6.794   1.836  1.00  0.00     0.211 HD
ENDBRANCH   6   9
ENDBRANCH   5   6
BRANCH   5  11
ATOM     11  O   UNL     1      47.018  -5.068   0.301  1.00  0.00    -0.387 OA
ATOM     12  H   UNL     1      47.944  -4.932   0.631  1.00  0.00     0.211 HD
ENDBRANCH   5  11
ENDBRANCH   1   5
BRANCH   1  13
ATOM     13  O   UNL     1      44.548  -6.360  -0.473  1.00  0.00    -0.388 OA
ATOM     14  H   UNL     1      44.704  -5.415  -0.209  1.00  0.00     0.211 HD
ENDBRANCH   1  13
TORSDOF 8
ENDMDL
MODEL 6
REMARK VINA RESULT:    -3.362      1.409      3.849
REMARK INTER + INTRA:          -5.535
REMARK INTER:                  -5.246
REMARK INTRA:                  -0.288
REMARK UNBOUND:                -0.993
REMARK SMILES O=C[C@H](O)[C@@H](O)[C@@H](O)CO
REMARK SMILES IDX 7 1 9 2 10 3 5 5 3 6 2 7 1 8 4 9 6 11 8 13
REMARK H PARENT 10 4 4 10 6 12 8 14
REMARK Flexibility Score: inf
ROOT
ATOM      1  C   UNL     1      63.232  -5.481  -3.836  1.00  0.00     0.171 C 
ENDROOT
BRANCH   1   2
ATOM      2  C   UNL     1      62.842  -6.970  -3.878  1.00  0.00     0.190 C 
BRANCH   2   3
ATOM      3  O   UNL     1      62.479  -7.416  -2.599  1.00  0.00    -0.394 OA
ATOM      4  H   UNL     1      61.999  -6.667  -2.159  1.00  0.00     0.210 HD
ENDBRANCH   2   3
ENDBRANCH   1   2
BRANCH   1   5
ATOM      5  C   UNL     1      62.012  -4.522  -3.907  1.00  0.00     0.181 C 
BRANCH   5   6
ATOM      6  C   UNL     1      61.441  -4.372  -5.336  1.00  0.00     0.209 C 
BRANCH   6   7
ATOM      7  C   UNL     1      61.850  -3.050  -5.931  1.00  0.00     0.258 C 
ATOM      8  O   UNL     1      61.999  -2.935  -7.138  1.00  0.00    -0.300 OA
ENDBRANCH   6   7
BRANCH   6   9
ATOM      9  O   UNL     1      60.038  -4.445  -5.305  1.00  0.00    -0.383 OA
ATOM     10  H   UNL     1      59.697  -3.628  -5.754  1.00  0.00     0.211 HD
ENDBRANCH   6   9
ENDBRANCH   5   6
BRANCH   5  11
ATOM     11  O   UNL     1      60.996  -4.940  -3.030  1.00  0.00    -0.387 OA
ATOM     12  H   UNL     1      60.130  -4.717  -3.461  1.00  0.00     0.211 HD
ENDBRANCH   5  11
ENDBRANCH   1   5
BRANCH   1  13
ATOM     13  O   UNL     1      63.950  -5.238  -2.653  1.00  0.00    -0.388 OA
ATOM     14  H   UNL     1      63.453  -4.541  -2.150  1.00  0.00     0.211 HD
ENDBRANCH   1  13
TORSDOF 8
ENDMDL
MODEL 7
REMARK VINA RESULT:    -3.299     15.303     16.761
REMARK INTER + INTRA:          -5.449
REMARK INTER:                  -4.735
REMARK INTRA:                  -0.715
REMARK UNBOUND:                -0.993
REMARK SMILES O=C[C@H](O)[C@@H](O)[C@@H](O)CO
REMARK SMILES IDX 7 1 9 2 10 3 5 5 3 6 2 7 1 8 4 9 6 11 8 13
REMARK H PARENT 10 4 4 10 6 12 8 14
REMARK Flexibility Score: inf
ROOT
ATOM      1  C   UNL     1      47.513  -8.099   0.425  1.00  0.00     0.171 C 
ENDROOT
BRANCH   1   2
ATOM      2  C   UNL     1      48.827  -8.882   0.596  1.00  0.00     0.190 C 
BRANCH   2   3
ATOM      3  O   UNL     1      49.885  -8.204  -0.027  1.00  0.00    -0.394 OA
ATOM      4  H   UNL     1      50.567  -8.034   0.674  1.00  0.00     0.210 HD
ENDBRANCH   2   3
ENDBRANCH   1   2
BRANCH   1   5
ATOM      5  C   UNL     1      47.499  -6.746   1.187  1.00  0.00     0.181 C 
BRANCH   5   6
ATOM      6  C   UNL     1      46.072  -6.260   1.535  1.00  0.00     0.209 C 
BRANCH   6   7
ATOM      7  C   UNL     1      45.355  -7.285   2.373  1.00  0.00     0.258 C 
ATOM      8  O   UNL     1      45.730  -7.526   3.511  1.00  0.00    -0.300 OA
ENDBRANCH   6   7
BRANCH   6   9
ATOM      9  O   UNL     1      45.339  -6.036   0.358  1.00  0.00    -0.383 OA
ATOM     10  H   UNL     1      45.967  -6.161  -0.401  1.00  0.00     0.211 HD
ENDBRANCH   6   9
ENDBRANCH   5   6
BRANCH   5  11
ATOM     11  O   UNL     1      48.274  -6.822   2.358  1.00  0.00    -0.387 OA
ATOM     12  H   UNL     1      47.643  -6.932   3.117  1.00  0.00     0.211 HD
ENDBRANCH   5  11
ENDBRANCH   1   5
BRANCH   1  13
ATOM     13  O   UNL     1      47.302  -7.867  -0.945  1.00  0.00    -0.388 OA
ATOM     14  H   UNL     1      47.622  -6.947  -1.135  1.00  0.00     0.211 HD
ENDBRANCH   1  13
TORSDOF 8
ENDMDL
MODEL 8
REMARK VINA RESULT:    -3.264      1.245      2.032
REMARK INTER + INTRA:          -5.403
REMARK INTER:                  -4.868
REMARK INTRA:                  -0.535
REMARK UNBOUND:                -0.993
REMARK SMILES O=C[C@H](O)[C@@H](O)[C@@H](O)CO
REMARK SMILES IDX 7 1 9 2 10 3 5 5 3 6 2 7 1 8 4 9 6 11 8 13
REMARK H PARENT 10 4 4 10 6 12 8 14
REMARK Flexibility Score: inf
ROOT
ATOM      1  C   UNL     1      61.329  -4.421  -5.910  1.00  0.00     0.171 C 
ENDROOT
BRANCH   1   2
ATOM      2  C   UNL     1      61.262  -4.043  -7.400  1.00  0.00     0.190 C 
BRANCH   2   3
ATOM      3  O   UNL     1      62.415  -4.480  -8.068  1.00  0.00    -0.394 OA
ATOM      4  H   UNL     1      62.942  -3.669  -8.292  1.00  0.00     0.210 HD
ENDBRANCH   2   3
ENDBRANCH   1   2
BRANCH   1   5
ATOM      5  C   UNL     1      62.128  -3.403  -5.051  1.00  0.00     0.181 C 
BRANCH   5   6
ATOM      6  C   UNL     1      62.523  -3.959  -3.662  1.00  0.00     0.209 C 
BRANCH   6   7
ATOM      7  C   UNL     1      63.412  -5.166  -3.810  1.00  0.00     0.258 C 
ATOM      8  O   UNL     1      63.387  -6.058  -2.975  1.00  0.00    -0.300 OA
ENDBRANCH   6   7
BRANCH   6   9
ATOM      9  O   UNL     1      61.372  -4.323  -2.943  1.00  0.00    -0.383 OA
ATOM     10  H   UNL     1      61.034  -5.164  -3.348  1.00  0.00     0.211 HD
ENDBRANCH   6   9
ENDBRANCH   5   6
BRANCH   5  11
ATOM     11  O   UNL     1      63.278  -2.967  -5.732  1.00  0.00    -0.387 OA
ATOM     12  H   UNL     1      63.085  -3.039  -6.703  1.00  0.00     0.211 HD
ENDBRANCH   5  11
ENDBRANCH   1   5
BRANCH   1  13
ATOM     13  O   UNL     1      60.018  -4.525  -5.413  1.00  0.00    -0.388 OA
ATOM     14  H   UNL     1      59.450  -4.851  -6.159  1.00  0.00     0.211 HD
ENDBRANCH   1  13
TORSDOF 8
ENDMDL
MODEL 9
REMARK VINA RESULT:    -3.219     15.832     16.637
REMARK INTER + INTRA:          -5.342
REMARK INTER:                  -4.880
REMARK INTRA:                  -0.461
REMARK UNBOUND:                -0.993
REMARK SMILES O=C[C@H](O)[C@@H](O)[C@@H](O)CO
REMARK SMILES IDX 7 1 9 2 10 3 5 5 3 6 2 7 1 8 4 9 6 11 8 13
REMARK H PARENT 10 4 4 10 6 12 8 14
REMARK Flexibility Score: inf
ROOT
ATOM      1  C   UNL     1      46.700  -6.072   1.126  1.00  0.00     0.171 C 
ENDROOT
BRANCH   1   2
ATOM      2  C   UNL     1      46.046  -6.752  -0.090  1.00  0.00     0.190 C 
BRANCH   2   3
ATOM      3  O   UNL     1      46.651  -6.318  -1.278  1.00  0.00    -0.394 OA
ATOM      4  H   UNL     1      47.332  -6.999  -1.518  1.00  0.00     0.210 HD
ENDBRANCH   2   3
ENDBRANCH   1   2
BRANCH   1   5
ATOM      5  C   UNL     1      47.816  -6.928   1.785  1.00  0.00     0.181 C 
BRANCH   5   6
ATOM      6  C   UNL     1      47.314  -7.756   2.991  1.00  0.00     0.209 C 
BRANCH   6   7
ATOM      7  C   UNL     1      47.520  -9.228   2.743  1.00  0.00     0.258 C 
ATOM      8  O   UNL     1      48.512  -9.795   3.176  1.00  0.00    -0.300 OA
ENDBRANCH   6   7
BRANCH   6   9
ATOM      9  O   UNL     1      45.947  -7.515   3.206  1.00  0.00    -0.383 OA
ATOM     10  H   UNL     1      45.854  -7.203   4.144  1.00  0.00     0.211 HD
ENDBRANCH   6   9
ENDBRANCH   5   6
BRANCH   5  11
ATOM     11  O   UNL     1      48.417  -7.779   0.840  1.00  0.00    -0.387 OA
ATOM     12  H   UNL     1      49.377  -7.531   0.795  1.00  0.00     0.211 HD
ENDBRANCH   5  11
ENDBRANCH   1   5
BRANCH   1  13
ATOM     13  O   UNL     1      47.236  -4.839   0.717  1.00  0.00    -0.388 OA
ATOM     14  H   UNL     1      46.483  -4.194   0.678  1.00  0.00     0.211 HD
ENDBRANCH   1  13
TORSDOF 8
ENDMDL
