MODEL 1
REMARK VINA RESULT:     5.329      0.000      0.000
REMARK INTER + INTRA:           5.484
REMARK INTER:                   5.484
REMARK INTRA:                   0.000
REMARK UNBOUND:                 0.000
REMARK SMILES Nc1ncnc2nc[nH]c12
REMARK SMILES IDX 8 1 7 2 6 3 5 4 4 5 3 6 2 7 10 8 9 9 1 11
REMARK H PARENT 9 10 1 12 1 13
REMARK Flexibility Score: inf
ROOT
ATOM      1  C   UNL     1      24.420 -41.602 -18.285  1.00  0.00     0.199 A 
ATOM      2  N   UNL     1      23.267 -41.953 -17.652  1.00  0.00    -0.217 NA
ATOM      3  C   UNL     1      22.334 -41.651 -18.570  1.00  0.00     0.182 A 
ATOM      4  N   UNL     1      20.995 -41.809 -18.443  1.00  0.00    -0.215 NA
ATOM      5  C   UNL     1      20.200 -41.442 -19.493  1.00  0.00     0.226 A 
ATOM      6  N   UNL     1      20.752 -40.930 -20.639  1.00  0.00    -0.217 NA
ATOM      7  C   UNL     1      22.103 -40.770 -20.769  1.00  0.00     0.152 A 
ATOM      8  C   UNL     1      22.898 -41.148 -19.691  1.00  0.00     0.127 A 
ATOM      9  N   UNL     1      24.228 -41.107 -19.534  1.00  0.00    -0.340 N 
ATOM     10  H   UNL     1      24.955 -40.775 -20.205  1.00  0.00     0.168 HD
ENDROOT
BRANCH   7  11
ATOM     11  N   UNL     1      22.656 -40.235 -21.973  1.00  0.00    -0.382 N 
ATOM     12  H   UNL     1      23.290 -40.801 -22.579  1.00  0.00     0.158 HD
ATOM     13  H   UNL     1      22.429 -39.258 -22.261  1.00  0.00     0.158 HD
ENDBRANCH   7  11
TORSDOF 1
ENDMDL
MODEL 2
REMARK VINA RESULT:     5.778      0.950      3.915
REMARK INTER + INTRA:           5.947
REMARK INTER:                   5.947
REMARK INTRA:                   0.000
REMARK UNBOUND:                 0.000
REMARK SMILES Nc1ncnc2nc[nH]c12
REMARK SMILES IDX 8 1 7 2 6 3 5 4 4 5 3 6 2 7 10 8 9 9 1 11
REMARK H PARENT 9 10 1 12 1 13
REMARK Flexibility Score: inf
ROOT
ATOM      1  C   UNL     1      20.741 -41.176 -20.069  1.00  0.00     0.199 A 
ATOM      2  N   UNL     1      21.914 -40.699 -20.570  1.00  0.00    -0.217 NA
ATOM      3  C   UNL     1      22.805 -41.120 -19.659  1.00  0.00     0.182 A 
ATOM      4  N   UNL     1      24.143 -40.909 -19.679  1.00  0.00    -0.215 NA
ATOM      5  C   UNL     1      24.893 -41.418 -18.656  1.00  0.00     0.226 A 
ATOM      6  N   UNL     1      24.298 -42.122 -17.640  1.00  0.00    -0.217 NA
ATOM      7  C   UNL     1      22.949 -42.336 -17.617  1.00  0.00     0.152 A 
ATOM      8  C   UNL     1      22.200 -41.811 -18.666  1.00  0.00     0.127 A 
ATOM      9  N   UNL     1      20.882 -41.861 -18.907  1.00  0.00    -0.340 N 
ATOM     10  H   UNL     1      20.133 -42.315 -18.341  1.00  0.00     0.168 HD
ENDROOT
BRANCH   7  11
ATOM     11  N   UNL     1      22.350 -43.073 -16.550  1.00  0.00    -0.382 N 
ATOM     12  H   UNL     1      21.468 -43.613 -16.689  1.00  0.00     0.158 HD
ATOM     13  H   UNL     1      22.796 -43.078 -15.606  1.00  0.00     0.158 HD
ENDBRANCH   7  11
TORSDOF 1
ENDMDL
MODEL 3
REMARK VINA RESULT:     5.844      1.178      2.317
REMARK INTER + INTRA:           6.015
REMARK INTER:                   6.015
REMARK INTRA:                   0.000
REMARK UNBOUND:                 0.000
REMARK SMILES Nc1ncnc2nc[nH]c12
REMARK SMILES IDX 8 1 7 2 6 3 5 4 4 5 3 6 2 7 10 8 9 9 1 11
REMARK H PARENT 9 10 1 12 1 13
REMARK Flexibility Score: inf
ROOT
ATOM      1  C   UNL     1      24.251 -41.663 -18.087  1.00  0.00     0.199 A 
ATOM      2  N   UNL     1      24.237 -41.928 -19.423  1.00  0.00    -0.217 NA
ATOM      3  C   UNL     1      23.057 -41.413 -19.804  1.00  0.00     0.182 A 
ATOM      4  N   UNL     1      22.543 -41.411 -21.057  1.00  0.00    -0.215 NA
ATOM      5  C   UNL     1      21.319 -40.835 -21.251  1.00  0.00     0.226 A 
ATOM      6  N   UNL     1      20.637 -40.276 -20.200  1.00  0.00    -0.217 NA
ATOM      7  C   UNL     1      21.153 -40.278 -18.935  1.00  0.00     0.152 A 
ATOM      8  C   UNL     1      22.401 -40.868 -18.754  1.00  0.00     0.127 A 
ATOM      9  N   UNL     1      23.143 -41.015 -17.648  1.00  0.00    -0.340 N 
ATOM     10  H   UNL     1      22.929 -40.708 -16.674  1.00  0.00     0.168 HD
ENDROOT
BRANCH   7  11
ATOM     11  N   UNL     1      20.426 -39.690 -17.855  1.00  0.00    -0.382 N 
ATOM     12  H   UNL     1      19.729 -38.930 -18.018  1.00  0.00     0.158 HD
ATOM     13  H   UNL     1      20.586 -40.020 -16.878  1.00  0.00     0.158 HD
ENDBRANCH   7  11
TORSDOF 1
ENDMDL
MODEL 4
REMARK VINA RESULT:     6.624     12.273     13.140
REMARK INTER + INTRA:           6.817
REMARK INTER:                   6.817
REMARK INTRA:                   0.000
REMARK UNBOUND:                 0.000
REMARK SMILES Nc1ncnc2nc[nH]c12
REMARK SMILES IDX 8 1 7 2 6 3 5 4 4 5 3 6 2 7 10 8 9 9 1 11
REMARK H PARENT 9 10 1 12 1 13
REMARK Flexibility Score: inf
ROOT
ATOM      1  C   UNL     1      17.954 -33.640 -28.665  1.00  0.00     0.199 A 
ATOM      2  N   UNL     1      17.012 -32.666 -28.535  1.00  0.00    -0.217 NA
ATOM      3  C   UNL     1      15.902 -33.375 -28.274  1.00  0.00     0.182 A 
ATOM      4  N   UNL     1      14.660 -32.881 -28.057  1.00  0.00    -0.215 NA
ATOM      5  C   UNL     1      13.648 -33.765 -27.805  1.00  0.00     0.226 A 
ATOM      6  N   UNL     1      13.894 -35.114 -27.775  1.00  0.00    -0.217 NA
ATOM      7  C   UNL     1      15.146 -35.615 -27.993  1.00  0.00     0.152 A 
ATOM      8  C   UNL     1      16.165 -34.701 -28.248  1.00  0.00     0.127 A 
ATOM      9  N   UNL     1      17.468 -34.895 -28.494  1.00  0.00    -0.340 N 
ATOM     10  H   UNL     1      17.995 -35.794 -28.546  1.00  0.00     0.168 HD
ENDROOT
BRANCH   7  11
ATOM     11  N   UNL     1      15.380 -37.024 -27.956  1.00  0.00    -0.382 N 
ATOM     12  H   UNL     1      16.204 -37.426 -27.457  1.00  0.00     0.158 HD
ATOM     13  H   UNL     1      14.719 -37.674 -28.435  1.00  0.00     0.158 HD
ENDBRANCH   7  11
TORSDOF 1
ENDMDL
MODEL 5
REMARK VINA RESULT:     6.890     12.191     13.329
REMARK INTER + INTRA:           7.092
REMARK INTER:                   7.092
REMARK INTRA:                   0.000
REMARK UNBOUND:                 0.000
REMARK SMILES Nc1ncnc2nc[nH]c12
REMARK SMILES IDX 8 1 7 2 6 3 5 4 4 5 3 6 2 7 10 8 9 9 1 11
REMARK H PARENT 9 10 1 12 1 13
REMARK Flexibility Score: inf
ROOT
ATOM      1  C   UNL     1      17.168 -32.462 -28.573  1.00  0.00     0.199 A 
ATOM      2  N   UNL     1      17.607 -33.749 -28.625  1.00  0.00    -0.217 NA
ATOM      3  C   UNL     1      16.495 -34.442 -28.328  1.00  0.00     0.182 A 
ATOM      4  N   UNL     1      16.381 -35.789 -28.244  1.00  0.00    -0.215 NA
ATOM      5  C   UNL     1      15.159 -36.314 -27.926  1.00  0.00     0.226 A 
ATOM      6  N   UNL     1      14.084 -35.492 -27.701  1.00  0.00    -0.217 NA
ATOM      7  C   UNL     1      14.198 -34.133 -27.786  1.00  0.00     0.152 A 
ATOM      8  C   UNL     1      15.448 -33.614 -28.110  1.00  0.00     0.127 A 
ATOM      9  N   UNL     1      15.852 -32.346 -28.261  1.00  0.00    -0.340 N 
ATOM     10  H   UNL     1      15.297 -31.468 -28.163  1.00  0.00     0.168 HD
ENDROOT
BRANCH   7  11
ATOM     11  N   UNL     1      13.065 -33.296 -27.548  1.00  0.00    -0.382 N 
ATOM     12  H   UNL     1      13.174 -32.318 -27.197  1.00  0.00     0.158 HD
ATOM     13  H   UNL     1      12.102 -33.658 -27.723  1.00  0.00     0.158 HD
ENDBRANCH   7  11
TORSDOF 1
ENDMDL
MODEL 6
REMARK VINA RESULT:     6.960      1.179      3.146
REMARK INTER + INTRA:           7.163
REMARK INTER:                   7.163
REMARK INTRA:                   0.000
REMARK UNBOUND:                 0.000
REMARK SMILES Nc1ncnc2nc[nH]c12
REMARK SMILES IDX 8 1 7 2 6 3 5 4 4 5 3 6 2 7 10 8 9 9 1 11
REMARK H PARENT 9 10 1 12 1 13
REMARK Flexibility Score: inf
ROOT
ATOM      1  C   UNL     1      21.650 -40.771 -20.532  1.00  0.00     0.199 A 
ATOM      2  N   UNL     1      21.102 -41.325 -19.416  1.00  0.00    -0.217 NA
ATOM      3  C   UNL     1      22.188 -41.671 -18.707  1.00  0.00     0.182 A 
ATOM      4  N   UNL     1      22.203 -42.272 -17.493  1.00  0.00    -0.215 NA
ATOM      5  C   UNL     1      23.416 -42.549 -16.925  1.00  0.00     0.226 A 
ATOM      6  N   UNL     1      24.580 -42.223 -17.573  1.00  0.00    -0.217 NA
ATOM      7  C   UNL     1      24.567 -41.617 -18.798  1.00  0.00     0.152 A 
ATOM      8  C   UNL     1      23.325 -41.342 -19.363  1.00  0.00     0.127 A 
ATOM      9  N   UNL     1      23.006 -40.766 -20.530  1.00  0.00    -0.340 N 
ATOM     10  H   UNL     1      23.643 -40.397 -21.270  1.00  0.00     0.168 HD
ENDROOT
BRANCH   7  11
ATOM     11  N   UNL     1      25.791 -41.287 -19.455  1.00  0.00    -0.382 N 
ATOM     12  H   UNL     1      25.821 -41.078 -20.478  1.00  0.00     0.158 HD
ATOM     13  H   UNL     1      26.681 -41.250 -18.912  1.00  0.00     0.158 HD
ENDBRANCH   7  11
TORSDOF 1
ENDMDL
MODEL 7
REMARK VINA RESULT:     6.963     12.186     13.081
REMARK INTER + INTRA:           7.166
REMARK INTER:                   7.166
REMARK INTRA:                   0.000
REMARK UNBOUND:                 0.000
REMARK SMILES Nc1ncnc2nc[nH]c12
REMARK SMILES IDX 8 1 7 2 6 3 5 4 4 5 3 6 2 7 10 8 9 9 1 11
REMARK H PARENT 9 10 1 12 1 13
REMARK Flexibility Score: inf
ROOT
ATOM      1  C   UNL     1      14.765 -36.409 -27.854  1.00  0.00     0.199 A 
ATOM      2  N   UNL     1      14.083 -35.238 -27.726  1.00  0.00    -0.217 NA
ATOM      3  C   UNL     1      15.031 -34.325 -27.992  1.00  0.00     0.182 A 
ATOM      4  N   UNL     1      14.878 -32.980 -28.000  1.00  0.00    -0.215 NA
ATOM      5  C   UNL     1      15.968 -32.208 -28.295  1.00  0.00     0.226 A 
ATOM      6  N   UNL     1      17.179 -32.789 -28.573  1.00  0.00    -0.217 NA
ATOM      7  C   UNL     1      17.335 -34.147 -28.565  1.00  0.00     0.152 A 
ATOM      8  C   UNL     1      16.217 -34.918 -28.264  1.00  0.00     0.127 A 
ATOM      9  N   UNL     1      16.071 -36.247 -28.182  1.00  0.00    -0.340 N 
ATOM     10  H   UNL     1      16.786 -36.992 -28.333  1.00  0.00     0.168 HD
ENDROOT
BRANCH   7  11
ATOM     11  N   UNL     1      18.605 -34.731 -28.859  1.00  0.00    -0.382 N 
ATOM     12  H   UNL     1      18.941 -34.836 -29.842  1.00  0.00     0.158 HD
ATOM     13  H   UNL     1      19.218 -35.063 -28.083  1.00  0.00     0.158 HD
ENDBRANCH   7  11
TORSDOF 1
ENDMDL
MODEL 8
REMARK VINA RESULT:     7.343     12.063     13.488
REMARK INTER + INTRA:           7.557
REMARK INTER:                   7.557
REMARK INTRA:                   0.000
REMARK UNBOUND:                 0.000
REMARK SMILES Nc1ncnc2nc[nH]c12
REMARK SMILES IDX 8 1 7 2 6 3 5 4 4 5 3 6 2 7 10 8 9 9 1 11
REMARK H PARENT 9 10 1 12 1 13
REMARK Flexibility Score: inf
ROOT
ATOM      1  C   UNL     1      13.164 -33.375 -27.731  1.00  0.00     0.199 A 
ATOM      2  N   UNL     1      14.228 -32.555 -27.952  1.00  0.00    -0.217 NA
ATOM      3  C   UNL     1      15.240 -33.428 -28.077  1.00  0.00     0.182 A 
ATOM      4  N   UNL     1      16.541 -33.129 -28.309  1.00  0.00    -0.215 NA
ATOM      5  C   UNL     1      17.433 -34.160 -28.405  1.00  0.00     0.226 A 
ATOM      6  N   UNL     1      17.013 -35.459 -28.268  1.00  0.00    -0.217 NA
ATOM      7  C   UNL     1      15.702 -35.763 -28.033  1.00  0.00     0.152 A 
ATOM      8  C   UNL     1      14.807 -34.701 -27.938  1.00  0.00     0.127 A 
ATOM      9  N   UNL     1      13.485 -34.693 -27.718  1.00  0.00    -0.340 N 
ATOM     10  H   UNL     1      12.844 -35.503 -27.569  1.00  0.00     0.168 HD
ENDROOT
BRANCH   7  11
ATOM     11  N   UNL     1      15.287 -37.123 -27.894  1.00  0.00    -0.382 N 
ATOM     12  H   UNL     1      15.701 -37.746 -27.166  1.00  0.00     0.158 HD
ATOM     13  H   UNL     1      14.556 -37.512 -28.529  1.00  0.00     0.158 HD
ENDBRANCH   7  11
TORSDOF 1
ENDMDL
MODEL 9
REMARK VINA RESULT:     7.381     11.842     13.359
REMARK INTER + INTRA:           7.597
REMARK INTER:                   7.597
REMARK INTRA:                   0.000
REMARK UNBOUND:                 0.000
REMARK SMILES Nc1ncnc2nc[nH]c12
REMARK SMILES IDX 8 1 7 2 6 3 5 4 4 5 3 6 2 7 10 8 9 9 1 11
REMARK H PARENT 9 10 1 12 1 13
REMARK Flexibility Score: inf
ROOT
ATOM      1  C   UNL     1      15.498 -36.735 -27.864  1.00  0.00     0.199 A 
ATOM      2  N   UNL     1      16.623 -36.025 -28.155  1.00  0.00    -0.217 NA
ATOM      3  C   UNL     1      16.171 -34.761 -28.150  1.00  0.00     0.182 A 
ATOM      4  N   UNL     1      16.898 -33.642 -28.386  1.00  0.00    -0.215 NA
ATOM      5  C   UNL     1      16.258 -32.435 -28.338  1.00  0.00     0.226 A 
ATOM      6  N   UNL     1      14.917 -32.368 -28.057  1.00  0.00    -0.217 NA
ATOM      7  C   UNL     1      14.182 -33.495 -27.819  1.00  0.00     0.152 A 
ATOM      8  C   UNL     1      14.848 -34.716 -27.872  1.00  0.00     0.127 A 
ATOM      9  N   UNL     1      14.397 -35.964 -27.685  1.00  0.00    -0.340 N 
ATOM     10  H   UNL     1      13.429 -36.280 -27.456  1.00  0.00     0.168 HD
ENDROOT
BRANCH   7  11
ATOM     11  N   UNL     1      12.787 -33.401 -27.528  1.00  0.00    -0.382 N 
ATOM     12  H   UNL     1      12.327 -34.052 -26.854  1.00  0.00     0.158 HD
ATOM     13  H   UNL     1      12.205 -32.672 -27.995  1.00  0.00     0.158 HD
ENDBRANCH   7  11
TORSDOF 1
ENDMDL
