MODEL 1
REMARK VINA RESULT:    -4.085      0.000      0.000
REMARK INTER + INTRA:         -14.810
REMARK INTER:                 -10.295
REMARK INTRA:                  -4.515
REMARK UNBOUND:                -4.515
REMARK SMILES CCCCCCCCCCCCCCCCCCCCCCCCCCCC(=O)[O-]
REMARK SMILES IDX 15 1 16 2 17 3 18 4 19 5 20 6 21 7 22 8 23 9 24 10 25 11
REMARK SMILES IDX 26 12 27 13 28 14 29 15 30 16 14 17 13 18 12 19 11 20 10 21
REMARK SMILES IDX 9 22 8 23 7 24 6 25 5 26 4 27 3 28 2 29 1 30
REMARK H PARENT
REMARK Flexibility Score: inf
ROOT
ATOM      1  C   UNL     1      25.042 -13.116   1.303  1.00  0.00     0.000 C 
ENDROOT
BRANCH   1   2
ATOM      2  C   UNL     1      25.472 -14.464   1.903  1.00  0.00     0.000 C 
BRANCH   2   3
ATOM      3  C   UNL     1      26.424 -14.302   3.100  1.00  0.00     0.000 C 
BRANCH   3   4
ATOM      4  C   UNL     1      27.545 -13.282   2.841  1.00  0.00     0.000 C 
BRANCH   4   5
ATOM      5  C   UNL     1      27.679 -12.203   3.937  1.00  0.00     0.000 C 
BRANCH   5   6
ATOM      6  C   UNL     1      26.983 -10.888   3.541  1.00  0.00     0.000 C 
BRANCH   6   7
ATOM      7  C   UNL     1      26.014 -10.377   4.619  1.00  0.00     0.000 C 
BRANCH   7   8
ATOM      8  C   UNL     1      25.481 -11.507   5.514  1.00  0.00     0.000 C 
BRANCH   8   9
ATOM      9  C   UNL     1      25.767 -11.216   6.996  1.00  0.00     0.000 C 
BRANCH   9  10
ATOM     10  C   UNL     1      25.624  -9.728   7.351  1.00  0.00     0.000 C 
BRANCH  10  11
ATOM     11  C   UNL     1      24.364  -9.439   8.183  1.00  0.00     0.000 C 
BRANCH  11  12
ATOM     12  C   UNL     1      23.799  -8.047   7.875  1.00  0.00     0.006 C 
BRANCH  12  13
ATOM     13  C   UNL     1      24.489  -7.440   6.647  1.00  0.00     0.053 C 
BRANCH  13  14
ATOM     14  C   UNL     1      25.101  -6.115   6.980  1.00  0.00     0.041 C 
ATOM     15  O   UNL     1      26.352  -5.973   6.965  1.00  0.00    -0.550 OA
ATOM     16  O   UNL     1      24.289  -5.031   7.297  1.00  0.00    -0.550 OA
ENDBRANCH  13  14
ENDBRANCH  12  13
ENDBRANCH  11  12
ENDBRANCH  10  11
ENDBRANCH   9  10
ENDBRANCH   8   9
ENDBRANCH   7   8
ENDBRANCH   6   7
ENDBRANCH   5   6
ENDBRANCH   4   5
ENDBRANCH   3   4
ENDBRANCH   2   3
ENDBRANCH   1   2
BRANCH   1  17
ATOM     17  C   UNL     1      23.851 -12.493   2.054  1.00  0.00     0.000 C 
BRANCH  17  18
ATOM     18  C   UNL     1      22.881 -13.551   2.605  1.00  0.00     0.000 C 
BRANCH  18  19
ATOM     19  C   UNL     1      21.742 -13.877   1.623  1.00  0.00     0.000 C 
BRANCH  19  20
ATOM     20  C   UNL     1      21.420 -15.380   1.573  1.00  0.00     0.000 C 
BRANCH  20  21
ATOM     21  C   UNL     1      21.849 -16.120   2.852  1.00  0.00     0.000 C 
BRANCH  21  22
ATOM     22  C   UNL     1      22.875 -17.239   2.571  1.00  0.00    -0.000 C 
BRANCH  22  23
ATOM     23  C   UNL     1      24.000 -17.333   3.619  1.00  0.00    -0.000 C 
BRANCH  23  24
ATOM     24  C   UNL     1      23.550 -17.800   5.016  1.00  0.00    -0.000 C 
BRANCH  24  25
ATOM     25  C   UNL     1      23.445 -16.686   6.078  1.00  0.00    -0.000 C 
BRANCH  25  26
ATOM     26  C   UNL     1      24.071 -15.337   5.676  1.00  0.00    -0.000 C 
BRANCH  26  27
ATOM     27  C   UNL     1      23.317 -14.132   6.259  1.00  0.00    -0.000 C 
BRANCH  27  28
ATOM     28  C   UNL     1      21.817 -14.426   6.369  1.00  0.00    -0.000 C 
BRANCH  28  29
ATOM     29  C   UNL     1      21.347 -14.340   7.826  1.00  0.00    -0.003 C 
ATOM     30  C   UNL     1      21.495 -12.922   8.370  1.00  0.00     0.004 C 
ENDBRANCH  28  29
ENDBRANCH  27  28
ENDBRANCH  26  27
ENDBRANCH  25  26
ENDBRANCH  24  25
ENDBRANCH  23  24
ENDBRANCH  22  23
ENDBRANCH  21  22
ENDBRANCH  20  21
ENDBRANCH  19  20
ENDBRANCH  18  19
ENDBRANCH  17  18
ENDBRANCH   1  17
TORSDOF 26
ENDMDL
MODEL 2
REMARK VINA RESULT:    -4.073      2.846      7.582
REMARK INTER + INTRA:         -14.779
REMARK INTER:                 -10.429
REMARK INTRA:                  -4.350
REMARK UNBOUND:                -4.515
REMARK SMILES CCCCCCCCCCCCCCCCCCCCCCCCCCCC(=O)[O-]
REMARK SMILES IDX 15 1 16 2 17 3 18 4 19 5 20 6 21 7 22 8 23 9 24 10 25 11
REMARK SMILES IDX 26 12 27 13 28 14 29 15 30 16 14 17 13 18 12 19 11 20 10 21
REMARK SMILES IDX 9 22 8 23 7 24 6 25 5 26 4 27 3 28 2 29 1 30
REMARK H PARENT
REMARK Flexibility Score: inf
ROOT
ATOM      1  C   UNL     1      25.020 -12.740   5.109  1.00  0.00     0.000 C 
ENDROOT
BRANCH   1   2
ATOM      2  C   UNL     1      25.666 -13.732   4.128  1.00  0.00     0.000 C 
BRANCH   2   3
ATOM      3  C   UNL     1      25.217 -13.504   2.675  1.00  0.00     0.000 C 
BRANCH   3   4
ATOM      4  C   UNL     1      23.925 -12.677   2.568  1.00  0.00     0.000 C 
BRANCH   4   5
ATOM      5  C   UNL     1      23.108 -12.950   1.287  1.00  0.00     0.000 C 
BRANCH   5   6
ATOM      6  C   UNL     1      21.809 -13.721   1.584  1.00  0.00     0.000 C 
BRANCH   6   7
ATOM      7  C   UNL     1      21.896 -15.207   1.198  1.00  0.00     0.000 C 
BRANCH   7   8
ATOM      8  C   UNL     1      21.537 -16.140   2.366  1.00  0.00     0.000 C 
BRANCH   8   9
ATOM      9  C   UNL     1      22.803 -16.652   3.071  1.00  0.00     0.000 C 
BRANCH   9  10
ATOM     10  C   UNL     1      22.935 -16.132   4.511  1.00  0.00     0.000 C 
BRANCH  10  11
ATOM     11  C   UNL     1      21.581 -15.743   5.124  1.00  0.00     0.000 C 
BRANCH  11  12
ATOM     12  C   UNL     1      21.672 -14.410   5.878  1.00  0.00     0.006 C 
BRANCH  12  13
ATOM     13  C   UNL     1      22.587 -14.540   7.102  1.00  0.00     0.053 C 
BRANCH  13  14
ATOM     14  C   UNL     1      21.866 -14.140   8.352  1.00  0.00     0.041 C 
ATOM     15  O   UNL     1      21.581 -15.004   9.222  1.00  0.00    -0.550 OA
ATOM     16  O   UNL     1      21.517 -12.810   8.560  1.00  0.00    -0.550 OA
ENDBRANCH  13  14
ENDBRANCH  12  13
ENDBRANCH  11  12
ENDBRANCH  10  11
ENDBRANCH   9  10
ENDBRANCH   8   9
ENDBRANCH   7   8
ENDBRANCH   6   7
ENDBRANCH   5   6
ENDBRANCH   4   5
ENDBRANCH   3   4
ENDBRANCH   2   3
ENDBRANCH   1   2
BRANCH   1  17
ATOM     17  C   UNL     1      26.045 -12.127   6.081  1.00  0.00     0.000 C 
BRANCH  17  18
ATOM     18  C   UNL     1      26.693 -10.848   5.529  1.00  0.00     0.000 C 
BRANCH  18  19
ATOM     19  C   UNL     1      25.811 -10.143   4.483  1.00  0.00     0.000 C 
BRANCH  19  20
ATOM     20  C   UNL     1      26.601  -9.139   3.627  1.00  0.00     0.000 C 
BRANCH  20  21
ATOM     21  C   UNL     1      28.122  -9.275   3.807  1.00  0.00     0.000 C 
BRANCH  21  22
ATOM     22  C   UNL     1      28.768  -7.991   4.371  1.00  0.00    -0.000 C 
BRANCH  22  23
ATOM     23  C   UNL     1      27.768  -6.846   4.620  1.00  0.00    -0.000 C 
BRANCH  23  24
ATOM     24  C   UNL     1      27.607  -6.434   6.096  1.00  0.00    -0.000 C 
BRANCH  24  25
ATOM     25  C   UNL     1      26.194  -5.958   6.493  1.00  0.00    -0.000 C 
BRANCH  25  26
ATOM     26  C   UNL     1      25.055  -6.937   6.156  1.00  0.00    -0.000 C 
BRANCH  26  27
ATOM     27  C   UNL     1      23.769  -6.651   6.946  1.00  0.00    -0.000 C 
BRANCH  27  28
ATOM     28  C   UNL     1      23.493  -7.762   7.965  1.00  0.00    -0.000 C 
BRANCH  28  29
ATOM     29  C   UNL     1      24.474  -8.927   7.783  1.00  0.00    -0.003 C 
ATOM     30  C   UNL     1      23.985 -10.178   8.508  1.00  0.00     0.004 C 
ENDBRANCH  28  29
ENDBRANCH  27  28
ENDBRANCH  26  27
ENDBRANCH  25  26
ENDBRANCH  24  25
ENDBRANCH  23  24
ENDBRANCH  22  23
ENDBRANCH  21  22
ENDBRANCH  20  21
ENDBRANCH  19  20
ENDBRANCH  18  19
ENDBRANCH  17  18
ENDBRANCH   1  17
TORSDOF 26
ENDMDL
MODEL 3
REMARK VINA RESULT:    -4.050      2.672      7.022
REMARK INTER + INTRA:         -14.722
REMARK INTER:                 -10.407
REMARK INTRA:                  -4.316
REMARK UNBOUND:                -4.515
REMARK SMILES CCCCCCCCCCCCCCCCCCCCCCCCCCCC(=O)[O-]
REMARK SMILES IDX 15 1 16 2 17 3 18 4 19 5 20 6 21 7 22 8 23 9 24 10 25 11
REMARK SMILES IDX 26 12 27 13 28 14 29 15 30 16 14 17 13 18 12 19 11 20 10 21
REMARK SMILES IDX 9 22 8 23 7 24 6 25 5 26 4 27 3 28 2 29 1 30
REMARK H PARENT
REMARK Flexibility Score: inf
ROOT
ATOM      1  C   UNL     1      23.352 -13.535   2.913  1.00  0.00     0.000 C 
ENDROOT
BRANCH   1   2
ATOM      2  C   UNL     1      21.931 -14.028   2.591  1.00  0.00     0.000 C 
BRANCH   2   3
ATOM      3  C   UNL     1      21.884 -14.923   1.343  1.00  0.00     0.000 C 
BRANCH   3   4
ATOM      4  C   UNL     1      21.130 -16.243   1.579  1.00  0.00     0.000 C 
BRANCH   4   5
ATOM      5  C   UNL     1      21.852 -17.488   1.021  1.00  0.00     0.000 C 
BRANCH   5   6
ATOM      6  C   UNL     1      23.382 -17.382   1.163  1.00  0.00     0.000 C 
BRANCH   6   7
ATOM      7  C   UNL     1      23.919 -18.125   2.397  1.00  0.00     0.000 C 
BRANCH   7   8
ATOM      8  C   UNL     1      24.296 -17.171   3.541  1.00  0.00     0.000 C 
BRANCH   8   9
ATOM      9  C   UNL     1      23.545 -17.535   4.832  1.00  0.00     0.000 C 
BRANCH   9  10
ATOM     10  C   UNL     1      22.894 -16.318   5.507  1.00  0.00     0.000 C 
BRANCH  10  11
ATOM     11  C   UNL     1      21.367 -16.295   5.334  1.00  0.00     0.000 C 
BRANCH  11  12
ATOM     12  C   UNL     1      20.701 -15.391   6.379  1.00  0.00     0.006 C 
BRANCH  12  13
ATOM     13  C   UNL     1      21.625 -14.228   6.760  1.00  0.00     0.053 C 
BRANCH  13  14
ATOM     14  C   UNL     1      21.617 -14.003   8.240  1.00  0.00     0.041 C 
ATOM     15  O   UNL     1      21.447 -12.845   8.704  1.00  0.00    -0.550 OA
ATOM     16  O   UNL     1      21.788 -15.075   9.110  1.00  0.00    -0.550 OA
ENDBRANCH  13  14
ENDBRANCH  12  13
ENDBRANCH  11  12
ENDBRANCH  10  11
ENDBRANCH   9  10
ENDBRANCH   8   9
ENDBRANCH   7   8
ENDBRANCH   6   7
ENDBRANCH   5   6
ENDBRANCH   4   5
ENDBRANCH   3   4
ENDBRANCH   2   3
ENDBRANCH   1   2
BRANCH   1  17
ATOM     17  C   UNL     1      24.332 -13.775   1.751  1.00  0.00     0.000 C 
BRANCH  17  18
ATOM     18  C   UNL     1      25.757 -14.091   2.234  1.00  0.00     0.000 C 
BRANCH  18  19
ATOM     19  C   UNL     1      25.886 -14.033   3.767  1.00  0.00     0.000 C 
BRANCH  19  20
ATOM     20  C   UNL     1      27.062 -13.154   4.224  1.00  0.00     0.000 C 
BRANCH  20  21
ATOM     21  C   UNL     1      26.602 -11.813   4.822  1.00  0.00     0.000 C 
BRANCH  21  22
ATOM     22  C   UNL     1      25.121 -11.838   5.259  1.00  0.00    -0.000 C 
BRANCH  22  23
ATOM     23  C   UNL     1      24.900 -12.371   6.687  1.00  0.00    -0.000 C 
BRANCH  23  24
ATOM     24  C   UNL     1      25.347 -11.420   7.813  1.00  0.00    -0.000 C 
BRANCH  24  25
ATOM     25  C   UNL     1      24.204 -10.689   8.547  1.00  0.00    -0.000 C 
BRANCH  25  26
ATOM     26  C   UNL     1      23.910  -9.263   8.045  1.00  0.00    -0.000 C 
BRANCH  26  27
ATOM     27  C   UNL     1      25.118  -8.612   7.355  1.00  0.00    -0.000 C 
BRANCH  27  28
ATOM     28  C   UNL     1      24.715  -7.306   6.662  1.00  0.00    -0.000 C 
BRANCH  28  29
ATOM     29  C   UNL     1      25.952  -6.507   6.237  1.00  0.00    -0.003 C 
ATOM     30  C   UNL     1      25.663  -5.008   6.226  1.00  0.00     0.004 C 
ENDBRANCH  28  29
ENDBRANCH  27  28
ENDBRANCH  26  27
ENDBRANCH  25  26
ENDBRANCH  24  25
ENDBRANCH  23  24
ENDBRANCH  22  23
ENDBRANCH  21  22
ENDBRANCH  20  21
ENDBRANCH  19  20
ENDBRANCH  18  19
ENDBRANCH  17  18
ENDBRANCH   1  17
TORSDOF 26
ENDMDL
MODEL 4
REMARK VINA RESULT:    -4.048      2.594      6.666
REMARK INTER + INTRA:         -14.716
REMARK INTER:                 -10.467
REMARK INTRA:                  -4.249
REMARK UNBOUND:                -4.515
REMARK SMILES CCCCCCCCCCCCCCCCCCCCCCCCCCCC(=O)[O-]
REMARK SMILES IDX 15 1 16 2 17 3 18 4 19 5 20 6 21 7 22 8 23 9 24 10 25 11
REMARK SMILES IDX 26 12 27 13 28 14 29 15 30 16 14 17 13 18 12 19 11 20 10 21
REMARK SMILES IDX 9 22 8 23 7 24 6 25 5 26 4 27 3 28 2 29 1 30
REMARK H PARENT
REMARK Flexibility Score: inf
ROOT
ATOM      1  C   UNL     1      24.406  -9.692   1.272  1.00  0.00     0.000 C 
ENDROOT
BRANCH   1   2
ATOM      2  C   UNL     1      23.900 -11.095   0.901  1.00  0.00     0.000 C 
BRANCH   2   3
ATOM      3  C   UNL     1      23.892 -12.058   2.100  1.00  0.00     0.000 C 
BRANCH   3   4
ATOM      4  C   UNL     1      23.445 -13.481   1.724  1.00  0.00     0.000 C 
BRANCH   4   5
ATOM      5  C   UNL     1      21.945 -13.753   1.967  1.00  0.00     0.000 C 
BRANCH   5   6
ATOM      6  C   UNL     1      21.530 -15.160   1.500  1.00  0.00     0.000 C 
BRANCH   6   7
ATOM      7  C   UNL     1      21.534 -16.192   2.640  1.00  0.00     0.000 C 
BRANCH   7   8
ATOM      8  C   UNL     1      22.814 -17.043   2.659  1.00  0.00     0.000 C 
BRANCH   8   9
ATOM      9  C   UNL     1      23.821 -16.498   3.685  1.00  0.00     0.000 C 
BRANCH   9  10
ATOM     10  C   UNL     1      23.654 -17.127   5.077  1.00  0.00     0.000 C 
BRANCH  10  11
ATOM     11  C   UNL     1      23.349 -16.082   6.162  1.00  0.00     0.000 C 
BRANCH  11  12
ATOM     12  C   UNL     1      21.843 -15.816   6.273  1.00  0.00     0.006 C 
BRANCH  12  13
ATOM     13  C   UNL     1      21.566 -14.315   6.426  1.00  0.00     0.053 C 
BRANCH  13  14
ATOM     14  C   UNL     1      21.843 -13.862   7.826  1.00  0.00     0.041 C 
ATOM     15  O   UNL     1      21.476 -14.566   8.803  1.00  0.00    -0.550 OA
ATOM     16  O   UNL     1      22.515 -12.665   8.052  1.00  0.00    -0.550 OA
ENDBRANCH  13  14
ENDBRANCH  12  13
ENDBRANCH  11  12
ENDBRANCH  10  11
ENDBRANCH   9  10
ENDBRANCH   8   9
ENDBRANCH   7   8
ENDBRANCH   6   7
ENDBRANCH   5   6
ENDBRANCH   4   5
ENDBRANCH   3   4
ENDBRANCH   2   3
ENDBRANCH   1   2
BRANCH   1  17
ATOM     17  C   UNL     1      25.197  -9.685   2.594  1.00  0.00     0.000 C 
BRANCH  17  18
ATOM     18  C   UNL     1      26.718  -9.682   2.373  1.00  0.00     0.000 C 
BRANCH  18  19
ATOM     19  C   UNL     1      27.464 -10.563   3.390  1.00  0.00     0.000 C 
BRANCH  19  20
ATOM     20  C   UNL     1      27.265 -12.065   3.125  1.00  0.00     0.000 C 
BRANCH  20  21
ATOM     21  C   UNL     1      27.359 -12.911   4.406  1.00  0.00     0.000 C 
BRANCH  21  22
ATOM     22  C   UNL     1      26.032 -13.627   4.740  1.00  0.00    -0.000 C 
BRANCH  22  23
ATOM     23  C   UNL     1      25.075 -12.795   5.614  1.00  0.00    -0.000 C 
BRANCH  23  24
ATOM     24  C   UNL     1      25.761 -11.934   6.691  1.00  0.00    -0.000 C 
BRANCH  24  25
ATOM     25  C   UNL     1      25.144 -10.536   6.904  1.00  0.00    -0.000 C 
BRANCH  25  26
ATOM     26  C   UNL     1      26.045  -9.354   6.500  1.00  0.00    -0.000 C 
BRANCH  26  27
ATOM     27  C   UNL     1      25.544  -8.008   7.045  1.00  0.00    -0.000 C 
BRANCH  27  28
ATOM     28  C   UNL     1      24.108  -8.130   7.568  1.00  0.00    -0.000 C 
BRANCH  28  29
ATOM     29  C   UNL     1      23.396  -6.773   7.534  1.00  0.00    -0.003 C 
ATOM     30  C   UNL     1      24.350  -5.659   7.113  1.00  0.00     0.004 C 
ENDBRANCH  28  29
ENDBRANCH  27  28
ENDBRANCH  26  27
ENDBRANCH  25  26
ENDBRANCH  24  25
ENDBRANCH  23  24
ENDBRANCH  22  23
ENDBRANCH  21  22
ENDBRANCH  20  21
ENDBRANCH  19  20
ENDBRANCH  18  19
ENDBRANCH  17  18
ENDBRANCH   1  17
TORSDOF 26
ENDMDL
MODEL 5
REMARK VINA RESULT:    -4.038      3.081      8.119
REMARK INTER + INTRA:         -14.692
REMARK INTER:                 -10.473
REMARK INTRA:                  -4.219
REMARK UNBOUND:                -4.515
REMARK SMILES CCCCCCCCCCCCCCCCCCCCCCCCCCCC(=O)[O-]
REMARK SMILES IDX 15 1 16 2 17 3 18 4 19 5 20 6 21 7 22 8 23 9 24 10 25 11
REMARK SMILES IDX 26 12 27 13 28 14 29 15 30 16 14 17 13 18 12 19 11 20 10 21
REMARK SMILES IDX 9 22 8 23 7 24 6 25 5 26 4 27 3 28 2 29 1 30
REMARK H PARENT
REMARK Flexibility Score: inf
ROOT
ATOM      1  C   UNL     1      25.137 -10.989   7.194  1.00  0.00     0.000 C 
ENDROOT
BRANCH   1   2
ATOM      2  C   UNL     1      25.615 -11.227   5.752  1.00  0.00     0.000 C 
BRANCH   2   3
ATOM      3  C   UNL     1      25.175 -12.594   5.201  1.00  0.00     0.000 C 
BRANCH   3   4
ATOM      4  C   UNL     1      26.065 -13.091   4.049  1.00  0.00     0.000 C 
BRANCH   4   5
ATOM      5  C   UNL     1      25.448 -12.894   2.648  1.00  0.00     0.000 C 
BRANCH   5   6
ATOM      6  C   UNL     1      23.917 -12.739   2.707  1.00  0.00     0.000 C 
BRANCH   6   7
ATOM      7  C   UNL     1      23.199 -13.465   1.558  1.00  0.00     0.000 C 
BRANCH   7   8
ATOM      8  C   UNL     1      21.840 -14.042   1.984  1.00  0.00     0.000 C 
BRANCH   8   9
ATOM      9  C   UNL     1      21.951 -15.544   2.292  1.00  0.00     0.000 C 
BRANCH   9  10
ATOM     10  C   UNL     1      21.562 -15.888   3.738  1.00  0.00     0.000 C 
BRANCH  10  11
ATOM     11  C   UNL     1      22.609 -15.415   4.758  1.00  0.00     0.000 C 
BRANCH  11  12
ATOM     12  C   UNL     1      21.996 -14.452   5.782  1.00  0.00     0.006 C 
BRANCH  12  13
ATOM     13  C   UNL     1      21.113 -15.211   6.781  1.00  0.00     0.053 C 
BRANCH  13  14
ATOM     14  C   UNL     1      21.453 -14.832   8.189  1.00  0.00     0.041 C 
ATOM     15  O   UNL     1      21.767 -15.719   9.025  1.00  0.00    -0.550 OA
ATOM     16  O   UNL     1      21.432 -13.496   8.576  1.00  0.00    -0.550 OA
ENDBRANCH  13  14
ENDBRANCH  12  13
ENDBRANCH  11  12
ENDBRANCH  10  11
ENDBRANCH   9  10
ENDBRANCH   8   9
ENDBRANCH   7   8
ENDBRANCH   6   7
ENDBRANCH   5   6
ENDBRANCH   4   5
ENDBRANCH   3   4
ENDBRANCH   2   3
ENDBRANCH   1   2
BRANCH   1  17
ATOM     17  C   UNL     1      25.369  -9.538   7.655  1.00  0.00     0.000 C 
BRANCH  17  18
ATOM     18  C   UNL     1      24.063  -8.822   8.033  1.00  0.00     0.000 C 
BRANCH  18  19
ATOM     19  C   UNL     1      23.901  -7.470   7.315  1.00  0.00     0.000 C 
BRANCH  19  20
ATOM     20  C   UNL     1      24.886  -7.304   6.146  1.00  0.00     0.000 C 
BRANCH  20  21
ATOM     21  C   UNL     1      25.621  -5.952   6.179  1.00  0.00     0.000 C 
BRANCH  21  22
ATOM     22  C   UNL     1      26.944  -6.017   6.973  1.00  0.00    -0.000 C 
BRANCH  22  23
ATOM     23  C   UNL     1      28.138  -6.545   6.156  1.00  0.00    -0.000 C 
BRANCH  23  24
ATOM     24  C   UNL     1      28.652  -7.934   6.579  1.00  0.00    -0.000 C 
BRANCH  24  25
ATOM     25  C   UNL     1      28.349  -9.076   5.587  1.00  0.00    -0.000 C 
BRANCH  25  26
ATOM     26  C   UNL     1      28.287  -8.657   4.106  1.00  0.00    -0.000 C 
BRANCH  26  27
ATOM     27  C   UNL     1      27.700  -9.752   3.201  1.00  0.00    -0.000 C 
BRANCH  27  28
ATOM     28  C   UNL     1      26.794  -9.144   2.125  1.00  0.00    -0.000 C 
BRANCH  28  29
ATOM     29  C   UNL     1      25.322  -9.203   2.551  1.00  0.00    -0.003 C 
ATOM     30  C   UNL     1      24.403  -9.342   1.341  1.00  0.00     0.004 C 
ENDBRANCH  28  29
ENDBRANCH  27  28
ENDBRANCH  26  27
ENDBRANCH  25  26
ENDBRANCH  24  25
ENDBRANCH  23  24
ENDBRANCH  22  23
ENDBRANCH  21  22
ENDBRANCH  20  21
ENDBRANCH  19  20
ENDBRANCH  18  19
ENDBRANCH  17  18
ENDBRANCH   1  17
TORSDOF 26
ENDMDL
MODEL 6
REMARK VINA RESULT:    -3.974      1.084      1.955
REMARK INTER + INTRA:         -14.530
REMARK INTER:                  -9.553
REMARK INTRA:                  -4.976
REMARK UNBOUND:                -4.515
REMARK SMILES CCCCCCCCCCCCCCCCCCCCCCCCCCCC(=O)[O-]
REMARK SMILES IDX 15 1 16 2 17 3 18 4 19 5 20 6 21 7 22 8 23 9 24 10 25 11
REMARK SMILES IDX 26 12 27 13 28 14 29 15 30 16 14 17 13 18 12 19 11 20 10 21
REMARK SMILES IDX 9 22 8 23 7 24 6 25 5 26 4 27 3 28 2 29 1 30
REMARK H PARENT
REMARK Flexibility Score: inf
ROOT
ATOM      1  C   UNL     1      24.852 -12.959   1.009  1.00  0.00     0.000 C 
ENDROOT
BRANCH   1   2
ATOM      2  C   UNL     1      25.202 -14.406   1.392  1.00  0.00     0.000 C 
BRANCH   2   3
ATOM      3  C   UNL     1      26.333 -14.487   2.431  1.00  0.00     0.000 C 
BRANCH   3   4
ATOM      4  C   UNL     1      27.732 -14.530   1.791  1.00  0.00     0.000 C 
BRANCH   4   5
ATOM      5  C   UNL     1      28.723 -13.502   2.376  1.00  0.00     0.000 C 
BRANCH   5   6
ATOM      6  C   UNL     1      28.339 -12.056   2.010  1.00  0.00     0.000 C 
BRANCH   6   7
ATOM      7  C   UNL     1      27.926 -11.220   3.232  1.00  0.00     0.000 C 
BRANCH   7   8
ATOM      8  C   UNL     1      26.759 -10.268   2.927  1.00  0.00     0.000 C 
BRANCH   8   9
ATOM      9  C   UNL     1      25.606 -10.474   3.922  1.00  0.00     0.000 C 
BRANCH   9  10
ATOM     10  C   UNL     1      25.742 -11.773   4.732  1.00  0.00     0.000 C 
BRANCH  10  11
ATOM     11  C   UNL     1      25.670 -11.531   6.248  1.00  0.00     0.000 C 
BRANCH  11  12
ATOM     12  C   UNL     1      26.230 -10.152   6.620  1.00  0.00     0.006 C 
BRANCH  12  13
ATOM     13  C   UNL     1      25.530  -9.600   7.868  1.00  0.00     0.053 C 
BRANCH  13  14
ATOM     14  C   UNL     1      24.584  -8.497   7.506  1.00  0.00     0.041 C 
ATOM     15  O   UNL     1      23.479  -8.391   8.101  1.00  0.00    -0.550 OA
ATOM     16  O   UNL     1      24.926  -7.581   6.518  1.00  0.00    -0.550 OA
ENDBRANCH  13  14
ENDBRANCH  12  13
ENDBRANCH  11  12
ENDBRANCH  10  11
ENDBRANCH   9  10
ENDBRANCH   8   9
ENDBRANCH   7   8
ENDBRANCH   6   7
ENDBRANCH   5   6
ENDBRANCH   4   5
ENDBRANCH   3   4
ENDBRANCH   2   3
ENDBRANCH   1   2
BRANCH   1  17
ATOM     17  C   UNL     1      23.507 -12.504   1.606  1.00  0.00     0.000 C 
BRANCH  17  18
ATOM     18  C   UNL     1      22.714 -13.664   2.228  1.00  0.00     0.000 C 
BRANCH  18  19
ATOM     19  C   UNL     1      21.565 -14.146   1.324  1.00  0.00     0.000 C 
BRANCH  19  20
ATOM     20  C   UNL     1      21.287 -15.650   1.478  1.00  0.00     0.000 C 
BRANCH  20  21
ATOM     21  C   UNL     1      21.849 -16.226   2.790  1.00  0.00     0.000 C 
BRANCH  21  22
ATOM     22  C   UNL     1      22.896 -17.335   2.547  1.00  0.00    -0.000 C 
BRANCH  22  23
ATOM     23  C   UNL     1      24.119 -17.255   3.480  1.00  0.00    -0.000 C 
BRANCH  23  24
ATOM     24  C   UNL     1      23.844 -17.636   4.947  1.00  0.00    -0.000 C 
BRANCH  24  25
ATOM     25  C   UNL     1      24.243 -16.569   5.987  1.00  0.00    -0.000 C 
BRANCH  25  26
ATOM     26  C   UNL     1      24.264 -15.121   5.466  1.00  0.00    -0.000 C 
BRANCH  26  27
ATOM     27  C   UNL     1      23.254 -14.213   6.185  1.00  0.00    -0.000 C 
BRANCH  27  28
ATOM     28  C   UNL     1      21.815 -14.622   5.851  1.00  0.00    -0.000 C 
BRANCH  28  29
ATOM     29  C   UNL     1      21.071 -15.084   7.109  1.00  0.00    -0.003 C 
ATOM     30  C   UNL     1      21.402 -14.194   8.304  1.00  0.00     0.004 C 
ENDBRANCH  28  29
ENDBRANCH  27  28
ENDBRANCH  26  27
ENDBRANCH  25  26
ENDBRANCH  24  25
ENDBRANCH  23  24
ENDBRANCH  22  23
ENDBRANCH  21  22
ENDBRANCH  20  21
ENDBRANCH  19  20
ENDBRANCH  18  19
ENDBRANCH  17  18
ENDBRANCH   1  17
TORSDOF 26
ENDMDL
MODEL 7
REMARK VINA RESULT:    -3.960      2.806      6.751
REMARK INTER + INTRA:         -14.495
REMARK INTER:                  -9.382
REMARK INTRA:                  -5.114
REMARK UNBOUND:                -4.515
REMARK SMILES CCCCCCCCCCCCCCCCCCCCCCCCCCCC(=O)[O-]
REMARK SMILES IDX 15 1 16 2 17 3 18 4 19 5 20 6 21 7 22 8 23 9 24 10 25 11
REMARK SMILES IDX 26 12 27 13 28 14 29 15 30 16 14 17 13 18 12 19 11 20 10 21
REMARK SMILES IDX 9 22 8 23 7 24 6 25 5 26 4 27 3 28 2 29 1 30
REMARK H PARENT
REMARK Flexibility Score: inf
ROOT
ATOM      1  C   UNL     1      26.086 -13.415   4.518  1.00  0.00     0.000 C 
ENDROOT
BRANCH   1   2
ATOM      2  C   UNL     1      24.873 -12.816   3.788  1.00  0.00     0.000 C 
BRANCH   2   3
ATOM      3  C   UNL     1      24.461 -13.637   2.554  1.00  0.00     0.000 C 
BRANCH   3   4
ATOM      4  C   UNL     1      23.079 -13.243   2.006  1.00  0.00     0.000 C 
BRANCH   4   5
ATOM      5  C   UNL     1      21.916 -14.090   2.565  1.00  0.00     0.000 C 
BRANCH   5   6
ATOM      6  C   UNL     1      21.536 -15.244   1.619  1.00  0.00     0.000 C 
BRANCH   6   7
ATOM      7  C   UNL     1      22.523 -16.420   1.685  1.00  0.00     0.000 C 
BRANCH   7   8
ATOM      8  C   UNL     1      22.625 -17.026   3.093  1.00  0.00     0.000 C 
BRANCH   8   9
ATOM      9  C   UNL     1      24.081 -17.032   3.586  1.00  0.00     0.000 C 
BRANCH   9  10
ATOM     10  C   UNL     1      24.230 -16.487   5.015  1.00  0.00     0.000 C 
BRANCH  10  11
ATOM     11  C   UNL     1      22.884 -16.073   5.631  1.00  0.00     0.000 C 
BRANCH  11  12
ATOM     12  C   UNL     1      22.938 -14.641   6.178  1.00  0.00     0.006 C 
BRANCH  12  13
ATOM     13  C   UNL     1      21.547 -14.182   6.634  1.00  0.00     0.053 C 
BRANCH  13  14
ATOM     14  C   UNL     1      21.508 -13.997   8.120  1.00  0.00     0.041 C 
ATOM     15  O   UNL     1      21.238 -12.869   8.610  1.00  0.00    -0.550 OA
ATOM     16  O   UNL     1      21.759 -15.073   8.964  1.00  0.00    -0.550 OA
ENDBRANCH  13  14
ENDBRANCH  12  13
ENDBRANCH  11  12
ENDBRANCH  10  11
ENDBRANCH   9  10
ENDBRANCH   8   9
ENDBRANCH   7   8
ENDBRANCH   6   7
ENDBRANCH   5   6
ENDBRANCH   4   5
ENDBRANCH   3   4
ENDBRANCH   2   3
ENDBRANCH   1   2
BRANCH   1  17
ATOM     17  C   UNL     1      27.422 -12.888   3.963  1.00  0.00     0.000 C 
BRANCH  17  18
ATOM     18  C   UNL     1      27.889 -13.657   2.716  1.00  0.00     0.000 C 
BRANCH  18  19
ATOM     19  C   UNL     1      28.456 -12.728   1.628  1.00  0.00     0.000 C 
BRANCH  19  20
ATOM     20  C   UNL     1      28.455 -11.251   2.056  1.00  0.00     0.000 C 
BRANCH  20  21
ATOM     21  C   UNL     1      27.646 -10.357   1.101  1.00  0.00     0.000 C 
BRANCH  21  22
ATOM     22  C   UNL     1      26.144 -10.714   1.088  1.00  0.00    -0.000 C 
BRANCH  22  23
ATOM     23  C   UNL     1      25.274  -9.788   1.960  1.00  0.00    -0.000 C 
BRANCH  23  24
ATOM     24  C   UNL     1      26.044  -8.991   3.030  1.00  0.00    -0.000 C 
BRANCH  24  25
ATOM     25  C   UNL     1      25.535  -9.172   4.475  1.00  0.00    -0.000 C 
BRANCH  25  26
ATOM     26  C   UNL     1      26.585  -9.682   5.480  1.00  0.00    -0.000 C 
BRANCH  26  27
ATOM     27  C   UNL     1      26.020  -9.852   6.898  1.00  0.00    -0.000 C 
BRANCH  27  28
ATOM     28  C   UNL     1      25.738 -11.328   7.201  1.00  0.00    -0.000 C 
BRANCH  28  29
ATOM     29  C   UNL     1      24.373 -11.497   7.879  1.00  0.00    -0.003 C 
ATOM     30  C   UNL     1      23.858 -10.167   8.422  1.00  0.00     0.004 C 
ENDBRANCH  28  29
ENDBRANCH  27  28
ENDBRANCH  26  27
ENDBRANCH  25  26
ENDBRANCH  24  25
ENDBRANCH  23  24
ENDBRANCH  22  23
ENDBRANCH  21  22
ENDBRANCH  20  21
ENDBRANCH  19  20
ENDBRANCH  18  19
ENDBRANCH  17  18
ENDBRANCH   1  17
TORSDOF 26
ENDMDL
MODEL 8
REMARK VINA RESULT:    -3.945      2.736      6.686
REMARK INTER + INTRA:         -14.458
REMARK INTER:                  -9.513
REMARK INTRA:                  -4.944
REMARK UNBOUND:                -4.515
REMARK SMILES CCCCCCCCCCCCCCCCCCCCCCCCCCCC(=O)[O-]
REMARK SMILES IDX 15 1 16 2 17 3 18 4 19 5 20 6 21 7 22 8 23 9 24 10 25 11
REMARK SMILES IDX 26 12 27 13 28 14 29 15 30 16 14 17 13 18 12 19 11 20 10 21
REMARK SMILES IDX 9 22 8 23 7 24 6 25 5 26 4 27 3 28 2 29 1 30
REMARK H PARENT
REMARK Flexibility Score: inf
ROOT
ATOM      1  C   UNL     1      24.232 -13.636   3.707  1.00  0.00     0.000 C 
ENDROOT
BRANCH   1   2
ATOM      2  C   UNL     1      23.506 -13.507   2.359  1.00  0.00     0.000 C 
BRANCH   2   3
ATOM      3  C   UNL     1      22.055 -14.012   2.417  1.00  0.00     0.000 C 
BRANCH   3   4
ATOM      4  C   UNL     1      21.897 -15.449   1.891  1.00  0.00     0.000 C 
BRANCH   4   5
ATOM      5  C   UNL     1      23.048 -15.912   0.972  1.00  0.00     0.000 C 
BRANCH   5   6
ATOM      6  C   UNL     1      23.778 -17.144   1.536  1.00  0.00     0.000 C 
BRANCH   6   7
ATOM      7  C   UNL     1      23.055 -17.767   2.741  1.00  0.00     0.000 C 
BRANCH   7   8
ATOM      8  C   UNL     1      23.982 -17.954   3.952  1.00  0.00     0.000 C 
BRANCH   8   9
ATOM      9  C   UNL     1      23.623 -16.971   5.078  1.00  0.00     0.000 C 
BRANCH   9  10
ATOM     10  C   UNL     1      22.249 -17.256   5.703  1.00  0.00     0.000 C 
BRANCH  10  11
ATOM     11  C   UNL     1      21.198 -16.202   5.321  1.00  0.00     0.000 C 
BRANCH  11  12
ATOM     12  C   UNL     1      20.721 -15.418   6.551  1.00  0.00     0.006 C 
BRANCH  12  13
ATOM     13  C   UNL     1      21.713 -14.302   6.901  1.00  0.00     0.053 C 
BRANCH  13  14
ATOM     14  C   UNL     1      21.660 -13.982   8.363  1.00  0.00     0.041 C 
ATOM     15  O   UNL     1      21.776 -14.901   9.217  1.00  0.00    -0.550 OA
ATOM     16  O   UNL     1      21.492 -12.668   8.784  1.00  0.00    -0.550 OA
ENDBRANCH  13  14
ENDBRANCH  12  13
ENDBRANCH  11  12
ENDBRANCH  10  11
ENDBRANCH   9  10
ENDBRANCH   8   9
ENDBRANCH   7   8
ENDBRANCH   6   7
ENDBRANCH   5   6
ENDBRANCH   4   5
ENDBRANCH   3   4
ENDBRANCH   2   3
ENDBRANCH   1   2
BRANCH   1  17
ATOM     17  C   UNL     1      25.531 -14.455   3.597  1.00  0.00     0.000 C 
BRANCH  17  18
ATOM     18  C   UNL     1      26.206 -14.311   2.224  1.00  0.00     0.000 C 
BRANCH  18  19
ATOM     19  C   UNL     1      27.523 -13.517   2.293  1.00  0.00     0.000 C 
BRANCH  19  20
ATOM     20  C   UNL     1      27.589 -12.396   1.243  1.00  0.00     0.000 C 
BRANCH  20  21
ATOM     21  C   UNL     1      26.201 -11.845   0.875  1.00  0.00     0.000 C 
BRANCH  21  22
ATOM     22  C   UNL     1      26.001 -10.386   1.341  1.00  0.00    -0.000 C 
BRANCH  22  23
ATOM     23  C   UNL     1      25.173 -10.250   2.632  1.00  0.00    -0.000 C 
BRANCH  23  24
ATOM     24  C   UNL     1      25.520  -9.027   3.502  1.00  0.00    -0.000 C 
BRANCH  24  25
ATOM     25  C   UNL     1      26.556  -9.288   4.616  1.00  0.00    -0.000 C 
BRANCH  25  26
ATOM     26  C   UNL     1      27.047 -10.743   4.726  1.00  0.00    -0.000 C 
BRANCH  26  27
ATOM     27  C   UNL     1      26.357 -11.522   5.856  1.00  0.00    -0.000 C 
BRANCH  27  28
ATOM     28  C   UNL     1      25.704 -10.565   6.861  1.00  0.00    -0.000 C 
BRANCH  28  29
ATOM     29  C   UNL     1      24.762 -11.322   7.804  1.00  0.00    -0.003 C 
ATOM     30  C   UNL     1      24.180 -10.392   8.865  1.00  0.00     0.004 C 
ENDBRANCH  28  29
ENDBRANCH  27  28
ENDBRANCH  26  27
ENDBRANCH  25  26
ENDBRANCH  24  25
ENDBRANCH  23  24
ENDBRANCH  22  23
ENDBRANCH  21  22
ENDBRANCH  20  21
ENDBRANCH  19  20
ENDBRANCH  18  19
ENDBRANCH  17  18
ENDBRANCH   1  17
TORSDOF 26
ENDMDL
MODEL 9
REMARK VINA RESULT:    -3.928      1.972      2.902
REMARK INTER + INTRA:         -14.414
REMARK INTER:                  -9.425
REMARK INTRA:                  -4.989
REMARK UNBOUND:                -4.515
REMARK SMILES CCCCCCCCCCCCCCCCCCCCCCCCCCCC(=O)[O-]
REMARK SMILES IDX 15 1 16 2 17 3 18 4 19 5 20 6 21 7 22 8 23 9 24 10 25 11
REMARK SMILES IDX 26 12 27 13 28 14 29 15 30 16 14 17 13 18 12 19 11 20 10 21
REMARK SMILES IDX 9 22 8 23 7 24 6 25 5 26 4 27 3 28 2 29 1 30
REMARK H PARENT
REMARK Flexibility Score: inf
ROOT
ATOM      1  C   UNL     1      25.102 -12.569   3.951  1.00  0.00     0.000 C 
ENDROOT
BRANCH   1   2
ATOM      2  C   UNL     1      26.428 -13.107   4.512  1.00  0.00     0.000 C 
BRANCH   2   3
ATOM      3  C   UNL     1      27.298 -12.003   5.135  1.00  0.00     0.000 C 
BRANCH   3   4
ATOM      4  C   UNL     1      28.670 -11.863   4.453  1.00  0.00     0.000 C 
BRANCH   4   5
ATOM      5  C   UNL     1      28.645 -12.125   2.932  1.00  0.00     0.000 C 
BRANCH   5   6
ATOM      6  C   UNL     1      28.443 -10.829   2.126  1.00  0.00     0.000 C 
BRANCH   6   7
ATOM      7  C   UNL     1      27.103 -10.797   1.373  1.00  0.00     0.000 C 
BRANCH   7   8
ATOM      8  C   UNL     1      26.309  -9.508   1.638  1.00  0.00     0.000 C 
BRANCH   8   9
ATOM      9  C   UNL     1      26.789  -8.820   2.925  1.00  0.00     0.000 C 
BRANCH   9  10
ATOM     10  C   UNL     1      25.756  -8.890   4.060  1.00  0.00     0.000 C 
BRANCH  10  11
ATOM     11  C   UNL     1      26.285  -8.297   5.375  1.00  0.00     0.000 C 
BRANCH  11  12
ATOM     12  C   UNL     1      25.302  -8.531   6.529  1.00  0.00     0.006 C 
BRANCH  12  13
ATOM     13  C   UNL     1      25.828  -9.613   7.480  1.00  0.00     0.053 C 
BRANCH  13  14
ATOM     14  C   UNL     1      24.721 -10.521   7.919  1.00  0.00     0.041 C 
ATOM     15  O   UNL     1      23.770 -10.071   8.612  1.00  0.00    -0.550 OA
ATOM     16  O   UNL     1      24.733 -11.863   7.555  1.00  0.00    -0.550 OA
ENDBRANCH  13  14
ENDBRANCH  12  13
ENDBRANCH  11  12
ENDBRANCH  10  11
ENDBRANCH   9  10
ENDBRANCH   8   9
ENDBRANCH   7   8
ENDBRANCH   6   7
ENDBRANCH   5   6
ENDBRANCH   4   5
ENDBRANCH   3   4
ENDBRANCH   2   3
ENDBRANCH   1   2
BRANCH   1  17
ATOM     17  C   UNL     1      24.667 -13.304   2.670  1.00  0.00     0.000 C 
BRANCH  17  18
ATOM     18  C   UNL     1      23.831 -12.416   1.734  1.00  0.00     0.000 C 
BRANCH  18  19
ATOM     19  C   UNL     1      22.601 -13.148   1.168  1.00  0.00     0.000 C 
BRANCH  19  20
ATOM     20  C   UNL     1      21.884 -13.999   2.229  1.00  0.00     0.000 C 
BRANCH  20  21
ATOM     21  C   UNL     1      21.456 -15.377   1.693  1.00  0.00     0.000 C 
BRANCH  21  22
ATOM     22  C   UNL     1      22.653 -16.214   1.192  1.00  0.00    -0.000 C 
BRANCH  22  23
ATOM     23  C   UNL     1      22.906 -17.494   2.011  1.00  0.00    -0.000 C 
BRANCH  23  24
ATOM     24  C   UNL     1      23.931 -17.345   3.151  1.00  0.00    -0.000 C 
BRANCH  24  25
ATOM     25  C   UNL     1      23.348 -16.880   4.501  1.00  0.00    -0.000 C 
BRANCH  25  26
ATOM     26  C   UNL     1      24.259 -15.950   5.323  1.00  0.00    -0.000 C 
BRANCH  26  27
ATOM     27  C   UNL     1      23.472 -14.917   6.144  1.00  0.00    -0.000 C 
BRANCH  27  28
ATOM     28  C   UNL     1      22.008 -14.859   5.693  1.00  0.00    -0.000 C 
BRANCH  28  29
ATOM     29  C   UNL     1      21.062 -15.148   6.864  1.00  0.00    -0.003 C 
ATOM     30  C   UNL     1      21.233 -14.118   7.978  1.00  0.00     0.004 C 
ENDBRANCH  28  29
ENDBRANCH  27  28
ENDBRANCH  26  27
ENDBRANCH  25  26
ENDBRANCH  24  25
ENDBRANCH  23  24
ENDBRANCH  22  23
ENDBRANCH  21  22
ENDBRANCH  20  21
ENDBRANCH  19  20
ENDBRANCH  18  19
ENDBRANCH  17  18
ENDBRANCH   1  17
TORSDOF 26
ENDMDL
