MODEL 1
REMARK VINA RESULT:    -5.457      0.000      0.000
REMARK INTER + INTRA:          -9.836
REMARK INTER:                  -8.328
REMARK INTRA:                  -1.508
REMARK UNBOUND:                -1.508
REMARK SMILES OC[C@H]1O[C@@H](O[C@]2(CO)O[C@H](CO)[C@@H](O)[C@@H]2O)[C@H](O)[C@@H](O)[C@H]1O
REMARK SMILES IDX 6 1 5 2 3 3 22 4 4 5 20 6 18 7 2 8 1 9 23 11 21 13 19 15
REMARK SMILES IDX 7 17 16 18 10 19 14 20 11 21 8 22 9 23 17 25 15 27 12 29
REMARK SMILES IDX 13 30
REMARK H PARENT 1 10 23 12 21 14 19 16 9 24 17 26 15 28 13 31
REMARK Flexibility Score: inf
ROOT
ATOM      1  O   UNL     1      -7.724 -15.105  -2.115  1.00  0.00    -0.313 OA
ENDROOT
BRANCH   1   2
ATOM      2  C   UNL     1      -7.434 -16.215  -1.268  1.00  0.00     0.285 C 
ATOM      3  C   UNL     1      -5.145 -16.078  -0.517  1.00  0.00     0.178 C 
ATOM      4  C   UNL     1      -4.771 -16.000  -2.020  1.00  0.00     0.177 C 
ATOM      5  O   UNL     1      -6.516 -15.793  -0.260  1.00  0.00    -0.341 OA
ATOM      6  C   UNL     1      -5.589 -17.041  -2.825  1.00  0.00     0.179 C 
ATOM      7  C   UNL     1      -6.920 -17.399  -2.126  1.00  0.00     0.202 C 
BRANCH   3   8
ATOM      8  C   UNL     1      -4.289 -15.125   0.333  1.00  0.00     0.191 C 
BRANCH   8   9
ATOM      9  O   UNL     1      -4.894 -13.864   0.446  1.00  0.00    -0.394 OA
ATOM     10  H   UNL     1      -5.391 -13.710  -0.400  1.00  0.00     0.210 HD
ENDBRANCH   8   9
ENDBRANCH   3   8
BRANCH   4  11
ATOM     11  O   UNL     1      -5.014 -14.702  -2.511  1.00  0.00    -0.387 OA
ATOM     12  H   UNL     1      -5.377 -14.165  -1.759  1.00  0.00     0.211 HD
ENDBRANCH   4  11
BRANCH   6  13
ATOM     13  O   UNL     1      -5.853 -16.568  -4.123  1.00  0.00    -0.387 OA
ATOM     14  H   UNL     1      -5.071 -16.818  -4.682  1.00  0.00     0.211 HD
ENDBRANCH   6  13
BRANCH   7  15
ATOM     15  O   UNL     1      -6.734 -18.529  -1.311  1.00  0.00    -0.385 OA
ATOM     16  H   UNL     1      -7.632 -18.803  -0.985  1.00  0.00     0.211 HD
ENDBRANCH   7  15
ENDBRANCH   1   2
BRANCH   1  17
ATOM     17  C   UNL     1      -8.572 -14.109  -1.543  1.00  0.00     0.224 C 
ATOM     18  C   UNL     1      -7.802 -12.852  -1.070  1.00  0.00     0.208 C 
ATOM     19  O   UNL     1      -9.441 -13.666  -2.564  1.00  0.00    -0.337 OA
ATOM     20  C   UNL     1      -8.774 -11.717  -1.318  1.00  0.00     0.180 C 
ATOM     21  C   UNL     1      -9.787 -12.320  -2.303  1.00  0.00     0.179 C 
BRANCH  17  22
ATOM     22  C   UNL     1      -9.450 -14.719  -0.413  1.00  0.00     0.225 C 
BRANCH  22  23
ATOM     23  O   UNL     1      -9.080 -14.203   0.839  1.00  0.00    -0.391 OA
ATOM     24  H   UNL     1      -9.913 -14.090   1.363  1.00  0.00     0.210 HD
ENDBRANCH  22  23
ENDBRANCH  17  22
BRANCH  18  25
ATOM     25  O   UNL     1      -6.619 -12.645  -1.808  1.00  0.00    -0.385 OA
ATOM     26  H   UNL     1      -6.791 -12.914  -2.750  1.00  0.00     0.211 HD
ENDBRANCH  18  25
BRANCH  20  27
ATOM     27  O   UNL     1      -9.406 -11.354  -0.117  1.00  0.00    -0.387 OA
ATOM     28  H   UNL     1      -8.699 -10.977   0.470  1.00  0.00     0.211 HD
ENDBRANCH  20  27
BRANCH  21  29
ATOM     29  C   UNL     1      -9.832 -11.551  -3.628  1.00  0.00     0.191 C 
BRANCH  29  30
ATOM     30  O   UNL     1     -10.557 -10.363  -3.466  1.00  0.00    -0.394 OA
ATOM     31  H   UNL     1     -10.126  -9.879  -2.713  1.00  0.00     0.210 HD
ENDBRANCH  29  30
ENDBRANCH  21  29
ENDBRANCH   1  17
TORSDOF 13
ENDMDL
MODEL 2
REMARK VINA RESULT:    -5.380      9.123     12.825
REMARK INTER + INTRA:          -9.719
REMARK INTER:                  -8.240
REMARK INTRA:                  -1.479
REMARK UNBOUND:                -1.508
REMARK SMILES OC[C@H]1O[C@@H](O[C@]2(CO)O[C@H](CO)[C@@H](O)[C@@H]2O)[C@H](O)[C@@H](O)[C@H]1O
REMARK SMILES IDX 6 1 5 2 3 3 22 4 4 5 20 6 18 7 2 8 1 9 23 11 21 13 19 15
REMARK SMILES IDX 7 17 16 18 10 19 14 20 11 21 8 22 9 23 17 25 15 27 12 29
REMARK SMILES IDX 13 30
REMARK H PARENT 1 10 23 12 21 14 19 16 9 24 17 26 15 28 13 31
REMARK Flexibility Score: inf
ROOT
ATOM      1  O   UNL     1       3.643 -16.094   3.751  1.00  0.00    -0.313 OA
ENDROOT
BRANCH   1   2
ATOM      2  C   UNL     1       3.141 -17.069   2.840  1.00  0.00     0.285 C 
ATOM      3  C   UNL     1       0.899 -16.476   2.178  1.00  0.00     0.178 C 
ATOM      4  C   UNL     1       0.576 -16.444   3.695  1.00  0.00     0.177 C 
ATOM      5  O   UNL     1       2.293 -16.420   1.895  1.00  0.00    -0.341 OA
ATOM      6  C   UNL     1       1.212 -17.670   4.398  1.00  0.00     0.179 C 
ATOM      7  C   UNL     1       2.443 -18.205   3.631  1.00  0.00     0.202 C 
BRANCH   3   8
ATOM      8  C   UNL     1       0.208 -15.328   1.425  1.00  0.00     0.191 C 
BRANCH   8   9
ATOM      9  O   UNL     1       1.027 -14.190   1.374  1.00  0.00    -0.394 OA
ATOM     10  H   UNL     1       0.423 -13.409   1.271  1.00  0.00     0.210 HD
ENDBRANCH   8   9
ENDBRANCH   3   8
BRANCH   4  11
ATOM     11  O   UNL     1       1.056 -15.250   4.265  1.00  0.00    -0.387 OA
ATOM     12  H   UNL     1       1.756 -14.893   3.657  1.00  0.00     0.211 HD
ENDBRANCH   4  11
BRANCH   6  13
ATOM     13  O   UNL     1       1.583 -17.348   5.715  1.00  0.00    -0.387 OA
ATOM     14  H   UNL     1       0.751 -17.090   6.192  1.00  0.00     0.211 HD
ENDBRANCH   6  13
BRANCH   7  15
ATOM     15  O   UNL     1       2.042 -19.221   2.747  1.00  0.00    -0.385 OA
ATOM     16  H   UNL     1       2.353 -20.082   3.133  1.00  0.00     0.211 HD
ENDBRANCH   7  15
ENDBRANCH   1   2
BRANCH   1  17
ATOM     17  C   UNL     1       4.648 -15.229   3.223  1.00  0.00     0.224 C 
ATOM     18  C   UNL     1       4.114 -13.821   2.863  1.00  0.00     0.208 C 
ATOM     19  O   UNL     1       5.603 -15.028   4.245  1.00  0.00    -0.337 OA
ATOM     20  C   UNL     1       5.282 -12.903   3.159  1.00  0.00     0.180 C 
ATOM     21  C   UNL     1       6.185 -13.752   4.067  1.00  0.00     0.179 C 
BRANCH  17  22
ATOM     22  C   UNL     1       5.378 -15.903   2.026  1.00  0.00     0.225 C 
BRANCH  22  23
ATOM     23  O   UNL     1       5.152 -15.191   0.839  1.00  0.00    -0.391 OA
ATOM     24  H   UNL     1       6.019 -15.134   0.364  1.00  0.00     0.210 HD
ENDBRANCH  22  23
ENDBRANCH  17  22
BRANCH  18  25
ATOM     25  O   UNL     1       3.003 -13.458   3.651  1.00  0.00    -0.385 OA
ATOM     26  H   UNL     1       3.181 -13.741   4.587  1.00  0.00     0.211 HD
ENDBRANCH  18  25
BRANCH  20  27
ATOM     27  O   UNL     1       5.948 -12.573   1.966  1.00  0.00    -0.387 OA
ATOM     28  H   UNL     1       6.409 -11.710   2.131  1.00  0.00     0.211 HD
ENDBRANCH  20  27
BRANCH  21  29
ATOM     29  C   UNL     1       6.395 -13.104   5.439  1.00  0.00     0.191 C 
BRANCH  29  30
ATOM     30  O   UNL     1       7.364 -12.097   5.349  1.00  0.00    -0.394 OA
ATOM     31  H   UNL     1       8.224 -12.519   5.611  1.00  0.00     0.210 HD
ENDBRANCH  29  30
ENDBRANCH  21  29
ENDBRANCH   1  17
TORSDOF 13
ENDMDL
MODEL 3
REMARK VINA RESULT:    -5.348      2.197      4.990
REMARK INTER + INTRA:          -9.669
REMARK INTER:                  -8.630
REMARK INTRA:                  -1.039
REMARK UNBOUND:                -1.508
REMARK SMILES OC[C@H]1O[C@@H](O[C@]2(CO)O[C@H](CO)[C@@H](O)[C@@H]2O)[C@H](O)[C@@H](O)[C@H]1O
REMARK SMILES IDX 6 1 5 2 3 3 22 4 4 5 20 6 18 7 2 8 1 9 23 11 21 13 19 15
REMARK SMILES IDX 7 17 16 18 10 19 14 20 11 21 8 22 9 23 17 25 15 27 12 29
REMARK SMILES IDX 13 30
REMARK H PARENT 1 10 23 12 21 14 19 16 9 24 17 26 15 28 13 31
REMARK Flexibility Score: inf
ROOT
ATOM      1  O   UNL     1      -8.313 -13.948  -0.045  1.00  0.00    -0.313 OA
ENDROOT
BRANCH   1   2
ATOM      2  C   UNL     1      -7.186 -13.591  -0.842  1.00  0.00     0.285 C 
ATOM      3  C   UNL     1      -7.048 -11.189  -1.013  1.00  0.00     0.178 C 
ATOM      4  C   UNL     1      -8.507 -11.251  -1.535  1.00  0.00     0.177 C 
ATOM      5  O   UNL     1      -6.637 -12.374  -0.339  1.00  0.00    -0.341 OA
ATOM      6  C   UNL     1      -8.655 -12.406  -2.557  1.00  0.00     0.179 C 
ATOM      7  C   UNL     1      -7.608 -13.519  -2.331  1.00  0.00     0.202 C 
BRANCH   3   8
ATOM      8  C   UNL     1      -6.834  -9.998  -0.065  1.00  0.00     0.191 C 
BRANCH   8   9
ATOM      9  O   UNL     1      -5.696  -9.261  -0.425  1.00  0.00    -0.394 OA
ATOM     10  H   UNL     1      -5.984  -8.619  -1.126  1.00  0.00     0.210 HD
ENDBRANCH   8   9
ENDBRANCH   3   8
BRANCH   4  11
ATOM     11  O   UNL     1      -9.397 -11.434  -0.459  1.00  0.00    -0.387 OA
ATOM     12  H   UNL     1     -10.097 -12.070  -0.760  1.00  0.00     0.211 HD
ENDBRANCH   4  11
BRANCH   6  13
ATOM     13  O   UNL     1      -9.947 -12.957  -2.499  1.00  0.00    -0.387 OA
ATOM     14  H   UNL     1     -10.111 -13.201  -1.550  1.00  0.00     0.211 HD
ENDBRANCH   6  13
BRANCH   7  15
ATOM     15  O   UNL     1      -6.479 -13.274  -3.132  1.00  0.00    -0.385 OA
ATOM     16  H   UNL     1      -6.554 -12.340  -3.462  1.00  0.00     0.211 HD
ENDBRANCH   7  15
ENDBRANCH   1   2
BRANCH   1  17
ATOM     17  C   UNL     1      -8.369 -15.318   0.351  1.00  0.00     0.224 C 
ATOM     18  C   UNL     1      -8.979 -15.523   1.759  1.00  0.00     0.208 C 
ATOM     19  O   UNL     1      -9.240 -15.976  -0.545  1.00  0.00    -0.337 OA
ATOM     20  C   UNL     1      -9.706 -16.847   1.651  1.00  0.00     0.180 C 
ATOM     21  C   UNL     1      -9.848 -17.056   0.135  1.00  0.00     0.179 C 
BRANCH  17  22
ATOM     22  C   UNL     1      -6.969 -15.985   0.216  1.00  0.00     0.225 C 
BRANCH  22  23
ATOM     23  O   UNL     1      -6.396 -16.201   1.479  1.00  0.00    -0.391 OA
ATOM     24  H   UNL     1      -5.819 -15.420   1.673  1.00  0.00     0.210 HD
ENDBRANCH  22  23
ENDBRANCH  17  22
BRANCH  18  25
ATOM     25  O   UNL     1      -9.887 -14.499   2.096  1.00  0.00    -0.385 OA
ATOM     26  H   UNL     1     -10.272 -14.137   1.255  1.00  0.00     0.211 HD
ENDBRANCH  18  25
BRANCH  20  27
ATOM     27  O   UNL     1      -8.929 -17.870   2.221  1.00  0.00    -0.387 OA
ATOM     28  H   UNL     1      -9.525 -18.659   2.308  1.00  0.00     0.211 HD
ENDBRANCH  20  27
BRANCH  21  29
ATOM     29  C   UNL     1     -11.314 -17.156  -0.298  1.00  0.00     0.191 C 
BRANCH  29  30
ATOM     30  O   UNL     1     -12.006 -15.999   0.083  1.00  0.00    -0.394 OA
ATOM     31  H   UNL     1     -11.508 -15.624   0.857  1.00  0.00     0.210 HD
ENDBRANCH  29  30
ENDBRANCH  21  29
ENDBRANCH   1  17
TORSDOF 13
ENDMDL
MODEL 4
REMARK VINA RESULT:    -5.262      2.121      4.125
REMARK INTER + INTRA:          -9.538
REMARK INTER:                  -8.193
REMARK INTRA:                  -1.345
REMARK UNBOUND:                -1.508
REMARK SMILES OC[C@H]1O[C@@H](O[C@]2(CO)O[C@H](CO)[C@@H](O)[C@@H]2O)[C@H](O)[C@@H](O)[C@H]1O
REMARK SMILES IDX 6 1 5 2 3 3 22 4 4 5 20 6 18 7 2 8 1 9 23 11 21 13 19 15
REMARK SMILES IDX 7 17 16 18 10 19 14 20 11 21 8 22 9 23 17 25 15 27 12 29
REMARK SMILES IDX 13 30
REMARK H PARENT 1 10 23 12 21 14 19 16 9 24 17 26 15 28 13 31
REMARK Flexibility Score: inf
ROOT
ATOM      1  O   UNL     1      -6.912 -14.801   0.229  1.00  0.00    -0.313 OA
ENDROOT
BRANCH   1   2
ATOM      2  C   UNL     1      -6.819 -16.208   0.016  1.00  0.00     0.285 C 
ATOM      3  C   UNL     1      -8.562 -17.327   1.252  1.00  0.00     0.178 C 
ATOM      4  C   UNL     1      -8.002 -16.590   2.497  1.00  0.00     0.177 C 
ATOM      5  O   UNL     1      -8.135 -16.759   0.019  1.00  0.00    -0.341 OA
ATOM      6  C   UNL     1      -6.454 -16.656   2.500  1.00  0.00     0.179 C 
ATOM      7  C   UNL     1      -5.877 -16.831   1.078  1.00  0.00     0.202 C 
BRANCH   3   8
ATOM      8  C   UNL     1     -10.098 -17.367   1.257  1.00  0.00     0.191 C 
BRANCH   8   9
ATOM      9  O   UNL     1     -10.612 -16.966   2.500  1.00  0.00    -0.394 OA
ATOM     10  H   UNL     1     -11.246 -17.675   2.787  1.00  0.00     0.210 HD
ENDBRANCH   8   9
ENDBRANCH   3   8
BRANCH   4  11
ATOM     11  O   UNL     1      -8.434 -15.250   2.498  1.00  0.00    -0.387 OA
ATOM     12  H   UNL     1      -8.113 -14.835   1.655  1.00  0.00     0.211 HD
ENDBRANCH   4  11
BRANCH   6  13
ATOM     13  O   UNL     1      -5.910 -15.501   3.089  1.00  0.00    -0.387 OA
ATOM     14  H   UNL     1      -5.848 -15.679   4.064  1.00  0.00     0.211 HD
ENDBRANCH   6  13
BRANCH   7  15
ATOM     15  O   UNL     1      -5.697 -18.198   0.807  1.00  0.00    -0.385 OA
ATOM     16  H   UNL     1      -6.491 -18.673   1.168  1.00  0.00     0.211 HD
ENDBRANCH   7  15
ENDBRANCH   1   2
BRANCH   1  17
ATOM     17  C   UNL     1      -7.334 -14.041  -0.903  1.00  0.00     0.224 C 
ATOM     18  C   UNL     1      -8.872 -13.908  -1.010  1.00  0.00     0.208 C 
ATOM     19  O   UNL     1      -6.846 -12.727  -0.727  1.00  0.00    -0.337 OA
ATOM     20  C   UNL     1      -9.077 -12.533  -1.610  1.00  0.00     0.180 C 
ATOM     21  C   UNL     1      -7.730 -11.832  -1.371  1.00  0.00     0.179 C 
BRANCH  17  22
ATOM     22  C   UNL     1      -6.701 -14.604  -2.208  1.00  0.00     0.225 C 
BRANCH  22  23
ATOM     23  O   UNL     1      -5.393 -14.125  -2.375  1.00  0.00    -0.391 OA
ATOM     24  H   UNL     1      -4.794 -14.736  -1.876  1.00  0.00     0.210 HD
ENDBRANCH  22  23
ENDBRANCH  17  22
BRANCH  18  25
ATOM     25  O   UNL     1      -9.500 -13.983   0.250  1.00  0.00    -0.385 OA
ATOM     26  H   UNL     1      -9.417 -13.096   0.691  1.00  0.00     0.211 HD
ENDBRANCH  18  25
BRANCH  20  27
ATOM     27  O   UNL     1      -9.340 -12.643  -2.986  1.00  0.00    -0.387 OA
ATOM     28  H   UNL     1      -8.467 -12.818  -3.426  1.00  0.00     0.211 HD
ENDBRANCH  20  27
BRANCH  21  29
ATOM     29  C   UNL     1      -7.880 -10.573  -0.511  1.00  0.00     0.191 C 
BRANCH  29  30
ATOM     30  O   UNL     1      -9.177 -10.504   0.013  1.00  0.00    -0.394 OA
ATOM     31  H   UNL     1      -9.079 -10.572   0.998  1.00  0.00     0.210 HD
ENDBRANCH  29  30
ENDBRANCH  21  29
ENDBRANCH   1  17
TORSDOF 13
ENDMDL
MODEL 5
REMARK VINA RESULT:    -5.101      1.947      5.177
REMARK INTER + INTRA:          -9.292
REMARK INTER:                  -7.764
REMARK INTRA:                  -1.528
REMARK UNBOUND:                -1.508
REMARK SMILES OC[C@H]1O[C@@H](O[C@]2(CO)O[C@H](CO)[C@@H](O)[C@@H]2O)[C@H](O)[C@@H](O)[C@H]1O
REMARK SMILES IDX 6 1 5 2 3 3 22 4 4 5 20 6 18 7 2 8 1 9 23 11 21 13 19 15
REMARK SMILES IDX 7 17 16 18 10 19 14 20 11 21 8 22 9 23 17 25 15 27 12 29
REMARK SMILES IDX 13 30
REMARK H PARENT 1 10 23 12 21 14 19 16 9 24 17 26 15 28 13 31
REMARK Flexibility Score: inf
ROOT
ATOM      1  O   UNL     1      -7.828 -14.468   0.086  1.00  0.00    -0.313 OA
ENDROOT
BRANCH   1   2
ATOM      2  C   UNL     1      -6.778 -14.010  -0.762  1.00  0.00     0.285 C 
ATOM      3  C   UNL     1      -6.983 -11.629  -1.087  1.00  0.00     0.178 C 
ATOM      4  C   UNL     1      -8.428 -11.929  -1.563  1.00  0.00     0.177 C 
ATOM      5  O   UNL     1      -6.396 -12.698  -0.352  1.00  0.00    -0.341 OA
ATOM      6  C   UNL     1      -8.431 -13.157  -2.507  1.00  0.00     0.179 C 
ATOM      7  C   UNL     1      -7.234 -14.097  -2.241  1.00  0.00     0.202 C 
BRANCH   3   8
ATOM      8  C   UNL     1      -6.921 -10.360  -0.222  1.00  0.00     0.191 C 
BRANCH   8   9
ATOM      9  O   UNL     1      -8.113  -9.625  -0.312  1.00  0.00    -0.394 OA
ATOM     10  H   UNL     1      -7.855  -8.666  -0.316  1.00  0.00     0.210 HD
ENDBRANCH   8   9
ENDBRANCH   3   8
BRANCH   4  11
ATOM     11  O   UNL     1      -9.263 -12.162  -0.454  1.00  0.00    -0.387 OA
ATOM     12  H   UNL     1      -8.698 -12.096   0.360  1.00  0.00     0.211 HD
ENDBRANCH   4  11
BRANCH   6  13
ATOM     13  O   UNL     1      -9.632 -13.878  -2.378  1.00  0.00    -0.387 OA
ATOM     14  H   UNL     1     -10.200 -13.375  -1.738  1.00  0.00     0.211 HD
ENDBRANCH   6  13
BRANCH   7  15
ATOM     15  O   UNL     1      -6.166 -13.750  -3.087  1.00  0.00    -0.385 OA
ATOM     16  H   UNL     1      -5.793 -14.597  -3.447  1.00  0.00     0.211 HD
ENDBRANCH   7  15
ENDBRANCH   1   2
BRANCH   1  17
ATOM     17  C   UNL     1      -7.654 -15.782   0.615  1.00  0.00     0.224 C 
ATOM     18  C   UNL     1      -8.830 -16.734   0.286  1.00  0.00     0.208 C 
ATOM     19  O   UNL     1      -6.521 -16.339  -0.018  1.00  0.00    -0.337 OA
ATOM     20  C   UNL     1      -8.169 -18.087   0.129  1.00  0.00     0.180 C 
ATOM     21  C   UNL     1      -6.687 -17.741  -0.078  1.00  0.00     0.179 C 
BRANCH  17  22
ATOM     22  C   UNL     1      -7.357 -15.724   2.142  1.00  0.00     0.225 C 
BRANCH  22  23
ATOM     23  O   UNL     1      -8.436 -16.235   2.879  1.00  0.00    -0.391 OA
ATOM     24  H   UNL     1      -8.888 -16.905   2.306  1.00  0.00     0.210 HD
ENDBRANCH  22  23
ENDBRANCH  17  22
BRANCH  18  25
ATOM     25  O   UNL     1      -9.483 -16.374  -0.911  1.00  0.00    -0.385 OA
ATOM     26  H   UNL     1      -8.876 -15.782  -1.429  1.00  0.00     0.211 HD
ENDBRANCH  18  25
BRANCH  20  27
ATOM     27  O   UNL     1      -8.342 -18.845   1.300  1.00  0.00    -0.387 OA
ATOM     28  H   UNL     1      -8.607 -18.205   2.012  1.00  0.00     0.211 HD
ENDBRANCH  20  27
BRANCH  21  29
ATOM     29  C   UNL     1      -6.158 -18.248  -1.423  1.00  0.00     0.191 C 
BRANCH  29  30
ATOM     30  O   UNL     1      -6.931 -17.724  -2.468  1.00  0.00    -0.394 OA
ATOM     31  H   UNL     1      -6.287 -17.416  -3.158  1.00  0.00     0.210 HD
ENDBRANCH  29  30
ENDBRANCH  21  29
ENDBRANCH   1  17
TORSDOF 13
ENDMDL
MODEL 6
REMARK VINA RESULT:    -5.054      2.180      5.740
REMARK INTER + INTRA:          -9.221
REMARK INTER:                  -8.113
REMARK INTRA:                  -1.108
REMARK UNBOUND:                -1.508
REMARK SMILES OC[C@H]1O[C@@H](O[C@]2(CO)O[C@H](CO)[C@@H](O)[C@@H]2O)[C@H](O)[C@@H](O)[C@H]1O
REMARK SMILES IDX 6 1 5 2 3 3 22 4 4 5 20 6 18 7 2 8 1 9 23 11 21 13 19 15
REMARK SMILES IDX 7 17 16 18 10 19 14 20 11 21 8 22 9 23 17 25 15 27 12 29
REMARK SMILES IDX 13 30
REMARK H PARENT 1 10 23 12 21 14 19 16 9 24 17 26 15 28 13 31
REMARK Flexibility Score: inf
ROOT
ATOM      1  O   UNL     1      -6.886 -14.675   0.141  1.00  0.00    -0.313 OA
ENDROOT
BRANCH   1   2
ATOM      2  C   UNL     1      -6.301 -13.901  -0.904  1.00  0.00     0.285 C 
ATOM      3  C   UNL     1      -7.598 -11.896  -1.246  1.00  0.00     0.178 C 
ATOM      4  C   UNL     1      -8.812 -12.844  -1.430  1.00  0.00     0.177 C 
ATOM      5  O   UNL     1      -6.487 -12.518  -0.609  1.00  0.00    -0.341 OA
ATOM      6  C   UNL     1      -8.416 -14.046  -2.323  1.00  0.00     0.179 C 
ATOM      7  C   UNL     1      -6.899 -14.336  -2.266  1.00  0.00     0.202 C 
BRANCH   3   8
ATOM      8  C   UNL     1      -7.973 -10.641  -0.442  1.00  0.00     0.191 C 
BRANCH   8   9
ATOM      9  O   UNL     1      -9.349 -10.603  -0.173  1.00  0.00    -0.394 OA
ATOM     10  H   UNL     1      -9.603  -9.644  -0.129  1.00  0.00     0.210 HD
ENDBRANCH   8   9
ENDBRANCH   3   8
BRANCH   4  11
ATOM     11  O   UNL     1      -9.266 -13.295  -0.176  1.00  0.00    -0.387 OA
ATOM     12  H   UNL     1      -9.504 -12.493   0.358  1.00  0.00     0.211 HD
ENDBRANCH   4  11
BRANCH   6  13
ATOM     13  O   UNL     1      -9.129 -15.198  -1.949  1.00  0.00    -0.387 OA
ATOM     14  H   UNL     1     -10.082 -15.028  -2.169  1.00  0.00     0.211 HD
ENDBRANCH   6  13
BRANCH   7  15
ATOM     15  O   UNL     1      -6.249 -13.654  -3.309  1.00  0.00    -0.385 OA
ATOM     16  H   UNL     1      -6.710 -13.905  -4.153  1.00  0.00     0.211 HD
ENDBRANCH   7  15
ENDBRANCH   1   2
BRANCH   1  17
ATOM     17  C   UNL     1      -6.089 -15.760   0.614  1.00  0.00     0.224 C 
ATOM     18  C   UNL     1      -6.120 -15.915   2.154  1.00  0.00     0.208 C 
ATOM     19  O   UNL     1      -6.652 -16.948   0.096  1.00  0.00    -0.337 OA
ATOM     20  C   UNL     1      -6.011 -17.410   2.370  1.00  0.00     0.180 C 
ATOM     21  C   UNL     1      -6.386 -18.000   1.002  1.00  0.00     0.179 C 
BRANCH  17  22
ATOM     22  C   UNL     1      -4.636 -15.654   0.064  1.00  0.00     0.225 C 
BRANCH  22  23
ATOM     23  O   UNL     1      -3.744 -15.285   1.082  1.00  0.00    -0.391 OA
ATOM     24  H   UNL     1      -3.888 -15.912   1.835  1.00  0.00     0.210 HD
ENDBRANCH  22  23
ENDBRANCH  17  22
BRANCH  18  25
ATOM     25  O   UNL     1      -7.321 -15.433   2.710  1.00  0.00    -0.385 OA
ATOM     26  H   UNL     1      -7.660 -14.701   2.130  1.00  0.00     0.211 HD
ENDBRANCH  18  25
BRANCH  20  27
ATOM     27  O   UNL     1      -4.691 -17.752   2.712  1.00  0.00    -0.387 OA
ATOM     28  H   UNL     1      -4.185 -17.806   1.859  1.00  0.00     0.211 HD
ENDBRANCH  20  27
BRANCH  21  29
ATOM     29  C   UNL     1      -7.615 -18.911   1.083  1.00  0.00     0.191 C 
BRANCH  29  30
ATOM     30  O   UNL     1      -8.045 -19.016   2.412  1.00  0.00    -0.394 OA
ATOM     31  H   UNL     1      -7.550 -18.318   2.916  1.00  0.00     0.210 HD
ENDBRANCH  29  30
ENDBRANCH  21  29
ENDBRANCH   1  17
TORSDOF 13
ENDMDL
MODEL 7
REMARK VINA RESULT:    -4.960     10.485     13.436
REMARK INTER + INTRA:          -9.078
REMARK INTER:                  -7.914
REMARK INTRA:                  -1.163
REMARK UNBOUND:                -1.508
REMARK SMILES OC[C@H]1O[C@@H](O[C@]2(CO)O[C@H](CO)[C@@H](O)[C@@H]2O)[C@H](O)[C@@H](O)[C@H]1O
REMARK SMILES IDX 6 1 5 2 3 3 22 4 4 5 20 6 18 7 2 8 1 9 23 11 21 13 19 15
REMARK SMILES IDX 7 17 16 18 10 19 14 20 11 21 8 22 9 23 17 25 15 27 12 29
REMARK SMILES IDX 13 30
REMARK H PARENT 1 10 23 12 21 14 19 16 9 24 17 26 15 28 13 31
REMARK Flexibility Score: inf
ROOT
ATOM      1  O   UNL     1       4.238 -15.090   1.767  1.00  0.00    -0.313 OA
ENDROOT
BRANCH   1   2
ATOM      2  C   UNL     1       3.282 -14.570   2.688  1.00  0.00     0.285 C 
ATOM      3  C   UNL     1       3.645 -12.203   2.977  1.00  0.00     0.178 C 
ATOM      4  C   UNL     1       5.103 -12.582   3.346  1.00  0.00     0.177 C 
ATOM      5  O   UNL     1       2.945 -13.240   2.297  1.00  0.00    -0.341 OA
ATOM      6  C   UNL     1       5.107 -13.805   4.297  1.00  0.00     0.179 C 
ATOM      7  C   UNL     1       3.842 -14.676   4.129  1.00  0.00     0.202 C 
BRANCH   3   8
ATOM      8  C   UNL     1       3.589 -10.936   2.108  1.00  0.00     0.191 C 
BRANCH   8   9
ATOM      9  O   UNL     1       4.839 -10.300   2.058  1.00  0.00    -0.394 OA
ATOM     10  H   UNL     1       5.395 -10.710   2.771  1.00  0.00     0.210 HD
ENDBRANCH   8   9
ENDBRANCH   3   8
BRANCH   4  11
ATOM     11  O   UNL     1       5.837 -12.867   2.179  1.00  0.00    -0.387 OA
ATOM     12  H   UNL     1       6.742 -12.475   2.297  1.00  0.00     0.211 HD
ENDBRANCH   4  11
BRANCH   6  13
ATOM     13  O   UNL     1       6.252 -14.594   4.084  1.00  0.00    -0.387 OA
ATOM     14  H   UNL     1       6.971 -13.979   3.782  1.00  0.00     0.211 HD
ENDBRANCH   6  13
BRANCH   7  15
ATOM     15  O   UNL     1       2.862 -14.266   5.050  1.00  0.00    -0.385 OA
ATOM     16  H   UNL     1       2.508 -15.086   5.483  1.00  0.00     0.211 HD
ENDBRANCH   7  15
ENDBRANCH   1   2
BRANCH   1  17
ATOM     17  C   UNL     1       3.910 -16.358   1.200  1.00  0.00     0.224 C 
ATOM     18  C   UNL     1       4.643 -16.639  -0.134  1.00  0.00     0.208 C 
ATOM     19  O   UNL     1       4.362 -17.347   2.102  1.00  0.00    -0.337 OA
ATOM     20  C   UNL     1       4.872 -18.136  -0.114  1.00  0.00     0.180 C 
ATOM     21  C   UNL     1       4.689 -18.508   1.366  1.00  0.00     0.179 C 
BRANCH  17  22
ATOM     22  C   UNL     1       2.367 -16.516   1.067  1.00  0.00     0.225 C 
BRANCH  22  23
ATOM     23  O   UNL     1       1.971 -16.423  -0.276  1.00  0.00    -0.391 OA
ATOM     24  H   UNL     1       0.994 -16.261  -0.280  1.00  0.00     0.210 HD
ENDBRANCH  22  23
ENDBRANCH  17  22
BRANCH  18  25
ATOM     25  O   UNL     1       5.876 -15.962  -0.214  1.00  0.00    -0.385 OA
ATOM     26  H   UNL     1       6.259 -15.906   0.702  1.00  0.00     0.211 HD
ENDBRANCH  18  25
BRANCH  20  27
ATOM     27  O   UNL     1       3.910 -18.781  -0.910  1.00  0.00    -0.387 OA
ATOM     28  H   UNL     1       3.567 -18.098  -1.544  1.00  0.00     0.211 HD
ENDBRANCH  20  27
BRANCH  21  29
ATOM     29  C   UNL     1       5.951 -19.138   1.963  1.00  0.00     0.191 C 
BRANCH  29  30
ATOM     30  O   UNL     1       6.989 -19.111   1.022  1.00  0.00    -0.394 OA
ATOM     31  H   UNL     1       6.698 -18.484   0.310  1.00  0.00     0.210 HD
ENDBRANCH  29  30
ENDBRANCH  21  29
ENDBRANCH   1  17
TORSDOF 13
ENDMDL
MODEL 8
REMARK VINA RESULT:    -4.846      1.932      5.626
REMARK INTER + INTRA:          -8.903
REMARK INTER:                  -7.434
REMARK INTRA:                  -1.468
REMARK UNBOUND:                -1.508
REMARK SMILES OC[C@H]1O[C@@H](O[C@]2(CO)O[C@H](CO)[C@@H](O)[C@@H]2O)[C@H](O)[C@@H](O)[C@H]1O
REMARK SMILES IDX 6 1 5 2 3 3 22 4 4 5 20 6 18 7 2 8 1 9 23 11 21 13 19 15
REMARK SMILES IDX 7 17 16 18 10 19 14 20 11 21 8 22 9 23 17 25 15 27 12 29
REMARK SMILES IDX 13 30
REMARK H PARENT 1 10 23 12 21 14 19 16 9 24 17 26 15 28 13 31
REMARK Flexibility Score: inf
ROOT
ATOM      1  O   UNL     1      -6.684 -14.517   0.320  1.00  0.00    -0.313 OA
ENDROOT
BRANCH   1   2
ATOM      2  C   UNL     1      -6.173 -13.775  -0.785  1.00  0.00     0.285 C 
ATOM      3  C   UNL     1      -7.637 -11.916  -1.254  1.00  0.00     0.178 C 
ATOM      4  C   UNL     1      -8.767 -12.974  -1.355  1.00  0.00     0.177 C 
ATOM      5  O   UNL     1      -6.473 -12.394  -0.588  1.00  0.00    -0.341 OA
ATOM      6  C   UNL     1      -8.275 -14.200  -2.164  1.00  0.00     0.179 C 
ATOM      7  C   UNL     1      -6.739 -14.357  -2.105  1.00  0.00     0.202 C 
BRANCH   3   8
ATOM      8  C   UNL     1      -8.113 -10.642  -0.538  1.00  0.00     0.191 C 
BRANCH   8   9
ATOM      9  O   UNL     1      -9.487 -10.697  -0.263  1.00  0.00    -0.394 OA
ATOM     10  H   UNL     1      -9.946 -10.824  -1.134  1.00  0.00     0.210 HD
ENDBRANCH   8   9
ENDBRANCH   3   8
BRANCH   4  11
ATOM     11  O   UNL     1      -9.174 -13.370  -0.066  1.00  0.00    -0.387 OA
ATOM     12  H   UNL     1      -8.428 -13.890   0.331  1.00  0.00     0.211 HD
ENDBRANCH   4  11
BRANCH   6  13
ATOM     13  O   UNL     1      -8.886 -15.378  -1.699  1.00  0.00    -0.387 OA
ATOM     14  H   UNL     1      -8.239 -16.115  -1.853  1.00  0.00     0.211 HD
ENDBRANCH   6  13
BRANCH   7  15
ATOM     15  O   UNL     1      -6.156 -13.699  -3.202  1.00  0.00    -0.385 OA
ATOM     16  H   UNL     1      -5.636 -14.379  -3.706  1.00  0.00     0.211 HD
ENDBRANCH   7  15
ENDBRANCH   1   2
BRANCH   1  17
ATOM     17  C   UNL     1      -5.761 -15.426   0.921  1.00  0.00     0.224 C 
ATOM     18  C   UNL     1      -6.315 -16.866   1.043  1.00  0.00     0.208 C 
ATOM     19  O   UNL     1      -4.644 -15.514   0.062  1.00  0.00    -0.337 OA
ATOM     20  C   UNL     1      -5.093 -17.741   0.858  1.00  0.00     0.180 C 
ATOM     21  C   UNL     1      -4.070 -16.798   0.206  1.00  0.00     0.179 C 
BRANCH  17  22
ATOM     22  C   UNL     1      -5.259 -14.873   2.287  1.00  0.00     0.225 C 
BRANCH  22  23
ATOM     23  O   UNL     1      -5.918 -15.505   3.353  1.00  0.00    -0.391 OA
ATOM     24  H   UNL     1      -5.234 -15.697   4.043  1.00  0.00     0.210 HD
ENDBRANCH  22  23
ENDBRANCH  17  22
BRANCH  18  25
ATOM     25  O   UNL     1      -7.269 -17.153   0.045  1.00  0.00    -0.385 OA
ATOM     26  H   UNL     1      -8.095 -17.479   0.491  1.00  0.00     0.211 HD
ENDBRANCH  18  25
BRANCH  20  27
ATOM     27  O   UNL     1      -4.629 -18.188   2.107  1.00  0.00    -0.387 OA
ATOM     28  H   UNL     1      -5.380 -18.067   2.746  1.00  0.00     0.211 HD
ENDBRANCH  20  27
BRANCH  21  29
ATOM     29  C   UNL     1      -3.617 -17.299  -1.169  1.00  0.00     0.191 C 
BRANCH  29  30
ATOM     30  O   UNL     1      -4.724 -17.429  -2.018  1.00  0.00    -0.394 OA
ATOM     31  H   UNL     1      -5.468 -16.944  -1.575  1.00  0.00     0.210 HD
ENDBRANCH  29  30
ENDBRANCH  21  29
ENDBRANCH   1  17
TORSDOF 13
ENDMDL
MODEL 9
REMARK VINA RESULT:    -4.759      2.442      4.264
REMARK INTER + INTRA:          -8.771
REMARK INTER:                  -7.026
REMARK INTRA:                  -1.746
REMARK UNBOUND:                -1.508
REMARK SMILES OC[C@H]1O[C@@H](O[C@]2(CO)O[C@H](CO)[C@@H](O)[C@@H]2O)[C@H](O)[C@@H](O)[C@H]1O
REMARK SMILES IDX 6 1 5 2 3 3 22 4 4 5 20 6 18 7 2 8 1 9 23 11 21 13 19 15
REMARK SMILES IDX 7 17 16 18 10 19 14 20 11 21 8 22 9 23 17 25 15 27 12 29
REMARK SMILES IDX 13 30
REMARK H PARENT 1 10 23 12 21 14 19 16 9 24 17 26 15 28 13 31
REMARK Flexibility Score: inf
ROOT
ATOM      1  O   UNL     1      -7.838 -16.185  -0.176  1.00  0.00    -0.313 OA
ENDROOT
BRANCH   1   2
ATOM      2  C   UNL     1      -6.629 -15.522   0.187  1.00  0.00     0.285 C 
ATOM      3  C   UNL     1      -6.519 -13.382  -0.921  1.00  0.00     0.178 C 
ATOM      4  C   UNL     1      -6.723 -14.176  -2.238  1.00  0.00     0.177 C 
ATOM      5  O   UNL     1      -6.876 -14.118   0.245  1.00  0.00    -0.341 OA
ATOM      6  C   UNL     1      -5.834 -15.444  -2.235  1.00  0.00     0.179 C 
ATOM      7  C   UNL     1      -5.505 -15.920  -0.803  1.00  0.00     0.202 C 
BRANCH   3   8
ATOM      8  C   UNL     1      -7.313 -12.066  -0.920  1.00  0.00     0.191 C 
BRANCH   8   9
ATOM      9  O   UNL     1      -8.650 -12.281  -0.551  1.00  0.00    -0.394 OA
ATOM     10  H   UNL     1      -8.837 -11.666   0.206  1.00  0.00     0.210 HD
ENDBRANCH   8   9
ENDBRANCH   3   8
BRANCH   4  11
ATOM     11  O   UNL     1      -8.079 -14.529  -2.382  1.00  0.00    -0.387 OA
ATOM     12  H   UNL     1      -8.453 -14.642  -1.469  1.00  0.00     0.211 HD
ENDBRANCH   4  11
BRANCH   6  13
ATOM     13  O   UNL     1      -6.456 -16.487  -2.945  1.00  0.00    -0.387 OA
ATOM     14  H   UNL     1      -6.985 -16.063  -3.671  1.00  0.00     0.211 HD
ENDBRANCH   6  13
BRANCH   7  15
ATOM     15  O   UNL     1      -4.286 -15.356  -0.388  1.00  0.00    -0.385 OA
ATOM     16  H   UNL     1      -4.356 -14.376  -0.532  1.00  0.00     0.211 HD
ENDBRANCH   7  15
ENDBRANCH   1   2
BRANCH   1  17
ATOM     17  C   UNL     1      -8.697 -16.523   0.913  1.00  0.00     0.224 C 
ATOM     18  C   UNL     1      -9.651 -15.373   1.319  1.00  0.00     0.208 C 
ATOM     19  O   UNL     1      -9.530 -17.577   0.475  1.00  0.00    -0.337 OA
ATOM     20  C   UNL     1     -10.909 -16.086   1.769  1.00  0.00     0.180 C 
ATOM     21  C   UNL     1     -10.758 -17.493   1.170  1.00  0.00     0.179 C 
BRANCH  17  22
ATOM     22  C   UNL     1      -7.869 -17.052   2.121  1.00  0.00     0.225 C 
BRANCH  22  23
ATOM     23  O   UNL     1      -8.108 -16.277   3.266  1.00  0.00    -0.391 OA
ATOM     24  H   UNL     1      -7.452 -16.562   3.951  1.00  0.00     0.210 HD
ENDBRANCH  22  23
ENDBRANCH  17  22
BRANCH  18  25
ATOM     25  O   UNL     1      -9.941 -14.519   0.235  1.00  0.00    -0.385 OA
ATOM     26  H   UNL     1      -9.082 -14.184  -0.134  1.00  0.00     0.211 HD
ENDBRANCH  18  25
BRANCH  20  27
ATOM     27  O   UNL     1     -10.950 -16.147   3.172  1.00  0.00    -0.387 OA
ATOM     28  H   UNL     1     -11.773 -15.666   3.450  1.00  0.00     0.211 HD
ENDBRANCH  20  27
BRANCH  21  29
ATOM     29  C   UNL     1     -11.899 -17.835   0.207  1.00  0.00     0.191 C 
BRANCH  29  30
ATOM     30  O   UNL     1     -11.870 -16.971  -0.895  1.00  0.00    -0.394 OA
ATOM     31  H   UNL     1     -10.972 -16.548  -0.888  1.00  0.00     0.210 HD
ENDBRANCH  29  30
ENDBRANCH  21  29
ENDBRANCH   1  17
TORSDOF 13
ENDMDL
