MODEL 1
REMARK VINA RESULT:    -6.430      0.000      0.000
REMARK INTER + INTRA:          -6.618
REMARK INTER:                  -6.618
REMARK INTRA:                   0.000
REMARK UNBOUND:                 0.000
REMARK SMILES C[C@H]1CC[C@H]2C(C)(C)[C@@H]3C[C@]12CC[C@]3(C)O
REMARK SMILES IDX 1 1 2 2 3 3 4 4 5 5 11 6 12 7 13 8 14 9 9 10 10 11 6 12 7 13
REMARK SMILES IDX 8 14 15 15 16 16
REMARK H PARENT 16 17
REMARK Flexibility Score: inf
ROOT
ATOM      1  C   UNL     1     118.718 118.772 116.038  1.00  0.00     0.008 C 
ATOM      2  C   UNL     1     119.512 118.811 117.351  1.00  0.00    -0.008 C 
ATOM      3  C   UNL     1     120.006 120.246 117.725  1.00  0.00     0.004 C 
ATOM      4  C   UNL     1     119.958 120.347 119.277  1.00  0.00     0.005 C 
ATOM      5  C   UNL     1     119.733 118.902 119.668  1.00  0.00     0.001 C 
ATOM      6  C   UNL     1     118.757 118.375 118.627  1.00  0.00    -0.023 C 
ATOM      7  C   UNL     1     117.294 118.974 118.638  1.00  0.00     0.010 C 
ATOM      8  C   UNL     1     116.418 118.717 119.887  1.00  0.00     0.036 C 
ATOM      9  C   UNL     1     116.810 117.469 120.738  1.00  0.00     0.065 C 
ATOM     10  C   UNL     1     118.333 117.139 120.582  1.00  0.00     0.027 C 
ATOM     11  C   UNL     1     118.668 116.931 119.071  1.00  0.00     0.014 C 
ATOM     12  C   UNL     1     119.330 118.296 121.035  1.00  0.00    -0.026 C 
ATOM     13  C   UNL     1     118.842 119.382 122.023  1.00  0.00     0.012 C 
ATOM     14  C   UNL     1     120.557 117.624 121.713  1.00  0.00     0.012 C 
ATOM     15  C   UNL     1     115.944 116.253 120.317  1.00  0.00     0.042 C 
ENDROOT
BRANCH   9  16
ATOM     16  O   UNL     1     116.545 117.709 122.101  1.00  0.00    -0.390 OA
ATOM     17  H   UNL     1     116.134 118.610 122.185  1.00  0.00     0.211 HD
ENDBRANCH   9  16
TORSDOF 1
ENDMDL
MODEL 2
REMARK VINA RESULT:    -6.354      1.661      2.655
REMARK INTER + INTRA:          -6.539
REMARK INTER:                  -6.539
REMARK INTRA:                   0.000
REMARK UNBOUND:                 0.000
REMARK SMILES C[C@H]1CC[C@H]2C(C)(C)[C@@H]3C[C@]12CC[C@]3(C)O
REMARK SMILES IDX 1 1 2 2 3 3 4 4 5 5 11 6 12 7 13 8 14 9 9 10 10 11 6 12 7 13
REMARK SMILES IDX 8 14 15 15 16 16
REMARK H PARENT 16 17
REMARK Flexibility Score: inf
ROOT
ATOM      1  C   UNL     1     118.681 118.646 116.055  1.00  0.00     0.008 C 
ATOM      2  C   UNL     1     118.683 119.446 117.365  1.00  0.00    -0.008 C 
ATOM      3  C   UNL     1     117.259 119.928 117.790  1.00  0.00     0.004 C 
ATOM      4  C   UNL     1     117.216 119.886 119.345  1.00  0.00     0.005 C 
ATOM      5  C   UNL     1     118.677 119.676 119.683  1.00  0.00     0.001 C 
ATOM      6  C   UNL     1     119.174 118.700 118.627  1.00  0.00    -0.023 C 
ATOM      7  C   UNL     1     118.589 117.232 118.666  1.00  0.00     0.010 C 
ATOM      8  C   UNL     1     118.900 116.365 119.909  1.00  0.00     0.036 C 
ATOM      9  C   UNL     1     120.175 116.772 120.711  1.00  0.00     0.065 C 
ATOM     10  C   UNL     1     120.485 118.297 120.537  1.00  0.00     0.027 C 
ATOM     11  C   UNL     1     120.634 118.627 119.018  1.00  0.00     0.014 C 
ATOM     12  C   UNL     1     119.337 119.286 121.028  1.00  0.00    -0.026 C 
ATOM     13  C   UNL     1     118.293 118.792 122.059  1.00  0.00     0.012 C 
ATOM     14  C   UNL     1     120.022 120.521 121.676  1.00  0.00     0.012 C 
ATOM     15  C   UNL     1     121.384 115.915 120.249  1.00  0.00     0.042 C 
ENDROOT
BRANCH   9  16
ATOM     16  O   UNL     1     119.988 116.511 122.083  1.00  0.00    -0.390 OA
ATOM     17  H   UNL     1     119.023 116.332 122.239  1.00  0.00     0.211 HD
ENDBRANCH   9  16
TORSDOF 1
ENDMDL
MODEL 3
REMARK VINA RESULT:    -6.352      1.632      2.631
REMARK INTER + INTRA:          -6.537
REMARK INTER:                  -6.537
REMARK INTRA:                   0.000
REMARK UNBOUND:                 0.000
REMARK SMILES C[C@H]1CC[C@H]2C(C)(C)[C@@H]3C[C@]12CC[C@]3(C)O
REMARK SMILES IDX 1 1 2 2 3 3 4 4 5 5 11 6 12 7 13 8 14 9 9 10 10 11 6 12 7 13
REMARK SMILES IDX 8 14 15 15 16 16
REMARK H PARENT 16 17
REMARK Flexibility Score: inf
ROOT
ATOM      1  C   UNL     1     118.976 118.990 116.070  1.00  0.00     0.008 C 
ATOM      2  C   UNL     1     118.960 118.181 117.374  1.00  0.00    -0.008 C 
ATOM      3  C   UNL     1     120.381 117.700 117.813  1.00  0.00     0.004 C 
ATOM      4  C   UNL     1     120.404 117.729 119.368  1.00  0.00     0.005 C 
ATOM      5  C   UNL     1     118.939 117.932 119.690  1.00  0.00     0.001 C 
ATOM      6  C   UNL     1     118.451 118.915 118.635  1.00  0.00    -0.023 C 
ATOM      7  C   UNL     1     119.031 120.384 118.693  1.00  0.00     0.010 C 
ATOM      8  C   UNL     1     118.701 121.241 119.939  1.00  0.00     0.036 C 
ATOM      9  C   UNL     1     117.418 120.824 120.722  1.00  0.00     0.065 C 
ATOM     10  C   UNL     1     117.115 119.298 120.532  1.00  0.00     0.027 C 
ATOM     11  C   UNL     1     116.986 118.981 119.009  1.00  0.00     0.014 C 
ATOM     12  C   UNL     1     118.261 118.310 121.029  1.00  0.00    -0.026 C 
ATOM     13  C   UNL     1     119.290 118.799 122.077  1.00  0.00     0.012 C 
ATOM     14  C   UNL     1     117.572 117.067 121.659  1.00  0.00     0.012 C 
ATOM     15  C   UNL     1     116.213 121.680 120.252  1.00  0.00     0.042 C 
ENDROOT
BRANCH   9  16
ATOM     16  O   UNL     1     117.587 121.074 122.098  1.00  0.00    -0.390 OA
ATOM     17  H   UNL     1     117.050 121.875 122.339  1.00  0.00     0.211 HD
ENDBRANCH   9  16
TORSDOF 1
ENDMDL
MODEL 4
REMARK VINA RESULT:    -6.331      1.848      3.729
REMARK INTER + INTRA:          -6.516
REMARK INTER:                  -6.516
REMARK INTRA:                   0.000
REMARK UNBOUND:                 0.000
REMARK SMILES C[C@H]1CC[C@H]2C(C)(C)[C@@H]3C[C@]12CC[C@]3(C)O
REMARK SMILES IDX 1 1 2 2 3 3 4 4 5 5 11 6 12 7 13 8 14 9 9 10 10 11 6 12 7 13
REMARK SMILES IDX 8 14 15 15 16 16
REMARK H PARENT 16 17
REMARK Flexibility Score: inf
ROOT
ATOM      1  C   UNL     1     118.958 118.648 116.044  1.00  0.00     0.008 C 
ATOM      2  C   UNL     1     118.158 118.639 117.354  1.00  0.00    -0.008 C 
ATOM      3  C   UNL     1     117.691 117.209 117.777  1.00  0.00     0.004 C 
ATOM      4  C   UNL     1     117.733 117.163 119.331  1.00  0.00     0.005 C 
ATOM      5  C   UNL     1     117.927 118.625 119.672  1.00  0.00     0.001 C 
ATOM      6  C   UNL     1     118.898 119.135 118.617  1.00  0.00    -0.023 C 
ATOM      7  C   UNL     1     120.372 118.566 118.656  1.00  0.00     0.010 C 
ATOM      8  C   UNL     1     121.236 118.885 119.900  1.00  0.00     0.036 C 
ATOM      9  C   UNL     1     120.815 120.154 120.704  1.00  0.00     0.065 C 
ATOM     10  C   UNL     1     119.286 120.447 120.530  1.00  0.00     0.027 C 
ATOM     11  C   UNL     1     118.956 120.596 119.011  1.00  0.00     0.014 C 
ATOM     12  C   UNL     1     118.310 119.287 121.018  1.00  0.00    -0.026 C 
ATOM     13  C   UNL     1     118.815 118.247 122.047  1.00  0.00     0.012 C 
ATOM     14  C   UNL     1     117.067 119.958 121.667  1.00  0.00     0.012 C 
ATOM     15  C   UNL     1     121.659 121.372 120.244  1.00  0.00     0.042 C 
ENDROOT
BRANCH   9  16
ATOM     16  O   UNL     1     121.077 119.967 122.076  1.00  0.00    -0.390 OA
ATOM     17  H   UNL     1     121.468 120.806 122.437  1.00  0.00     0.211 HD
ENDBRANCH   9  16
TORSDOF 1
ENDMDL
MODEL 5
REMARK VINA RESULT:    -5.912      1.288      3.378
REMARK INTER + INTRA:          -6.085
REMARK INTER:                  -6.085
REMARK INTRA:                   0.000
REMARK UNBOUND:                 0.000
REMARK SMILES C[C@H]1CC[C@H]2C(C)(C)[C@@H]3C[C@]12CC[C@]3(C)O
REMARK SMILES IDX 1 1 2 2 3 3 4 4 5 5 11 6 12 7 13 8 14 9 9 10 10 11 6 12 7 13
REMARK SMILES IDX 8 14 15 15 16 16
REMARK H PARENT 16 17
REMARK Flexibility Score: inf
ROOT
ATOM      1  C   UNL     1     120.736 121.728 118.861  1.00  0.00     0.008 C 
ATOM      2  C   UNL     1     119.571 120.740 118.704  1.00  0.00    -0.008 C 
ATOM      3  C   UNL     1     119.626 119.937 117.365  1.00  0.00     0.004 C 
ATOM      4  C   UNL     1     119.069 118.517 117.669  1.00  0.00     0.005 C 
ATOM      5  C   UNL     1     118.478 118.712 119.049  1.00  0.00     0.001 C 
ATOM      6  C   UNL     1     119.471 119.618 119.762  1.00  0.00    -0.023 C 
ATOM      7  C   UNL     1     120.901 119.020 120.074  1.00  0.00     0.010 C 
ATOM      8  C   UNL     1     120.985 117.819 121.046  1.00  0.00     0.036 C 
ATOM      9  C   UNL     1     119.790 117.673 122.039  1.00  0.00     0.065 C 
ATOM     10  C   UNL     1     118.485 118.302 121.443  1.00  0.00     0.027 C 
ATOM     11  C   UNL     1     118.749 119.798 121.080  1.00  0.00     0.014 C 
ATOM     12  C   UNL     1     117.984 117.662 120.074  1.00  0.00    -0.026 C 
ATOM     13  C   UNL     1     118.432 116.231 119.691  1.00  0.00     0.012 C 
ATOM     14  C   UNL     1     116.431 117.626 120.109  1.00  0.00     0.012 C 
ATOM     15  C   UNL     1     120.147 118.340 123.393  1.00  0.00     0.042 C 
ENDROOT
BRANCH   9  16
ATOM     16  O   UNL     1     119.545 116.311 122.304  1.00  0.00    -0.390 OA
ATOM     17  H   UNL     1     119.716 115.794 121.472  1.00  0.00     0.211 HD
ENDBRANCH   9  16
TORSDOF 1
ENDMDL
MODEL 6
REMARK VINA RESULT:    -5.905      1.492      2.881
REMARK INTER + INTRA:          -6.077
REMARK INTER:                  -6.077
REMARK INTRA:                   0.000
REMARK UNBOUND:                 0.000
REMARK SMILES C[C@H]1CC[C@H]2C(C)(C)[C@@H]3C[C@]12CC[C@]3(C)O
REMARK SMILES IDX 1 1 2 2 3 3 4 4 5 5 11 6 12 7 13 8 14 9 9 10 10 11 6 12 7 13
REMARK SMILES IDX 8 14 15 15 16 16
REMARK H PARENT 16 17
REMARK Flexibility Score: inf
ROOT
ATOM      1  C   UNL     1     121.675 116.827 118.869  1.00  0.00     0.008 C 
ATOM      2  C   UNL     1     120.702 118.002 118.702  1.00  0.00    -0.008 C 
ATOM      3  C   UNL     1     119.919 117.962 117.351  1.00  0.00     0.004 C 
ATOM      4  C   UNL     1     118.500 118.532 117.636  1.00  0.00     0.005 C 
ATOM      5  C   UNL     1     118.681 119.115 119.022  1.00  0.00     0.001 C 
ATOM      6  C   UNL     1     119.565 118.109 119.744  1.00  0.00    -0.023 C 
ATOM      7  C   UNL     1     118.948 116.684 120.039  1.00  0.00     0.010 C 
ATOM      8  C   UNL     1     117.731 116.609 120.992  1.00  0.00     0.036 C 
ATOM      9  C   UNL     1     117.582 117.800 121.989  1.00  0.00     0.065 C 
ATOM     10  C   UNL     1     118.234 119.101 121.409  1.00  0.00     0.027 C 
ATOM     11  C   UNL     1     119.732 118.824 121.067  1.00  0.00     0.014 C 
ATOM     12  C   UNL     1     117.620 119.615 120.033  1.00  0.00    -0.026 C 
ATOM     13  C   UNL     1     116.190 119.185 119.626  1.00  0.00     0.012 C 
ATOM     14  C   UNL     1     117.600 121.169 120.075  1.00  0.00     0.012 C 
ATOM     15  C   UNL     1     118.226 117.430 123.352  1.00  0.00     0.042 C 
ENDROOT
BRANCH   9  16
ATOM     16  O   UNL     1     116.219 118.058 122.235  1.00  0.00    -0.390 OA
ATOM     17  H   UNL     1     116.042 119.016 122.041  1.00  0.00     0.211 HD
ENDBRANCH   9  16
TORSDOF 1
ENDMDL
MODEL 7
REMARK VINA RESULT:    -5.865      1.550      2.867
REMARK INTER + INTRA:          -6.037
REMARK INTER:                  -6.037
REMARK INTRA:                   0.000
REMARK UNBOUND:                 0.000
REMARK SMILES C[C@H]1CC[C@H]2C(C)(C)[C@@H]3C[C@]12CC[C@]3(C)O
REMARK SMILES IDX 1 1 2 2 3 3 4 4 5 5 11 6 12 7 13 8 14 9 9 10 10 11 6 12 7 13
REMARK SMILES IDX 8 14 15 15 16 16
REMARK H PARENT 16 17
REMARK Flexibility Score: inf
ROOT
ATOM      1  C   UNL     1     116.856 115.868 118.912  1.00  0.00     0.008 C 
ATOM      2  C   UNL     1     118.033 116.839 118.744  1.00  0.00    -0.008 C 
ATOM      3  C   UNL     1     117.996 117.618 117.390  1.00  0.00     0.004 C 
ATOM      4  C   UNL     1     118.567 119.037 117.672  1.00  0.00     0.005 C 
ATOM      5  C   UNL     1     119.148 118.860 119.060  1.00  0.00     0.001 C 
ATOM      6  C   UNL     1     118.140 117.979 119.783  1.00  0.00    -0.023 C 
ATOM      7  C   UNL     1     116.716 118.599 120.075  1.00  0.00     0.010 C 
ATOM      8  C   UNL     1     116.640 119.818 121.024  1.00  0.00     0.036 C 
ATOM      9  C   UNL     1     117.830 119.968 122.022  1.00  0.00     0.065 C 
ATOM     10  C   UNL     1     119.132 119.314 121.446  1.00  0.00     0.027 C 
ATOM     11  C   UNL     1     118.853 117.815 121.108  1.00  0.00     0.014 C 
ATOM     12  C   UNL     1     119.648 119.923 120.068  1.00  0.00    -0.026 C 
ATOM     13  C   UNL     1     119.220 121.352 119.657  1.00  0.00     0.012 C 
ATOM     14  C   UNL     1     121.202 119.941 120.113  1.00  0.00     0.012 C 
ATOM     15  C   UNL     1     117.457 119.329 123.386  1.00  0.00     0.042 C 
ENDROOT
BRANCH   9  16
ATOM     16  O   UNL     1     118.090 121.332 122.265  1.00  0.00    -0.390 OA
ATOM     17  H   UNL     1     117.480 121.643 122.985  1.00  0.00     0.211 HD
ENDBRANCH   9  16
TORSDOF 1
ENDMDL
MODEL 8
REMARK VINA RESULT:    -5.853      1.984      3.394
REMARK INTER + INTRA:          -6.024
REMARK INTER:                  -6.024
REMARK INTRA:                   0.000
REMARK UNBOUND:                 0.000
REMARK SMILES C[C@H]1CC[C@H]2C(C)(C)[C@@H]3C[C@]12CC[C@]3(C)O
REMARK SMILES IDX 1 1 2 2 3 3 4 4 5 5 11 6 12 7 13 8 14 9 9 10 10 11 6 12 7 13
REMARK SMILES IDX 8 14 15 15 16 16
REMARK H PARENT 16 17
REMARK Flexibility Score: inf
ROOT
ATOM      1  C   UNL     1     115.904 120.758 118.957  1.00  0.00     0.008 C 
ATOM      2  C   UNL     1     116.877 119.584 118.791  1.00  0.00    -0.008 C 
ATOM      3  C   UNL     1     117.643 119.612 117.429  1.00  0.00     0.004 C 
ATOM      4  C   UNL     1     119.067 119.048 117.702  1.00  0.00     0.005 C 
ATOM      5  C   UNL     1     118.905 118.479 119.096  1.00  0.00     0.001 C 
ATOM      6  C   UNL     1     118.027 119.490 119.819  1.00  0.00    -0.023 C 
ATOM      7  C   UNL     1     118.645 120.919 120.092  1.00  0.00     0.010 C 
ATOM      8  C   UNL     1     119.873 121.007 121.029  1.00  0.00     0.036 C 
ATOM      9  C   UNL     1     120.037 119.827 122.036  1.00  0.00     0.065 C 
ATOM     10  C   UNL     1     119.382 118.518 121.478  1.00  0.00     0.027 C 
ATOM     11  C   UNL     1     117.878 118.789 121.152  1.00  0.00     0.014 C 
ATOM     12  C   UNL     1     119.979 117.991 120.099  1.00  0.00    -0.026 C 
ATOM     13  C   UNL     1     121.403 118.421 119.670  1.00  0.00     0.012 C 
ATOM     14  C   UNL     1     120.003 116.438 120.156  1.00  0.00     0.012 C 
ATOM     15  C   UNL     1     119.410 120.209 123.402  1.00  0.00     0.042 C 
ENDROOT
BRANCH   9  16
ATOM     16  O   UNL     1     121.404 119.574 122.267  1.00  0.00    -0.390 OA
ATOM     17  H   UNL     1     121.787 120.351 122.755  1.00  0.00     0.211 HD
ENDBRANCH   9  16
TORSDOF 1
ENDMDL
MODEL 9
REMARK VINA RESULT:    -5.852      1.877      4.058
REMARK INTER + INTRA:          -6.023
REMARK INTER:                  -6.023
REMARK INTRA:                   0.000
REMARK UNBOUND:                 0.000
REMARK SMILES C[C@H]1CC[C@H]2C(C)(C)[C@@H]3C[C@]12CC[C@]3(C)O
REMARK SMILES IDX 1 1 2 2 3 3 4 4 5 5 11 6 12 7 13 8 14 9 9 10 10 11 6 12 7 13
REMARK SMILES IDX 8 14 15 15 16 16
REMARK H PARENT 16 17
REMARK Flexibility Score: inf
ROOT
ATOM      1  C   UNL     1     115.999 116.672 120.915  1.00  0.00     0.008 C 
ATOM      2  C   UNL     1     116.453 117.612 119.790  1.00  0.00    -0.008 C 
ATOM      3  C   UNL     1     115.925 119.073 119.963  1.00  0.00     0.004 C 
ATOM      4  C   UNL     1     117.035 120.018 119.420  1.00  0.00     0.005 C 
ATOM      5  C   UNL     1     117.955 119.037 118.724  1.00  0.00     0.001 C 
ATOM      6  C   UNL     1     117.976 117.822 119.640  1.00  0.00    -0.023 C 
ATOM      7  C   UNL     1     118.655 117.996 121.057  1.00  0.00     0.010 C 
ATOM      8  C   UNL     1     120.169 118.310 121.098  1.00  0.00     0.036 C 
ATOM      9  C   UNL     1     120.981 117.877 119.838  1.00  0.00     0.065 C 
ATOM     10  C   UNL     1     120.068 117.849 118.565  1.00  0.00     0.027 C 
ATOM     11  C   UNL     1     118.853 116.901 118.818  1.00  0.00     0.014 C 
ATOM     12  C   UNL     1     119.391 119.239 118.182  1.00  0.00    -0.026 C 
ATOM     13  C   UNL     1     120.018 120.559 118.691  1.00  0.00     0.012 C 
ATOM     14  C   UNL     1     119.376 119.345 116.631  1.00  0.00     0.012 C 
ATOM     15  C   UNL     1     121.622 116.484 120.078  1.00  0.00     0.042 C 
ENDROOT
BRANCH   9  16
ATOM     16  O   UNL     1     122.036 118.781 119.607  1.00  0.00    -0.390 OA
ATOM     17  H   UNL     1     122.522 118.920 120.463  1.00  0.00     0.211 HD
ENDBRANCH   9  16
TORSDOF 1
ENDMDL
