MODEL 1
REMARK VINA RESULT:    -4.782      0.000      0.000
REMARK INTER + INTRA:          -9.275
REMARK INTER:                  -7.297
REMARK INTRA:                  -1.977
REMARK UNBOUND:                -1.977
REMARK SMILES CC(=O)CCC=C(C)CCC=C(C)CCC=C(C)C
REMARK SMILES IDX 10 1 11 2 12 3 13 4 14 5 15 6 16 7 18 8 17 9 19 10 9 11 7 12
REMARK SMILES IDX 6 13 8 14 5 15 4 16 2 17 3 18 1 19
REMARK H PARENT
REMARK Flexibility Score: inf
ROOT
ATOM      1  C   UNL     1      21.294  30.457  30.144  1.00  0.00     0.032 C 
ENDROOT
BRANCH   1   2
ATOM      2  C   UNL     1      20.551  29.725  29.055  1.00  0.00    -0.028 C 
ATOM      3  C   UNL     1      19.447  28.971  29.257  1.00  0.00    -0.077 C 
ATOM      4  C   UNL     1      18.887  28.731  30.640  1.00  0.00     0.039 C 
BRANCH   3   5
ATOM      5  C   UNL     1      18.771  28.330  28.065  1.00  0.00     0.034 C 
BRANCH   5   6
ATOM      6  C   UNL     1      18.352  26.891  28.386  1.00  0.00     0.032 C 
BRANCH   6   7
ATOM      7  C   UNL     1      19.093  25.910  27.513  1.00  0.00    -0.028 C 
ATOM      8  C   UNL     1      20.846  24.298  26.907  1.00  0.00     0.039 C 
ATOM      9  C   UNL     1      20.237  25.284  27.869  1.00  0.00    -0.080 C 
ATOM     10  C   UNL     1      20.924  25.560  29.187  1.00  0.00     0.039 C 
ENDBRANCH   6   7
ENDBRANCH   5   6
ENDBRANCH   3   5
ENDBRANCH   1   2
BRANCH   1  11
ATOM     11  C   UNL     1      21.189  31.974  29.944  1.00  0.00     0.034 C 
BRANCH  11  12
ATOM     12  C   UNL     1      19.811  32.471  30.320  1.00  0.00    -0.077 C 
ATOM     13  C   UNL     1      19.052  33.077  29.379  1.00  0.00    -0.028 C 
ATOM     14  C   UNL     1      19.315  32.261  31.731  1.00  0.00     0.039 C 
BRANCH  13  15
ATOM     15  C   UNL     1      17.684  33.661  29.631  1.00  0.00     0.035 C 
BRANCH  15  16
ATOM     16  C   UNL     1      16.600  32.799  28.966  1.00  0.00     0.079 C 
BRANCH  16  17
ATOM     17  C   UNL     1      15.898  31.843  29.905  1.00  0.00     0.130 C 
ATOM     18  O   UNL     1      15.479  32.276  30.967  1.00  0.00    -0.300 OA
ATOM     19  C   UNL     1      15.699  30.385  29.591  1.00  0.00     0.087 C 
ENDBRANCH  16  17
ENDBRANCH  15  16
ENDBRANCH  13  15
ENDBRANCH  11  12
ENDBRANCH   1  11
TORSDOF 9
ENDMDL
MODEL 2
REMARK VINA RESULT:    -4.727      3.756      8.358
REMARK INTER + INTRA:          -9.191
REMARK INTER:                  -8.352
REMARK INTRA:                  -0.839
REMARK UNBOUND:                -1.977
REMARK SMILES CC(=O)CCC=C(C)CCC=C(C)CCC=C(C)C
REMARK SMILES IDX 10 1 11 2 12 3 13 4 14 5 15 6 16 7 18 8 17 9 19 10 9 11 7 12
REMARK SMILES IDX 6 13 8 14 5 15 4 16 2 17 3 18 1 19
REMARK H PARENT
REMARK Flexibility Score: inf
ROOT
ATOM      1  C   UNL     1      21.579  27.007  28.697  1.00  0.00     0.032 C 
ENDROOT
BRANCH   1   2
ATOM      2  C   UNL     1      20.977  28.048  29.607  1.00  0.00    -0.028 C 
ATOM      3  C   UNL     1      19.868  28.766  29.319  1.00  0.00    -0.077 C 
ATOM      4  C   UNL     1      19.156  28.636  27.992  1.00  0.00     0.039 C 
BRANCH   3   5
ATOM      5  C   UNL     1      19.342  29.745  30.346  1.00  0.00     0.034 C 
BRANCH   5   6
ATOM      6  C   UNL     1      17.837  29.968  30.164  1.00  0.00     0.032 C 
BRANCH   6   7
ATOM      7  C   UNL     1      17.568  31.303  29.519  1.00  0.00    -0.028 C 
ATOM      8  C   UNL     1      16.359  33.395  29.069  1.00  0.00     0.039 C 
ATOM      9  C   UNL     1      16.475  32.062  29.759  1.00  0.00    -0.080 C 
ATOM     10  C   UNL     1      15.369  31.601  30.681  1.00  0.00     0.039 C 
ENDBRANCH   6   7
ENDBRANCH   5   6
ENDBRANCH   3   5
ENDBRANCH   1   2
BRANCH   1  11
ATOM     11  C   UNL     1      21.000  25.621  29.004  1.00  0.00     0.034 C 
BRANCH  11  12
ATOM     12  C   UNL     1      20.454  24.978  27.748  1.00  0.00    -0.077 C 
ATOM     13  C   UNL     1      21.302  24.317  26.927  1.00  0.00    -0.028 C 
ATOM     14  C   UNL     1      18.976  25.080  27.454  1.00  0.00     0.039 C 
BRANCH  13  15
ATOM     15  C   UNL     1      20.900  23.674  25.623  1.00  0.00     0.035 C 
BRANCH  15  16
ATOM     16  C   UNL     1      21.690  24.285  24.456  1.00  0.00     0.079 C 
BRANCH  16  17
ATOM     17  C   UNL     1      22.065  23.300  23.371  1.00  0.00     0.130 C 
ATOM     18  O   UNL     1      23.250  23.116  23.139  1.00  0.00    -0.300 OA
ATOM     19  C   UNL     1      21.047  22.545  22.562  1.00  0.00     0.087 C 
ENDBRANCH  16  17
ENDBRANCH  15  16
ENDBRANCH  13  15
ENDBRANCH  11  12
ENDBRANCH   1  11
TORSDOF 9
ENDMDL
MODEL 3
REMARK VINA RESULT:    -4.638      3.118      7.462
REMARK INTER + INTRA:          -9.056
REMARK INTER:                  -7.783
REMARK INTRA:                  -1.274
REMARK UNBOUND:                -1.977
REMARK SMILES CC(=O)CCC=C(C)CCC=C(C)CCC=C(C)C
REMARK SMILES IDX 10 1 11 2 12 3 13 4 14 5 15 6 16 7 18 8 17 9 19 10 9 11 7 12
REMARK SMILES IDX 6 13 8 14 5 15 4 16 2 17 3 18 1 19
REMARK H PARENT
REMARK Flexibility Score: inf
ROOT
ATOM      1  C   UNL     1      18.280  27.002  27.763  1.00  0.00     0.032 C 
ENDROOT
BRANCH   1   2
ATOM      2  C   UNL     1      17.562  27.559  28.966  1.00  0.00    -0.028 C 
ATOM      3  C   UNL     1      17.991  28.618  29.689  1.00  0.00    -0.077 C 
ATOM      4  C   UNL     1      19.299  29.312  29.389  1.00  0.00     0.039 C 
BRANCH   3   5
ATOM      5  C   UNL     1      17.145  29.105  30.846  1.00  0.00     0.034 C 
BRANCH   5   6
ATOM      6  C   UNL     1      15.810  29.666  30.345  1.00  0.00     0.032 C 
BRANCH   6   7
ATOM      7  C   UNL     1      16.025  30.920  29.535  1.00  0.00    -0.028 C 
ATOM      8  C   UNL     1      16.366  33.320  29.130  1.00  0.00     0.039 C 
ATOM      9  C   UNL     1      16.109  32.162  30.060  1.00  0.00    -0.080 C 
ATOM     10  C   UNL     1      15.935  32.420  31.539  1.00  0.00     0.039 C 
ENDBRANCH   6   7
ENDBRANCH   5   6
ENDBRANCH   3   5
ENDBRANCH   1   2
BRANCH   1  11
ATOM     11  C   UNL     1      18.752  25.568  28.030  1.00  0.00     0.034 C 
BRANCH  11  12
ATOM     12  C   UNL     1      20.246  25.448  27.824  1.00  0.00    -0.077 C 
ATOM     13  C   UNL     1      21.079  26.126  28.645  1.00  0.00    -0.028 C 
ATOM     14  C   UNL     1      20.765  24.563  26.715  1.00  0.00     0.039 C 
BRANCH  13  15
ATOM     15  C   UNL     1      22.583  26.134  28.521  1.00  0.00     0.035 C 
BRANCH  15  16
ATOM     16  C   UNL     1      23.093  27.558  28.256  1.00  0.00     0.079 C 
BRANCH  16  17
ATOM     17  C   UNL     1      24.369  27.912  28.988  1.00  0.00     0.130 C 
ATOM     18  O   UNL     1      25.321  27.152  28.895  1.00  0.00    -0.300 OA
ATOM     19  C   UNL     1      24.514  29.151  29.828  1.00  0.00     0.087 C 
ENDBRANCH  16  17
ENDBRANCH  15  16
ENDBRANCH  13  15
ENDBRANCH  11  12
ENDBRANCH   1  11
TORSDOF 9
ENDMDL
MODEL 4
REMARK VINA RESULT:    -4.612      1.637      3.493
REMARK INTER + INTRA:          -9.016
REMARK INTER:                  -6.897
REMARK INTRA:                  -2.119
REMARK UNBOUND:                -1.977
REMARK SMILES CC(=O)CCC=C(C)CCC=C(C)CCC=C(C)C
REMARK SMILES IDX 10 1 11 2 12 3 13 4 14 5 15 6 16 7 18 8 17 9 19 10 9 11 7 12
REMARK SMILES IDX 6 13 8 14 5 15 4 16 2 17 3 18 1 19
REMARK H PARENT
REMARK Flexibility Score: inf
ROOT
ATOM      1  C   UNL     1      15.470  28.993  30.180  1.00  0.00     0.032 C 
ENDROOT
BRANCH   1   2
ATOM      2  C   UNL     1      16.931  28.852  29.834  1.00  0.00    -0.028 C 
ATOM      3  C   UNL     1      17.929  28.788  30.744  1.00  0.00    -0.077 C 
ATOM      4  C   UNL     1      17.667  28.927  32.226  1.00  0.00     0.039 C 
BRANCH   3   5
ATOM      5  C   UNL     1      19.350  28.596  30.260  1.00  0.00     0.034 C 
BRANCH   5   6
ATOM      6  C   UNL     1      19.380  28.348  28.748  1.00  0.00     0.032 C 
BRANCH   6   7
ATOM      7  C   UNL     1      20.151  27.093  28.426  1.00  0.00    -0.028 C 
ATOM      8  C   UNL     1      20.492  24.781  27.665  1.00  0.00     0.039 C 
ATOM      9  C   UNL     1      19.591  25.945  27.984  1.00  0.00    -0.080 C 
ATOM     10  C   UNL     1      18.095  25.796  27.820  1.00  0.00     0.039 C 
ENDBRANCH   6   7
ENDBRANCH   5   6
ENDBRANCH   3   5
ENDBRANCH   1   2
BRANCH   1  11
ATOM     11  C   UNL     1      14.882  30.257  29.542  1.00  0.00     0.034 C 
BRANCH  11  12
ATOM     12  C   UNL     1      15.617  31.490  30.019  1.00  0.00    -0.077 C 
ATOM     13  C   UNL     1      16.390  32.174  29.145  1.00  0.00    -0.028 C 
ATOM     14  C   UNL     1      15.454  31.932  31.454  1.00  0.00     0.039 C 
BRANCH  13  15
ATOM     15  C   UNL     1      17.212  33.388  29.499  1.00  0.00     0.035 C 
BRANCH  15  16
ATOM     16  C   UNL     1      18.669  33.201  29.049  1.00  0.00     0.079 C 
BRANCH  16  17
ATOM     17  C   UNL     1      19.507  32.353  29.980  1.00  0.00     0.130 C 
ATOM     18  O   UNL     1      20.458  31.745  29.512  1.00  0.00    -0.300 OA
ATOM     19  C   UNL     1      19.219  32.221  31.450  1.00  0.00     0.087 C 
ENDBRANCH  16  17
ENDBRANCH  15  16
ENDBRANCH  13  15
ENDBRANCH  11  12
ENDBRANCH   1  11
TORSDOF 9
ENDMDL
MODEL 5
REMARK VINA RESULT:    -4.604      2.362      6.556
REMARK INTER + INTRA:          -9.004
REMARK INTER:                  -7.139
REMARK INTRA:                  -1.865
REMARK UNBOUND:                -1.977
REMARK SMILES CC(=O)CCC=C(C)CCC=C(C)CCC=C(C)C
REMARK SMILES IDX 10 1 11 2 12 3 13 4 14 5 15 6 16 7 18 8 17 9 19 10 9 11 7 12
REMARK SMILES IDX 6 13 8 14 5 15 4 16 2 17 3 18 1 19
REMARK H PARENT
REMARK Flexibility Score: inf
ROOT
ATOM      1  C   UNL     1      14.928  29.903  30.508  1.00  0.00     0.032 C 
ENDROOT
BRANCH   1   2
ATOM      2  C   UNL     1      15.412  31.094  29.721  1.00  0.00    -0.028 C 
ATOM      3  C   UNL     1      15.844  32.251  30.273  1.00  0.00    -0.077 C 
ATOM      4  C   UNL     1      15.811  32.483  31.766  1.00  0.00     0.039 C 
BRANCH   3   5
ATOM      5  C   UNL     1      16.351  33.350  29.366  1.00  0.00     0.034 C 
BRANCH   5   6
ATOM      6  C   UNL     1      17.853  33.575  29.570  1.00  0.00     0.032 C 
BRANCH   6   7
ATOM      7  C   UNL     1      18.647  32.416  29.022  1.00  0.00    -0.028 C 
ATOM      8  C   UNL     1      20.059  30.405  29.096  1.00  0.00     0.039 C 
ATOM      9  C   UNL     1      19.342  31.539  29.781  1.00  0.00    -0.080 C 
ATOM     10  C   UNL     1      19.432  31.678  31.284  1.00  0.00     0.039 C 
ENDBRANCH   6   7
ENDBRANCH   5   6
ENDBRANCH   3   5
ENDBRANCH   1   2
BRANCH   1  11
ATOM     11  C   UNL     1      15.183  28.603  29.734  1.00  0.00     0.034 C 
BRANCH  11  12
ATOM     12  C   UNL     1      16.639  28.201  29.827  1.00  0.00    -0.077 C 
ATOM     13  C   UNL     1      17.216  27.580  28.775  1.00  0.00    -0.028 C 
ATOM     14  C   UNL     1      17.409  28.519  31.087  1.00  0.00     0.039 C 
BRANCH  13  15
ATOM     15  C   UNL     1      18.641  27.082  28.752  1.00  0.00     0.035 C 
BRANCH  15  16
ATOM     16  C   UNL     1      18.809  25.979  27.698  1.00  0.00     0.079 C 
BRANCH  16  17
ATOM     17  C   UNL     1      20.076  25.164  27.842  1.00  0.00     0.130 C 
ATOM     18  O   UNL     1      20.632  25.142  28.929  1.00  0.00    -0.300 OA
ATOM     19  C   UNL     1      20.683  24.386  26.706  1.00  0.00     0.087 C 
ENDBRANCH  16  17
ENDBRANCH  15  16
ENDBRANCH  13  15
ENDBRANCH  11  12
ENDBRANCH   1  11
TORSDOF 9
ENDMDL
MODEL 6
REMARK VINA RESULT:    -4.603      1.543      2.315
REMARK INTER + INTRA:          -9.002
REMARK INTER:                  -6.898
REMARK INTRA:                  -2.104
REMARK UNBOUND:                -1.977
REMARK SMILES CC(=O)CCC=C(C)CCC=C(C)CCC=C(C)C
REMARK SMILES IDX 10 1 11 2 12 3 13 4 14 5 15 6 16 7 18 8 17 9 19 10 9 11 7 12
REMARK SMILES IDX 6 13 8 14 5 15 4 16 2 17 3 18 1 19
REMARK H PARENT
REMARK Flexibility Score: inf
ROOT
ATOM      1  C   UNL     1      19.820  31.303  29.643  1.00  0.00     0.032 C 
ENDROOT
BRANCH   1   2
ATOM      2  C   UNL     1      19.331  30.281  28.648  1.00  0.00    -0.028 C 
ATOM      3  C   UNL     1      18.907  29.039  28.974  1.00  0.00    -0.077 C 
ATOM      4  C   UNL     1      18.955  28.527  30.395  1.00  0.00     0.039 C 
BRANCH   3   5
ATOM      5  C   UNL     1      18.393  28.130  27.879  1.00  0.00     0.034 C 
BRANCH   5   6
ATOM      6  C   UNL     1      18.195  26.704  28.403  1.00  0.00     0.032 C 
BRANCH   6   7
ATOM      7  C   UNL     1      18.916  25.707  27.532  1.00  0.00    -0.028 C 
ATOM      8  C   UNL     1      20.708  24.160  26.871  1.00  0.00     0.039 C 
ATOM      9  C   UNL     1      20.125  25.176  27.819  1.00  0.00    -0.080 C 
ATOM     10  C   UNL     1      20.909  25.587  29.045  1.00  0.00     0.039 C 
ENDBRANCH   6   7
ENDBRANCH   5   6
ENDBRANCH   3   5
ENDBRANCH   1   2
BRANCH   1  11
ATOM     11  C   UNL     1      18.995  32.592  29.545  1.00  0.00     0.034 C 
BRANCH  11  12
ATOM     12  C   UNL     1      17.556  32.339  29.938  1.00  0.00    -0.077 C 
ATOM     13  C   UNL     1      17.292  31.772  31.137  1.00  0.00    -0.028 C 
ATOM     14  C   UNL     1      16.454  32.740  28.985  1.00  0.00     0.039 C 
BRANCH  13  15
ATOM     15  C   UNL     1      15.910  31.421  31.631  1.00  0.00     0.035 C 
BRANCH  15  16
ATOM     16  C   UNL     1      15.858  29.956  32.087  1.00  0.00     0.079 C 
BRANCH  16  17
ATOM     17  C   UNL     1      15.273  29.003  31.067  1.00  0.00     0.130 C 
ATOM     18  O   UNL     1      14.889  27.909  31.449  1.00  0.00    -0.300 OA
ATOM     19  C   UNL     1      15.148  29.342  29.607  1.00  0.00     0.087 C 
ENDBRANCH  16  17
ENDBRANCH  15  16
ENDBRANCH  13  15
ENDBRANCH  11  12
ENDBRANCH   1  11
TORSDOF 9
ENDMDL
MODEL 7
REMARK VINA RESULT:    -4.560      2.955      6.944
REMARK INTER + INTRA:          -8.937
REMARK INTER:                  -7.204
REMARK INTRA:                  -1.734
REMARK UNBOUND:                -1.977
REMARK SMILES CC(=O)CCC=C(C)CCC=C(C)CCC=C(C)C
REMARK SMILES IDX 10 1 11 2 12 3 13 4 14 5 15 6 16 7 18 8 17 9 19 10 9 11 7 12
REMARK SMILES IDX 6 13 8 14 5 15 4 16 2 17 3 18 1 19
REMARK H PARENT
REMARK Flexibility Score: inf
ROOT
ATOM      1  C   UNL     1      20.940  29.530  29.925  1.00  0.00     0.032 C 
ENDROOT
BRANCH   1   2
ATOM      2  C   UNL     1      19.516  29.169  30.268  1.00  0.00    -0.028 C 
ATOM      3  C   UNL     1      18.599  28.744  29.371  1.00  0.00    -0.077 C 
ATOM      4  C   UNL     1      18.906  28.658  27.894  1.00  0.00     0.039 C 
BRANCH   3   5
ATOM      5  C   UNL     1      17.217  28.367  29.861  1.00  0.00     0.034 C 
BRANCH   5   6
ATOM      6  C   UNL     1      16.590  29.515  30.658  1.00  0.00     0.032 C 
BRANCH   6   7
ATOM      7  C   UNL     1      16.339  30.708  29.772  1.00  0.00    -0.028 C 
ATOM      8  C   UNL     1      16.503  33.043  29.020  1.00  0.00     0.039 C 
ATOM      9  C   UNL     1      16.802  31.954  30.018  1.00  0.00    -0.080 C 
ATOM     10  C   UNL     1      17.589  32.283  31.266  1.00  0.00     0.039 C 
ENDBRANCH   6   7
ENDBRANCH   5   6
ENDBRANCH   3   5
ENDBRANCH   1   2
BRANCH   1  11
ATOM     11  C   UNL     1      21.899  28.410  30.347  1.00  0.00     0.034 C 
BRANCH  11  12
ATOM     12  C   UNL     1      22.128  27.442  29.207  1.00  0.00    -0.077 C 
ATOM     13  C   UNL     1      21.464  26.265  29.201  1.00  0.00    -0.028 C 
ATOM     14  C   UNL     1      23.081  27.827  28.099  1.00  0.00     0.039 C 
BRANCH  13  15
ATOM     15  C   UNL     1      21.636  25.192  28.154  1.00  0.00     0.035 C 
BRANCH  15  16
ATOM     16  C   UNL     1      20.301  24.910  27.448  1.00  0.00     0.079 C 
BRANCH  16  17
ATOM     17  C   UNL     1      20.390  23.906  26.320  1.00  0.00     0.130 C 
ATOM     18  O   UNL     1      19.599  22.975  26.307  1.00  0.00    -0.300 OA
ATOM     19  C   UNL     1      21.411  24.000  25.219  1.00  0.00     0.087 C 
ENDBRANCH  16  17
ENDBRANCH  15  16
ENDBRANCH  13  15
ENDBRANCH  11  12
ENDBRANCH   1  11
TORSDOF 9
ENDMDL
MODEL 8
REMARK VINA RESULT:    -4.497      2.045      2.751
REMARK INTER + INTRA:          -8.840
REMARK INTER:                  -6.820
REMARK INTRA:                  -2.021
REMARK UNBOUND:                -1.977
REMARK SMILES CC(=O)CCC=C(C)CCC=C(C)CCC=C(C)C
REMARK SMILES IDX 10 1 11 2 12 3 13 4 14 5 15 6 16 7 18 8 17 9 19 10 9 11 7 12
REMARK SMILES IDX 6 13 8 14 5 15 4 16 2 17 3 18 1 19
REMARK H PARENT
REMARK Flexibility Score: inf
ROOT
ATOM      1  C   UNL     1      21.119  32.805  30.036  1.00  0.00     0.032 C 
ENDROOT
BRANCH   1   2
ATOM      2  C   UNL     1      20.764  31.459  29.456  1.00  0.00    -0.028 C 
ATOM      3  C   UNL     1      20.225  30.441  30.163  1.00  0.00    -0.077 C 
ATOM      4  C   UNL     1      19.990  30.541  31.653  1.00  0.00     0.039 C 
BRANCH   3   5
ATOM      5  C   UNL     1      19.871  29.158  29.444  1.00  0.00     0.034 C 
BRANCH   5   6
ATOM      6  C   UNL     1      20.902  28.064  29.742  1.00  0.00     0.032 C 
BRANCH   6   7
ATOM      7  C   UNL     1      21.897  27.944  28.616  1.00  0.00    -0.028 C 
ATOM      8  C   UNL     1      24.061  28.183  27.474  1.00  0.00     0.039 C 
ATOM      9  C   UNL     1      23.166  28.409  28.664  1.00  0.00    -0.080 C 
ATOM     10  C   UNL     1      23.698  29.158  29.865  1.00  0.00     0.039 C 
ENDBRANCH   6   7
ENDBRANCH   5   6
ENDBRANCH   3   5
ENDBRANCH   1   2
BRANCH   1  11
ATOM     11  C   UNL     1      20.212  33.899  29.459  1.00  0.00     0.034 C 
BRANCH  11  12
ATOM     12  C   UNL     1      18.787  33.720  29.934  1.00  0.00    -0.077 C 
ATOM     13  C   UNL     1      17.842  33.336  29.047  1.00  0.00    -0.028 C 
ATOM     14  C   UNL     1      18.464  33.960  31.390  1.00  0.00     0.039 C 
BRANCH  13  15
ATOM     15  C   UNL     1      16.378  33.168  29.376  1.00  0.00     0.035 C 
BRANCH  15  16
ATOM     16  C   UNL     1      16.042  31.685  29.591  1.00  0.00     0.079 C 
BRANCH  16  17
ATOM     17  C   UNL     1      15.954  31.268  31.042  1.00  0.00     0.130 C 
ATOM     18  O   UNL     1      16.466  30.209  31.373  1.00  0.00    -0.300 OA
ATOM     19  C   UNL     1      15.260  32.093  32.091  1.00  0.00     0.087 C 
ENDBRANCH  16  17
ENDBRANCH  15  16
ENDBRANCH  13  15
ENDBRANCH  11  12
ENDBRANCH   1  11
TORSDOF 9
ENDMDL
MODEL 9
REMARK VINA RESULT:    -4.480      2.282      5.247
REMARK INTER + INTRA:          -8.814
REMARK INTER:                  -6.619
REMARK INTRA:                  -2.195
REMARK UNBOUND:                -1.977
REMARK SMILES CC(=O)CCC=C(C)CCC=C(C)CCC=C(C)C
REMARK SMILES IDX 10 1 11 2 12 3 13 4 14 5 15 6 16 7 18 8 17 9 19 10 9 11 7 12
REMARK SMILES IDX 6 13 8 14 5 15 4 16 2 17 3 18 1 19
REMARK H PARENT
REMARK Flexibility Score: inf
ROOT
ATOM      1  C   UNL     1      20.089  33.923  30.058  1.00  0.00     0.032 C 
ENDROOT
BRANCH   1   2
ATOM      2  C   UNL     1      18.773  33.528  29.439  1.00  0.00    -0.028 C 
ATOM      3  C   UNL     1      17.635  33.311  30.136  1.00  0.00    -0.077 C 
ATOM      4  C   UNL     1      17.599  33.378  31.645  1.00  0.00     0.039 C 
BRANCH   3   5
ATOM      5  C   UNL     1      16.368  32.969  29.382  1.00  0.00     0.034 C 
BRANCH   5   6
ATOM      6  C   UNL     1      15.572  31.887  30.119  1.00  0.00     0.032 C 
BRANCH   6   7
ATOM      7  C   UNL     1      15.804  30.533  29.498  1.00  0.00    -0.028 C 
ATOM      8  C   UNL     1      16.687  28.246  29.325  1.00  0.00     0.039 C 
ATOM      9  C   UNL     1      16.577  29.566  30.041  1.00  0.00    -0.080 C 
ATOM     10  C   UNL     1      17.341  29.782  31.328  1.00  0.00     0.039 C 
ENDBRANCH   6   7
ENDBRANCH   5   6
ENDBRANCH   3   5
ENDBRANCH   1   2
BRANCH   1  11
ATOM     11  C   UNL     1      21.194  32.938  29.655  1.00  0.00     0.034 C 
BRANCH  11  12
ATOM     12  C   UNL     1      20.929  31.568  30.238  1.00  0.00    -0.077 C 
ATOM     13  C   UNL     1      20.856  30.504  29.407  1.00  0.00    -0.028 C 
ATOM     14  C   UNL     1      20.769  31.425  31.733  1.00  0.00     0.039 C 
BRANCH  13  15
ATOM     15  C   UNL     1      20.550  29.094  29.848  1.00  0.00     0.035 C 
BRANCH  15  16
ATOM     16  C   UNL     1      20.266  28.199  28.633  1.00  0.00     0.079 C 
BRANCH  16  17
ATOM     17  C   UNL     1      20.329  26.715  28.920  1.00  0.00     0.130 C 
ATOM     18  O   UNL     1      21.211  26.304  29.657  1.00  0.00    -0.300 OA
ATOM     19  C   UNL     1      19.359  25.726  28.334  1.00  0.00     0.087 C 
ENDBRANCH  16  17
ENDBRANCH  15  16
ENDBRANCH  13  15
ENDBRANCH  11  12
ENDBRANCH   1  11
TORSDOF 9
ENDMDL
