MODEL 1
REMARK VINA RESULT:    -2.818      0.000      0.000
REMARK INTER + INTRA:         -10.812
REMARK INTER:                  -7.430
REMARK INTRA:                  -3.381
REMARK UNBOUND:                -3.381
REMARK SMILES CCCCCCCCCCCCCCCCCCCCCCCCCCCCCC(=O)[O-]
REMARK SMILES IDX 16 1 17 2 18 3 19 4 20 5 21 6 22 7 23 8 24 9 25 10 26 11
REMARK SMILES IDX 27 12 28 13 29 14 30 15 31 16 32 17 15 18 14 19 13 20 12 21
REMARK SMILES IDX 11 22 10 23 9 24 8 25 7 26 6 27 5 28 4 29 3 30 2 31 1 32
REMARK H PARENT
REMARK Flexibility Score: inf
ROOT
ATOM      1  C   UNL     1     -18.716  48.010  -4.899  1.00  0.00     0.000 C 
ENDROOT
BRANCH   1   2
ATOM      2  C   UNL     1     -17.361  47.821  -4.200  1.00  0.00     0.000 C 
BRANCH   2   3
ATOM      3  C   UNL     1     -16.471  46.704  -4.776  1.00  0.00     0.000 C 
BRANCH   3   4
ATOM      4  C   UNL     1     -15.009  47.126  -5.031  1.00  0.00     0.000 C 
BRANCH   4   5
ATOM      5  C   UNL     1     -14.306  46.241  -6.073  1.00  0.00     0.000 C 
BRANCH   5   6
ATOM      6  C   UNL     1     -13.875  47.065  -7.291  1.00  0.00     0.000 C 
BRANCH   6   7
ATOM      7  C   UNL     1     -15.081  47.413  -8.180  1.00  0.00     0.000 C 
BRANCH   7   8
ATOM      8  C   UNL     1     -15.573  46.213  -9.005  1.00  0.00     0.000 C 
BRANCH   8   9
ATOM      9  C   UNL     1     -15.735  46.538 -10.500  1.00  0.00     0.000 C 
BRANCH   9  10
ATOM     10  C   UNL     1     -16.711  47.711 -10.734  1.00  0.00     0.000 C 
BRANCH  10  11
ATOM     11  C   UNL     1     -16.283  49.014 -10.040  1.00  0.00     0.000 C 
BRANCH  11  12
ATOM     12  C   UNL     1     -16.047  50.168 -11.024  1.00  0.00     0.000 C 
BRANCH  12  13
ATOM     13  C   UNL     1     -14.578  50.608 -11.009  1.00  0.00     0.006 C 
BRANCH  13  14
ATOM     14  C   UNL     1     -14.447  52.105 -10.710  1.00  0.00     0.053 C 
BRANCH  14  15
ATOM     15  C   UNL     1     -14.210  52.332  -9.251  1.00  0.00     0.041 C 
ATOM     16  O   UNL     1     -14.298  53.492  -8.766  1.00  0.00    -0.550 OA
ATOM     17  O   UNL     1     -13.940  51.256  -8.415  1.00  0.00    -0.550 OA
ENDBRANCH  14  15
ENDBRANCH  13  14
ENDBRANCH  12  13
ENDBRANCH  11  12
ENDBRANCH  10  11
ENDBRANCH   9  10
ENDBRANCH   8   9
ENDBRANCH   7   8
ENDBRANCH   6   7
ENDBRANCH   5   6
ENDBRANCH   4   5
ENDBRANCH   3   4
ENDBRANCH   2   3
ENDBRANCH   1   2
BRANCH   1  18
ATOM     18  C   UNL     1     -19.026  46.895  -5.912  1.00  0.00     0.000 C 
BRANCH  18  19
ATOM     19  C   UNL     1     -18.794  47.375  -7.353  1.00  0.00     0.000 C 
BRANCH  19  20
ATOM     20  C   UNL     1     -19.146  46.307  -8.400  1.00  0.00     0.000 C 
BRANCH  20  21
ATOM     21  C   UNL     1     -20.636  45.927  -8.470  1.00  0.00     0.000 C 
BRANCH  21  22
ATOM     22  C   UNL     1     -21.112  45.487  -9.871  1.00  0.00     0.000 C 
BRANCH  22  23
ATOM     23  C   UNL     1     -20.116  44.549 -10.572  1.00  0.00     0.000 C 
BRANCH  23  24
ATOM     24  C   UNL     1     -20.530  43.069 -10.498  1.00  0.00    -0.000 C 
BRANCH  24  25
ATOM     25  C   UNL     1     -19.508  42.174  -9.762  1.00  0.00    -0.000 C 
BRANCH  25  26
ATOM     26  C   UNL     1     -18.333  42.968  -9.162  1.00  0.00    -0.000 C 
BRANCH  26  27
ATOM     27  C   UNL     1     -17.270  42.058  -8.503  1.00  0.00    -0.000 C 
BRANCH  27  28
ATOM     28  C   UNL     1     -16.679  42.698  -7.238  1.00  0.00    -0.000 C 
BRANCH  28  29
ATOM     29  C   UNL     1     -17.457  43.957  -6.801  1.00  0.00    -0.000 C 
BRANCH  29  30
ATOM     30  C   UNL     1     -18.318  43.737  -5.542  1.00  0.00    -0.000 C 
BRANCH  30  31
ATOM     31  C   UNL     1     -19.835  43.780  -5.793  1.00  0.00    -0.003 C 
ATOM     32  C   UNL     1     -20.654  43.584  -4.516  1.00  0.00     0.004 C 
ENDBRANCH  30  31
ENDBRANCH  29  30
ENDBRANCH  28  29
ENDBRANCH  27  28
ENDBRANCH  26  27
ENDBRANCH  25  26
ENDBRANCH  24  25
ENDBRANCH  23  24
ENDBRANCH  22  23
ENDBRANCH  21  22
ENDBRANCH  20  21
ENDBRANCH  19  20
ENDBRANCH  18  19
ENDBRANCH   1  18
TORSDOF 28
ENDMDL
MODEL 2
REMARK VINA RESULT:    -1.754      3.657      7.329
REMARK INTER + INTRA:          -8.008
REMARK INTER:                  -4.187
REMARK INTRA:                  -3.821
REMARK UNBOUND:                -3.381
REMARK SMILES CCCCCCCCCCCCCCCCCCCCCCCCCCCCCC(=O)[O-]
REMARK SMILES IDX 16 1 17 2 18 3 19 4 20 5 21 6 22 7 23 8 24 9 25 10 26 11
REMARK SMILES IDX 27 12 28 13 29 14 30 15 31 16 32 17 15 18 14 19 13 20 12 21
REMARK SMILES IDX 11 22 10 23 9 24 8 25 7 26 6 27 5 28 4 29 3 30 2 31 1 32
REMARK H PARENT
REMARK Flexibility Score: inf
ROOT
ATOM      1  C   UNL     1     -21.290  44.928  -8.263  1.00  0.00     0.000 C 
ENDROOT
BRANCH   1   2
ATOM      2  C   UNL     1     -20.646  43.553  -8.498  1.00  0.00     0.000 C 
BRANCH   2   3
ATOM      3  C   UNL     1     -20.434  43.169  -9.974  1.00  0.00     0.000 C 
BRANCH   3   4
ATOM      4  C   UNL     1     -20.159  44.366 -10.908  1.00  0.00     0.000 C 
BRANCH   4   5
ATOM      5  C   UNL     1     -18.659  44.624 -11.122  1.00  0.00     0.000 C 
BRANCH   5   6
ATOM      6  C   UNL     1     -17.834  43.379 -10.773  1.00  0.00     0.000 C 
BRANCH   6   7
ATOM      7  C   UNL     1     -16.425  43.764 -10.294  1.00  0.00     0.000 C 
BRANCH   7   8
ATOM      8  C   UNL     1     -16.083  43.164  -8.922  1.00  0.00     0.000 C 
BRANCH   8   9
ATOM      9  C   UNL     1     -17.325  42.911  -8.049  1.00  0.00     0.000 C 
BRANCH   9  10
ATOM     10  C   UNL     1     -17.006  43.024  -6.543  1.00  0.00     0.000 C 
BRANCH  10  11
ATOM     11  C   UNL     1     -17.883  44.048  -5.805  1.00  0.00     0.000 C 
BRANCH  11  12
ATOM     12  C   UNL     1     -19.034  43.399  -5.024  1.00  0.00     0.000 C 
BRANCH  12  13
ATOM     13  C   UNL     1     -20.242  44.340  -4.948  1.00  0.00     0.006 C 
BRANCH  13  14
ATOM     14  C   UNL     1     -21.517  43.582  -4.563  1.00  0.00     0.053 C 
BRANCH  14  15
ATOM     15  C   UNL     1     -21.195  42.439  -3.653  1.00  0.00     0.041 C 
ATOM     16  O   UNL     1     -20.785  42.657  -2.481  1.00  0.00    -0.550 OA
ATOM     17  O   UNL     1     -21.395  41.133  -4.080  1.00  0.00    -0.550 OA
ENDBRANCH  14  15
ENDBRANCH  13  14
ENDBRANCH  12  13
ENDBRANCH  11  12
ENDBRANCH  10  11
ENDBRANCH   9  10
ENDBRANCH   8   9
ENDBRANCH   7   8
ENDBRANCH   6   7
ENDBRANCH   5   6
ENDBRANCH   4   5
ENDBRANCH   3   4
ENDBRANCH   2   3
ENDBRANCH   1   2
BRANCH   1  18
ATOM     18  C   UNL     1     -20.521  45.781  -7.239  1.00  0.00     0.000 C 
BRANCH  18  19
ATOM     19  C   UNL     1     -19.738  46.906  -7.930  1.00  0.00     0.000 C 
BRANCH  19  20
ATOM     20  C   UNL     1     -18.426  46.417  -8.562  1.00  0.00     0.000 C 
BRANCH  20  21
ATOM     21  C   UNL     1     -17.383  47.516  -8.838  1.00  0.00     0.000 C 
BRANCH  21  22
ATOM     22  C   UNL     1     -16.357  47.155  -9.932  1.00  0.00     0.000 C 
BRANCH  22  23
ATOM     23  C   UNL     1     -15.395  48.311 -10.255  1.00  0.00     0.000 C 
BRANCH  23  24
ATOM     24  C   UNL     1     -14.032  48.171  -9.554  1.00  0.00    -0.000 C 
BRANCH  24  25
ATOM     25  C   UNL     1     -13.938  46.943  -8.621  1.00  0.00    -0.000 C 
BRANCH  25  26
ATOM     26  C   UNL     1     -13.951  47.317  -7.128  1.00  0.00    -0.000 C 
BRANCH  26  27
ATOM     27  C   UNL     1     -14.667  46.262  -6.252  1.00  0.00    -0.000 C 
BRANCH  27  28
ATOM     28  C   UNL     1     -14.639  46.643  -4.764  1.00  0.00    -0.000 C 
BRANCH  28  29
ATOM     29  C   UNL     1     -15.973  47.260  -4.293  1.00  0.00    -0.000 C 
BRANCH  29  30
ATOM     30  C   UNL     1     -17.043  47.320  -5.399  1.00  0.00    -0.000 C 
BRANCH  30  31
ATOM     31  C   UNL     1     -18.490  47.403  -4.882  1.00  0.00    -0.003 C 
ATOM     32  C   UNL     1     -18.702  48.553  -3.896  1.00  0.00     0.004 C 
ENDBRANCH  30  31
ENDBRANCH  29  30
ENDBRANCH  28  29
ENDBRANCH  27  28
ENDBRANCH  26  27
ENDBRANCH  25  26
ENDBRANCH  24  25
ENDBRANCH  23  24
ENDBRANCH  22  23
ENDBRANCH  21  22
ENDBRANCH  20  21
ENDBRANCH  19  20
ENDBRANCH  18  19
ENDBRANCH   1  18
TORSDOF 28
ENDMDL
MODEL 3
REMARK VINA RESULT:    -1.521      3.718      7.087
REMARK INTER + INTRA:          -7.393
REMARK INTER:                  -4.087
REMARK INTRA:                  -3.306
REMARK UNBOUND:                -3.381
REMARK SMILES CCCCCCCCCCCCCCCCCCCCCCCCCCCCCC(=O)[O-]
REMARK SMILES IDX 16 1 17 2 18 3 19 4 20 5 21 6 22 7 23 8 24 9 25 10 26 11
REMARK SMILES IDX 27 12 28 13 29 14 30 15 31 16 32 17 15 18 14 19 13 20 12 21
REMARK SMILES IDX 11 22 10 23 9 24 8 25 7 26 6 27 5 28 4 29 3 30 2 31 1 32
REMARK H PARENT
REMARK Flexibility Score: inf
ROOT
ATOM      1  C   UNL     1     -15.935  45.847  -5.444  1.00  0.00     0.000 C 
ENDROOT
BRANCH   1   2
ATOM      2  C   UNL     1     -16.807  45.019  -6.402  1.00  0.00     0.000 C 
BRANCH   2   3
ATOM      3  C   UNL     1     -16.039  44.059  -7.329  1.00  0.00     0.000 C 
BRANCH   3   4
ATOM      4  C   UNL     1     -16.658  42.650  -7.436  1.00  0.00     0.000 C 
BRANCH   4   5
ATOM      5  C   UNL     1     -17.566  42.489  -8.665  1.00  0.00     0.000 C 
BRANCH   5   6
ATOM      6  C   UNL     1     -17.314  43.607  -9.683  1.00  0.00     0.000 C 
BRANCH   6   7
ATOM      7  C   UNL     1     -18.035  43.322 -11.010  1.00  0.00     0.000 C 
BRANCH   7   8
ATOM      8  C   UNL     1     -19.561  43.230 -10.847  1.00  0.00     0.000 C 
BRANCH   8   9
ATOM      9  C   UNL     1     -20.241  44.608 -10.775  1.00  0.00     0.000 C 
BRANCH   9  10
ATOM     10  C   UNL     1     -20.333  45.133  -9.325  1.00  0.00     0.000 C 
BRANCH  10  11
ATOM     11  C   UNL     1     -20.568  44.026  -8.285  1.00  0.00     0.000 C 
BRANCH  11  12
ATOM     12  C   UNL     1     -20.199  44.457  -6.859  1.00  0.00     0.000 C 
BRANCH  12  13
ATOM     13  C   UNL     1     -21.125  43.795  -5.831  1.00  0.00     0.006 C 
BRANCH  13  14
ATOM     14  C   UNL     1     -20.459  43.707  -4.455  1.00  0.00     0.053 C 
BRANCH  14  15
ATOM     15  C   UNL     1     -21.034  42.576  -3.663  1.00  0.00     0.041 C 
ATOM     16  O   UNL     1     -21.145  42.669  -2.410  1.00  0.00    -0.550 OA
ATOM     17  O   UNL     1     -21.495  41.437  -4.311  1.00  0.00    -0.550 OA
ENDBRANCH  14  15
ENDBRANCH  13  14
ENDBRANCH  12  13
ENDBRANCH  11  12
ENDBRANCH  10  11
ENDBRANCH   9  10
ENDBRANCH   8   9
ENDBRANCH   7   8
ENDBRANCH   6   7
ENDBRANCH   5   6
ENDBRANCH   4   5
ENDBRANCH   3   4
ENDBRANCH   2   3
ENDBRANCH   1   2
BRANCH   1  18
ATOM     18  C   UNL     1     -14.458  45.894  -5.871  1.00  0.00     0.000 C 
BRANCH  18  19
ATOM     19  C   UNL     1     -14.131  47.209  -6.594  1.00  0.00     0.000 C 
BRANCH  19  20
ATOM     20  C   UNL     1     -14.228  47.088  -8.123  1.00  0.00     0.000 C 
BRANCH  20  21
ATOM     21  C   UNL     1     -13.875  48.367  -8.904  1.00  0.00     0.000 C 
BRANCH  21  22
ATOM     22  C   UNL     1     -14.378  48.376 -10.363  1.00  0.00     0.000 C 
BRANCH  22  23
ATOM     23  C   UNL     1     -14.461  46.968 -10.975  1.00  0.00     0.000 C 
BRANCH  23  24
ATOM     24  C   UNL     1     -15.907  46.460 -11.119  1.00  0.00    -0.000 C 
BRANCH  24  25
ATOM     25  C   UNL     1     -16.974  47.550 -10.871  1.00  0.00    -0.000 C 
BRANCH  25  26
ATOM     26  C   UNL     1     -17.872  47.250  -9.657  1.00  0.00    -0.000 C 
BRANCH  26  27
ATOM     27  C   UNL     1     -17.291  47.800  -8.333  1.00  0.00    -0.000 C 
BRANCH  27  28
ATOM     28  C   UNL     1     -18.398  48.261  -7.374  1.00  0.00    -0.000 C 
BRANCH  28  29
ATOM     29  C   UNL     1     -19.179  47.076  -6.767  1.00  0.00    -0.000 C 
BRANCH  29  30
ATOM     30  C   UNL     1     -19.300  47.145  -5.233  1.00  0.00    -0.000 C 
BRANCH  30  31
ATOM     31  C   UNL     1     -18.461  48.257  -4.578  1.00  0.00    -0.003 C 
ATOM     32  C   UNL     1     -19.039  48.727  -3.242  1.00  0.00     0.004 C 
ENDBRANCH  30  31
ENDBRANCH  29  30
ENDBRANCH  28  29
ENDBRANCH  27  28
ENDBRANCH  26  27
ENDBRANCH  25  26
ENDBRANCH  24  25
ENDBRANCH  23  24
ENDBRANCH  22  23
ENDBRANCH  21  22
ENDBRANCH  20  21
ENDBRANCH  19  20
ENDBRANCH  18  19
ENDBRANCH   1  18
TORSDOF 28
ENDMDL
MODEL 4
REMARK VINA RESULT:    -1.026      2.458      7.625
REMARK INTER + INTRA:          -6.088
REMARK INTER:                  -3.281
REMARK INTRA:                  -2.807
REMARK UNBOUND:                -3.381
REMARK SMILES CCCCCCCCCCCCCCCCCCCCCCCCCCCCCC(=O)[O-]
REMARK SMILES IDX 16 1 17 2 18 3 19 4 20 5 21 6 22 7 23 8 24 9 25 10 26 11
REMARK SMILES IDX 27 12 28 13 29 14 30 15 31 16 32 17 15 18 14 19 13 20 12 21
REMARK SMILES IDX 11 22 10 23 9 24 8 25 7 26 6 27 5 28 4 29 3 30 2 31 1 32
REMARK H PARENT
REMARK Flexibility Score: inf
ROOT
ATOM      1  C   UNL     1     -19.216  46.329 -11.124  1.00  0.00     0.000 C 
ENDROOT
BRANCH   1   2
ATOM      2  C   UNL     1     -20.091  46.150  -9.875  1.00  0.00     0.000 C 
BRANCH   2   3
ATOM      3  C   UNL     1     -21.355  45.292 -10.071  1.00  0.00     0.000 C 
BRANCH   3   4
ATOM      4  C   UNL     1     -21.144  43.785  -9.813  1.00  0.00     0.000 C 
BRANCH   4   5
ATOM      5  C   UNL     1     -20.781  43.475  -8.352  1.00  0.00     0.000 C 
BRANCH   5   6
ATOM      6  C   UNL     1     -21.290  44.577  -7.416  1.00  0.00     0.000 C 
BRANCH   6   7
ATOM      7  C   UNL     1     -20.268  44.879  -6.308  1.00  0.00     0.000 C 
BRANCH   7   8
ATOM      8  C   UNL     1     -18.928  45.388  -6.861  1.00  0.00     0.000 C 
BRANCH   8   9
ATOM      9  C   UNL     1     -18.654  46.861  -6.512  1.00  0.00     0.000 C 
BRANCH   9  10
ATOM     10  C   UNL     1     -17.337  47.369  -7.139  1.00  0.00     0.000 C 
BRANCH  10  11
ATOM     11  C   UNL     1     -16.531  46.269  -7.848  1.00  0.00     0.000 C 
BRANCH  11  12
ATOM     12  C   UNL     1     -15.073  46.196  -7.374  1.00  0.00     0.000 C 
BRANCH  12  13
ATOM     13  C   UNL     1     -14.902  46.898  -6.021  1.00  0.00     0.006 C 
BRANCH  13  14
ATOM     14  C   UNL     1     -14.322  45.948  -4.969  1.00  0.00     0.053 C 
BRANCH  14  15
ATOM     15  C   UNL     1     -14.272  46.613  -3.629  1.00  0.00     0.041 C 
ATOM     16  O   UNL     1     -13.875  45.975  -2.617  1.00  0.00    -0.550 OA
ATOM     17  O   UNL     1     -14.616  47.953  -3.506  1.00  0.00    -0.550 OA
ENDBRANCH  14  15
ENDBRANCH  13  14
ENDBRANCH  12  13
ENDBRANCH  11  12
ENDBRANCH  10  11
ENDBRANCH   9  10
ENDBRANCH   8   9
ENDBRANCH   7   8
ENDBRANCH   6   7
ENDBRANCH   5   6
ENDBRANCH   4   5
ENDBRANCH   3   4
ENDBRANCH   2   3
ENDBRANCH   1   2
BRANCH   1  18
ATOM     18  C   UNL     1     -17.837  45.661 -10.989  1.00  0.00     0.000 C 
BRANCH  18  19
ATOM     19  C   UNL     1     -17.955  44.130 -11.030  1.00  0.00     0.000 C 
BRANCH  19  20
ATOM     20  C   UNL     1     -16.588  43.428 -11.060  1.00  0.00     0.000 C 
BRANCH  20  21
ATOM     21  C   UNL     1     -15.589  43.897  -9.986  1.00  0.00     0.000 C 
BRANCH  21  22
ATOM     22  C   UNL     1     -14.295  44.516 -10.554  1.00  0.00     0.000 C 
BRANCH  22  23
ATOM     23  C   UNL     1     -14.509  45.929 -11.125  1.00  0.00     0.000 C 
BRANCH  23  24
ATOM     24  C   UNL     1     -13.879  47.030 -10.254  1.00  0.00    -0.000 C 
BRANCH  24  25
ATOM     25  C   UNL     1     -13.878  48.424 -10.922  1.00  0.00    -0.000 C 
BRANCH  25  26
ATOM     26  C   UNL     1     -14.807  49.430 -10.218  1.00  0.00    -0.000 C 
BRANCH  26  27
ATOM     27  C   UNL     1     -14.226  49.950  -8.883  1.00  0.00    -0.000 C 
BRANCH  27  28
ATOM     28  C   UNL     1     -14.095  51.480  -8.876  1.00  0.00    -0.000 C 
BRANCH  28  29
ATOM     29  C   UNL     1     -14.774  52.131 -10.100  1.00  0.00    -0.000 C 
BRANCH  29  30
ATOM     30  C   UNL     1     -14.147  53.480 -10.500  1.00  0.00    -0.000 C 
BRANCH  30  31
ATOM     31  C   UNL     1     -14.656  54.684  -9.688  1.00  0.00    -0.003 C 
ATOM     32  C   UNL     1     -14.129  54.695  -8.252  1.00  0.00     0.004 C 
ENDBRANCH  30  31
ENDBRANCH  29  30
ENDBRANCH  28  29
ENDBRANCH  27  28
ENDBRANCH  26  27
ENDBRANCH  25  26
ENDBRANCH  24  25
ENDBRANCH  23  24
ENDBRANCH  22  23
ENDBRANCH  21  22
ENDBRANCH  20  21
ENDBRANCH  19  20
ENDBRANCH  18  19
ENDBRANCH   1  18
TORSDOF 28
ENDMDL
MODEL 5
REMARK VINA RESULT:    -0.862      2.227      5.139
REMARK INTER + INTRA:          -5.654
REMARK INTER:                  -1.238
REMARK INTRA:                  -4.416
REMARK UNBOUND:                -3.381
REMARK SMILES CCCCCCCCCCCCCCCCCCCCCCCCCCCCCC(=O)[O-]
REMARK SMILES IDX 16 1 17 2 18 3 19 4 20 5 21 6 22 7 23 8 24 9 25 10 26 11
REMARK SMILES IDX 27 12 28 13 29 14 30 15 31 16 32 17 15 18 14 19 13 20 12 21
REMARK SMILES IDX 11 22 10 23 9 24 8 25 7 26 6 27 5 28 4 29 3 30 2 31 1 32
REMARK H PARENT
REMARK Flexibility Score: inf
ROOT
ATOM      1  C   UNL     1     -16.319  43.587  -7.845  1.00  0.00     0.000 C 
ENDROOT
BRANCH   1   2
ATOM      2  C   UNL     1     -15.964  42.758  -9.088  1.00  0.00     0.000 C 
BRANCH   2   3
ATOM      3  C   UNL     1     -15.419  43.562 -10.284  1.00  0.00     0.000 C 
BRANCH   3   4
ATOM      4  C   UNL     1     -15.210  45.063  -9.996  1.00  0.00     0.000 C 
BRANCH   4   5
ATOM      5  C   UNL     1     -14.460  45.789 -11.124  1.00  0.00     0.000 C 
BRANCH   5   6
ATOM      6  C   UNL     1     -14.245  47.266 -10.778  1.00  0.00     0.000 C 
BRANCH   6   7
ATOM      7  C   UNL     1     -15.323  47.770  -9.805  1.00  0.00     0.000 C 
BRANCH   7   8
ATOM      8  C   UNL     1     -14.728  48.384  -8.528  1.00  0.00     0.000 C 
BRANCH   8   9
ATOM      9  C   UNL     1     -13.875  47.388  -7.723  1.00  0.00     0.000 C 
BRANCH   9  10
ATOM     10  C   UNL     1     -14.732  46.542  -6.756  1.00  0.00     0.000 C 
BRANCH  10  11
ATOM     11  C   UNL     1     -14.393  46.771  -5.275  1.00  0.00     0.000 C 
BRANCH  11  12
ATOM     12  C   UNL     1     -15.586  47.290  -4.460  1.00  0.00     0.000 C 
BRANCH  12  13
ATOM     13  C   UNL     1     -16.875  46.556  -4.851  1.00  0.00     0.006 C 
BRANCH  13  14
ATOM     14  C   UNL     1     -17.969  47.539  -5.280  1.00  0.00     0.053 C 
BRANCH  14  15
ATOM     15  C   UNL     1     -18.016  47.657  -6.770  1.00  0.00     0.041 C 
ATOM     16  O   UNL     1     -18.387  48.733  -7.311  1.00  0.00    -0.550 OA
ATOM     17  O   UNL     1     -17.602  46.595  -7.565  1.00  0.00    -0.550 OA
ENDBRANCH  14  15
ENDBRANCH  13  14
ENDBRANCH  12  13
ENDBRANCH  11  12
ENDBRANCH  10  11
ENDBRANCH   9  10
ENDBRANCH   8   9
ENDBRANCH   7   8
ENDBRANCH   6   7
ENDBRANCH   5   6
ENDBRANCH   4   5
ENDBRANCH   3   4
ENDBRANCH   2   3
ENDBRANCH   1   2
BRANCH   1  18
ATOM     18  C   UNL     1     -17.786  43.419  -7.413  1.00  0.00     0.000 C 
BRANCH  18  19
ATOM     19  C   UNL     1     -17.934  43.538  -5.889  1.00  0.00     0.000 C 
BRANCH  19  20
ATOM     20  C   UNL     1     -19.349  43.952  -5.459  1.00  0.00     0.000 C 
BRANCH  20  21
ATOM     21  C   UNL     1     -20.082  44.889  -6.436  1.00  0.00     0.000 C 
BRANCH  21  22
ATOM     22  C   UNL     1     -21.267  44.232  -7.174  1.00  0.00     0.000 C 
BRANCH  22  23
ATOM     23  C   UNL     1     -21.818  45.103  -8.316  1.00  0.00     0.000 C 
BRANCH  23  24
ATOM     24  C   UNL     1     -20.819  46.173  -8.789  1.00  0.00    -0.000 C 
BRANCH  24  25
ATOM     25  C   UNL     1     -20.358  45.987 -10.253  1.00  0.00    -0.000 C 
BRANCH  25  26
ATOM     26  C   UNL     1     -18.914  45.467 -10.369  1.00  0.00    -0.000 C 
BRANCH  26  27
ATOM     27  C   UNL     1     -18.823  44.110 -11.106  1.00  0.00    -0.000 C 
BRANCH  27  28
ATOM     28  C   UNL     1     -20.175  43.381 -11.125  1.00  0.00    -0.000 C 
BRANCH  28  29
ATOM     29  C   UNL     1     -20.268  42.292 -10.035  1.00  0.00    -0.000 C 
BRANCH  29  30
ATOM     30  C   UNL     1     -19.707  40.929 -10.484  1.00  0.00    -0.000 C 
BRANCH  30  31
ATOM     31  C   UNL     1     -19.218  40.032  -9.333  1.00  0.00    -0.003 C 
ATOM     32  C   UNL     1     -19.165  38.552  -9.717  1.00  0.00     0.004 C 
ENDBRANCH  30  31
ENDBRANCH  29  30
ENDBRANCH  28  29
ENDBRANCH  27  28
ENDBRANCH  26  27
ENDBRANCH  25  26
ENDBRANCH  24  25
ENDBRANCH  23  24
ENDBRANCH  22  23
ENDBRANCH  21  22
ENDBRANCH  20  21
ENDBRANCH  19  20
ENDBRANCH  18  19
ENDBRANCH   1  18
TORSDOF 28
ENDMDL
MODEL 6
REMARK VINA RESULT:    -0.755      1.262      3.072
REMARK INTER + INTRA:          -5.371
REMARK INTER:                  -5.323
REMARK INTRA:                  -0.049
REMARK UNBOUND:                -3.381
REMARK SMILES CCCCCCCCCCCCCCCCCCCCCCCCCCCCCC(=O)[O-]
REMARK SMILES IDX 16 1 17 2 18 3 19 4 20 5 21 6 22 7 23 8 24 9 25 10 26 11
REMARK SMILES IDX 27 12 28 13 29 14 30 15 31 16 32 17 15 18 14 19 13 20 12 21
REMARK SMILES IDX 11 22 10 23 9 24 8 25 7 26 6 27 5 28 4 29 3 30 2 31 1 32
REMARK H PARENT
REMARK Flexibility Score: inf
ROOT
ATOM      1  C   UNL     1     -19.435  45.907  -5.692  1.00  0.00     0.000 C 
ENDROOT
BRANCH   1   2
ATOM      2  C   UNL     1     -19.287  46.725  -6.984  1.00  0.00     0.000 C 
BRANCH   2   3
ATOM      3  C   UNL     1     -18.332  47.930  -6.896  1.00  0.00     0.000 C 
BRANCH   3   4
ATOM      4  C   UNL     1     -17.627  48.082  -5.532  1.00  0.00     0.000 C 
BRANCH   4   5
ATOM      5  C   UNL     1     -16.857  46.820  -5.113  1.00  0.00     0.000 C 
BRANCH   5   6
ATOM      6  C   UNL     1     -15.411  47.161  -4.735  1.00  0.00     0.000 C 
BRANCH   6   7
ATOM      7  C   UNL     1     -14.418  46.574  -5.751  1.00  0.00     0.000 C 
BRANCH   7   8
ATOM      8  C   UNL     1     -14.890  46.741  -7.204  1.00  0.00     0.000 C 
BRANCH   8   9
ATOM      9  C   UNL     1     -13.889  47.519  -8.075  1.00  0.00     0.000 C 
BRANCH   9  10
ATOM     10  C   UNL     1     -14.516  47.975  -9.410  1.00  0.00     0.000 C 
BRANCH  10  11
ATOM     11  C   UNL     1     -14.359  49.480  -9.680  1.00  0.00     0.000 C 
BRANCH  11  12
ATOM     12  C   UNL     1     -15.045  49.931 -10.977  1.00  0.00     0.000 C 
BRANCH  12  13
ATOM     13  C   UNL     1     -15.474  51.400 -10.887  1.00  0.00     0.006 C 
BRANCH  13  14
ATOM     14  C   UNL     1     -14.261  52.334 -10.848  1.00  0.00     0.053 C 
BRANCH  14  15
ATOM     15  C   UNL     1     -14.137  52.981  -9.504  1.00  0.00     0.041 C 
ATOM     16  O   UNL     1     -14.217  52.286  -8.455  1.00  0.00    -0.550 OA
ATOM     17  O   UNL     1     -13.884  54.343  -9.409  1.00  0.00    -0.550 OA
ENDBRANCH  14  15
ENDBRANCH  13  14
ENDBRANCH  12  13
ENDBRANCH  11  12
ENDBRANCH  10  11
ENDBRANCH   9  10
ENDBRANCH   8   9
ENDBRANCH   7   8
ENDBRANCH   6   7
ENDBRANCH   5   6
ENDBRANCH   4   5
ENDBRANCH   3   4
ENDBRANCH   2   3
ENDBRANCH   1   2
BRANCH   1  18
ATOM     18  C   UNL     1     -19.653  44.407  -5.956  1.00  0.00     0.000 C 
BRANCH  18  19
ATOM     19  C   UNL     1     -21.085  43.982  -5.598  1.00  0.00     0.000 C 
BRANCH  19  20
ATOM     20  C   UNL     1     -22.061  44.129  -6.776  1.00  0.00     0.000 C 
BRANCH  20  21
ATOM     21  C   UNL     1     -21.488  44.841  -8.015  1.00  0.00     0.000 C 
BRANCH  21  22
ATOM     22  C   UNL     1     -20.289  44.117  -8.662  1.00  0.00     0.000 C 
BRANCH  22  23
ATOM     23  C   UNL     1     -20.627  43.511 -10.035  1.00  0.00     0.000 C 
BRANCH  23  24
ATOM     24  C   UNL     1     -20.049  42.097 -10.225  1.00  0.00    -0.000 C 
BRANCH  24  25
ATOM     25  C   UNL     1     -18.885  41.768  -9.265  1.00  0.00    -0.000 C 
BRANCH  25  26
ATOM     26  C   UNL     1     -17.645  42.652  -9.494  1.00  0.00    -0.000 C 
BRANCH  26  27
ATOM     27  C   UNL     1     -17.168  43.360  -8.204  1.00  0.00    -0.000 C 
BRANCH  27  28
ATOM     28  C   UNL     1     -16.220  44.528  -8.514  1.00  0.00    -0.000 C 
BRANCH  28  29
ATOM     29  C   UNL     1     -15.942  44.671 -10.026  1.00  0.00    -0.000 C 
BRANCH  29  30
ATOM     30  C   UNL     1     -17.175  45.118 -10.834  1.00  0.00    -0.000 C 
BRANCH  30  31
ATOM     31  C   UNL     1     -17.909  46.339 -10.253  1.00  0.00    -0.003 C 
ATOM     32  C   UNL     1     -17.696  47.608 -11.081  1.00  0.00     0.004 C 
ENDBRANCH  30  31
ENDBRANCH  29  30
ENDBRANCH  28  29
ENDBRANCH  27  28
ENDBRANCH  26  27
ENDBRANCH  25  26
ENDBRANCH  24  25
ENDBRANCH  23  24
ENDBRANCH  22  23
ENDBRANCH  21  22
ENDBRANCH  20  21
ENDBRANCH  19  20
ENDBRANCH  18  19
ENDBRANCH   1  18
TORSDOF 28
ENDMDL
MODEL 7
REMARK VINA RESULT:    -0.707      1.542      4.009
REMARK INTER + INTRA:          -5.245
REMARK INTER:                  -2.825
REMARK INTRA:                  -2.420
REMARK UNBOUND:                -3.381
REMARK SMILES CCCCCCCCCCCCCCCCCCCCCCCCCCCCCC(=O)[O-]
REMARK SMILES IDX 16 1 17 2 18 3 19 4 20 5 21 6 22 7 23 8 24 9 25 10 26 11
REMARK SMILES IDX 27 12 28 13 29 14 30 15 31 16 32 17 15 18 14 19 13 20 12 21
REMARK SMILES IDX 11 22 10 23 9 24 8 25 7 26 6 27 5 28 4 29 3 30 2 31 1 32
REMARK H PARENT
REMARK Flexibility Score: inf
ROOT
ATOM      1  C   UNL     1     -20.699  43.648  -4.811  1.00  0.00     0.000 C 
ENDROOT
BRANCH   1   2
ATOM      2  C   UNL     1     -19.362  43.136  -4.255  1.00  0.00     0.000 C 
BRANCH   2   3
ATOM      3  C   UNL     1     -18.106  43.633  -4.995  1.00  0.00     0.000 C 
BRANCH   3   4
ATOM      4  C   UNL     1     -18.247  43.668  -6.531  1.00  0.00     0.000 C 
BRANCH   4   5
ATOM      5  C   UNL     1     -16.899  43.528  -7.257  1.00  0.00     0.000 C 
BRANCH   5   6
ATOM      6  C   UNL     1     -17.002  42.529  -8.414  1.00  0.00     0.000 C 
BRANCH   6   7
ATOM      7  C   UNL     1     -16.729  43.213  -9.764  1.00  0.00     0.000 C 
BRANCH   7   8
ATOM      8  C   UNL     1     -15.243  43.551  -9.965  1.00  0.00     0.000 C 
BRANCH   8   9
ATOM      9  C   UNL     1     -15.006  44.566 -11.098  1.00  0.00     0.000 C 
BRANCH   9  10
ATOM     10  C   UNL     1     -13.891  45.574 -10.747  1.00  0.00     0.000 C 
BRANCH  10  11
ATOM     11  C   UNL     1     -14.256  47.031 -11.072  1.00  0.00     0.000 C 
BRANCH  11  12
ATOM     12  C   UNL     1     -13.876  48.008  -9.951  1.00  0.00     0.000 C 
BRANCH  12  13
ATOM     13  C   UNL     1     -14.120  49.459 -10.384  1.00  0.00     0.006 C 
BRANCH  13  14
ATOM     14  C   UNL     1     -14.357  50.370  -9.175  1.00  0.00     0.053 C 
BRANCH  14  15
ATOM     15  C   UNL     1     -14.431  51.802  -9.601  1.00  0.00     0.041 C 
ATOM     16  O   UNL     1     -14.515  52.098 -10.824  1.00  0.00    -0.550 OA
ATOM     17  O   UNL     1     -14.457  52.810  -8.647  1.00  0.00    -0.550 OA
ENDBRANCH  14  15
ENDBRANCH  13  14
ENDBRANCH  12  13
ENDBRANCH  11  12
ENDBRANCH  10  11
ENDBRANCH   9  10
ENDBRANCH   8   9
ENDBRANCH   7   8
ENDBRANCH   6   7
ENDBRANCH   5   6
ENDBRANCH   4   5
ENDBRANCH   3   4
ENDBRANCH   2   3
ENDBRANCH   1   2
BRANCH   1  18
ATOM     18  C   UNL     1     -20.613  44.055  -6.292  1.00  0.00     0.000 C 
BRANCH  18  19
ATOM     19  C   UNL     1     -21.738  45.033  -6.665  1.00  0.00     0.000 C 
BRANCH  19  20
ATOM     20  C   UNL     1     -21.758  45.373  -8.163  1.00  0.00     0.000 C 
BRANCH  20  21
ATOM     21  C   UNL     1     -20.776  44.565  -9.031  1.00  0.00     0.000 C 
BRANCH  21  22
ATOM     22  C   UNL     1     -19.375  45.198  -9.157  1.00  0.00     0.000 C 
BRANCH  22  23
ATOM     23  C   UNL     1     -19.223  46.067 -10.418  1.00  0.00     0.000 C 
BRANCH  23  24
ATOM     24  C   UNL     1     -17.870  46.796 -10.485  1.00  0.00    -0.000 C 
BRANCH  24  25
ATOM     25  C   UNL     1     -17.102  46.805  -9.144  1.00  0.00    -0.000 C 
BRANCH  25  26
ATOM     26  C   UNL     1     -17.279  48.116  -8.357  1.00  0.00    -0.000 C 
BRANCH  26  27
ATOM     27  C   UNL     1     -18.307  47.992  -7.208  1.00  0.00    -0.000 C 
BRANCH  27  28
ATOM     28  C   UNL     1     -18.016  46.779  -6.312  1.00  0.00    -0.000 C 
BRANCH  28  29
ATOM     29  C   UNL     1     -16.827  47.026  -5.360  1.00  0.00    -0.000 C 
BRANCH  29  30
ATOM     30  C   UNL     1     -15.526  46.337  -5.816  1.00  0.00    -0.000 C 
BRANCH  30  31
ATOM     31  C   UNL     1     -14.248  46.897  -5.166  1.00  0.00    -0.003 C 
ATOM     32  C   UNL     1     -13.907  46.212  -3.842  1.00  0.00     0.004 C 
ENDBRANCH  30  31
ENDBRANCH  29  30
ENDBRANCH  28  29
ENDBRANCH  27  28
ENDBRANCH  26  27
ENDBRANCH  25  26
ENDBRANCH  24  25
ENDBRANCH  23  24
ENDBRANCH  22  23
ENDBRANCH  21  22
ENDBRANCH  20  21
ENDBRANCH  19  20
ENDBRANCH  18  19
ENDBRANCH   1  18
TORSDOF 28
ENDMDL
MODEL 8
REMARK VINA RESULT:    -0.662      1.967      7.321
REMARK INTER + INTRA:          -5.128
REMARK INTER:                  -4.071
REMARK INTRA:                  -1.057
REMARK UNBOUND:                -3.381
REMARK SMILES CCCCCCCCCCCCCCCCCCCCCCCCCCCCCC(=O)[O-]
REMARK SMILES IDX 16 1 17 2 18 3 19 4 20 5 21 6 22 7 23 8 24 9 25 10 26 11
REMARK SMILES IDX 27 12 28 13 29 14 30 15 31 16 32 17 15 18 14 19 13 20 12 21
REMARK SMILES IDX 11 22 10 23 9 24 8 25 7 26 6 27 5 28 4 29 3 30 2 31 1 32
REMARK H PARENT
REMARK Flexibility Score: inf
ROOT
ATOM      1  C   UNL     1     -20.182  45.795  -6.488  1.00  0.00     0.000 C 
ENDROOT
BRANCH   1   2
ATOM      2  C   UNL     1     -20.751  44.896  -7.596  1.00  0.00     0.000 C 
BRANCH   2   3
ATOM      3  C   UNL     1     -20.473  45.367  -9.036  1.00  0.00     0.000 C 
BRANCH   3   4
ATOM      4  C   UNL     1     -21.400  44.742 -10.098  1.00  0.00     0.000 C 
BRANCH   4   5
ATOM      5  C   UNL     1     -20.765  43.538 -10.812  1.00  0.00     0.000 C 
BRANCH   5   6
ATOM      6  C   UNL     1     -20.527  42.384  -9.832  1.00  0.00     0.000 C 
BRANCH   6   7
ATOM      7  C   UNL     1     -19.033  42.035  -9.738  1.00  0.00     0.000 C 
BRANCH   7   8
ATOM      8  C   UNL     1     -18.485  42.161  -8.307  1.00  0.00     0.000 C 
BRANCH   8   9
ATOM      9  C   UNL     1     -16.999  42.559  -8.265  1.00  0.00     0.000 C 
BRANCH   9  10
ATOM     10  C   UNL     1     -16.685  43.497  -7.079  1.00  0.00     0.000 C 
BRANCH  10  11
ATOM     11  C   UNL     1     -15.771  44.674  -7.454  1.00  0.00     0.000 C 
BRANCH  11  12
ATOM     12  C   UNL     1     -15.314  45.489  -6.235  1.00  0.00     0.000 C 
BRANCH  12  13
ATOM     13  C   UNL     1     -16.472  46.319  -5.668  1.00  0.00     0.006 C 
BRANCH  13  14
ATOM     14  C   UNL     1     -16.072  47.016  -4.364  1.00  0.00     0.053 C 
BRANCH  14  15
ATOM     15  C   UNL     1     -14.583  47.083  -4.238  1.00  0.00     0.041 C 
ATOM     16  O   UNL     1     -13.935  47.986  -4.834  1.00  0.00    -0.550 OA
ATOM     17  O   UNL     1     -13.913  46.180  -3.422  1.00  0.00    -0.550 OA
ENDBRANCH  14  15
ENDBRANCH  13  14
ENDBRANCH  12  13
ENDBRANCH  11  12
ENDBRANCH  10  11
ENDBRANCH   9  10
ENDBRANCH   8   9
ENDBRANCH   7   8
ENDBRANCH   6   7
ENDBRANCH   5   6
ENDBRANCH   4   5
ENDBRANCH   3   4
ENDBRANCH   2   3
ENDBRANCH   1   2
BRANCH   1  18
ATOM     18  C   UNL     1     -19.232  46.878  -7.026  1.00  0.00     0.000 C 
BRANCH  18  19
ATOM     19  C   UNL     1     -18.564  46.431  -8.335  1.00  0.00     0.000 C 
BRANCH  19  20
ATOM     20  C   UNL     1     -17.978  47.604  -9.136  1.00  0.00     0.000 C 
BRANCH  20  21
ATOM     21  C   UNL     1     -17.669  47.297 -10.613  1.00  0.00     0.000 C 
BRANCH  21  22
ATOM     22  C   UNL     1     -16.207  47.571 -11.023  1.00  0.00     0.000 C 
BRANCH  22  23
ATOM     23  C   UNL     1     -15.254  46.426 -10.640  1.00  0.00     0.000 C 
BRANCH  23  24
ATOM     24  C   UNL     1     -14.150  46.864  -9.662  1.00  0.00    -0.000 C 
BRANCH  24  25
ATOM     25  C   UNL     1     -14.679  47.650  -8.441  1.00  0.00    -0.000 C 
BRANCH  25  26
ATOM     26  C   UNL     1     -13.875  48.931  -8.154  1.00  0.00    -0.000 C 
BRANCH  26  27
ATOM     27  C   UNL     1     -14.559  50.204  -8.704  1.00  0.00    -0.000 C 
BRANCH  27  28
ATOM     28  C   UNL     1     -14.290  50.392 -10.204  1.00  0.00    -0.000 C 
BRANCH  28  29
ATOM     29  C   UNL     1     -15.137  51.529 -10.813  1.00  0.00    -0.000 C 
BRANCH  29  30
ATOM     30  C   UNL     1     -14.321  52.799 -11.124  1.00  0.00    -0.000 C 
BRANCH  30  31
ATOM     31  C   UNL     1     -13.941  53.630  -9.887  1.00  0.00    -0.003 C 
ATOM     32  C   UNL     1     -14.211  55.125 -10.071  1.00  0.00     0.004 C 
ENDBRANCH  30  31
ENDBRANCH  29  30
ENDBRANCH  28  29
ENDBRANCH  27  28
ENDBRANCH  26  27
ENDBRANCH  25  26
ENDBRANCH  24  25
ENDBRANCH  23  24
ENDBRANCH  22  23
ENDBRANCH  21  22
ENDBRANCH  20  21
ENDBRANCH  19  20
ENDBRANCH  18  19
ENDBRANCH   1  18
TORSDOF 28
ENDMDL
