MODEL 1
REMARK VINA RESULT:    -3.570      0.000      0.000
REMARK INTER + INTRA:          -5.057
REMARK INTER:                  -4.822
REMARK INTRA:                  -0.235
REMARK UNBOUND:                -0.235
REMARK SMILES CCCCCCCC(=O)[O-]
REMARK SMILES IDX 5 1 6 2 7 3 8 4 9 5 10 6 4 7 3 8 2 9 1 10
REMARK H PARENT
REMARK Flexibility Score: inf
ROOT
ATOM      1  C   UNL     1      26.579 -16.386  25.278  1.00  0.00     0.000 C 
ENDROOT
BRANCH   1   2
ATOM      2  C   UNL     1      25.836 -16.052  26.584  1.00  0.00     0.006 C 
BRANCH   2   3
ATOM      3  C   UNL     1      24.319 -15.940  26.373  1.00  0.00     0.053 C 
BRANCH   3   4
ATOM      4  C   UNL     1      23.799 -14.590  26.759  1.00  0.00     0.041 C 
ATOM      5  O   UNL     1      22.695 -14.484  27.355  1.00  0.00    -0.550 OA
ATOM      6  O   UNL     1      24.547 -13.452  26.488  1.00  0.00    -0.550 OA
ENDBRANCH   3   4
ENDBRANCH   2   3
ENDBRANCH   1   2
BRANCH   1   7
ATOM      7  C   UNL     1      26.441 -17.865  24.879  1.00  0.00     0.000 C 
BRANCH   7   8
ATOM      8  C   UNL     1      27.786 -18.501  24.489  1.00  0.00    -0.000 C 
BRANCH   8   9
ATOM      9  C   UNL     1      28.845 -18.359  25.592  1.00  0.00    -0.003 C 
ATOM     10  C   UNL     1      30.253 -18.711  25.112  1.00  0.00     0.004 C 
ENDBRANCH   8   9
ENDBRANCH   7   8
ENDBRANCH   1   7
TORSDOF 6
ENDMDL
MODEL 2
REMARK VINA RESULT:    -3.544      1.072      1.298
REMARK INTER + INTRA:          -5.023
REMARK INTER:                  -4.823
REMARK INTRA:                  -0.200
REMARK UNBOUND:                -0.235
REMARK SMILES CCCCCCCC(=O)[O-]
REMARK SMILES IDX 5 1 6 2 7 3 8 4 9 5 10 6 4 7 3 8 2 9 1 10
REMARK H PARENT
REMARK Flexibility Score: inf
ROOT
ATOM      1  C   UNL     1      26.612 -16.425  25.377  1.00  0.00     0.000 C 
ENDROOT
BRANCH   1   2
ATOM      2  C   UNL     1      25.294 -16.527  26.165  1.00  0.00     0.006 C 
BRANCH   2   3
ATOM      3  C   UNL     1      24.681 -15.148  26.448  1.00  0.00     0.053 C 
BRANCH   3   4
ATOM      4  C   UNL     1      23.193 -15.217  26.594  1.00  0.00     0.041 C 
ATOM      5  O   UNL     1      22.448 -14.590  25.796  1.00  0.00    -0.550 OA
ATOM      6  O   UNL     1      22.626 -15.997  27.594  1.00  0.00    -0.550 OA
ENDBRANCH   3   4
ENDBRANCH   2   3
ENDBRANCH   1   2
BRANCH   1   7
ATOM      7  C   UNL     1      26.736 -17.504  24.288  1.00  0.00     0.000 C 
BRANCH   7   8
ATOM      8  C   UNL     1      27.631 -18.679  24.720  1.00  0.00    -0.000 C 
BRANCH   8   9
ATOM      9  C   UNL     1      28.808 -18.229  25.599  1.00  0.00    -0.003 C 
ATOM     10  C   UNL     1      30.162 -18.686  25.057  1.00  0.00     0.004 C 
ENDBRANCH   8   9
ENDBRANCH   7   8
ENDBRANCH   1   7
TORSDOF 6
ENDMDL
MODEL 3
REMARK VINA RESULT:    -3.446      3.329      5.510
REMARK INTER + INTRA:          -4.890
REMARK INTER:                  -4.550
REMARK INTRA:                  -0.340
REMARK UNBOUND:                -0.235
REMARK SMILES CCCCCCCC(=O)[O-]
REMARK SMILES IDX 5 1 6 2 7 3 8 4 9 5 10 6 4 7 3 8 2 9 1 10
REMARK H PARENT
REMARK Flexibility Score: inf
ROOT
ATOM      1  C   UNL     1      25.716 -16.759  26.536  1.00  0.00     0.000 C 
ENDROOT
BRANCH   1   2
ATOM      2  C   UNL     1      26.620 -16.368  25.354  1.00  0.00     0.006 C 
BRANCH   2   3
ATOM      3  C   UNL     1      26.746 -17.499  24.323  1.00  0.00     0.053 C 
BRANCH   3   4
ATOM      4  C   UNL     1      27.577 -18.634  24.838  1.00  0.00     0.041 C 
ATOM      5  O   UNL     1      27.116 -19.806  24.839  1.00  0.00    -0.550 OA
ATOM      6  O   UNL     1      28.870 -18.403  25.288  1.00  0.00    -0.550 OA
ENDBRANCH   3   4
ENDBRANCH   2   3
ENDBRANCH   1   2
BRANCH   1   7
ATOM      7  C   UNL     1      24.224 -16.775  26.162  1.00  0.00     0.000 C 
BRANCH   7   8
ATOM      8  C   UNL     1      23.389 -15.807  27.018  1.00  0.00    -0.000 C 
BRANCH   8   9
ATOM      9  C   UNL     1      23.253 -14.420  26.372  1.00  0.00    -0.003 C 
ATOM     10  C   UNL     1      24.363 -13.457  26.795  1.00  0.00     0.004 C 
ENDBRANCH   8   9
ENDBRANCH   7   8
ENDBRANCH   1   7
TORSDOF 6
ENDMDL
MODEL 4
REMARK VINA RESULT:    -3.443      3.142      5.478
REMARK INTER + INTRA:          -4.886
REMARK INTER:                  -4.452
REMARK INTRA:                  -0.435
REMARK UNBOUND:                -0.235
REMARK SMILES CCCCCCCC(=O)[O-]
REMARK SMILES IDX 5 1 6 2 7 3 8 4 9 5 10 6 4 7 3 8 2 9 1 10
REMARK H PARENT
REMARK Flexibility Score: inf
ROOT
ATOM      1  C   UNL     1      25.279 -16.040  26.745  1.00  0.00     0.000 C 
ENDROOT
BRANCH   1   2
ATOM      2  C   UNL     1      26.253 -16.095  25.554  1.00  0.00     0.006 C 
BRANCH   2   3
ATOM      3  C   UNL     1      26.324 -17.496  24.929  1.00  0.00     0.053 C 
BRANCH   3   4
ATOM      4  C   UNL     1      27.673 -18.121  25.111  1.00  0.00     0.041 C 
ATOM      5  O   UNL     1      28.296 -17.975  26.196  1.00  0.00    -0.550 OA
ATOM      6  O   UNL     1      28.228 -18.889  24.097  1.00  0.00    -0.550 OA
ENDBRANCH   3   4
ENDBRANCH   2   3
ENDBRANCH   1   2
BRANCH   1   7
ATOM      7  C   UNL     1      24.295 -14.862  26.651  1.00  0.00     0.000 C 
BRANCH   7   8
ATOM      8  C   UNL     1      22.910 -15.287  26.133  1.00  0.00    -0.000 C 
BRANCH   8   9
ATOM      9  C   UNL     1      22.535 -16.714  26.562  1.00  0.00    -0.003 C 
ATOM     10  C   UNL     1      22.239 -17.632  25.377  1.00  0.00     0.004 C 
ENDBRANCH   8   9
ENDBRANCH   7   8
ENDBRANCH   1   7
TORSDOF 6
ENDMDL
MODEL 5
REMARK VINA RESULT:    -3.428      2.720      5.051
REMARK INTER + INTRA:          -4.866
REMARK INTER:                  -4.272
REMARK INTRA:                  -0.594
REMARK UNBOUND:                -0.235
REMARK SMILES CCCCCCCC(=O)[O-]
REMARK SMILES IDX 5 1 6 2 7 3 8 4 9 5 10 6 4 7 3 8 2 9 1 10
REMARK H PARENT
REMARK Flexibility Score: inf
ROOT
ATOM      1  C   UNL     1      23.131 -17.003  25.889  1.00  0.00     0.000 C 
ENDROOT
BRANCH   1   2
ATOM      2  C   UNL     1      24.040 -18.204  26.206  1.00  0.00     0.006 C 
BRANCH   2   3
ATOM      3  C   UNL     1      25.435 -18.053  25.582  1.00  0.00     0.053 C 
BRANCH   3   4
ATOM      4  C   UNL     1      26.116 -16.798  26.035  1.00  0.00     0.041 C 
ATOM      5  O   UNL     1      26.572 -15.986  25.188  1.00  0.00    -0.550 OA
ATOM      6  O   UNL     1      26.221 -16.511  27.389  1.00  0.00    -0.550 OA
ENDBRANCH   3   4
ENDBRANCH   2   3
ENDBRANCH   1   2
BRANCH   1   7
ATOM      7  C   UNL     1      22.349 -16.512  27.119  1.00  0.00     0.000 C 
BRANCH   7   8
ATOM      8  C   UNL     1      22.547 -15.010  27.385  1.00  0.00    -0.000 C 
BRANCH   8   9
ATOM      9  C   UNL     1      23.448 -14.342  26.336  1.00  0.00    -0.003 C 
ATOM     10  C   UNL     1      24.479 -13.398  26.954  1.00  0.00     0.004 C 
ENDBRANCH   8   9
ENDBRANCH   7   8
ENDBRANCH   1   7
TORSDOF 6
ENDMDL
MODEL 6
REMARK VINA RESULT:    -3.372     15.877     16.921
REMARK INTER + INTRA:          -4.790
REMARK INTER:                  -4.638
REMARK INTRA:                  -0.152
REMARK UNBOUND:                -0.235
REMARK SMILES CCCCCCCC(=O)[O-]
REMARK SMILES IDX 5 1 6 2 7 3 8 4 9 5 10 6 4 7 3 8 2 9 1 10
REMARK H PARENT
REMARK Flexibility Score: inf
ROOT
ATOM      1  C   UNL     1      13.537  -6.249  22.140  1.00  0.00     0.000 C 
ENDROOT
BRANCH   1   2
ATOM      2  C   UNL     1      14.538  -5.262  21.514  1.00  0.00     0.006 C 
BRANCH   2   3
ATOM      3  C   UNL     1      15.645  -5.981  20.730  1.00  0.00     0.053 C 
BRANCH   3   4
ATOM      4  C   UNL     1      16.757  -5.051  20.353  1.00  0.00     0.041 C 
ATOM      5  O   UNL     1      16.683  -3.827  20.639  1.00  0.00    -0.550 OA
ATOM      6  O   UNL     1      17.889  -5.540  19.714  1.00  0.00    -0.550 OA
ENDBRANCH   3   4
ENDBRANCH   2   3
ENDBRANCH   1   2
BRANCH   1   7
ATOM      7  C   UNL     1      13.152  -5.869  23.580  1.00  0.00     0.000 C 
BRANCH   7   8
ATOM      8  C   UNL     1      11.855  -6.553  24.045  1.00  0.00    -0.000 C 
BRANCH   8   9
ATOM      9  C   UNL     1      11.953  -7.080  25.485  1.00  0.00    -0.003 C 
ATOM     10  C   UNL     1      13.134  -6.488  26.254  1.00  0.00     0.004 C 
ENDBRANCH   8   9
ENDBRANCH   7   8
ENDBRANCH   1   7
TORSDOF 6
ENDMDL
MODEL 7
REMARK VINA RESULT:    -3.351      2.076      2.957
REMARK INTER + INTRA:          -4.762
REMARK INTER:                  -4.504
REMARK INTRA:                  -0.258
REMARK UNBOUND:                -0.235
REMARK SMILES CCCCCCCC(=O)[O-]
REMARK SMILES IDX 5 1 6 2 7 3 8 4 9 5 10 6 4 7 3 8 2 9 1 10
REMARK H PARENT
REMARK Flexibility Score: inf
ROOT
ATOM      1  C   UNL     1      24.539 -17.028  26.446  1.00  0.00     0.000 C 
ENDROOT
BRANCH   1   2
ATOM      2  C   UNL     1      23.062 -16.674  26.195  1.00  0.00     0.006 C 
BRANCH   2   3
ATOM      3  C   UNL     1      22.554 -15.595  27.161  1.00  0.00     0.053 C 
BRANCH   3   4
ATOM      4  C   UNL     1      21.743 -16.180  28.276  1.00  0.00     0.041 C 
ATOM      5  O   UNL     1      21.714 -17.427  28.451  1.00  0.00    -0.550 OA
ATOM      6  O   UNL     1      21.043 -15.349  29.140  1.00  0.00    -0.550 OA
ENDBRANCH   3   4
ENDBRANCH   2   3
ENDBRANCH   1   2
BRANCH   1   7
ATOM      7  C   UNL     1      25.492 -15.870  26.106  1.00  0.00     0.000 C 
BRANCH   7   8
ATOM      8  C   UNL     1      26.699 -16.325  25.267  1.00  0.00    -0.000 C 
BRANCH   8   9
ATOM      9  C   UNL     1      26.473 -17.693  24.606  1.00  0.00    -0.003 C 
ATOM     10  C   UNL     1      27.756 -18.515  24.492  1.00  0.00     0.004 C 
ENDBRANCH   8   9
ENDBRANCH   7   8
ENDBRANCH   1   7
TORSDOF 6
ENDMDL
MODEL 8
REMARK VINA RESULT:    -3.290      8.200     11.350
REMARK INTER + INTRA:          -4.679
REMARK INTER:                  -4.426
REMARK INTRA:                  -0.253
REMARK UNBOUND:                -0.235
REMARK SMILES CCCCCCCC(=O)[O-]
REMARK SMILES IDX 5 1 6 2 7 3 8 4 9 5 10 6 4 7 3 8 2 9 1 10
REMARK H PARENT
REMARK Flexibility Score: inf
ROOT
ATOM      1  C   UNL     1      17.258 -16.994  29.696  1.00  0.00     0.000 C 
ENDROOT
BRANCH   1   2
ATOM      2  C   UNL     1      17.626 -16.139  30.923  1.00  0.00     0.006 C 
BRANCH   2   3
ATOM      3  C   UNL     1      18.528 -14.954  30.552  1.00  0.00     0.053 C 
BRANCH   3   4
ATOM      4  C   UNL     1      19.957 -15.369  30.388  1.00  0.00     0.041 C 
ATOM      5  O   UNL     1      20.606 -15.018  29.368  1.00  0.00    -0.550 OA
ATOM      6  O   UNL     1      20.583 -16.119  31.376  1.00  0.00    -0.550 OA
ENDBRANCH   3   4
ENDBRANCH   2   3
ENDBRANCH   1   2
BRANCH   1   7
ATOM      7  C   UNL     1      15.871 -17.646  29.823  1.00  0.00     0.000 C 
BRANCH   7   8
ATOM      8  C   UNL     1      15.022 -17.017  30.941  1.00  0.00    -0.000 C 
BRANCH   8   9
ATOM      9  C   UNL     1      13.534 -16.924  30.567  1.00  0.00    -0.003 C 
ATOM     10  C   UNL     1      12.736 -16.041  31.526  1.00  0.00     0.004 C 
ENDBRANCH   8   9
ENDBRANCH   7   8
ENDBRANCH   1   7
TORSDOF 6
ENDMDL
MODEL 9
REMARK VINA RESULT:    -3.252      3.456      5.817
REMARK INTER + INTRA:          -4.628
REMARK INTER:                  -4.348
REMARK INTRA:                  -0.280
REMARK UNBOUND:                -0.235
REMARK SMILES CCCCCCCC(=O)[O-]
REMARK SMILES IDX 5 1 6 2 7 3 8 4 9 5 10 6 4 7 3 8 2 9 1 10
REMARK H PARENT
REMARK Flexibility Score: inf
ROOT
ATOM      1  C   UNL     1      26.657 -17.255  24.519  1.00  0.00     0.000 C 
ENDROOT
BRANCH   1   2
ATOM      2  C   UNL     1      26.786 -18.700  25.034  1.00  0.00     0.006 C 
BRANCH   2   3
ATOM      3  C   UNL     1      28.082 -19.371  24.558  1.00  0.00     0.053 C 
BRANCH   3   4
ATOM      4  C   UNL     1      29.280 -18.856  25.294  1.00  0.00     0.041 C 
ATOM      5  O   UNL     1      30.380 -18.720  24.696  1.00  0.00    -0.550 OA
ATOM      6  O   UNL     1      29.176 -18.499  26.632  1.00  0.00    -0.550 OA
ENDBRANCH   3   4
ENDBRANCH   2   3
ENDBRANCH   1   2
BRANCH   1   7
ATOM      7  C   UNL     1      26.302 -16.258  25.635  1.00  0.00     0.000 C 
BRANCH   7   8
ATOM      8  C   UNL     1      25.090 -16.710  26.468  1.00  0.00    -0.000 C 
BRANCH   8   9
ATOM      9  C   UNL     1      23.920 -15.718  26.388  1.00  0.00    -0.003 C 
ATOM     10  C   UNL     1      22.559 -16.391  26.561  1.00  0.00     0.004 C 
ENDBRANCH   8   9
ENDBRANCH   7   8
ENDBRANCH   1   7
TORSDOF 6
ENDMDL
