MODEL 1
REMARK VINA RESULT:    -8.592      0.000      0.000
REMARK INTER + INTRA:         -15.542
REMARK INTER:                 -14.118
REMARK INTRA:                  -1.425
REMARK UNBOUND:                -1.425
REMARK SMILES COc1ccc([C@@H]2CC(=O)c3c(O)cc(O[C@H]4O[C@@H](CO[C@H]5O[C@@H](C)[C@@H](O)[C@H](O)[C@@H]5O)[C@@H](O)[C@H](O)[C@@H]4O)cc3O2)cc1O
REMARK SMILES IDX 19 1 32 2 34 3 36 4 17 5 18 6 20 7 21 8 22 9 25 10 24 11
REMARK SMILES IDX 26 12 23 13 28 14 30 15 27 16 29 18 31 20 33 22 35 24 16 26
REMARK SMILES IDX 15 27 14 28 38 29 12 30 39 31 11 32 40 33 9 34 7 35 10 36
REMARK SMILES IDX 8 37 13 38 6 40 41 41 5 42 42 43 4 44 3 45 43 46 2 48 1 49
REMARK SMILES IDX 37 50
REMARK H PARENT 27 17 29 19 31 21 33 23 35 25 13 39 43 47 37 51
REMARK Flexibility Score: inf
ROOT
ATOM      1  C   UNL     1       1.037  34.821 -18.253  1.00  0.00     0.180 C 
ATOM      2  C   UNL     1       1.238  34.437 -19.858  1.00  0.00     0.177 C 
ATOM      3  C   UNL     1       2.591  34.903 -20.341  1.00  0.00     0.180 C 
ATOM      4  C   UNL     1       3.660  34.078 -19.629  1.00  0.00     0.214 C 
ATOM      5  C   UNL     1       3.384  34.062 -18.159  1.00  0.00     0.339 C 
ATOM      6  O   UNL     1       2.335  34.943 -17.627  1.00  0.00    -0.332 OA
ENDROOT
BRANCH   1   7
ATOM      7  C   UNL     1       0.112  36.032 -17.879  1.00  0.00     0.198 C 
BRANCH   7   8
ATOM      8  O   UNL     1      -1.219  35.597 -18.135  1.00  0.00    -0.347 OA
BRANCH   8   9
ATOM      9  C   UNL     1      -1.872  34.523 -17.384  1.00  0.00     0.281 C 
ATOM     10  C   UNL     1      -5.423  35.749 -17.267  1.00  0.00     0.041 C 
ATOM     11  C   UNL     1      -4.279  34.908 -16.573  1.00  0.00     0.150 C 
ATOM     12  C   UNL     1      -4.277  33.654 -17.327  1.00  0.00     0.174 C 
ATOM     13  O   UNL     1      -2.904  35.303 -16.589  1.00  0.00    -0.344 OA
ATOM     14  C   UNL     1      -3.526  33.861 -18.763  1.00  0.00     0.179 C 
ATOM     15  C   UNL     1      -2.197  33.247 -18.470  1.00  0.00     0.202 C 
BRANCH  12  16
ATOM     16  O   UNL     1      -5.448  32.877 -17.315  1.00  0.00    -0.388 OA
ATOM     17  H   UNL     1      -6.246  33.406 -16.836  1.00  0.00     0.211 HD
ENDBRANCH  12  16
BRANCH  14  18
ATOM     18  O   UNL     1      -4.298  33.349 -19.878  1.00  0.00    -0.387 OA
ATOM     19  H   UNL     1      -5.137  34.036 -19.903  1.00  0.00     0.211 HD
ENDBRANCH  14  18
BRANCH  15  20
ATOM     20  O   UNL     1      -2.729  31.849 -18.356  1.00  0.00    -0.385 OA
ATOM     21  H   UNL     1      -3.216  31.662 -17.414  1.00  0.00     0.211 HD
ENDBRANCH  15  20
ENDBRANCH   8   9
ENDBRANCH   7   8
ENDBRANCH   1   7
BRANCH   2  22
ATOM     22  O   UNL     1       0.193  34.884 -20.621  1.00  0.00    -0.387 OA
ATOM     23  H   UNL     1       0.472  34.941 -21.554  1.00  0.00     0.211 HD
ENDBRANCH   2  22
BRANCH   3  24
ATOM     24  O   UNL     1       2.671  34.688 -21.742  1.00  0.00    -0.387 OA
ATOM     25  H   UNL     1       1.693  34.485 -22.008  1.00  0.00     0.211 HD
ENDBRANCH   3  24
BRANCH   5  26
ATOM     26  O   UNL     1       4.607  34.606 -17.577  1.00  0.00    -0.462 OA
BRANCH  26  27
ATOM     27  C   UNL     1       5.111  34.643 -16.251  1.00  0.00     0.130 A 
ATOM     28  C   UNL     1       4.666  35.603 -15.266  1.00  0.00     0.093 A 
ATOM     29  C   UNL     1       6.122  33.746 -15.964  1.00  0.00     0.094 A 
ATOM     30  C   UNL     1       4.692  35.101 -13.914  1.00  0.00     0.133 A 
ATOM     31  C   UNL     1       6.166  33.258 -14.635  1.00  0.00     0.138 A 
ATOM     32  C   UNL     1       5.449  33.961 -13.600  1.00  0.00     0.102 A 
ATOM     33  O   UNL     1       7.040  32.121 -14.304  1.00  0.00    -0.484 OA
ATOM     34  C   UNL     1       5.742  33.465 -12.200  1.00  0.00     0.174 C 
ATOM     35  C   UNL     1       7.352  31.720 -12.999  1.00  0.00     0.211 C 
ATOM     36  O   UNL     1       5.541  34.281 -11.247  1.00  0.00    -0.294 OA
ATOM     37  C   UNL     1       6.225  32.077 -12.029  1.00  0.00     0.131 C 
BRANCH  30  38
ATOM     38  O   UNL     1       3.911  35.692 -12.998  1.00  0.00    -0.507 OA
ATOM     39  H   UNL     1       3.337  36.571 -13.161  1.00  0.00     0.293 HD
ENDBRANCH  30  38
BRANCH  35  40
ATOM     40  C   UNL     1       7.913  30.264 -13.010  1.00  0.00    -0.003 A 
ATOM     41  C   UNL     1       6.990  29.253 -13.507  1.00  0.00     0.057 A 
ATOM     42  C   UNL     1       9.258  29.982 -12.851  1.00  0.00     0.011 A 
ATOM     43  C   UNL     1       7.417  27.922 -13.512  1.00  0.00     0.158 A 
ATOM     44  C   UNL     1       9.673  28.662 -12.978  1.00  0.00     0.051 A 
ATOM     45  C   UNL     1       8.744  27.615 -13.124  1.00  0.00     0.160 A 
BRANCH  43  46
ATOM     46  O   UNL     1       6.492  26.918 -13.876  1.00  0.00    -0.504 OA
ATOM     47  H   UNL     1       5.646  26.784 -13.289  1.00  0.00     0.293 HD
ENDBRANCH  43  46
BRANCH  45  48
ATOM     48  O   UNL     1       9.150  26.242 -13.191  1.00  0.00    -0.493 OA
ATOM     49  C   UNL     1       9.474  25.399 -12.113  1.00  0.00     0.278 C 
ENDBRANCH  45  48
ENDBRANCH  35  40
ENDBRANCH  26  27
ENDBRANCH   5  26
BRANCH   4  50
ATOM     50  O   UNL     1       3.768  32.799 -20.158  1.00  0.00    -0.384 OA
ATOM     51  H   UNL     1       4.090  32.172 -19.478  1.00  0.00     0.211 HD
ENDBRANCH   4  50
TORSDOF 15
ENDMDL
MODEL 2
REMARK VINA RESULT:    -8.338      2.319      5.410
REMARK INTER + INTRA:         -15.124
REMARK INTER:                 -13.966
REMARK INTRA:                  -1.159
REMARK UNBOUND:                -1.425
REMARK SMILES COc1ccc([C@@H]2CC(=O)c3c(O)cc(O[C@H]4O[C@@H](CO[C@H]5O[C@@H](C)[C@@H](O)[C@H](O)[C@@H]5O)[C@@H](O)[C@H](O)[C@@H]4O)cc3O2)cc1O
REMARK SMILES IDX 19 1 32 2 34 3 36 4 17 5 18 6 20 7 21 8 22 9 25 10 24 11
REMARK SMILES IDX 26 12 23 13 28 14 30 15 27 16 29 18 31 20 33 22 35 24 16 26
REMARK SMILES IDX 15 27 14 28 38 29 12 30 39 31 11 32 40 33 9 34 7 35 10 36
REMARK SMILES IDX 8 37 13 38 6 40 41 41 5 42 42 43 4 44 3 45 43 46 2 48 1 49
REMARK SMILES IDX 37 50
REMARK H PARENT 27 17 29 19 31 21 33 23 35 25 13 39 43 47 37 51
REMARK Flexibility Score: inf
ROOT
ATOM      1  C   UNL     1       2.589  35.723 -13.983  1.00  0.00     0.180 C 
ATOM      2  C   UNL     1       2.534  35.622 -12.324  1.00  0.00     0.177 C 
ATOM      3  C   UNL     1       2.630  34.180 -11.885  1.00  0.00     0.180 C 
ATOM      4  C   UNL     1       4.023  33.668 -12.238  1.00  0.00     0.214 C 
ATOM      5  C   UNL     1       4.339  34.012 -13.658  1.00  0.00     0.339 C 
ATOM      6  O   UNL     1       3.272  34.561 -14.507  1.00  0.00    -0.332 OA
ENDROOT
BRANCH   1   7
ATOM      7  C   UNL     1       1.256  35.998 -14.764  1.00  0.00     0.198 C 
BRANCH   7   8
ATOM      8  O   UNL     1       1.458  35.473 -16.072  1.00  0.00    -0.347 OA
BRANCH   8   9
ATOM      9  C   UNL     1       0.816  36.025 -17.266  1.00  0.00     0.281 C 
ATOM     10  C   UNL     1       2.985  34.620 -19.994  1.00  0.00     0.041 C 
ATOM     11  C   UNL     1       2.041  35.791 -19.512  1.00  0.00     0.150 C 
ATOM     12  C   UNL     1       0.698  35.240 -19.698  1.00  0.00     0.174 C 
ATOM     13  O   UNL     1       2.017  36.267 -18.163  1.00  0.00    -0.344 OA
ATOM     14  C   UNL     1       0.347  34.194 -18.493  1.00  0.00     0.179 C 
ATOM     15  C   UNL     1      -0.532  35.046 -17.637  1.00  0.00     0.202 C 
BRANCH  12  16
ATOM     16  O   UNL     1       0.308  34.881 -21.000  1.00  0.00    -0.388 OA
ATOM     17  H   UNL     1       1.081  34.321 -21.483  1.00  0.00     0.211 HD
ENDBRANCH  12  16
BRANCH  14  18
ATOM     18  O   UNL     1      -0.171  32.931 -18.980  1.00  0.00    -0.387 OA
ATOM     19  H   UNL     1       0.216  32.908 -19.993  1.00  0.00     0.211 HD
ENDBRANCH  14  18
BRANCH  15  20
ATOM     20  O   UNL     1      -1.657  35.097 -18.628  1.00  0.00    -0.385 OA
ATOM     21  H   UNL     1      -1.339  34.882 -19.635  1.00  0.00     0.211 HD
ENDBRANCH  15  20
ENDBRANCH   8   9
ENDBRANCH   7   8
ENDBRANCH   1   7
BRANCH   2  22
ATOM     22  O   UNL     1       1.452  36.287 -11.811  1.00  0.00    -0.387 OA
ATOM     23  H   UNL     1       0.633  35.830 -12.077  1.00  0.00     0.211 HD
ENDBRANCH   2  22
BRANCH   3  24
ATOM     24  O   UNL     1       2.437  34.120 -10.479  1.00  0.00    -0.387 OA
ATOM     25  H   UNL     1       3.162  33.451 -10.169  1.00  0.00     0.211 HD
ENDBRANCH   3  24
BRANCH   5  26
ATOM     26  O   UNL     1       4.621  32.717 -14.269  1.00  0.00    -0.462 OA
BRANCH  26  27
ATOM     27  C   UNL     1       5.825  32.075 -14.660  1.00  0.00     0.130 A 
ATOM     28  C   UNL     1       6.955  32.789 -15.209  1.00  0.00     0.093 A 
ATOM     29  C   UNL     1       5.836  30.697 -14.556  1.00  0.00     0.094 A 
ATOM     30  C   UNL     1       8.229  32.196 -14.884  1.00  0.00     0.133 A 
ATOM     31  C   UNL     1       7.085  30.103 -14.251  1.00  0.00     0.138 A 
ATOM     32  C   UNL     1       8.294  30.867 -14.435  1.00  0.00     0.102 A 
ATOM     33  O   UNL     1       7.145  28.682 -13.876  1.00  0.00    -0.484 OA
ATOM     34  C   UNL     1       9.565  30.060 -14.276  1.00  0.00     0.174 C 
ATOM     35  C   UNL     1       8.327  27.935 -13.800  1.00  0.00     0.211 C 
ATOM     36  O   UNL     1      10.606  30.505 -14.853  1.00  0.00    -0.294 OA
ATOM     37  C   UNL     1       9.521  28.828 -13.458  1.00  0.00     0.131 C 
BRANCH  30  38
ATOM     38  O   UNL     1       9.324  32.969 -14.933  1.00  0.00    -0.507 OA
ATOM     39  H   UNL     1       9.450  33.884 -14.409  1.00  0.00     0.293 HD
ENDBRANCH  30  38
BRANCH  35  40
ATOM     40  C   UNL     1       8.084  26.639 -12.966  1.00  0.00    -0.003 A 
ATOM     41  C   UNL     1       6.774  26.026 -13.150  1.00  0.00     0.057 A 
ATOM     42  C   UNL     1       9.107  25.953 -12.336  1.00  0.00     0.011 A 
ATOM     43  C   UNL     1       6.478  24.880 -12.406  1.00  0.00     0.158 A 
ATOM     44  C   UNL     1       8.805  24.754 -11.704  1.00  0.00     0.051 A 
ATOM     45  C   UNL     1       7.475  24.310 -11.578  1.00  0.00     0.160 A 
BRANCH  43  46
ATOM     46  O   UNL     1       5.172  24.346 -12.482  1.00  0.00    -0.504 OA
ATOM     47  H   UNL     1       4.662  24.148 -11.599  1.00  0.00     0.293 HD
ENDBRANCH  43  46
BRANCH  45  48
ATOM     48  O   UNL     1       7.138  23.109 -10.871  1.00  0.00    -0.493 OA
ATOM     49  C   UNL     1       7.655  22.677  -9.637  1.00  0.00     0.278 C 
ENDBRANCH  45  48
ENDBRANCH  35  40
ENDBRANCH  26  27
ENDBRANCH   5  26
BRANCH   4  50
ATOM     50  O   UNL     1       4.988  34.136 -11.356  1.00  0.00    -0.384 OA
ATOM     51  H   UNL     1       4.812  33.810 -10.449  1.00  0.00     0.211 HD
ENDBRANCH   4  50
TORSDOF 15
ENDMDL
MODEL 3
REMARK VINA RESULT:    -8.317      4.696      7.707
REMARK INTER + INTRA:         -15.089
REMARK INTER:                 -12.872
REMARK INTRA:                  -2.218
REMARK UNBOUND:                -1.425
REMARK SMILES COc1ccc([C@@H]2CC(=O)c3c(O)cc(O[C@H]4O[C@@H](CO[C@H]5O[C@@H](C)[C@@H](O)[C@H](O)[C@@H]5O)[C@@H](O)[C@H](O)[C@@H]4O)cc3O2)cc1O
REMARK SMILES IDX 19 1 32 2 34 3 36 4 17 5 18 6 20 7 21 8 22 9 25 10 24 11
REMARK SMILES IDX 26 12 23 13 28 14 30 15 27 16 29 18 31 20 33 22 35 24 16 26
REMARK SMILES IDX 15 27 14 28 38 29 12 30 39 31 11 32 40 33 9 34 7 35 10 36
REMARK SMILES IDX 8 37 13 38 6 40 41 41 5 42 42 43 4 44 3 45 43 46 2 48 1 49
REMARK SMILES IDX 37 50
REMARK H PARENT 27 17 29 19 31 21 33 23 35 25 13 39 43 47 37 51
REMARK Flexibility Score: inf
ROOT
ATOM      1  C   UNL     1       4.607  34.823 -11.442  1.00  0.00     0.180 C 
ATOM      2  C   UNL     1       4.109  34.400  -9.913  1.00  0.00     0.177 C 
ATOM      3  C   UNL     1       4.962  33.276  -9.378  1.00  0.00     0.180 C 
ATOM      4  C   UNL     1       6.377  33.810  -9.169  1.00  0.00     0.214 C 
ATOM      5  C   UNL     1       6.825  34.536 -10.397  1.00  0.00     0.339 C 
ATOM      6  O   UNL     1       5.996  34.455 -11.608  1.00  0.00    -0.332 OA
ENDROOT
BRANCH   1   7
ATOM      7  C   UNL     1       3.747  34.358 -12.669  1.00  0.00     0.198 C 
BRANCH   7   8
ATOM      8  O   UNL     1       4.270  33.090 -13.052  1.00  0.00    -0.347 OA
BRANCH   8   9
ATOM      9  C   UNL     1       4.016  32.479 -14.357  1.00  0.00     0.281 C 
ATOM     10  C   UNL     1       5.232  35.166 -16.686  1.00  0.00     0.041 C 
ATOM     11  C   UNL     1       4.245  33.956 -16.447  1.00  0.00     0.150 C 
ATOM     12  C   UNL     1       5.091  32.782 -16.659  1.00  0.00     0.174 C 
ATOM     13  O   UNL     1       3.629  33.693 -15.183  1.00  0.00    -0.344 OA
ATOM     14  C   UNL     1       6.038  32.527 -15.351  1.00  0.00     0.179 C 
ATOM     15  C   UNL     1       5.301  31.407 -14.693  1.00  0.00     0.202 C 
BRANCH  12  16
ATOM     16  O   UNL     1       5.679  32.613 -17.925  1.00  0.00    -0.388 OA
ATOM     17  H   UNL     1       5.892  33.562 -18.370  1.00  0.00     0.211 HD
ENDBRANCH  12  16
BRANCH  14  18
ATOM     18  O   UNL     1       7.432  32.333 -15.698  1.00  0.00    -0.387 OA
ATOM     19  H   UNL     1       7.921  32.478 -14.740  1.00  0.00     0.211 HD
ENDBRANCH  14  18
BRANCH  15  20
ATOM     20  O   UNL     1       5.613  30.406 -15.766  1.00  0.00    -0.385 OA
ATOM     21  H   UNL     1       6.580  29.947 -15.643  1.00  0.00     0.211 HD
ENDBRANCH  15  20
ENDBRANCH   8   9
ENDBRANCH   7   8
ENDBRANCH   1   7
BRANCH   2  22
ATOM     22  O   UNL     1       2.764  34.145  -9.871  1.00  0.00    -0.387 OA
ATOM     23  H   UNL     1       2.618  33.209  -9.637  1.00  0.00     0.211 HD
ENDBRANCH   2  22
BRANCH   3  24
ATOM     24  O   UNL     1       4.422  32.847  -8.137  1.00  0.00    -0.387 OA
ATOM     25  H   UNL     1       3.401  32.936  -8.278  1.00  0.00     0.211 HD
ENDBRANCH   3  24
BRANCH   5  26
ATOM     26  O   UNL     1       8.047  33.835 -10.780  1.00  0.00    -0.462 OA
BRANCH  26  27
ATOM     27  C   UNL     1       8.425  33.123 -11.948  1.00  0.00     0.130 A 
ATOM     28  C   UNL     1       9.202  33.715 -13.014  1.00  0.00     0.093 A 
ATOM     29  C   UNL     1       7.943  31.832 -12.052  1.00  0.00     0.094 A 
ATOM     30  C   UNL     1      10.062  32.779 -13.694  1.00  0.00     0.133 A 
ATOM     31  C   UNL     1       8.773  30.907 -12.732  1.00  0.00     0.138 A 
ATOM     32  C   UNL     1       9.836  31.398 -13.573  1.00  0.00     0.102 A 
ATOM     33  O   UNL     1       8.464  29.470 -12.673  1.00  0.00    -0.484 OA
ATOM     34  C   UNL     1      10.513  30.326 -14.401  1.00  0.00     0.174 C 
ATOM     35  C   UNL     1       9.054  28.502 -13.496  1.00  0.00     0.211 C 
ATOM     36  O   UNL     1      11.102  30.704 -15.462  1.00  0.00    -0.294 OA
ATOM     37  C   UNL     1      10.460  28.927 -13.924  1.00  0.00     0.131 C 
BRANCH  30  38
ATOM     38  O   UNL     1      11.124  33.254 -14.361  1.00  0.00    -0.507 OA
ATOM     39  H   UNL     1      12.127  33.230 -14.010  1.00  0.00     0.293 HD
ENDBRANCH  30  38
BRANCH  35  40
ATOM     40  C   UNL     1       8.842  27.083 -12.883  1.00  0.00    -0.003 A 
ATOM     41  C   UNL     1       7.589  26.435 -13.250  1.00  0.00     0.057 A 
ATOM     42  C   UNL     1       9.865  26.366 -12.288  1.00  0.00     0.011 A 
ATOM     43  C   UNL     1       7.320  25.176 -12.706  1.00  0.00     0.158 A 
ATOM     44  C   UNL     1       9.600  25.071 -11.863  1.00  0.00     0.051 A 
ATOM     45  C   UNL     1       8.297  24.541 -11.902  1.00  0.00     0.160 A 
BRANCH  43  46
ATOM     46  O   UNL     1       6.058  24.590 -12.955  1.00  0.00    -0.504 OA
ATOM     47  H   UNL     1       5.411  25.062 -13.615  1.00  0.00     0.293 HD
ENDBRANCH  43  46
BRANCH  45  48
ATOM     48  O   UNL     1       7.993  23.231 -11.406  1.00  0.00    -0.493 OA
ATOM     49  C   UNL     1       7.706  22.871 -10.077  1.00  0.00     0.278 C 
ENDBRANCH  45  48
ENDBRANCH  35  40
ENDBRANCH  26  27
ENDBRANCH   5  26
BRANCH   4  50
ATOM     50  O   UNL     1       6.471  34.597  -8.029  1.00  0.00    -0.384 OA
ATOM     51  H   UNL     1       7.270  34.361  -7.513  1.00  0.00     0.211 HD
ENDBRANCH   4  50
TORSDOF 15
ENDMDL
MODEL 4
REMARK VINA RESULT:    -8.304      4.415      7.063
REMARK INTER + INTRA:         -15.068
REMARK INTER:                 -13.228
REMARK INTRA:                  -1.840
REMARK UNBOUND:                -1.425
REMARK SMILES COc1ccc([C@@H]2CC(=O)c3c(O)cc(O[C@H]4O[C@@H](CO[C@H]5O[C@@H](C)[C@@H](O)[C@H](O)[C@@H]5O)[C@@H](O)[C@H](O)[C@@H]4O)cc3O2)cc1O
REMARK SMILES IDX 19 1 32 2 34 3 36 4 17 5 18 6 20 7 21 8 22 9 25 10 24 11
REMARK SMILES IDX 26 12 23 13 28 14 30 15 27 16 29 18 31 20 33 22 35 24 16 26
REMARK SMILES IDX 15 27 14 28 38 29 12 30 39 31 11 32 40 33 9 34 7 35 10 36
REMARK SMILES IDX 8 37 13 38 6 40 41 41 5 42 42 43 4 44 3 45 43 46 2 48 1 49
REMARK SMILES IDX 37 50
REMARK H PARENT 27 17 29 19 31 21 33 23 35 25 13 39 43 47 37 51
REMARK Flexibility Score: inf
ROOT
ATOM      1  C   UNL     1       4.576  36.555 -11.948  1.00  0.00     0.180 C 
ATOM      2  C   UNL     1       3.082  36.035 -11.439  1.00  0.00     0.177 C 
ATOM      3  C   UNL     1       3.030  34.526 -11.427  1.00  0.00     0.180 C 
ATOM      4  C   UNL     1       3.981  34.026 -10.343  1.00  0.00     0.214 C 
ATOM      5  C   UNL     1       5.306  34.702 -10.488  1.00  0.00     0.339 C 
ATOM      6  O   UNL     1       5.554  35.523 -11.683  1.00  0.00    -0.332 OA
ENDROOT
BRANCH   1   7
ATOM      7  C   UNL     1       4.723  37.114 -13.407  1.00  0.00     0.198 C 
BRANCH   7   8
ATOM      8  O   UNL     1       5.316  36.066 -14.166  1.00  0.00    -0.347 OA
BRANCH   8   9
ATOM      9  C   UNL     1       4.817  35.641 -15.474  1.00  0.00     0.281 C 
ATOM     10  C   UNL     1       7.647  33.485 -16.686  1.00  0.00     0.041 C 
ATOM     11  C   UNL     1       6.449  34.445 -17.058  1.00  0.00     0.150 C 
ATOM     12  C   UNL     1       5.273  33.584 -16.926  1.00  0.00     0.174 C 
ATOM     13  O   UNL     1       6.102  35.595 -16.281  1.00  0.00    -0.344 OA
ATOM     14  C   UNL     1       4.889  33.392 -15.349  1.00  0.00     0.179 C 
ATOM     15  C   UNL     1       3.741  34.339 -15.228  1.00  0.00     0.202 C 
BRANCH  12  16
ATOM     16  O   UNL     1       5.189  32.452 -17.755  1.00  0.00    -0.388 OA
ATOM     17  H   UNL     1       4.606  31.686 -17.287  1.00  0.00     0.211 HD
ENDBRANCH  12  16
BRANCH  14  18
ATOM     18  O   UNL     1       4.686  32.003 -14.987  1.00  0.00    -0.387 OA
ATOM     19  H   UNL     1       5.269  31.924 -14.075  1.00  0.00     0.211 HD
ENDBRANCH  14  18
BRANCH  15  20
ATOM     20  O   UNL     1       2.820  33.528 -16.091  1.00  0.00    -0.385 OA
ATOM     21  H   UNL     1       1.787  33.618 -15.801  1.00  0.00     0.211 HD
ENDBRANCH  15  20
ENDBRANCH   8   9
ENDBRANCH   7   8
ENDBRANCH   1   7
BRANCH   2  22
ATOM     22  O   UNL     1       2.071  36.619 -12.156  1.00  0.00    -0.387 OA
ATOM     23  H   UNL     1       2.340  37.517 -12.426  1.00  0.00     0.211 HD
ENDBRANCH   2  22
BRANCH   3  24
ATOM     24  O   UNL     1       1.703  34.120 -11.127  1.00  0.00    -0.387 OA
ATOM     25  H   UNL     1       1.322  33.850 -12.050  1.00  0.00     0.211 HD
ENDBRANCH   3  24
BRANCH   5  26
ATOM     26  O   UNL     1       6.240  33.592 -10.645  1.00  0.00    -0.462 OA
BRANCH  26  27
ATOM     27  C   UNL     1       6.886  33.025 -11.775  1.00  0.00     0.130 A 
ATOM     28  C   UNL     1       7.688  33.801 -12.694  1.00  0.00     0.093 A 
ATOM     29  C   UNL     1       6.645  31.684 -11.999  1.00  0.00     0.094 A 
ATOM     30  C   UNL     1       8.776  33.059 -13.282  1.00  0.00     0.133 A 
ATOM     31  C   UNL     1       7.702  30.949 -12.590  1.00  0.00     0.138 A 
ATOM     32  C   UNL     1       8.770  31.655 -13.251  1.00  0.00     0.102 A 
ATOM     33  O   UNL     1       7.633  29.480 -12.635  1.00  0.00    -0.484 OA
ATOM     34  C   UNL     1       9.722  30.761 -14.017  1.00  0.00     0.174 C 
ATOM     35  C   UNL     1       8.481  28.673 -13.404  1.00  0.00     0.211 C 
ATOM     36  O   UNL     1      10.376  31.295 -14.966  1.00  0.00    -0.294 OA
ATOM     37  C   UNL     1       9.841  29.344 -13.610  1.00  0.00     0.131 C 
BRANCH  30  38
ATOM     38  O   UNL     1       9.823  33.741 -13.770  1.00  0.00    -0.507 OA
ATOM     39  H   UNL     1       9.758  34.639 -14.334  1.00  0.00     0.293 HD
ENDBRANCH  30  38
BRANCH  35  40
ATOM     40  C   UNL     1       8.429  27.202 -12.886  1.00  0.00    -0.003 A 
ATOM     41  C   UNL     1       7.214  26.473 -13.224  1.00  0.00     0.057 A 
ATOM     42  C   UNL     1       9.545  26.540 -12.408  1.00  0.00     0.011 A 
ATOM     43  C   UNL     1       7.087  25.161 -12.760  1.00  0.00     0.158 A 
ATOM     44  C   UNL     1       9.419  25.200 -12.065  1.00  0.00     0.051 A 
ATOM     45  C   UNL     1       8.165  24.561 -12.064  1.00  0.00     0.160 A 
BRANCH  43  46
ATOM     46  O   UNL     1       5.866  24.484 -12.976  1.00  0.00    -0.504 OA
ATOM     47  H   UNL     1       4.991  25.041 -13.038  1.00  0.00     0.293 HD
ENDBRANCH  43  46
BRANCH  45  48
ATOM     48  O   UNL     1       8.005  23.198 -11.650  1.00  0.00    -0.493 OA
ATOM     49  C   UNL     1       7.724  22.732 -10.353  1.00  0.00     0.278 C 
ENDBRANCH  45  48
ENDBRANCH  35  40
ENDBRANCH  26  27
ENDBRANCH   5  26
BRANCH   4  50
ATOM     50  O   UNL     1       3.447  34.184  -9.071  1.00  0.00    -0.384 OA
ATOM     51  H   UNL     1       4.149  34.110  -8.392  1.00  0.00     0.211 HD
ENDBRANCH   4  50
TORSDOF 15
ENDMDL
MODEL 5
REMARK VINA RESULT:    -8.207      1.773     11.133
REMARK INTER + INTRA:         -14.910
REMARK INTER:                 -13.756
REMARK INTRA:                  -1.153
REMARK UNBOUND:                -1.425
REMARK SMILES COc1ccc([C@@H]2CC(=O)c3c(O)cc(O[C@H]4O[C@@H](CO[C@H]5O[C@@H](C)[C@@H](O)[C@H](O)[C@@H]5O)[C@@H](O)[C@H](O)[C@@H]4O)cc3O2)cc1O
REMARK SMILES IDX 19 1 32 2 34 3 36 4 17 5 18 6 20 7 21 8 22 9 25 10 24 11
REMARK SMILES IDX 26 12 23 13 28 14 30 15 27 16 29 18 31 20 33 22 35 24 16 26
REMARK SMILES IDX 15 27 14 28 38 29 12 30 39 31 11 32 40 33 9 34 7 35 10 36
REMARK SMILES IDX 8 37 13 38 6 40 41 41 5 42 42 43 4 44 3 45 43 46 2 48 1 49
REMARK SMILES IDX 37 50
REMARK H PARENT 27 17 29 19 31 21 33 23 35 25 13 39 43 47 37 51
REMARK Flexibility Score: inf
ROOT
ATOM      1  C   UNL     1       4.955  32.808 -12.577  1.00  0.00     0.180 C 
ATOM      2  C   UNL     1       4.287  33.146 -11.093  1.00  0.00     0.177 C 
ATOM      3  C   UNL     1       3.965  34.617 -10.987  1.00  0.00     0.180 C 
ATOM      4  C   UNL     1       2.843  34.931 -11.974  1.00  0.00     0.214 C 
ATOM      5  C   UNL     1       3.181  34.360 -13.314  1.00  0.00     0.339 C 
ATOM      6  O   UNL     1       4.528  33.810 -13.529  1.00  0.00    -0.332 OA
ENDROOT
BRANCH   1   7
ATOM      7  C   UNL     1       6.502  32.564 -12.668  1.00  0.00     0.198 C 
BRANCH   7   8
ATOM      8  O   UNL     1       6.659  31.194 -13.023  1.00  0.00    -0.347 OA
BRANCH   8   9
ATOM      9  C   UNL     1       7.328  30.754 -14.248  1.00  0.00     0.281 C 
ATOM     10  C   UNL     1      10.137  28.681 -12.856  1.00  0.00     0.041 C 
ATOM     11  C   UNL     1       9.616  29.605 -14.026  1.00  0.00     0.150 C 
ATOM     12  C   UNL     1       8.762  28.711 -14.809  1.00  0.00     0.174 C 
ATOM     13  O   UNL     1       8.780  30.745 -13.805  1.00  0.00    -0.344 OA
ATOM     14  C   UNL     1       7.323  28.508 -14.060  1.00  0.00     0.179 C 
ATOM     15  C   UNL     1       6.462  29.421 -14.869  1.00  0.00     0.202 C 
BRANCH  12  16
ATOM     16  O   UNL     1       9.354  27.575 -15.389  1.00  0.00    -0.388 OA
ATOM     17  H   UNL     1       9.723  26.915 -14.632  1.00  0.00     0.211 HD
ENDBRANCH  12  16
BRANCH  14  18
ATOM     18  O   UNL     1       6.942  27.114 -13.945  1.00  0.00    -0.387 OA
ATOM     19  H   UNL     1       7.611  26.642 -14.656  1.00  0.00     0.211 HD
ENDBRANCH  14  18
BRANCH  15  20
ATOM     20  O   UNL     1       6.526  28.583 -16.112  1.00  0.00    -0.385 OA
ATOM     21  H   UNL     1       6.019  27.638 -16.006  1.00  0.00     0.211 HD
ENDBRANCH  15  20
ENDBRANCH   8   9
ENDBRANCH   7   8
ENDBRANCH   1   7
BRANCH   2  22
ATOM     22  O   UNL     1       5.062  32.672 -10.068  1.00  0.00    -0.387 OA
ATOM     23  H   UNL     1       5.911  32.351 -10.425  1.00  0.00     0.211 HD
ENDBRANCH   2  22
BRANCH   3  24
ATOM     24  O   UNL     1       3.531  34.893  -9.663  1.00  0.00    -0.387 OA
ATOM     25  H   UNL     1       3.086  34.006  -9.369  1.00  0.00     0.211 HD
ENDBRANCH   3  24
BRANCH   5  26
ATOM     26  O   UNL     1       3.149  35.522 -14.197  1.00  0.00    -0.462 OA
BRANCH  26  27
ATOM     27  C   UNL     1       2.676  35.715 -15.521  1.00  0.00     0.130 A 
ATOM     28  C   UNL     1       3.555  35.936 -16.647  1.00  0.00     0.093 A 
ATOM     29  C   UNL     1       1.303  35.756 -15.671  1.00  0.00     0.094 A 
ATOM     30  C   UNL     1       3.046  35.414 -17.891  1.00  0.00     0.133 A 
ATOM     31  C   UNL     1       0.793  35.259 -16.896  1.00  0.00     0.138 A 
ATOM     32  C   UNL     1       1.682  35.103 -18.020  1.00  0.00     0.102 A 
ATOM     33  O   UNL     1      -0.652  35.030 -17.045  1.00  0.00    -0.484 OA
ATOM     34  C   UNL     1       0.983  34.766 -19.319  1.00  0.00     0.174 C 
ATOM     35  C   UNL     1      -1.291  34.786 -18.268  1.00  0.00     0.211 C 
ATOM     36  O   UNL     1       1.591  35.061 -20.395  1.00  0.00    -0.294 OA
ATOM     37  C   UNL     1      -0.341  34.109 -19.258  1.00  0.00     0.131 C 
BRANCH  30  38
ATOM     38  O   UNL     1       3.917  35.151 -18.877  1.00  0.00    -0.507 OA
ATOM     39  H   UNL     1       4.895  34.761 -18.740  1.00  0.00     0.293 HD
ENDBRANCH  30  38
BRANCH  35  40
ATOM     40  C   UNL     1      -2.699  34.162 -18.017  1.00  0.00    -0.003 A 
ATOM     41  C   UNL     1      -2.869  32.804 -18.516  1.00  0.00     0.057 A 
ATOM     42  C   UNL     1      -3.615  34.718 -17.142  1.00  0.00     0.011 A 
ATOM     43  C   UNL     1      -4.118  32.199 -18.355  1.00  0.00     0.158 A 
ATOM     44  C   UNL     1      -4.801  34.033 -16.909  1.00  0.00     0.051 A 
ATOM     45  C   UNL     1      -5.135  32.880 -17.643  1.00  0.00     0.160 A 
BRANCH  43  46
ATOM     46  O   UNL     1      -4.334  30.931 -18.940  1.00  0.00    -0.504 OA
ATOM     47  H   UNL     1      -5.203  30.776 -19.488  1.00  0.00     0.293 HD
ENDBRANCH  43  46
BRANCH  45  48
ATOM     48  O   UNL     1      -6.384  32.199 -17.463  1.00  0.00    -0.493 OA
ATOM     49  C   UNL     1      -7.195  32.202 -16.314  1.00  0.00     0.278 C 
ENDBRANCH  45  48
ENDBRANCH  35  40
ENDBRANCH  26  27
ENDBRANCH   5  26
BRANCH   4  50
ATOM     50  O   UNL     1       1.608  34.495 -11.513  1.00  0.00    -0.384 OA
ATOM     51  H   UNL     1       1.210  33.861 -12.145  1.00  0.00     0.211 HD
ENDBRANCH   4  50
TORSDOF 15
ENDMDL
MODEL 6
REMARK VINA RESULT:    -8.037      2.710     10.170
REMARK INTER + INTRA:         -14.630
REMARK INTER:                 -13.136
REMARK INTRA:                  -1.494
REMARK UNBOUND:                -1.425
REMARK SMILES COc1ccc([C@@H]2CC(=O)c3c(O)cc(O[C@H]4O[C@@H](CO[C@H]5O[C@@H](C)[C@@H](O)[C@H](O)[C@@H]5O)[C@@H](O)[C@H](O)[C@@H]4O)cc3O2)cc1O
REMARK SMILES IDX 19 1 32 2 34 3 36 4 17 5 18 6 20 7 21 8 22 9 25 10 24 11
REMARK SMILES IDX 26 12 23 13 28 14 30 15 27 16 29 18 31 20 33 22 35 24 16 26
REMARK SMILES IDX 15 27 14 28 38 29 12 30 39 31 11 32 40 33 9 34 7 35 10 36
REMARK SMILES IDX 8 37 13 38 6 40 41 41 5 42 42 43 4 44 3 45 43 46 2 48 1 49
REMARK SMILES IDX 37 50
REMARK H PARENT 27 17 29 19 31 21 33 23 35 25 13 39 43 47 37 51
REMARK Flexibility Score: inf
ROOT
ATOM      1  C   UNL     1       6.488  33.623 -13.097  1.00  0.00     0.180 C 
ATOM      2  C   UNL     1       6.224  32.113 -13.740  1.00  0.00     0.177 C 
ATOM      3  C   UNL     1       4.791  31.984 -14.199  1.00  0.00     0.180 C 
ATOM      4  C   UNL     1       4.584  32.927 -15.381  1.00  0.00     0.214 C 
ATOM      5  C   UNL     1       5.113  34.283 -15.039  1.00  0.00     0.339 C 
ATOM      6  O   UNL     1       5.528  34.551 -13.654  1.00  0.00    -0.332 OA
ENDROOT
BRANCH   1   7
ATOM      7  C   UNL     1       6.581  33.772 -11.538  1.00  0.00     0.198 C 
BRANCH   7   8
ATOM      8  O   UNL     1       5.456  34.556 -11.155  1.00  0.00    -0.347 OA
BRANCH   8   9
ATOM      9  C   UNL     1       4.256  33.990 -10.536  1.00  0.00     0.281 C 
ATOM     10  C   UNL     1       3.961  36.087  -7.432  1.00  0.00     0.041 C 
ATOM     11  C   UNL     1       3.691  34.697  -8.132  1.00  0.00     0.150 C 
ATOM     12  C   UNL     1       2.501  34.953  -8.944  1.00  0.00     0.174 C 
ATOM     13  O   UNL     1       4.602  34.104  -9.062  1.00  0.00    -0.344 OA
ATOM     14  C   UNL     1       2.908  35.779 -10.294  1.00  0.00     0.179 C 
ATOM     15  C   UNL     1       2.896  34.679 -11.303  1.00  0.00     0.202 C 
BRANCH  12  16
ATOM     16  O   UNL     1       1.322  35.337  -8.281  1.00  0.00    -0.388 OA
ATOM     17  H   UNL     1       0.966  36.273  -8.659  1.00  0.00     0.211 HD
ENDBRANCH  12  16
BRANCH  14  18
ATOM     18  O   UNL     1       2.065  36.937 -10.518  1.00  0.00    -0.387 OA
ATOM     19  H   UNL     1       1.214  36.719  -9.881  1.00  0.00     0.211 HD
ENDBRANCH  14  18
BRANCH  15  20
ATOM     20  O   UNL     1       1.411  34.473 -11.245  1.00  0.00    -0.385 OA
ATOM     21  H   UNL     1       1.017  34.548 -10.244  1.00  0.00     0.211 HD
ENDBRANCH  15  20
ENDBRANCH   8   9
ENDBRANCH   7   8
ENDBRANCH   1   7
BRANCH   2  22
ATOM     22  O   UNL     1       6.624  31.121 -12.885  1.00  0.00    -0.387 OA
ATOM     23  H   UNL     1       6.803  30.307 -13.392  1.00  0.00     0.211 HD
ENDBRANCH   2  22
BRANCH   3  24
ATOM     24  O   UNL     1       4.565  30.643 -14.609  1.00  0.00    -0.387 OA
ATOM     25  H   UNL     1       5.521  30.265 -14.723  1.00  0.00     0.211 HD
ENDBRANCH   3  24
BRANCH   5  26
ATOM     26  O   UNL     1       3.956  35.156 -15.216  1.00  0.00    -0.462 OA
BRANCH  26  27
ATOM     27  C   UNL     1       3.173  35.503 -16.348  1.00  0.00     0.130 A 
ATOM     28  C   UNL     1       3.748  35.971 -17.588  1.00  0.00     0.093 A 
ATOM     29  C   UNL     1       1.804  35.441 -16.176  1.00  0.00     0.094 A 
ATOM     30  C   UNL     1       2.988  35.599 -18.756  1.00  0.00     0.133 A 
ATOM     31  C   UNL     1       1.046  35.091 -17.321  1.00  0.00     0.138 A 
ATOM     32  C   UNL     1       1.651  35.188 -18.626  1.00  0.00     0.102 A 
ATOM     33  O   UNL     1      -0.380  34.757 -17.178  1.00  0.00    -0.484 OA
ATOM     34  C   UNL     1       0.683  34.989 -19.772  1.00  0.00     0.174 C 
ATOM     35  C   UNL     1      -1.275  34.643 -18.249  1.00  0.00     0.211 C 
ATOM     36  O   UNL     1       1.003  35.498 -20.892  1.00  0.00    -0.294 OA
ATOM     37  C   UNL     1      -0.552  34.213 -19.527  1.00  0.00     0.131 C 
BRANCH  30  38
ATOM     38  O   UNL     1       3.613  35.569 -19.942  1.00  0.00    -0.507 OA
ATOM     39  H   UNL     1       4.332  36.278 -20.272  1.00  0.00     0.293 HD
ENDBRANCH  30  38
BRANCH  35  40
ATOM     40  C   UNL     1      -2.549  33.863 -17.796  1.00  0.00    -0.003 A 
ATOM     41  C   UNL     1      -3.806  34.378 -18.323  1.00  0.00     0.057 A 
ATOM     42  C   UNL     1      -2.487  32.619 -17.195  1.00  0.00     0.011 A 
ATOM     43  C   UNL     1      -4.989  33.747 -17.929  1.00  0.00     0.158 A 
ATOM     44  C   UNL     1      -3.679  31.960 -16.921  1.00  0.00     0.051 A 
ATOM     45  C   UNL     1      -4.923  32.591 -17.114  1.00  0.00     0.160 A 
BRANCH  43  46
ATOM     46  O   UNL     1      -6.220  34.309 -18.333  1.00  0.00    -0.504 OA
ATOM     47  H   UNL     1      -6.255  35.321 -18.561  1.00  0.00     0.293 HD
ENDBRANCH  43  46
BRANCH  45  48
ATOM     48  O   UNL     1      -6.160  31.951 -16.775  1.00  0.00    -0.493 OA
ATOM     49  C   UNL     1      -7.100  32.374 -15.818  1.00  0.00     0.278 C 
ENDBRANCH  45  48
ENDBRANCH  35  40
ENDBRANCH  26  27
ENDBRANCH   5  26
BRANCH   4  50
ATOM     50  O   UNL     1       5.140  32.426 -16.550  1.00  0.00    -0.384 OA
ATOM     51  H   UNL     1       5.193  31.448 -16.513  1.00  0.00     0.211 HD
ENDBRANCH   4  50
TORSDOF 15
ENDMDL
MODEL 7
REMARK VINA RESULT:    -7.997      1.924     10.863
REMARK INTER + INTRA:         -14.564
REMARK INTER:                 -13.147
REMARK INTRA:                  -1.417
REMARK UNBOUND:                -1.425
REMARK SMILES COc1ccc([C@@H]2CC(=O)c3c(O)cc(O[C@H]4O[C@@H](CO[C@H]5O[C@@H](C)[C@@H](O)[C@H](O)[C@@H]5O)[C@@H](O)[C@H](O)[C@@H]4O)cc3O2)cc1O
REMARK SMILES IDX 19 1 32 2 34 3 36 4 17 5 18 6 20 7 21 8 22 9 25 10 24 11
REMARK SMILES IDX 26 12 23 13 28 14 30 15 27 16 29 18 31 20 33 22 35 24 16 26
REMARK SMILES IDX 15 27 14 28 38 29 12 30 39 31 11 32 40 33 9 34 7 35 10 36
REMARK SMILES IDX 8 37 13 38 6 40 41 41 5 42 42 43 4 44 3 45 43 46 2 48 1 49
REMARK SMILES IDX 37 50
REMARK H PARENT 27 17 29 19 31 21 33 23 35 25 13 39 43 47 37 51
REMARK Flexibility Score: inf
ROOT
ATOM      1  C   UNL     1       6.607  33.911 -13.844  1.00  0.00     0.180 C 
ATOM      2  C   UNL     1       7.922  34.375 -14.749  1.00  0.00     0.177 C 
ATOM      3  C   UNL     1       7.674  34.100 -16.213  1.00  0.00     0.180 C 
ATOM      4  C   UNL     1       6.557  35.025 -16.688  1.00  0.00     0.214 C 
ATOM      5  C   UNL     1       5.408  34.955 -15.734  1.00  0.00     0.339 C 
ATOM      6  O   UNL     1       5.426  33.930 -14.679  1.00  0.00    -0.332 OA
ENDROOT
BRANCH   1   7
ATOM      7  C   UNL     1       6.694  32.582 -13.016  1.00  0.00     0.198 C 
BRANCH   7   8
ATOM      8  O   UNL     1       6.231  31.553 -13.884  1.00  0.00    -0.347 OA
BRANCH   8   9
ATOM      9  C   UNL     1       7.065  30.940 -14.919  1.00  0.00     0.281 C 
ATOM     10  C   UNL     1       9.587  29.086 -12.839  1.00  0.00     0.041 C 
ATOM     11  C   UNL     1       9.267  29.833 -14.194  1.00  0.00     0.150 C 
ATOM     12  C   UNL     1       8.519  28.836 -14.960  1.00  0.00     0.174 C 
ATOM     13  O   UNL     1       8.434  30.994 -14.265  1.00  0.00    -0.344 OA
ATOM     14  C   UNL     1       6.981  28.745 -14.416  1.00  0.00     0.179 C 
ATOM     15  C   UNL     1       6.271  29.532 -15.467  1.00  0.00     0.202 C 
BRANCH  12  16
ATOM     16  O   UNL     1       9.165  27.628 -15.277  1.00  0.00    -0.388 OA
ATOM     17  H   UNL     1       9.041  26.917 -14.488  1.00  0.00     0.211 HD
ENDBRANCH  12  16
BRANCH  14  18
ATOM     18  O   UNL     1       6.556  27.382 -14.162  1.00  0.00    -0.387 OA
ATOM     19  H   UNL     1       5.981  27.496 -13.249  1.00  0.00     0.211 HD
ENDBRANCH  14  18
BRANCH  15  20
ATOM     20  O   UNL     1       6.500  28.523 -16.554  1.00  0.00    -0.385 OA
ATOM     21  H   UNL     1       6.133  27.543 -16.299  1.00  0.00     0.211 HD
ENDBRANCH  15  20
ENDBRANCH   8   9
ENDBRANCH   7   8
ENDBRANCH   1   7
BRANCH   2  22
ATOM     22  O   UNL     1       9.084  33.829 -14.271  1.00  0.00    -0.387 OA
ATOM     23  H   UNL     1       9.840  34.378 -14.550  1.00  0.00     0.211 HD
ENDBRANCH   2  22
BRANCH   3  24
ATOM     24  O   UNL     1       8.865  34.374 -16.935  1.00  0.00    -0.387 OA
ATOM     25  H   UNL     1       9.411  33.501 -16.834  1.00  0.00     0.211 HD
ENDBRANCH   3  24
BRANCH   5  26
ATOM     26  O   UNL     1       4.289  34.547 -16.578  1.00  0.00    -0.462 OA
BRANCH  26  27
ATOM     27  C   UNL     1       3.288  35.274 -17.272  1.00  0.00     0.130 A 
ATOM     28  C   UNL     1       3.585  36.192 -18.348  1.00  0.00     0.093 A 
ATOM     29  C   UNL     1       1.995  35.114 -16.811  1.00  0.00     0.094 A 
ATOM     30  C   UNL     1       2.550  36.268 -19.349  1.00  0.00     0.133 A 
ATOM     31  C   UNL     1       0.969  35.201 -17.784  1.00  0.00     0.138 A 
ATOM     32  C   UNL     1       1.257  35.801 -19.062  1.00  0.00     0.102 A 
ATOM     33  O   UNL     1      -0.402  34.798 -17.435  1.00  0.00    -0.484 OA
ATOM     34  C   UNL     1       0.037  36.023 -19.930  1.00  0.00     0.174 C 
ATOM     35  C   UNL     1      -1.529  35.073 -18.221  1.00  0.00     0.211 C 
ATOM     36  O   UNL     1       0.119  36.926 -20.820  1.00  0.00    -0.294 OA
ATOM     37  C   UNL     1      -1.156  35.178 -19.700  1.00  0.00     0.131 C 
BRANCH  30  38
ATOM     38  O   UNL     1       2.877  36.705 -20.574  1.00  0.00    -0.507 OA
ATOM     39  H   UNL     1       3.842  36.632 -21.012  1.00  0.00     0.293 HD
ENDBRANCH  30  38
BRANCH  35  40
ATOM     40  C   UNL     1      -2.710  34.145 -17.798  1.00  0.00    -0.003 A 
ATOM     41  C   UNL     1      -4.016  34.538 -18.311  1.00  0.00     0.057 A 
ATOM     42  C   UNL     1      -2.513  32.895 -17.238  1.00  0.00     0.011 A 
ATOM     43  C   UNL     1      -5.123  33.769 -17.941  1.00  0.00     0.158 A 
ATOM     44  C   UNL     1      -3.626  32.102 -16.990  1.00  0.00     0.051 A 
ATOM     45  C   UNL     1      -4.931  32.600 -17.166  1.00  0.00     0.160 A 
BRANCH  43  46
ATOM     46  O   UNL     1      -6.409  34.207 -18.331  1.00  0.00    -0.504 OA
ATOM     47  H   UNL     1      -7.162  33.501 -18.448  1.00  0.00     0.293 HD
ENDBRANCH  43  46
BRANCH  45  48
ATOM     48  O   UNL     1      -6.092  31.819 -16.852  1.00  0.00    -0.493 OA
ATOM     49  C   UNL     1      -7.106  32.137 -15.930  1.00  0.00     0.278 C 
ENDBRANCH  45  48
ENDBRANCH  35  40
ENDBRANCH  26  27
ENDBRANCH   5  26
BRANCH   4  50
ATOM     50  O   UNL     1       7.005  36.326 -16.875  1.00  0.00    -0.384 OA
ATOM     51  H   UNL     1       7.985  36.353 -16.892  1.00  0.00     0.211 HD
ENDBRANCH   4  50
TORSDOF 15
ENDMDL
MODEL 8
REMARK VINA RESULT:    -7.930      4.158      7.370
REMARK INTER + INTRA:         -14.454
REMARK INTER:                 -12.416
REMARK INTRA:                  -2.038
REMARK UNBOUND:                -1.425
REMARK SMILES COc1ccc([C@@H]2CC(=O)c3c(O)cc(O[C@H]4O[C@@H](CO[C@H]5O[C@@H](C)[C@@H](O)[C@H](O)[C@@H]5O)[C@@H](O)[C@H](O)[C@@H]4O)cc3O2)cc1O
REMARK SMILES IDX 19 1 32 2 34 3 36 4 17 5 18 6 20 7 21 8 22 9 25 10 24 11
REMARK SMILES IDX 26 12 23 13 28 14 30 15 27 16 29 18 31 20 33 22 35 24 16 26
REMARK SMILES IDX 15 27 14 28 38 29 12 30 39 31 11 32 40 33 9 34 7 35 10 36
REMARK SMILES IDX 8 37 13 38 6 40 41 41 5 42 42 43 4 44 3 45 43 46 2 48 1 49
REMARK SMILES IDX 37 50
REMARK H PARENT 27 17 29 19 31 21 33 23 35 25 13 39 43 47 37 51
REMARK Flexibility Score: inf
ROOT
ATOM      1  C   UNL     1       3.640  36.116  -9.674  1.00  0.00     0.180 C 
ATOM      2  C   UNL     1       3.108  35.337  -8.305  1.00  0.00     0.177 C 
ATOM      3  C   UNL     1       3.772  33.987  -8.180  1.00  0.00     0.180 C 
ATOM      4  C   UNL     1       5.259  34.211  -7.921  1.00  0.00     0.214 C 
ATOM      5  C   UNL     1       5.799  35.192  -8.912  1.00  0.00     0.339 C 
ATOM      6  O   UNL     1       4.944  35.605 -10.034  1.00  0.00    -0.332 OA
ENDROOT
BRANCH   1   7
ATOM      7  C   UNL     1       2.691  36.177 -10.922  1.00  0.00     0.198 C 
BRANCH   7   8
ATOM      8  O   UNL     1       3.417  35.581 -11.992  1.00  0.00    -0.347 OA
BRANCH   8   9
ATOM      9  C   UNL     1       2.805  34.688 -12.977  1.00  0.00     0.281 C 
ATOM     10  C   UNL     1       3.405  36.582 -16.168  1.00  0.00     0.041 C 
ATOM     11  C   UNL     1       2.492  35.568 -15.371  1.00  0.00     0.150 C 
ATOM     12  C   UNL     1       3.224  34.304 -15.472  1.00  0.00     0.174 C 
ATOM     13  O   UNL     1       2.236  35.687 -13.969  1.00  0.00    -0.344 OA
ATOM     14  C   UNL     1       4.483  34.298 -14.431  1.00  0.00     0.179 C 
ATOM     15  C   UNL     1       3.928  33.452 -13.333  1.00  0.00     0.202 C 
BRANCH  12  16
ATOM     16  O   UNL     1       3.442  33.770 -16.754  1.00  0.00    -0.388 OA
ATOM     17  H   UNL     1       2.772  32.957 -16.941  1.00  0.00     0.211 HD
ENDBRANCH  12  16
BRANCH  14  18
ATOM     18  O   UNL     1       5.727  33.895 -15.057  1.00  0.00    -0.387 OA
ATOM     19  H   UNL     1       5.755  34.540 -15.929  1.00  0.00     0.211 HD
ENDBRANCH  14  18
BRANCH  15  20
ATOM     20  O   UNL     1       3.915  32.190 -14.144  1.00  0.00    -0.385 OA
ATOM     21  H   UNL     1       4.861  31.675 -14.132  1.00  0.00     0.211 HD
ENDBRANCH  15  20
ENDBRANCH   8   9
ENDBRANCH   7   8
ENDBRANCH   1   7
BRANCH   2  22
ATOM     22  O   UNL     1       1.740  35.290  -8.247  1.00  0.00    -0.387 OA
ATOM     23  H   UNL     1       1.423  34.492  -8.708  1.00  0.00     0.211 HD
ENDBRANCH   2  22
BRANCH   3  24
ATOM     24  O   UNL     1       3.192  33.295  -7.084  1.00  0.00    -0.387 OA
ATOM     25  H   UNL     1       4.006  32.853  -6.624  1.00  0.00     0.211 HD
ENDBRANCH   3  24
BRANCH   5  26
ATOM     26  O   UNL     1       6.878  34.459  -9.565  1.00  0.00    -0.462 OA
BRANCH  26  27
ATOM     27  C   UNL     1       7.094  34.049 -10.907  1.00  0.00     0.130 A 
ATOM     28  C   UNL     1       7.492  34.962 -11.954  1.00  0.00     0.093 A 
ATOM     29  C   UNL     1       6.827  32.722 -11.183  1.00  0.00     0.094 A 
ATOM     30  C   UNL     1       8.319  34.356 -12.968  1.00  0.00     0.133 A 
ATOM     31  C   UNL     1       7.624  32.121 -12.188  1.00  0.00     0.138 A 
ATOM     32  C   UNL     1       8.365  32.958 -13.097  1.00  0.00     0.102 A 
ATOM     33  O   UNL     1       7.586  30.662 -12.373  1.00  0.00    -0.484 OA
ATOM     34  C   UNL     1       9.006  32.209 -14.246  1.00  0.00     0.174 C 
ATOM     35  C   UNL     1       8.127  29.992 -13.479  1.00  0.00     0.211 C 
ATOM     36  O   UNL     1       9.262  32.875 -15.297  1.00  0.00    -0.294 OA
ATOM     37  C   UNL     1       9.303  30.770 -14.072  1.00  0.00     0.131 C 
BRANCH  30  38
ATOM     38  O   UNL     1       9.102  35.151 -13.713  1.00  0.00    -0.507 OA
ATOM     39  H   UNL     1       8.943  36.189 -13.872  1.00  0.00     0.293 HD
ENDBRANCH  30  38
BRANCH  35  40
ATOM     40  C   UNL     1       8.306  28.478 -13.147  1.00  0.00    -0.003 A 
ATOM     41  C   UNL     1       7.139  27.647 -13.414  1.00  0.00     0.057 A 
ATOM     42  C   UNL     1       9.543  27.909 -12.903  1.00  0.00     0.011 A 
ATOM     43  C   UNL     1       7.221  26.286 -13.106  1.00  0.00     0.158 A 
ATOM     44  C   UNL     1       9.611  26.534 -12.718  1.00  0.00     0.051 A 
ATOM     45  C   UNL     1       8.444  25.750 -12.636  1.00  0.00     0.160 A 
BRANCH  43  46
ATOM     46  O   UNL     1       6.060  25.492 -13.246  1.00  0.00    -0.504 OA
ATOM     47  H   UNL     1       5.175  25.823 -12.815  1.00  0.00     0.293 HD
ENDBRANCH  43  46
BRANCH  45  48
ATOM     48  O   UNL     1       8.492  24.341 -12.379  1.00  0.00    -0.493 OA
ATOM     49  C   UNL     1       8.283  23.695 -11.147  1.00  0.00     0.278 C 
ENDBRANCH  45  48
ENDBRANCH  35  40
ENDBRANCH  26  27
ENDBRANCH   5  26
BRANCH   4  50
ATOM     50  O   UNL     1       5.506  34.597  -6.610  1.00  0.00    -0.384 OA
ATOM     51  H   UNL     1       6.459  34.784  -6.481  1.00  0.00     0.211 HD
ENDBRANCH   4  50
TORSDOF 15
ENDMDL
MODEL 9
REMARK VINA RESULT:    -7.926      1.497      2.177
REMARK INTER + INTRA:         -14.448
REMARK INTER:                 -13.357
REMARK INTRA:                  -1.091
REMARK UNBOUND:                -1.425
REMARK SMILES COc1ccc([C@@H]2CC(=O)c3c(O)cc(O[C@H]4O[C@@H](CO[C@H]5O[C@@H](C)[C@@H](O)[C@H](O)[C@@H]5O)[C@@H](O)[C@H](O)[C@@H]4O)cc3O2)cc1O
REMARK SMILES IDX 19 1 32 2 34 3 36 4 17 5 18 6 20 7 21 8 22 9 25 10 24 11
REMARK SMILES IDX 26 12 23 13 28 14 30 15 27 16 29 18 31 20 33 22 35 24 16 26
REMARK SMILES IDX 15 27 14 28 38 29 12 30 39 31 11 32 40 33 9 34 7 35 10 36
REMARK SMILES IDX 8 37 13 38 6 40 41 41 5 42 42 43 4 44 3 45 43 46 2 48 1 49
REMARK SMILES IDX 37 50
REMARK H PARENT 27 17 29 19 31 21 33 23 35 25 13 39 43 47 37 51
REMARK Flexibility Score: inf
ROOT
ATOM      1  C   UNL     1       0.120  34.835 -18.400  1.00  0.00     0.180 C 
ATOM      2  C   UNL     1       1.116  34.598 -19.709  1.00  0.00     0.177 C 
ATOM      3  C   UNL     1       2.327  35.495 -19.614  1.00  0.00     0.180 C 
ATOM      4  C   UNL     1       3.167  35.034 -18.425  1.00  0.00     0.214 C 
ATOM      5  C   UNL     1       2.291  34.873 -17.224  1.00  0.00     0.339 C 
ATOM      6  O   UNL     1       0.901  35.346 -17.295  1.00  0.00    -0.332 OA
ENDROOT
BRANCH   1   7
ATOM      7  C   UNL     1      -1.197  35.666 -18.596  1.00  0.00     0.198 C 
BRANCH   7   8
ATOM      8  O   UNL     1      -2.236  34.892 -18.006  1.00  0.00    -0.347 OA
BRANCH   8   9
ATOM      9  C   UNL     1      -3.527  34.656 -18.655  1.00  0.00     0.281 C 
ATOM     10  C   UNL     1      -4.636  31.486 -16.968  1.00  0.00     0.041 C 
ATOM     11  C   UNL     1      -4.678  32.393 -18.261  1.00  0.00     0.150 C 
ATOM     12  C   UNL     1      -5.648  33.433 -17.913  1.00  0.00     0.174 C 
ATOM     13  O   UNL     1      -3.549  33.139 -18.725  1.00  0.00    -0.344 OA
ATOM     14  C   UNL     1      -4.961  34.534 -16.921  1.00  0.00     0.179 C 
ATOM     15  C   UNL     1      -4.689  35.641 -17.885  1.00  0.00     0.202 C 
BRANCH  12  16
ATOM     16  O   UNL     1      -6.965  33.035 -17.625  1.00  0.00    -0.388 OA
ATOM     17  H   UNL     1      -7.611  33.246 -18.451  1.00  0.00     0.211 HD
ENDBRANCH  12  16
BRANCH  14  18
ATOM     18  O   UNL     1      -5.768  34.815 -15.750  1.00  0.00    -0.387 OA
ATOM     19  H   UNL     1      -6.251  33.858 -15.578  1.00  0.00     0.211 HD
ENDBRANCH  14  18
BRANCH  15  20
ATOM     20  O   UNL     1      -6.136  35.970 -18.107  1.00  0.00    -0.385 OA
ATOM     21  H   UNL     1      -6.592  36.449 -17.256  1.00  0.00     0.211 HD
ENDBRANCH  15  20
ENDBRANCH   8   9
ENDBRANCH   7   8
ENDBRANCH   1   7
BRANCH   2  22
ATOM     22  O   UNL     1       0.434  34.711 -20.892  1.00  0.00    -0.387 OA
ATOM     23  H   UNL     1       1.009  35.129 -21.560  1.00  0.00     0.211 HD
ENDBRANCH   2  22
BRANCH   3  24
ATOM     24  O   UNL     1       3.080  35.370 -20.811  1.00  0.00    -0.387 OA
ATOM     25  H   UNL     1       3.225  34.350 -20.896  1.00  0.00     0.211 HD
ENDBRANCH   3  24
BRANCH   5  26
ATOM     26  O   UNL     1       2.897  35.761 -16.238  1.00  0.00    -0.462 OA
BRANCH  26  27
ATOM     27  C   UNL     1       3.415  35.546 -14.934  1.00  0.00     0.130 A 
ATOM     28  C   UNL     1       2.797  36.085 -13.743  1.00  0.00     0.093 A 
ATOM     29  C   UNL     1       4.602  34.844 -14.863  1.00  0.00     0.094 A 
ATOM     30  C   UNL     1       2.964  35.255 -12.576  1.00  0.00     0.133 A 
ATOM     31  C   UNL     1       4.783  34.036 -13.714  1.00  0.00     0.138 A 
ATOM     32  C   UNL     1       3.957  34.262 -12.554  1.00  0.00     0.102 A 
ATOM     33  O   UNL     1       5.890  33.068 -13.670  1.00  0.00    -0.484 OA
ATOM     34  C   UNL     1       4.385  33.482 -11.329  1.00  0.00     0.174 C 
ATOM     35  C   UNL     1       6.314  32.406 -12.510  1.00  0.00     0.211 C 
ATOM     36  O   UNL     1       4.036  33.947 -10.199  1.00  0.00    -0.294 OA
ATOM     37  C   UNL     1       5.160  32.237 -11.520  1.00  0.00     0.131 C 
BRANCH  30  38
ATOM     38  O   UNL     1       2.096  35.394 -11.563  1.00  0.00    -0.507 OA
ATOM     39  H   UNL     1       1.066  35.632 -11.670  1.00  0.00     0.293 HD
ENDBRANCH  30  38
BRANCH  35  40
ATOM     40  C   UNL     1       7.176  31.163 -12.893  1.00  0.00    -0.003 A 
ATOM     41  C   UNL     1       6.545  30.241 -13.829  1.00  0.00     0.057 A 
ATOM     42  C   UNL     1       8.529  31.080 -12.616  1.00  0.00     0.011 A 
ATOM     43  C   UNL     1       7.250  29.088 -14.187  1.00  0.00     0.158 A 
ATOM     44  C   UNL     1       9.231  29.978 -13.087  1.00  0.00     0.051 A 
ATOM     45  C   UNL     1       8.569  28.901 -13.707  1.00  0.00     0.160 A 
BRANCH  43  46
ATOM     46  O   UNL     1       6.603  28.127 -14.996  1.00  0.00    -0.504 OA
ATOM     47  H   UNL     1       7.150  27.654 -15.741  1.00  0.00     0.293 HD
ENDBRANCH  43  46
BRANCH  45  48
ATOM     48  O   UNL     1       9.268  27.726 -14.140  1.00  0.00    -0.493 OA
ATOM     49  C   UNL     1       9.374  26.501 -13.457  1.00  0.00     0.278 C 
ENDBRANCH  45  48
ENDBRANCH  35  40
ENDBRANCH  26  27
ENDBRANCH   5  26
BRANCH   4  50
ATOM     50  O   UNL     1       3.883  33.879 -18.712  1.00  0.00    -0.384 OA
ATOM     51  H   UNL     1       3.401  33.328 -19.362  1.00  0.00     0.211 HD
ENDBRANCH   4  50
TORSDOF 15
ENDMDL
