MODEL 1
REMARK VINA RESULT:    -3.421      0.000      0.000
REMARK INTER + INTRA:          -9.164
REMARK INTER:                  -6.620
REMARK INTRA:                  -2.544
REMARK UNBOUND:                -2.544
REMARK SMILES CCCCCCCCCCCCCCCCCC(=O)[O-]
REMARK SMILES IDX 10 1 11 2 12 3 13 4 14 5 15 6 16 7 17 8 18 9 19 10 20 11
REMARK SMILES IDX 9 12 8 13 7 14 6 15 5 16 4 17 3 18 2 19 1 20
REMARK H PARENT
REMARK Flexibility Score: inf
ROOT
ATOM      1  C   UNL     1     151.242 152.793 158.595  1.00  0.00     0.000 C 
ENDROOT
BRANCH   1   2
ATOM      2  C   UNL     1     152.109 152.412 159.811  1.00  0.00     0.000 C 
BRANCH   2   3
ATOM      3  C   UNL     1     153.109 151.267 159.565  1.00  0.00     0.000 C 
BRANCH   3   4
ATOM      4  C   UNL     1     153.362 151.010 158.070  1.00  0.00     0.000 C 
BRANCH   4   5
ATOM      5  C   UNL     1     154.726 151.540 157.597  1.00  0.00     0.000 C 
BRANCH   5   6
ATOM      6  C   UNL     1     154.767 153.048 157.278  1.00  0.00     0.000 C 
BRANCH   6   7
ATOM      7  C   UNL     1     155.307 153.915 158.435  1.00  0.00     0.006 C 
BRANCH   7   8
ATOM      8  C   UNL     1     154.616 155.283 158.506  1.00  0.00     0.053 C 
BRANCH   8   9
ATOM      9  C   UNL     1     155.631 156.383 158.536  1.00  0.00     0.041 C 
ATOM     10  O   UNL     1     156.511 156.456 157.639  1.00  0.00    -0.550 OA
ATOM     11  O   UNL     1     155.633 157.298 159.580  1.00  0.00    -0.550 OA
ENDBRANCH   8   9
ENDBRANCH   7   8
ENDBRANCH   6   7
ENDBRANCH   5   6
ENDBRANCH   4   5
ENDBRANCH   3   4
ENDBRANCH   2   3
ENDBRANCH   1   2
BRANCH   1  12
ATOM     12  C   UNL     1     151.042 154.307 158.380  1.00  0.00     0.000 C 
BRANCH  12  13
ATOM     13  C   UNL     1     151.355 154.808 156.959  1.00  0.00    -0.000 C 
BRANCH  13  14
ATOM     14  C   UNL     1     150.133 155.417 156.258  1.00  0.00    -0.000 C 
BRANCH  14  15
ATOM     15  C   UNL     1     149.992 154.878 154.830  1.00  0.00    -0.000 C 
BRANCH  15  16
ATOM     16  C   UNL     1     150.352 155.957 153.797  1.00  0.00    -0.000 C 
BRANCH  16  17
ATOM     17  C   UNL     1     151.851 155.976 153.449  1.00  0.00    -0.000 C 
BRANCH  17  18
ATOM     18  C   UNL     1     152.626 157.209 153.957  1.00  0.00    -0.000 C 
BRANCH  18  19
ATOM     19  C   UNL     1     153.631 156.925 155.087  1.00  0.00    -0.003 C 
ATOM     20  C   UNL     1     154.527 155.722 154.798  1.00  0.00     0.004 C 
ENDBRANCH  18  19
ENDBRANCH  17  18
ENDBRANCH  16  17
ENDBRANCH  15  16
ENDBRANCH  14  15
ENDBRANCH  13  14
ENDBRANCH  12  13
ENDBRANCH   1  12
TORSDOF 16
ENDMDL
MODEL 2
REMARK VINA RESULT:    -3.395      2.178      4.512
REMARK INTER + INTRA:          -9.116
REMARK INTER:                  -6.424
REMARK INTRA:                  -2.692
REMARK UNBOUND:                -2.544
REMARK SMILES CCCCCCCCCCCCCCCCCC(=O)[O-]
REMARK SMILES IDX 10 1 11 2 12 3 13 4 14 5 15 6 16 7 17 8 18 9 19 10 20 11
REMARK SMILES IDX 9 12 8 13 7 14 6 15 5 16 4 17 3 18 2 19 1 20
REMARK H PARENT
REMARK Flexibility Score: inf
ROOT
ATOM      1  C   UNL     1     151.260 153.137 158.967  1.00  0.00     0.000 C 
ENDROOT
BRANCH   1   2
ATOM      2  C   UNL     1     151.448 154.667 158.962  1.00  0.00     0.000 C 
BRANCH   2   3
ATOM      3  C   UNL     1     151.328 155.334 157.580  1.00  0.00     0.000 C 
BRANCH   3   4
ATOM      4  C   UNL     1     151.845 156.783 157.573  1.00  0.00     0.000 C 
BRANCH   4   5
ATOM      5  C   UNL     1     152.475 157.197 158.914  1.00  0.00     0.000 C 
BRANCH   5   6
ATOM      6  C   UNL     1     153.770 158.025 158.800  1.00  0.00     0.000 C 
BRANCH   6   7
ATOM      7  C   UNL     1     154.931 157.488 159.663  1.00  0.00     0.006 C 
BRANCH   7   8
ATOM      8  C   UNL     1     156.049 158.524 159.842  1.00  0.00     0.053 C 
BRANCH   8   9
ATOM      9  C   UNL     1     156.306 158.773 161.294  1.00  0.00     0.041 C 
ATOM     10  O   UNL     1     157.468 158.650 161.762  1.00  0.00    -0.550 OA
ATOM     11  O   UNL     1     155.253 159.094 162.141  1.00  0.00    -0.550 OA
ENDBRANCH   8   9
ENDBRANCH   7   8
ENDBRANCH   6   7
ENDBRANCH   5   6
ENDBRANCH   4   5
ENDBRANCH   3   4
ENDBRANCH   2   3
ENDBRANCH   1   2
BRANCH   1  12
ATOM     12  C   UNL     1     152.106 152.376 160.008  1.00  0.00     0.000 C 
BRANCH  12  13
ATOM     13  C   UNL     1     153.133 151.395 159.416  1.00  0.00    -0.000 C 
BRANCH  13  14
ATOM     14  C   UNL     1     153.240 151.491 157.887  1.00  0.00    -0.000 C 
BRANCH  14  15
ATOM     15  C   UNL     1     154.635 151.960 157.461  1.00  0.00    -0.000 C 
BRANCH  15  16
ATOM     16  C   UNL     1     155.132 153.099 158.365  1.00  0.00    -0.000 C 
BRANCH  16  17
ATOM     17  C   UNL     1     154.934 154.490 157.738  1.00  0.00    -0.000 C 
BRANCH  17  18
ATOM     18  C   UNL     1     154.604 154.489 156.232  1.00  0.00    -0.000 C 
BRANCH  18  19
ATOM     19  C   UNL     1     154.806 155.839 155.522  1.00  0.00    -0.003 C 
ATOM     20  C   UNL     1     155.927 156.675 156.138  1.00  0.00     0.004 C 
ENDBRANCH  18  19
ENDBRANCH  17  18
ENDBRANCH  16  17
ENDBRANCH  15  16
ENDBRANCH  14  15
ENDBRANCH  13  14
ENDBRANCH  12  13
ENDBRANCH   1  12
TORSDOF 16
ENDMDL
MODEL 3
REMARK VINA RESULT:    -3.361      1.850      4.726
REMARK INTER + INTRA:          -9.048
REMARK INTER:                  -6.385
REMARK INTRA:                  -2.663
REMARK UNBOUND:                -2.544
REMARK SMILES CCCCCCCCCCCCCCCCCC(=O)[O-]
REMARK SMILES IDX 10 1 11 2 12 3 13 4 14 5 15 6 16 7 17 8 18 9 19 10 20 11
REMARK SMILES IDX 9 12 8 13 7 14 6 15 5 16 4 17 3 18 2 19 1 20
REMARK H PARENT
REMARK Flexibility Score: inf
ROOT
ATOM      1  C   UNL     1     153.057 151.065 158.355  1.00  0.00     0.000 C 
ENDROOT
BRANCH   1   2
ATOM      2  C   UNL     1     153.061 151.693 159.763  1.00  0.00     0.000 C 
BRANCH   2   3
ATOM      3  C   UNL     1     151.904 152.670 160.044  1.00  0.00     0.000 C 
BRANCH   3   4
ATOM      4  C   UNL     1     151.411 153.386 158.775  1.00  0.00     0.000 C 
BRANCH   4   5
ATOM      5  C   UNL     1     151.103 154.874 159.013  1.00  0.00     0.000 C 
BRANCH   5   6
ATOM      6  C   UNL     1     150.760 155.681 157.745  1.00  0.00     0.000 C 
BRANCH   6   7
ATOM      7  C   UNL     1     151.125 154.961 156.429  1.00  0.00     0.006 C 
BRANCH   7   8
ATOM      8  C   UNL     1     151.106 155.909 155.223  1.00  0.00     0.053 C 
BRANCH   8   9
ATOM      9  C   UNL     1     152.495 156.339 154.871  1.00  0.00     0.041 C 
ATOM     10  O   UNL     1     153.163 155.690 154.025  1.00  0.00    -0.550 OA
ATOM     11  O   UNL     1     153.069 157.428 155.514  1.00  0.00    -0.550 OA
ENDBRANCH   8   9
ENDBRANCH   7   8
ENDBRANCH   6   7
ENDBRANCH   5   6
ENDBRANCH   4   5
ENDBRANCH   3   4
ENDBRANCH   2   3
ENDBRANCH   1   2
BRANCH   1  12
ATOM     12  C   UNL     1     154.349 151.275 157.539  1.00  0.00     0.000 C 
BRANCH  12  13
ATOM     13  C   UNL     1     155.031 152.639 157.747  1.00  0.00    -0.000 C 
BRANCH  13  14
ATOM     14  C   UNL     1     154.589 153.692 156.721  1.00  0.00    -0.000 C 
BRANCH  14  15
ATOM     15  C   UNL     1     155.012 155.098 157.157  1.00  0.00    -0.000 C 
BRANCH  15  16
ATOM     16  C   UNL     1     154.655 155.348 158.631  1.00  0.00    -0.000 C 
BRANCH  16  17
ATOM     17  C   UNL     1     154.230 156.801 158.905  1.00  0.00    -0.000 C 
BRANCH  17  18
ATOM     18  C   UNL     1     155.299 157.679 159.586  1.00  0.00    -0.000 C 
BRANCH  18  19
ATOM     19  C   UNL     1     156.245 158.416 158.621  1.00  0.00    -0.003 C 
ATOM     20  C   UNL     1     157.568 157.683 158.408  1.00  0.00     0.004 C 
ENDBRANCH  18  19
ENDBRANCH  17  18
ENDBRANCH  16  17
ENDBRANCH  15  16
ENDBRANCH  14  15
ENDBRANCH  13  14
ENDBRANCH  12  13
ENDBRANCH   1  12
TORSDOF 16
ENDMDL
MODEL 4
REMARK VINA RESULT:    -3.301      1.865      5.239
REMARK INTER + INTRA:          -8.934
REMARK INTER:                  -6.390
REMARK INTRA:                  -2.544
REMARK UNBOUND:                -2.544
REMARK SMILES CCCCCCCCCCCCCCCCCC(=O)[O-]
REMARK SMILES IDX 10 1 11 2 12 3 13 4 14 5 15 6 16 7 17 8 18 9 19 10 20 11
REMARK SMILES IDX 9 12 8 13 7 14 6 15 5 16 4 17 3 18 2 19 1 20
REMARK H PARENT
REMARK Flexibility Score: inf
ROOT
ATOM      1  C   UNL     1     151.062 152.753 158.247  1.00  0.00     0.000 C 
ENDROOT
BRANCH   1   2
ATOM      2  C   UNL     1     150.690 154.081 157.558  1.00  0.00     0.000 C 
BRANCH   2   3
ATOM      3  C   UNL     1     149.640 153.963 156.439  1.00  0.00     0.000 C 
BRANCH   3   4
ATOM      4  C   UNL     1     149.545 155.235 155.578  1.00  0.00     0.000 C 
BRANCH   4   5
ATOM      5  C   UNL     1     150.922 155.762 155.140  1.00  0.00     0.000 C 
BRANCH   5   6
ATOM      6  C   UNL     1     150.897 156.754 153.960  1.00  0.00     0.000 C 
BRANCH   6   7
ATOM      7  C   UNL     1     151.915 156.425 152.847  1.00  0.00     0.006 C 
BRANCH   7   8
ATOM      8  C   UNL     1     153.146 155.685 153.387  1.00  0.00     0.053 C 
BRANCH   8   9
ATOM      9  C   UNL     1     154.335 156.594 153.413  1.00  0.00     0.041 C 
ATOM     10  O   UNL     1     154.359 157.584 154.189  1.00  0.00    -0.550 OA
ATOM     11  O   UNL     1     155.396 156.373 152.545  1.00  0.00    -0.550 OA
ENDBRANCH   8   9
ENDBRANCH   7   8
ENDBRANCH   6   7
ENDBRANCH   5   6
ENDBRANCH   4   5
ENDBRANCH   3   4
ENDBRANCH   2   3
ENDBRANCH   1   2
BRANCH   1  12
ATOM     12  C   UNL     1     151.754 152.896 159.617  1.00  0.00     0.000 C 
BRANCH  12  13
ATOM     13  C   UNL     1     153.115 152.187 159.734  1.00  0.00    -0.000 C 
BRANCH  13  14
ATOM     14  C   UNL     1     153.363 151.179 158.602  1.00  0.00    -0.000 C 
BRANCH  14  15
ATOM     15  C   UNL     1     154.711 151.438 157.920  1.00  0.00    -0.000 C 
BRANCH  15  16
ATOM     16  C   UNL     1     155.078 152.929 157.976  1.00  0.00    -0.000 C 
BRANCH  16  17
ATOM     17  C   UNL     1     154.619 153.705 156.729  1.00  0.00    -0.000 C 
BRANCH  17  18
ATOM     18  C   UNL     1     154.176 155.159 156.988  1.00  0.00    -0.000 C 
BRANCH  18  19
ATOM     19  C   UNL     1     154.093 155.557 158.472  1.00  0.00    -0.003 C 
ATOM     20  C   UNL     1     153.116 156.704 158.729  1.00  0.00     0.004 C 
ENDBRANCH  18  19
ENDBRANCH  17  18
ENDBRANCH  16  17
ENDBRANCH  15  16
ENDBRANCH  14  15
ENDBRANCH  13  14
ENDBRANCH  12  13
ENDBRANCH   1  12
TORSDOF 16
ENDMDL
MODEL 5
REMARK VINA RESULT:    -3.270      2.147      3.536
REMARK INTER + INTRA:          -8.873
REMARK INTER:                  -6.203
REMARK INTRA:                  -2.670
REMARK UNBOUND:                -2.544
REMARK SMILES CCCCCCCCCCCCCCCCCC(=O)[O-]
REMARK SMILES IDX 10 1 11 2 12 3 13 4 14 5 15 6 16 7 17 8 18 9 19 10 20 11
REMARK SMILES IDX 9 12 8 13 7 14 6 15 5 16 4 17 3 18 2 19 1 20
REMARK H PARENT
REMARK Flexibility Score: inf
ROOT
ATOM      1  C   UNL     1     152.028 152.372 159.524  1.00  0.00     0.000 C 
ENDROOT
BRANCH   1   2
ATOM      2  C   UNL     1     153.099 151.270 159.415  1.00  0.00     0.000 C 
BRANCH   2   3
ATOM      3  C   UNL     1     153.548 150.936 157.980  1.00  0.00     0.000 C 
BRANCH   3   4
ATOM      4  C   UNL     1     154.946 151.489 157.652  1.00  0.00     0.000 C 
BRANCH   4   5
ATOM      5  C   UNL     1     154.912 152.952 157.179  1.00  0.00     0.000 C 
BRANCH   5   6
ATOM      6  C   UNL     1     155.166 154.001 158.280  1.00  0.00     0.000 C 
BRANCH   6   7
ATOM      7  C   UNL     1     155.346 155.437 157.742  1.00  0.00     0.006 C 
BRANCH   7   8
ATOM      8  C   UNL     1     154.499 155.699 156.490  1.00  0.00     0.053 C 
BRANCH   8   9
ATOM      9  C   UNL     1     155.355 156.212 155.376  1.00  0.00     0.041 C 
ATOM     10  O   UNL     1     156.410 156.849 155.629  1.00  0.00    -0.550 OA
ATOM     11  O   UNL     1     154.961 156.028 154.057  1.00  0.00    -0.550 OA
ENDBRANCH   8   9
ENDBRANCH   7   8
ENDBRANCH   6   7
ENDBRANCH   5   6
ENDBRANCH   4   5
ENDBRANCH   3   4
ENDBRANCH   2   3
ENDBRANCH   1   2
BRANCH   1  12
ATOM     12  C   UNL     1     151.301 152.712 158.207  1.00  0.00     0.000 C 
BRANCH  12  13
ATOM     13  C   UNL     1     151.328 154.201 157.817  1.00  0.00    -0.000 C 
BRANCH  13  14
ATOM     14  C   UNL     1     151.713 155.119 158.986  1.00  0.00    -0.000 C 
BRANCH  14  15
ATOM     15  C   UNL     1     150.944 156.443 158.923  1.00  0.00    -0.000 C 
BRANCH  15  16
ATOM     16  C   UNL     1     151.466 157.328 157.781  1.00  0.00    -0.000 C 
BRANCH  16  17
ATOM     17  C   UNL     1     152.017 158.678 158.275  1.00  0.00    -0.000 C 
BRANCH  17  18
ATOM     18  C   UNL     1     153.546 158.733 158.463  1.00  0.00    -0.000 C 
BRANCH  18  19
ATOM     19  C   UNL     1     154.047 158.265 159.841  1.00  0.00    -0.003 C 
ATOM     20  C   UNL     1     153.390 159.012 161.000  1.00  0.00     0.004 C 
ENDBRANCH  18  19
ENDBRANCH  17  18
ENDBRANCH  16  17
ENDBRANCH  15  16
ENDBRANCH  14  15
ENDBRANCH  13  14
ENDBRANCH  12  13
ENDBRANCH   1  12
TORSDOF 16
ENDMDL
MODEL 6
REMARK VINA RESULT:    -3.222      2.352      3.716
REMARK INTER + INTRA:          -8.781
REMARK INTER:                  -6.191
REMARK INTRA:                  -2.589
REMARK UNBOUND:                -2.544
REMARK SMILES CCCCCCCCCCCCCCCCCC(=O)[O-]
REMARK SMILES IDX 10 1 11 2 12 3 13 4 14 5 15 6 16 7 17 8 18 9 19 10 20 11
REMARK SMILES IDX 9 12 8 13 7 14 6 15 5 16 4 17 3 18 2 19 1 20
REMARK H PARENT
REMARK Flexibility Score: inf
ROOT
ATOM      1  C   UNL     1     153.314 150.904 158.500  1.00  0.00     0.000 C 
ENDROOT
BRANCH   1   2
ATOM      2  C   UNL     1     154.601 151.126 157.681  1.00  0.00     0.000 C 
BRANCH   2   3
ATOM      3  C   UNL     1     155.217 152.532 157.804  1.00  0.00     0.000 C 
BRANCH   3   4
ATOM      4  C   UNL     1     154.651 153.520 156.770  1.00  0.00     0.000 C 
BRANCH   4   5
ATOM      5  C   UNL     1     154.855 154.989 157.176  1.00  0.00     0.000 C 
BRANCH   5   6
ATOM      6  C   UNL     1     155.334 155.206 158.625  1.00  0.00     0.000 C 
BRANCH   6   7
ATOM      7  C   UNL     1     156.780 155.738 158.730  1.00  0.00     0.006 C 
BRANCH   7   8
ATOM      8  C   UNL     1     156.837 157.149 159.329  1.00  0.00     0.053 C 
BRANCH   8   9
ATOM      9  C   UNL     1     157.185 158.153 158.275  1.00  0.00     0.041 C 
ATOM     10  O   UNL     1     157.587 159.300 158.601  1.00  0.00    -0.550 OA
ATOM     11  O   UNL     1     157.018 157.837 156.933  1.00  0.00    -0.550 OA
ENDBRANCH   8   9
ENDBRANCH   7   8
ENDBRANCH   6   7
ENDBRANCH   5   6
ENDBRANCH   4   5
ENDBRANCH   3   4
ENDBRANCH   2   3
ENDBRANCH   1   2
BRANCH   1  12
ATOM     12  C   UNL     1     153.091 151.900 159.656  1.00  0.00     0.000 C 
BRANCH  12  13
ATOM     13  C   UNL     1     151.761 152.671 159.600  1.00  0.00    -0.000 C 
BRANCH  13  14
ATOM     14  C   UNL     1     151.944 154.156 159.257  1.00  0.00    -0.000 C 
BRANCH  14  15
ATOM     15  C   UNL     1     151.194 154.520 157.971  1.00  0.00    -0.000 C 
BRANCH  15  16
ATOM     16  C   UNL     1     150.304 155.754 158.184  1.00  0.00    -0.000 C 
BRANCH  16  17
ATOM     17  C   UNL     1     150.530 156.426 159.550  1.00  0.00    -0.000 C 
BRANCH  17  18
ATOM     18  C   UNL     1     151.184 157.821 159.494  1.00  0.00    -0.000 C 
BRANCH  18  19
ATOM     19  C   UNL     1     152.720 157.814 159.402  1.00  0.00    -0.003 C 
ATOM     20  C   UNL     1     153.236 158.189 158.014  1.00  0.00     0.004 C 
ENDBRANCH  18  19
ENDBRANCH  17  18
ENDBRANCH  16  17
ENDBRANCH  15  16
ENDBRANCH  14  15
ENDBRANCH  13  14
ENDBRANCH  12  13
ENDBRANCH   1  12
TORSDOF 16
ENDMDL
MODEL 7
REMARK VINA RESULT:    -3.211      3.160      6.243
REMARK INTER + INTRA:          -8.759
REMARK INTER:                  -6.891
REMARK INTRA:                  -1.868
REMARK UNBOUND:                -2.544
REMARK SMILES CCCCCCCCCCCCCCCCCC(=O)[O-]
REMARK SMILES IDX 10 1 11 2 12 3 13 4 14 5 15 6 16 7 17 8 18 9 19 10 20 11
REMARK SMILES IDX 9 12 8 13 7 14 6 15 5 16 4 17 3 18 2 19 1 20
REMARK H PARENT
REMARK Flexibility Score: inf
ROOT
ATOM      1  C   UNL     1     154.735 155.230 157.020  1.00  0.00     0.000 C 
ENDROOT
BRANCH   1   2
ATOM      2  C   UNL     1     154.561 153.724 156.741  1.00  0.00     0.000 C 
BRANCH   2   3
ATOM      3  C   UNL     1     155.075 152.791 157.854  1.00  0.00     0.000 C 
BRANCH   3   4
ATOM      4  C   UNL     1     154.489 151.372 157.756  1.00  0.00     0.000 C 
BRANCH   4   5
ATOM      5  C   UNL     1     153.449 151.080 158.851  1.00  0.00     0.000 C 
BRANCH   5   6
ATOM      6  C   UNL     1     153.164 152.252 159.811  1.00  0.00     0.000 C 
BRANCH   6   7
ATOM      7  C   UNL     1     151.706 152.756 159.766  1.00  0.00     0.006 C 
BRANCH   7   8
ATOM      8  C   UNL     1     151.221 153.000 158.331  1.00  0.00     0.053 C 
BRANCH   8   9
ATOM      9  C   UNL     1     150.971 154.457 158.102  1.00  0.00     0.041 C 
ATOM     10  O   UNL     1     150.932 155.254 159.076  1.00  0.00    -0.550 OA
ATOM     11  O   UNL     1     150.734 154.928 156.817  1.00  0.00    -0.550 OA
ENDBRANCH   8   9
ENDBRANCH   7   8
ENDBRANCH   6   7
ENDBRANCH   5   6
ENDBRANCH   4   5
ENDBRANCH   3   4
ENDBRANCH   2   3
ENDBRANCH   1   2
BRANCH   1  12
ATOM     12  C   UNL     1     154.379 155.676 158.453  1.00  0.00     0.000 C 
BRANCH  12  13
ATOM     13  C   UNL     1     155.291 156.772 159.035  1.00  0.00    -0.000 C 
BRANCH  13  14
ATOM     14  C   UNL     1     156.680 156.802 158.384  1.00  0.00    -0.000 C 
BRANCH  14  15
ATOM     15  C   UNL     1     157.652 155.872 159.118  1.00  0.00    -0.000 C 
BRANCH  15  16
ATOM     16  C   UNL     1     158.495 156.652 160.139  1.00  0.00    -0.000 C 
BRANCH  16  17
ATOM     17  C   UNL     1     159.651 157.433 159.488  1.00  0.00    -0.000 C 
BRANCH  17  18
ATOM     18  C   UNL     1     160.450 156.655 158.424  1.00  0.00    -0.000 C 
BRANCH  18  19
ATOM     19  C   UNL     1     161.254 155.459 158.963  1.00  0.00    -0.003 C 
ATOM     20  C   UNL     1     161.541 154.404 157.897  1.00  0.00     0.004 C 
ENDBRANCH  18  19
ENDBRANCH  17  18
ENDBRANCH  16  17
ENDBRANCH  15  16
ENDBRANCH  14  15
ENDBRANCH  13  14
ENDBRANCH  12  13
ENDBRANCH   1  12
TORSDOF 16
ENDMDL
MODEL 8
REMARK VINA RESULT:    -3.170      1.532      3.004
REMARK INTER + INTRA:          -8.679
REMARK INTER:                  -6.395
REMARK INTRA:                  -2.284
REMARK UNBOUND:                -2.544
REMARK SMILES CCCCCCCCCCCCCCCCCC(=O)[O-]
REMARK SMILES IDX 10 1 11 2 12 3 13 4 14 5 15 6 16 7 17 8 18 9 19 10 20 11
REMARK SMILES IDX 9 12 8 13 7 14 6 15 5 16 4 17 3 18 2 19 1 20
REMARK H PARENT
REMARK Flexibility Score: inf
ROOT
ATOM      1  C   UNL     1     152.085 152.342 159.554  1.00  0.00     0.000 C 
ENDROOT
BRANCH   1   2
ATOM      2  C   UNL     1     153.116 151.209 159.381  1.00  0.00     0.000 C 
BRANCH   2   3
ATOM      3  C   UNL     1     153.587 150.972 157.934  1.00  0.00     0.000 C 
BRANCH   3   4
ATOM      4  C   UNL     1     154.993 151.537 157.668  1.00  0.00     0.000 C 
BRANCH   4   5
ATOM      5  C   UNL     1     154.984 153.049 157.387  1.00  0.00     0.000 C 
BRANCH   5   6
ATOM      6  C   UNL     1     155.212 153.944 158.622  1.00  0.00     0.000 C 
BRANCH   6   7
ATOM      7  C   UNL     1     155.712 155.364 158.278  1.00  0.00     0.006 C 
BRANCH   7   8
ATOM      8  C   UNL     1     154.651 156.436 158.557  1.00  0.00     0.053 C 
BRANCH   8   9
ATOM      9  C   UNL     1     154.065 156.940 157.276  1.00  0.00     0.041 C 
ATOM     10  O   UNL     1     153.043 157.675 157.293  1.00  0.00    -0.550 OA
ATOM     11  O   UNL     1     154.619 156.558 156.061  1.00  0.00    -0.550 OA
ENDBRANCH   8   9
ENDBRANCH   7   8
ENDBRANCH   6   7
ENDBRANCH   5   6
ENDBRANCH   4   5
ENDBRANCH   3   4
ENDBRANCH   2   3
ENDBRANCH   1   2
BRANCH   1  12
ATOM     12  C   UNL     1     151.342 152.754 158.268  1.00  0.00     0.000 C 
BRANCH  12  13
ATOM     13  C   UNL     1     151.475 154.240 157.889  1.00  0.00    -0.000 C 
BRANCH  13  14
ATOM     14  C   UNL     1     151.148 155.186 159.054  1.00  0.00    -0.000 C 
BRANCH  14  15
ATOM     15  C   UNL     1     150.098 156.223 158.643  1.00  0.00    -0.000 C 
BRANCH  15  16
ATOM     16  C   UNL     1     148.963 155.568 157.840  1.00  0.00    -0.000 C 
BRANCH  16  17
ATOM     17  C   UNL     1     148.249 156.555 156.899  1.00  0.00    -0.000 C 
BRANCH  17  18
ATOM     18  C   UNL     1     148.466 156.298 155.394  1.00  0.00    -0.000 C 
BRANCH  18  19
ATOM     19  C   UNL     1     149.445 155.158 155.064  1.00  0.00    -0.003 C 
ATOM     20  C   UNL     1     150.613 155.609 154.190  1.00  0.00     0.004 C 
ENDBRANCH  18  19
ENDBRANCH  17  18
ENDBRANCH  16  17
ENDBRANCH  15  16
ENDBRANCH  14  15
ENDBRANCH  13  14
ENDBRANCH  12  13
ENDBRANCH   1  12
TORSDOF 16
ENDMDL
MODEL 9
REMARK VINA RESULT:    -3.150      2.443      5.600
REMARK INTER + INTRA:          -8.641
REMARK INTER:                  -5.709
REMARK INTRA:                  -2.931
REMARK UNBOUND:                -2.544
REMARK SMILES CCCCCCCCCCCCCCCCCC(=O)[O-]
REMARK SMILES IDX 10 1 11 2 12 3 13 4 14 5 15 6 16 7 17 8 18 9 19 10 20 11
REMARK SMILES IDX 9 12 8 13 7 14 6 15 5 16 4 17 3 18 2 19 1 20
REMARK H PARENT
REMARK Flexibility Score: inf
ROOT
ATOM      1  C   UNL     1     151.245 155.701 158.715  1.00  0.00     0.000 C 
ENDROOT
BRANCH   1   2
ATOM      2  C   UNL     1     150.230 154.849 157.930  1.00  0.00     0.000 C 
BRANCH   2   3
ATOM      3  C   UNL     1     150.608 154.570 156.463  1.00  0.00     0.000 C 
BRANCH   3   4
ATOM      4  C   UNL     1     149.586 155.144 155.467  1.00  0.00     0.000 C 
BRANCH   4   5
ATOM      5  C   UNL     1     150.232 155.606 154.150  1.00  0.00     0.000 C 
BRANCH   5   6
ATOM      6  C   UNL     1     151.576 156.345 154.306  1.00  0.00     0.000 C 
BRANCH   6   7
ATOM      7  C   UNL     1     152.770 155.609 153.662  1.00  0.00     0.006 C 
BRANCH   7   8
ATOM      8  C   UNL     1     154.038 156.472 153.633  1.00  0.00     0.053 C 
BRANCH   8   9
ATOM      9  C   UNL     1     154.534 156.631 152.231  1.00  0.00     0.041 C 
ATOM     10  O   UNL     1     153.796 156.322 151.259  1.00  0.00    -0.550 OA
ATOM     11  O   UNL     1     155.829 157.075 151.998  1.00  0.00    -0.550 OA
ENDBRANCH   8   9
ENDBRANCH   7   8
ENDBRANCH   6   7
ENDBRANCH   5   6
ENDBRANCH   4   5
ENDBRANCH   3   4
ENDBRANCH   2   3
ENDBRANCH   1   2
BRANCH   1  12
ATOM     12  C   UNL     1     151.669 157.015 158.028  1.00  0.00     0.000 C 
BRANCH  12  13
ATOM     13  C   UNL     1     153.145 157.071 157.592  1.00  0.00    -0.000 C 
BRANCH  13  14
ATOM     14  C   UNL     1     154.040 156.110 158.387  1.00  0.00    -0.000 C 
BRANCH  14  15
ATOM     15  C   UNL     1     155.028 155.389 157.464  1.00  0.00    -0.000 C 
BRANCH  15  16
ATOM     16  C   UNL     1     154.333 154.259 156.690  1.00  0.00    -0.000 C 
BRANCH  16  17
ATOM     17  C   UNL     1     154.446 152.894 157.393  1.00  0.00    -0.000 C 
BRANCH  17  18
ATOM     18  C   UNL     1     153.216 152.484 158.228  1.00  0.00    -0.000 C 
BRANCH  18  19
ATOM     19  C   UNL     1     153.337 152.758 159.738  1.00  0.00    -0.003 C 
ATOM     20  C   UNL     1     152.066 152.408 160.510  1.00  0.00     0.004 C 
ENDBRANCH  18  19
ENDBRANCH  17  18
ENDBRANCH  16  17
ENDBRANCH  15  16
ENDBRANCH  14  15
ENDBRANCH  13  14
ENDBRANCH  12  13
ENDBRANCH   1  12
TORSDOF 16
ENDMDL
