MODEL 1
REMARK VINA RESULT:    -3.895      0.000      0.000
REMARK INTER + INTRA:          -8.774
REMARK INTER:                  -7.082
REMARK INTRA:                  -1.691
REMARK UNBOUND:                -1.691
REMARK SMILES CCCCCCCCCCCCCCCC(=O)[O-]
REMARK SMILES IDX 9 1 10 2 11 3 12 4 13 5 14 6 15 7 16 8 17 9 18 10 8 11 7 12
REMARK SMILES IDX 6 13 5 14 4 15 3 16 2 17 1 18
REMARK H PARENT
REMARK Flexibility Score: inf
ROOT
ATOM      1  C   UNL     1     119.163  52.784  53.734  1.00  0.00     0.000 C 
ENDROOT
BRANCH   1   2
ATOM      2  C   UNL     1     119.042  54.054  54.597  1.00  0.00     0.000 C 
BRANCH   2   3
ATOM      3  C   UNL     1     119.729  53.975  55.973  1.00  0.00     0.000 C 
BRANCH   3   4
ATOM      4  C   UNL     1     121.083  53.238  55.985  1.00  0.00     0.000 C 
BRANCH   4   5
ATOM      5  C   UNL     1     122.274  54.118  55.551  1.00  0.00     0.000 C 
BRANCH   5   6
ATOM      6  C   UNL     1     122.919  53.629  54.242  1.00  0.00     0.006 C 
BRANCH   6   7
ATOM      7  C   UNL     1     122.715  54.621  53.090  1.00  0.00     0.053 C 
BRANCH   7   8
ATOM      8  C   UNL     1     123.990  55.320  52.729  1.00  0.00     0.041 C 
ATOM      9  O   UNL     1     124.065  56.575  52.798  1.00  0.00    -0.550 OA
ATOM     10  O   UNL     1     125.103  54.583  52.344  1.00  0.00    -0.550 OA
ENDBRANCH   7   8
ENDBRANCH   6   7
ENDBRANCH   5   6
ENDBRANCH   4   5
ENDBRANCH   3   4
ENDBRANCH   2   3
ENDBRANCH   1   2
BRANCH   1  11
ATOM     11  C   UNL     1     118.094  51.730  54.070  1.00  0.00     0.000 C 
BRANCH  11  12
ATOM     12  C   UNL     1     116.776  52.358  54.550  1.00  0.00    -0.000 C 
BRANCH  12  13
ATOM     13  C   UNL     1     115.645  52.220  53.516  1.00  0.00    -0.000 C 
BRANCH  13  14
ATOM     14  C   UNL     1     115.347  53.540  52.787  1.00  0.00    -0.000 C 
BRANCH  14  15
ATOM     15  C   UNL     1     115.572  53.446  51.268  1.00  0.00    -0.000 C 
BRANCH  15  16
ATOM     16  C   UNL     1     116.330  54.671  50.715  1.00  0.00    -0.000 C 
BRANCH  16  17
ATOM     17  C   UNL     1     117.815  54.709  51.117  1.00  0.00    -0.003 C 
ATOM     18  C   UNL     1     118.325  56.122  51.393  1.00  0.00     0.004 C 
ENDBRANCH  16  17
ENDBRANCH  15  16
ENDBRANCH  14  15
ENDBRANCH  13  14
ENDBRANCH  12  13
ENDBRANCH  11  12
ENDBRANCH   1  11
TORSDOF 14
ENDMDL
MODEL 2
REMARK VINA RESULT:    -3.703      7.941     10.452
REMARK INTER + INTRA:          -8.425
REMARK INTER:                  -6.066
REMARK INTRA:                  -2.358
REMARK UNBOUND:                -1.691
REMARK SMILES CCCCCCCCCCCCCCCC(=O)[O-]
REMARK SMILES IDX 9 1 10 2 11 3 12 4 13 5 14 6 15 7 16 8 17 9 18 10 8 11 7 12
REMARK SMILES IDX 6 13 5 14 4 15 3 16 2 17 1 18
REMARK H PARENT
REMARK Flexibility Score: inf
ROOT
ATOM      1  C   UNL     1     125.763  55.405  43.166  1.00  0.00     0.000 C 
ENDROOT
BRANCH   1   2
ATOM      2  C   UNL     1     124.272  55.668  43.447  1.00  0.00     0.000 C 
BRANCH   2   3
ATOM      3  C   UNL     1     123.966  57.013  44.134  1.00  0.00     0.000 C 
BRANCH   3   4
ATOM      4  C   UNL     1     124.615  57.202  45.518  1.00  0.00     0.000 C 
BRANCH   4   5
ATOM      5  C   UNL     1     124.200  56.132  46.550  1.00  0.00     0.000 C 
BRANCH   5   6
ATOM      6  C   UNL     1     125.310  55.844  47.577  1.00  0.00     0.006 C 
BRANCH   6   7
ATOM      7  C   UNL     1     124.978  54.639  48.466  1.00  0.00     0.053 C 
BRANCH   7   8
ATOM      8  C   UNL     1     124.627  55.059  49.861  1.00  0.00     0.041 C 
ATOM      9  O   UNL     1     125.119  54.451  50.848  1.00  0.00    -0.550 OA
ATOM     10  O   UNL     1     123.780  56.140  50.070  1.00  0.00    -0.550 OA
ENDBRANCH   7   8
ENDBRANCH   6   7
ENDBRANCH   5   6
ENDBRANCH   4   5
ENDBRANCH   3   4
ENDBRANCH   2   3
ENDBRANCH   1   2
BRANCH   1  11
ATOM     11  C   UNL     1     126.155  53.929  43.350  1.00  0.00     0.000 C 
BRANCH  11  12
ATOM     12  C   UNL     1     126.384  53.559  44.824  1.00  0.00    -0.000 C 
BRANCH  12  13
ATOM     13  C   UNL     1     125.626  52.285  45.238  1.00  0.00    -0.000 C 
BRANCH  13  14
ATOM     14  C   UNL     1     124.130  52.541  45.482  1.00  0.00    -0.000 C 
BRANCH  14  15
ATOM     15  C   UNL     1     123.223  51.665  44.599  1.00  0.00    -0.000 C 
BRANCH  15  16
ATOM     16  C   UNL     1     122.715  52.421  43.354  1.00  0.00    -0.000 C 
BRANCH  16  17
ATOM     17  C   UNL     1     123.061  51.723  42.027  1.00  0.00    -0.003 C 
ATOM     18  C   UNL     1     124.194  50.707  42.162  1.00  0.00     0.004 C 
ENDBRANCH  16  17
ENDBRANCH  15  16
ENDBRANCH  14  15
ENDBRANCH  13  14
ENDBRANCH  12  13
ENDBRANCH  11  12
ENDBRANCH   1  11
TORSDOF 14
ENDMDL
MODEL 3
REMARK VINA RESULT:    -3.684      9.328     11.968
REMARK INTER + INTRA:          -8.391
REMARK INTER:                  -6.193
REMARK INTRA:                  -2.198
REMARK UNBOUND:                -1.691
REMARK SMILES CCCCCCCCCCCCCCCC(=O)[O-]
REMARK SMILES IDX 9 1 10 2 11 3 12 4 13 5 14 6 15 7 16 8 17 9 18 10 8 11 7 12
REMARK SMILES IDX 6 13 5 14 4 15 3 16 2 17 1 18
REMARK H PARENT
REMARK Flexibility Score: inf
ROOT
ATOM      1  C   UNL     1     126.865  54.230  43.739  1.00  0.00     0.000 C 
ENDROOT
BRANCH   1   2
ATOM      2  C   UNL     1     126.125  53.823  45.027  1.00  0.00     0.000 C 
BRANCH   2   3
ATOM      3  C   UNL     1     125.572  52.385  45.035  1.00  0.00     0.000 C 
BRANCH   3   4
ATOM      4  C   UNL     1     124.036  52.276  45.102  1.00  0.00     0.000 C 
BRANCH   4   5
ATOM      5  C   UNL     1     123.348  52.339  43.722  1.00  0.00     0.000 C 
BRANCH   5   6
ATOM      6  C   UNL     1     124.224  51.752  42.602  1.00  0.00     0.006 C 
BRANCH   6   7
ATOM      7  C   UNL     1     123.789  50.334  42.208  1.00  0.00     0.053 C 
BRANCH   7   8
ATOM      8  C   UNL     1     123.064  50.321  40.897  1.00  0.00     0.041 C 
ATOM      9  O   UNL     1     123.177  49.335  40.121  1.00  0.00    -0.550 OA
ATOM     10  O   UNL     1     122.243  51.385  40.545  1.00  0.00    -0.550 OA
ENDBRANCH   7   8
ENDBRANCH   6   7
ENDBRANCH   5   6
ENDBRANCH   4   5
ENDBRANCH   3   4
ENDBRANCH   2   3
ENDBRANCH   1   2
BRANCH   1  11
ATOM     11  C   UNL     1     126.072  55.235  42.887  1.00  0.00     0.000 C 
BRANCH  11  12
ATOM     12  C   UNL     1     124.799  55.730  43.592  1.00  0.00    -0.000 C 
BRANCH  12  13
ATOM     13  C   UNL     1     124.937  57.171  44.116  1.00  0.00    -0.000 C 
BRANCH  13  14
ATOM     14  C   UNL     1     124.546  57.299  45.598  1.00  0.00    -0.000 C 
BRANCH  14  15
ATOM     15  C   UNL     1     123.291  56.484  45.957  1.00  0.00    -0.000 C 
BRANCH  15  16
ATOM     16  C   UNL     1     123.537  55.526  47.141  1.00  0.00    -0.000 C 
BRANCH  16  17
ATOM     17  C   UNL     1     124.904  55.724  47.818  1.00  0.00    -0.003 C 
ATOM     18  C   UNL     1     125.349  54.513  48.635  1.00  0.00     0.004 C 
ENDBRANCH  16  17
ENDBRANCH  15  16
ENDBRANCH  14  15
ENDBRANCH  13  14
ENDBRANCH  12  13
ENDBRANCH  11  12
ENDBRANCH   1  11
TORSDOF 14
ENDMDL
MODEL 4
REMARK VINA RESULT:    -3.671      6.294      9.368
REMARK INTER + INTRA:          -8.366
REMARK INTER:                  -6.927
REMARK INTRA:                  -1.439
REMARK UNBOUND:                -1.691
REMARK SMILES CCCCCCCCCCCCCCCC(=O)[O-]
REMARK SMILES IDX 9 1 10 2 11 3 12 4 13 5 14 6 15 7 16 8 17 9 18 10 8 11 7 12
REMARK SMILES IDX 6 13 5 14 4 15 3 16 2 17 1 18
REMARK H PARENT
REMARK Flexibility Score: inf
ROOT
ATOM      1  C   UNL     1     124.547  55.538  46.785  1.00  0.00     0.000 C 
ENDROOT
BRANCH   1   2
ATOM      2  C   UNL     1     125.169  55.675  48.187  1.00  0.00     0.000 C 
BRANCH   2   3
ATOM      3  C   UNL     1     125.280  54.359  48.982  1.00  0.00     0.000 C 
BRANCH   3   4
ATOM      4  C   UNL     1     124.922  54.468  50.477  1.00  0.00     0.000 C 
BRANCH   4   5
ATOM      5  C   UNL     1     123.442  54.821  50.737  1.00  0.00     0.000 C 
BRANCH   5   6
ATOM      6  C   UNL     1     123.275  55.867  51.854  1.00  0.00     0.006 C 
BRANCH   6   7
ATOM      7  C   UNL     1     124.619  56.456  52.300  1.00  0.00     0.053 C 
BRANCH   7   8
ATOM      8  C   UNL     1     124.731  57.909  51.952  1.00  0.00     0.041 C 
ATOM      9  O   UNL     1     125.858  58.471  51.933  1.00  0.00    -0.550 OA
ATOM     10  O   UNL     1     123.593  58.634  51.621  1.00  0.00    -0.550 OA
ENDBRANCH   7   8
ENDBRANCH   6   7
ENDBRANCH   5   6
ENDBRANCH   4   5
ENDBRANCH   3   4
ENDBRANCH   2   3
ENDBRANCH   1   2
BRANCH   1  11
ATOM     11  C   UNL     1     124.200  56.896  46.151  1.00  0.00     0.000 C 
BRANCH  11  12
ATOM     12  C   UNL     1     124.688  57.009  44.698  1.00  0.00    -0.000 C 
BRANCH  12  13
ATOM     13  C   UNL     1     123.799  56.227  43.715  1.00  0.00    -0.000 C 
BRANCH  13  14
ATOM     14  C   UNL     1     124.436  54.901  43.269  1.00  0.00    -0.000 C 
BRANCH  14  15
ATOM     15  C   UNL     1     125.964  54.999  43.110  1.00  0.00    -0.000 C 
BRANCH  15  16
ATOM     16  C   UNL     1     126.708  53.961  43.976  1.00  0.00    -0.000 C 
BRANCH  16  17
ATOM     17  C   UNL     1     125.774  52.943  44.653  1.00  0.00    -0.003 C 
ATOM     18  C   UNL     1     126.362  52.349  45.932  1.00  0.00     0.004 C 
ENDBRANCH  16  17
ENDBRANCH  15  16
ENDBRANCH  14  15
ENDBRANCH  13  14
ENDBRANCH  12  13
ENDBRANCH  11  12
ENDBRANCH   1  11
TORSDOF 14
ENDMDL
MODEL 5
REMARK VINA RESULT:    -3.617      6.653      9.804
REMARK INTER + INTRA:          -8.269
REMARK INTER:                  -6.543
REMARK INTRA:                  -1.726
REMARK UNBOUND:                -1.691
REMARK SMILES CCCCCCCCCCCCCCCC(=O)[O-]
REMARK SMILES IDX 9 1 10 2 11 3 12 4 13 5 14 6 15 7 16 8 17 9 18 10 8 11 7 12
REMARK SMILES IDX 6 13 5 14 4 15 3 16 2 17 1 18
REMARK H PARENT
REMARK Flexibility Score: inf
ROOT
ATOM      1  C   UNL     1     123.436  55.874  45.314  1.00  0.00     0.000 C 
ENDROOT
BRANCH   1   2
ATOM      2  C   UNL     1     124.408  56.518  46.320  1.00  0.00     0.000 C 
BRANCH   2   3
ATOM      3  C   UNL     1     125.155  55.525  47.231  1.00  0.00     0.000 C 
BRANCH   3   4
ATOM      4  C   UNL     1     124.999  55.782  48.743  1.00  0.00     0.000 C 
BRANCH   4   5
ATOM      5  C   UNL     1     123.572  56.199  49.158  1.00  0.00     0.000 C 
BRANCH   5   6
ATOM      6  C   UNL     1     123.375  56.179  50.684  1.00  0.00     0.006 C 
BRANCH   6   7
ATOM      7  C   UNL     1     124.683  56.444  51.440  1.00  0.00     0.053 C 
BRANCH   7   8
ATOM      8  C   UNL     1     124.870  57.903  51.727  1.00  0.00     0.041 C 
ATOM      9  O   UNL     1     123.873  58.668  51.799  1.00  0.00    -0.550 OA
ATOM     10  O   UNL     1     126.145  58.411  51.943  1.00  0.00    -0.550 OA
ENDBRANCH   7   8
ENDBRANCH   6   7
ENDBRANCH   5   6
ENDBRANCH   4   5
ENDBRANCH   3   4
ENDBRANCH   2   3
ENDBRANCH   1   2
BRANCH   1  11
ATOM     11  C   UNL     1     123.814  56.163  43.851  1.00  0.00     0.000 C 
BRANCH  11  12
ATOM     12  C   UNL     1     125.331  56.310  43.651  1.00  0.00    -0.000 C 
BRANCH  12  13
ATOM     13  C   UNL     1     125.940  55.131  42.872  1.00  0.00    -0.000 C 
BRANCH  13  14
ATOM     14  C   UNL     1     126.684  54.142  43.784  1.00  0.00    -0.000 C 
BRANCH  14  15
ATOM     15  C   UNL     1     125.788  52.988  44.268  1.00  0.00    -0.000 C 
BRANCH  15  16
ATOM     16  C   UNL     1     126.234  52.440  45.639  1.00  0.00    -0.000 C 
BRANCH  16  17
ATOM     17  C   UNL     1     125.066  51.974  46.525  1.00  0.00    -0.003 C 
ATOM     18  C   UNL     1     123.697  52.256  45.909  1.00  0.00     0.004 C 
ENDBRANCH  16  17
ENDBRANCH  15  16
ENDBRANCH  14  15
ENDBRANCH  13  14
ENDBRANCH  12  13
ENDBRANCH  11  12
ENDBRANCH   1  11
TORSDOF 14
ENDMDL
MODEL 6
REMARK VINA RESULT:    -3.608      3.152      5.252
REMARK INTER + INTRA:          -8.252
REMARK INTER:                  -5.781
REMARK INTRA:                  -2.471
REMARK UNBOUND:                -1.691
REMARK SMILES CCCCCCCCCCCCCCCC(=O)[O-]
REMARK SMILES IDX 9 1 10 2 11 3 12 4 13 5 14 6 15 7 16 8 17 9 18 10 8 11 7 12
REMARK SMILES IDX 6 13 5 14 4 15 3 16 2 17 1 18
REMARK H PARENT
REMARK Flexibility Score: inf
ROOT
ATOM      1  C   UNL     1     117.001  53.756  50.440  1.00  0.00     0.000 C 
ENDROOT
BRANCH   1   2
ATOM      2  C   UNL     1     115.628  53.408  51.045  1.00  0.00     0.000 C 
BRANCH   2   3
ATOM      3  C   UNL     1     115.515  53.611  52.568  1.00  0.00     0.000 C 
BRANCH   3   4
ATOM      4  C   UNL     1     115.501  52.315  53.400  1.00  0.00     0.000 C 
BRANCH   4   5
ATOM      5  C   UNL     1     116.480  52.332  54.594  1.00  0.00     0.000 C 
BRANCH   5   6
ATOM      6  C   UNL     1     117.951  52.246  54.149  1.00  0.00     0.006 C 
BRANCH   6   7
ATOM      7  C   UNL     1     118.756  53.482  54.569  1.00  0.00     0.053 C 
BRANCH   7   8
ATOM      8  C   UNL     1     119.362  54.177  53.388  1.00  0.00     0.041 C 
ATOM      9  O   UNL     1     118.830  55.222  52.927  1.00  0.00    -0.550 OA
ATOM     10  O   UNL     1     120.528  53.686  52.815  1.00  0.00    -0.550 OA
ENDBRANCH   7   8
ENDBRANCH   6   7
ENDBRANCH   5   6
ENDBRANCH   4   5
ENDBRANCH   3   4
ENDBRANCH   2   3
ENDBRANCH   1   2
BRANCH   1  11
ATOM     11  C   UNL     1     117.956  52.550  50.393  1.00  0.00     0.000 C 
BRANCH  11  12
ATOM     12  C   UNL     1     117.224  51.230  50.102  1.00  0.00    -0.000 C 
BRANCH  12  13
ATOM     13  C   UNL     1     117.583  50.123  51.109  1.00  0.00    -0.000 C 
BRANCH  13  14
ATOM     14  C   UNL     1     116.365  49.274  51.510  1.00  0.00    -0.000 C 
BRANCH  14  15
ATOM     15  C   UNL     1     115.064  49.740  50.831  1.00  0.00    -0.000 C 
BRANCH  15  16
ATOM     16  C   UNL     1     114.543  48.713  49.805  1.00  0.00    -0.000 C 
BRANCH  16  17
ATOM     17  C   UNL     1     114.607  49.211  48.350  1.00  0.00    -0.003 C 
ATOM     18  C   UNL     1     114.173  50.667  48.195  1.00  0.00     0.004 C 
ENDBRANCH  16  17
ENDBRANCH  15  16
ENDBRANCH  14  15
ENDBRANCH  13  14
ENDBRANCH  12  13
ENDBRANCH  11  12
ENDBRANCH   1  11
TORSDOF 14
ENDMDL
MODEL 7
REMARK VINA RESULT:    -3.563      1.050      2.576
REMARK INTER + INTRA:          -8.171
REMARK INTER:                  -6.050
REMARK INTRA:                  -2.120
REMARK UNBOUND:                -1.691
REMARK SMILES CCCCCCCCCCCCCCCC(=O)[O-]
REMARK SMILES IDX 9 1 10 2 11 3 12 4 13 5 14 6 15 7 16 8 17 9 18 10 8 11 7 12
REMARK SMILES IDX 6 13 5 14 4 15 3 16 2 17 1 18
REMARK H PARENT
REMARK Flexibility Score: inf
ROOT
ATOM      1  C   UNL     1     119.363  53.132  52.664  1.00  0.00     0.000 C 
ENDROOT
BRANCH   1   2
ATOM      2  C   UNL     1     119.834  52.268  53.849  1.00  0.00     0.000 C 
BRANCH   2   3
ATOM      3  C   UNL     1     120.167  53.049  55.134  1.00  0.00     0.000 C 
BRANCH   3   4
ATOM      4  C   UNL     1     121.652  53.029  55.545  1.00  0.00     0.000 C 
BRANCH   4   5
ATOM      5  C   UNL     1     122.479  54.185  54.943  1.00  0.00     0.000 C 
BRANCH   5   6
ATOM      6  C   UNL     1     123.183  53.784  53.634  1.00  0.00     0.006 C 
BRANCH   6   7
ATOM      7  C   UNL     1     122.811  54.712  52.470  1.00  0.00     0.053 C 
BRANCH   7   8
ATOM      8  C   UNL     1     124.025  55.186  51.731  1.00  0.00     0.041 C 
ATOM      9  O   UNL     1     125.057  55.533  52.364  1.00  0.00    -0.550 OA
ATOM     10  O   UNL     1     124.025  55.218  50.342  1.00  0.00    -0.550 OA
ENDBRANCH   7   8
ENDBRANCH   6   7
ENDBRANCH   5   6
ENDBRANCH   4   5
ENDBRANCH   3   4
ENDBRANCH   2   3
ENDBRANCH   1   2
BRANCH   1  11
ATOM     11  C   UNL     1     119.029  54.577  53.074  1.00  0.00     0.000 C 
BRANCH  11  12
ATOM     12  C   UNL     1     118.295  55.349  51.967  1.00  0.00    -0.000 C 
BRANCH  12  13
ATOM     13  C   UNL     1     117.642  54.417  50.931  1.00  0.00    -0.000 C 
BRANCH  13  14
ATOM     14  C   UNL     1     116.136  54.227  51.176  1.00  0.00    -0.000 C 
BRANCH  14  15
ATOM     15  C   UNL     1     115.680  52.770  50.980  1.00  0.00    -0.000 C 
BRANCH  15  16
ATOM     16  C   UNL     1     115.593  52.001  52.314  1.00  0.00    -0.000 C 
BRANCH  16  17
ATOM     17  C   UNL     1     115.545  52.917  53.550  1.00  0.00    -0.003 C 
ATOM     18  C   UNL     1     116.341  52.369  54.733  1.00  0.00     0.004 C 
ENDBRANCH  16  17
ENDBRANCH  15  16
ENDBRANCH  14  15
ENDBRANCH  13  14
ENDBRANCH  12  13
ENDBRANCH  11  12
ENDBRANCH   1  11
TORSDOF 14
ENDMDL
MODEL 8
REMARK VINA RESULT:    -3.559      1.460      2.367
REMARK INTER + INTRA:          -8.164
REMARK INTER:                  -6.653
REMARK INTRA:                  -1.511
REMARK UNBOUND:                -1.691
REMARK SMILES CCCCCCCCCCCCCCCC(=O)[O-]
REMARK SMILES IDX 9 1 10 2 11 3 12 4 13 5 14 6 15 7 16 8 17 9 18 10 8 11 7 12
REMARK SMILES IDX 6 13 5 14 4 15 3 16 2 17 1 18
REMARK H PARENT
REMARK Flexibility Score: inf
ROOT
ATOM      1  C   UNL     1     118.167  52.104  53.982  1.00  0.00     0.000 C 
ENDROOT
BRANCH   1   2
ATOM      2  C   UNL     1     119.159  53.282  53.972  1.00  0.00     0.000 C 
BRANCH   2   3
ATOM      3  C   UNL     1     119.465  53.890  55.354  1.00  0.00     0.000 C 
BRANCH   3   4
ATOM      4  C   UNL     1     120.748  53.367  56.028  1.00  0.00     0.000 C 
BRANCH   4   5
ATOM      5  C   UNL     1     122.019  54.151  55.636  1.00  0.00     0.000 C 
BRANCH   5   6
ATOM      6  C   UNL     1     122.741  53.531  54.426  1.00  0.00     0.006 C 
BRANCH   6   7
ATOM      7  C   UNL     1     122.901  54.531  53.273  1.00  0.00     0.053 C 
BRANCH   7   8
ATOM      8  C   UNL     1     124.308  54.564  52.760  1.00  0.00     0.041 C 
ATOM      9  O   UNL     1     124.836  55.659  52.433  1.00  0.00    -0.550 OA
ATOM     10  O   UNL     1     125.043  53.389  52.669  1.00  0.00    -0.550 OA
ENDBRANCH   7   8
ENDBRANCH   6   7
ENDBRANCH   5   6
ENDBRANCH   4   5
ENDBRANCH   3   4
ENDBRANCH   2   3
ENDBRANCH   1   2
BRANCH   1  11
ATOM     11  C   UNL     1     116.830  52.455  54.658  1.00  0.00     0.000 C 
BRANCH  11  12
ATOM     12  C   UNL     1     115.627  52.256  53.722  1.00  0.00    -0.000 C 
BRANCH  12  13
ATOM     13  C   UNL     1     115.276  53.530  52.934  1.00  0.00    -0.000 C 
BRANCH  13  14
ATOM     14  C   UNL     1     115.884  53.536  51.522  1.00  0.00    -0.000 C 
BRANCH  14  15
ATOM     15  C   UNL     1     115.621  52.229  50.753  1.00  0.00    -0.000 C 
BRANCH  15  16
ATOM     16  C   UNL     1     116.928  51.505  50.371  1.00  0.00    -0.000 C 
BRANCH  16  17
ATOM     17  C   UNL     1     117.078  50.120  51.024  1.00  0.00    -0.003 C 
ATOM     18  C   UNL     1     115.739  49.445  51.311  1.00  0.00     0.004 C 
ENDBRANCH  16  17
ENDBRANCH  15  16
ENDBRANCH  14  15
ENDBRANCH  13  14
ENDBRANCH  12  13
ENDBRANCH  11  12
ENDBRANCH   1  11
TORSDOF 14
ENDMDL
MODEL 9
REMARK VINA RESULT:    -3.551      1.621      3.675
REMARK INTER + INTRA:          -8.149
REMARK INTER:                  -6.700
REMARK INTRA:                  -1.449
REMARK UNBOUND:                -1.691
REMARK SMILES CCCCCCCCCCCCCCCC(=O)[O-]
REMARK SMILES IDX 9 1 10 2 11 3 12 4 13 5 14 6 15 7 16 8 17 9 18 10 8 11 7 12
REMARK SMILES IDX 6 13 5 14 4 15 3 16 2 17 1 18
REMARK H PARENT
REMARK Flexibility Score: inf
ROOT
ATOM      1  C   UNL     1     122.049  54.236  55.300  1.00  0.00     0.000 C 
ENDROOT
BRANCH   1   2
ATOM      2  C   UNL     1     122.874  53.250  54.452  1.00  0.00     0.000 C 
BRANCH   2   3
ATOM      3  C   UNL     1     122.617  53.321  52.935  1.00  0.00     0.000 C 
BRANCH   3   4
ATOM      4  C   UNL     1     122.549  54.745  52.350  1.00  0.00     0.000 C 
BRANCH   4   5
ATOM      5  C   UNL     1     123.163  54.868  50.939  1.00  0.00     0.000 C 
BRANCH   5   6
ATOM      6  C   UNL     1     124.552  55.530  50.959  1.00  0.00     0.006 C 
BRANCH   6   7
ATOM      7  C   UNL     1     124.786  56.347  52.235  1.00  0.00     0.053 C 
BRANCH   7   8
ATOM      8  C   UNL     1     124.817  57.819  51.953  1.00  0.00     0.041 C 
ATOM      9  O   UNL     1     123.749  58.440  51.712  1.00  0.00    -0.550 OA
ATOM     10  O   UNL     1     126.023  58.507  51.984  1.00  0.00    -0.550 OA
ENDBRANCH   7   8
ENDBRANCH   6   7
ENDBRANCH   5   6
ENDBRANCH   4   5
ENDBRANCH   3   4
ENDBRANCH   2   3
ENDBRANCH   1   2
BRANCH   1  11
ATOM     11  C   UNL     1     120.951  53.542  56.125  1.00  0.00     0.000 C 
BRANCH  11  12
ATOM     12  C   UNL     1     119.546  54.074  55.801  1.00  0.00    -0.000 C 
BRANCH  12  13
ATOM     13  C   UNL     1     119.181  53.909  54.315  1.00  0.00    -0.000 C 
BRANCH  13  14
ATOM     14  C   UNL     1     119.068  52.434  53.896  1.00  0.00    -0.000 C 
BRANCH  14  15
ATOM     15  C   UNL     1     117.802  52.144  53.069  1.00  0.00    -0.000 C 
BRANCH  15  16
ATOM     16  C   UNL     1     117.443  53.312  52.126  1.00  0.00    -0.000 C 
BRANCH  16  17
ATOM     17  C   UNL     1     115.961  53.722  52.192  1.00  0.00    -0.003 C 
ATOM     18  C   UNL     1     115.249  53.197  53.437  1.00  0.00     0.004 C 
ENDBRANCH  16  17
ENDBRANCH  15  16
ENDBRANCH  14  15
ENDBRANCH  13  14
ENDBRANCH  12  13
ENDBRANCH  11  12
ENDBRANCH   1  11
TORSDOF 14
ENDMDL
