MODEL 1
REMARK VINA RESULT:    -4.087      0.000      0.000
REMARK INTER + INTRA:          -5.361
REMARK INTER:                  -5.998
REMARK INTRA:                   0.637
REMARK UNBOUND:                 0.637
REMARK SMILES C=C1CC=CC(C)(C)CC=C(C)CCC1
REMARK SMILES IDX 2 1 1 2 15 3 14 4 13 5 11 6 12 7 10 8 3 10 4 11 5 12 6 13
REMARK SMILES IDX 7 14 8 15 9 16
REMARK H PARENT
REMARK Flexibility Score: 60.00
ROOT
ATOM      1  C   UNL     1      -1.624  14.408   4.864  1.00  0.00    -0.074 C 
ATOM      2  C   UNL     1      -2.588  14.230   5.783  1.00  0.00     0.008 C 
ENDROOT
BRANCH   1   3
ATOM      3  C   UNL     1      -1.994  14.991   3.511  1.00  0.00     0.031 C 
BRANCH   3   4
ATOM      4  C   UNL     1      -1.419  14.174   2.343  1.00  0.00     0.009 C 
BRANCH   4   5
ATOM      5  C   UNL     1      -0.248  14.868   1.620  1.00  0.00     0.030 C 
BRANCH   5   6
ATOM      6  C   UNL     1       0.796  13.885   1.100  1.00  0.00    -0.077 C 
ATOM      7  C   UNL     1       0.608  13.322  -0.288  1.00  0.00     0.039 C 
ATOM      8  C   UNL     1       1.911  13.505   1.775  1.00  0.00    -0.027 CG0
ATOM      9  G   UNL     1       2.409  14.037   3.107  1.00  0.00     0.000 G0
ENDBRANCH   5   6
ENDBRANCH   4   5
ENDBRANCH   3   4
ENDBRANCH   1   3
BRANCH   1  10
ATOM     10  C   UNL     1      -0.185  14.119   5.240  1.00  0.00     0.057 C 
BRANCH  10  11
ATOM     11  C   UNL     1       0.184  12.676   5.007  1.00  0.00    -0.026 C 
ATOM     12  C   UNL     1       1.361  12.190   4.555  1.00  0.00    -0.024 C 
BRANCH  12  13
ATOM     13  C   UNL     1       2.641  12.956   4.196  1.00  0.00    -0.014 C 
ATOM     14  C   UNL     1       3.256  13.591   5.463  1.00  0.00     0.016 C 
ATOM     15  C   UNL     1       3.673  11.926   3.669  1.00  0.00     0.016 C 
BRANCH  13  16
ATOM     16  C   UNL     1       2.420  14.046   3.098  1.00  0.00     0.038 CG0
ATOM     17  G   UNL     1       1.918  13.482   1.781  1.00  0.00     0.000 G0
ENDBRANCH  13  16
ENDBRANCH  12  13
ENDBRANCH  10  11
ENDBRANCH   1  10
TORSDOF 0
ENDMDL
MODEL 2
REMARK VINA RESULT:    -4.051      1.064      3.618
REMARK INTER + INTRA:          -5.309
REMARK INTER:                  -6.313
REMARK INTRA:                   1.005
REMARK UNBOUND:                 0.637
REMARK SMILES C=C1CC=CC(C)(C)CC=C(C)CCC1
REMARK SMILES IDX 2 1 1 2 15 3 14 4 13 5 11 6 12 7 10 8 3 10 4 11 5 12 6 13
REMARK SMILES IDX 7 14 8 15 9 16
REMARK H PARENT
REMARK Flexibility Score: 60.00
ROOT
ATOM      1  C   UNL     1      -0.491  13.886   5.481  1.00  0.00    -0.074 C 
ATOM      2  C   UNL     1      -1.730  14.100   5.952  1.00  0.00     0.008 C 
ENDROOT
BRANCH   1   3
ATOM      3  C   UNL     1       0.686  13.964   6.439  1.00  0.00     0.031 C 
BRANCH   3   4
ATOM      4  C   UNL     1       1.819  12.997   6.058  1.00  0.00     0.009 C 
BRANCH   4   5
ATOM      5  C   UNL     1       2.926  13.648   5.206  1.00  0.00     0.030 C 
BRANCH   5   6
ATOM      6  C   UNL     1       3.113  12.967   3.855  1.00  0.00    -0.077 C 
ATOM      7  C   UNL     1       3.645  11.554   3.841  1.00  0.00     0.039 C 
ATOM      8  C   UNL     1       2.797  13.519   2.655  1.00  0.00    -0.027 CG0
ATOM      9  G   UNL     1       2.110  14.849   2.405  1.00  0.00     0.000 G0
ENDBRANCH   5   6
ENDBRANCH   4   5
ENDBRANCH   3   4
ENDBRANCH   1   3
BRANCH   1  10
ATOM     10  C   UNL     1      -0.313  13.473   4.034  1.00  0.00     0.057 C 
BRANCH  10  11
ATOM     11  C   UNL     1      -0.978  14.436   3.083  1.00  0.00    -0.026 C 
ATOM     12  C   UNL     1      -0.450  14.989   1.970  1.00  0.00    -0.024 C 
BRANCH  12  13
ATOM     13  C   UNL     1       0.937  14.764   1.351  1.00  0.00    -0.014 C 
ATOM     14  C   UNL     1       0.980  13.406   0.616  1.00  0.00     0.016 C 
ATOM     15  C   UNL     1       1.155  15.860   0.276  1.00  0.00     0.016 C 
BRANCH  13  16
ATOM     16  C   UNL     1       2.098  14.852   2.393  1.00  0.00     0.038 CG0
ATOM     17  G   UNL     1       2.772  13.519   2.658  1.00  0.00     0.000 G0
ENDBRANCH  13  16
ENDBRANCH  12  13
ENDBRANCH  10  11
ENDBRANCH   1  10
TORSDOF 0
ENDMDL
MODEL 3
REMARK VINA RESULT:    -4.044      1.657      3.974
REMARK INTER + INTRA:          -5.298
REMARK INTER:                  -6.651
REMARK INTRA:                   1.353
REMARK UNBOUND:                 0.637
REMARK SMILES C=C1CC=CC(C)(C)CC=C(C)CCC1
REMARK SMILES IDX 2 1 1 2 15 3 14 4 13 5 11 6 12 7 10 8 3 10 4 11 5 12 6 13
REMARK SMILES IDX 7 14 8 15 9 16
REMARK H PARENT
REMARK Flexibility Score: 60.00
ROOT
ATOM      1  C   UNL     1       2.910  13.457   3.429  1.00  0.00    -0.074 C 
ATOM      2  C   UNL     1       4.006  14.216   3.585  1.00  0.00     0.008 C 
ENDROOT
BRANCH   1   3
ATOM      3  C   UNL     1       2.220  13.427   2.075  1.00  0.00     0.031 C 
BRANCH   3   4
ATOM      4  C   UNL     1       1.364  14.679   1.825  1.00  0.00     0.009 C 
BRANCH   4   5
ATOM      5  C   UNL     1      -0.055  14.364   1.310  1.00  0.00     0.030 C 
BRANCH   5   6
ATOM      6  C   UNL     1      -1.148  14.794   2.282  1.00  0.00    -0.077 C 
ATOM      7  C   UNL     1      -2.179  15.785   1.796  1.00  0.00     0.039 C 
ATOM      8  C   UNL     1      -1.295  14.321   3.547  1.00  0.00    -0.027 CG0
ATOM      9  G   UNL     1      -0.497  13.218   4.217  1.00  0.00     0.000 G0
ENDBRANCH   5   6
ENDBRANCH   4   5
ENDBRANCH   3   4
ENDBRANCH   1   3
BRANCH   1  10
ATOM     10  C   UNL     1       2.454  12.575   4.574  1.00  0.00     0.057 C 
BRANCH  10  11
ATOM     11  C   UNL     1       2.150  13.372   5.818  1.00  0.00    -0.026 C 
ATOM     12  C   UNL     1       0.934  13.691   6.314  1.00  0.00    -0.024 C 
BRANCH  12  13
ATOM     13  C   UNL     1      -0.452  13.305   5.780  1.00  0.00    -0.014 C 
ATOM     14  C   UNL     1      -0.921  11.981   6.424  1.00  0.00     0.016 C 
ATOM     15  C   UNL     1      -1.452  14.399   6.233  1.00  0.00     0.016 C 
BRANCH  13  16
ATOM     16  C   UNL     1      -0.504  13.196   4.222  1.00  0.00     0.038 CG0
ATOM     17  G   UNL     1      -1.290  14.317   3.566  1.00  0.00     0.000 G0
ENDBRANCH  13  16
ENDBRANCH  12  13
ENDBRANCH  10  11
ENDBRANCH   1  10
TORSDOF 0
ENDMDL
MODEL 4
REMARK VINA RESULT:    -3.981      1.289      3.997
REMARK INTER + INTRA:          -5.206
REMARK INTER:                  -6.316
REMARK INTRA:                   1.110
REMARK UNBOUND:                 0.637
REMARK SMILES C=C1CC=CC(C)(C)CC=C(C)CCC1
REMARK SMILES IDX 2 1 1 2 15 3 14 4 13 5 11 6 12 7 10 8 3 10 4 11 5 12 6 13
REMARK SMILES IDX 7 14 8 15 9 16
REMARK H PARENT
REMARK Flexibility Score: 60.00
ROOT
ATOM      1  C   UNL     1       0.969  13.264   5.324  1.00  0.00    -0.074 C 
ATOM      2  C   UNL     1       0.304  13.678   6.415  1.00  0.00     0.008 C 
ENDROOT
BRANCH   1   3
ATOM      3  C   UNL     1       2.457  12.976   5.433  1.00  0.00     0.031 C 
BRANCH   3   4
ATOM      4  C   UNL     1       2.992  12.188   4.226  1.00  0.00     0.009 C 
BRANCH   4   5
ATOM      5  C   UNL     1       4.164  12.882   3.505  1.00  0.00     0.030 C 
BRANCH   5   6
ATOM      6  C   UNL     1       3.836  14.308   3.075  1.00  0.00    -0.077 C 
ATOM      7  C   UNL     1       4.765  15.413   3.516  1.00  0.00     0.039 C 
ATOM      8  C   UNL     1       2.788  14.660   2.285  1.00  0.00    -0.027 CG0
ATOM      9  G   UNL     1       1.807  13.736   1.589  1.00  0.00     0.000 G0
ENDBRANCH   5   6
ENDBRANCH   4   5
ENDBRANCH   3   4
ENDBRANCH   1   3
BRANCH   1  10
ATOM     10  C   UNL     1       0.198  12.999   4.047  1.00  0.00     0.057 C 
BRANCH  10  11
ATOM     11  C   UNL     1      -0.536  14.223   3.562  1.00  0.00    -0.026 C 
ATOM     12  C   UNL     1      -0.415  14.835   2.364  1.00  0.00    -0.024 C 
BRANCH  12  13
ATOM     13  C   UNL     1       0.460  14.438   1.168  1.00  0.00    -0.014 C 
ATOM     14  C   UNL     1      -0.335  13.531   0.202  1.00  0.00     0.016 C 
ATOM     15  C   UNL     1       0.800  15.732   0.384  1.00  0.00     0.016 C 
BRANCH  13  16
ATOM     16  C   UNL     1       1.796  13.743   1.585  1.00  0.00     0.038 CG0
ATOM     17  G   UNL     1       2.770  14.677   2.279  1.00  0.00     0.000 G0
ENDBRANCH  13  16
ENDBRANCH  12  13
ENDBRANCH  10  11
ENDBRANCH   1  10
TORSDOF 0
ENDMDL
MODEL 5
REMARK VINA RESULT:    -3.868      1.523      4.711
REMARK INTER + INTRA:          -5.040
REMARK INTER:                  -5.841
REMARK INTRA:                   0.801
REMARK UNBOUND:                 0.637
REMARK SMILES C=C1CC=CC(C)(C)CC=C(C)CCC1
REMARK SMILES IDX 2 1 1 2 15 3 14 4 13 5 11 6 12 7 10 8 3 10 4 11 5 12 6 13
REMARK SMILES IDX 7 14 8 15 9 16
REMARK H PARENT
REMARK Flexibility Score: 60.00
ROOT
ATOM      1  C   UNL     1       3.092  13.232   4.152  1.00  0.00    -0.074 C 
ATOM      2  C   UNL     1       3.337  11.927   3.952  1.00  0.00     0.008 C 
ENDROOT
BRANCH   1   3
ATOM      3  C   UNL     1       3.179  13.791   5.562  1.00  0.00     0.031 C 
BRANCH   3   4
ATOM      4  C   UNL     1       2.003  13.343   6.445  1.00  0.00     0.009 C 
BRANCH   4   5
ATOM      5  C   UNL     1       0.670  14.032   6.093  1.00  0.00     0.030 C 
BRANCH   5   6
ATOM      6  C   UNL     1      -0.217  13.183   5.189  1.00  0.00    -0.077 C 
ATOM      7  C   UNL     1      -0.819  11.924   5.766  1.00  0.00     0.039 C 
ATOM      8  C   UNL     1      -0.546  13.494   3.908  1.00  0.00    -0.027 CG0
ATOM      9  G   UNL     1      -0.206  14.764   3.152  1.00  0.00     0.000 G0
ENDBRANCH   5   6
ENDBRANCH   4   5
ENDBRANCH   3   4
ENDBRANCH   1   3
BRANCH   1  10
ATOM     10  C   UNL     1       2.837  14.126   2.955  1.00  0.00     0.057 C 
BRANCH  10  11
ATOM     11  C   UNL     1       2.253  13.364   1.792  1.00  0.00    -0.026 C 
ATOM     12  C   UNL     1       1.033  13.522   1.234  1.00  0.00    -0.024 C 
BRANCH  12  13
ATOM     13  C   UNL     1      -0.066  14.529   1.598  1.00  0.00    -0.014 C 
ATOM     14  C   UNL     1       0.187  15.876   0.885  1.00  0.00     0.016 C 
ATOM     15  C   UNL     1      -1.408  13.980   1.049  1.00  0.00     0.016 C 
BRANCH  13  16
ATOM     16  C   UNL     1      -0.212  14.752   3.138  1.00  0.00     0.038 CG0
ATOM     17  G   UNL     1      -0.546  13.484   3.902  1.00  0.00     0.000 G0
ENDBRANCH  13  16
ENDBRANCH  12  13
ENDBRANCH  10  11
ENDBRANCH   1  10
TORSDOF 0
ENDMDL
MODEL 6
REMARK VINA RESULT:    -3.663      1.797      4.659
REMARK INTER + INTRA:          -4.739
REMARK INTER:                  -5.588
REMARK INTRA:                   0.849
REMARK UNBOUND:                 0.637
REMARK SMILES C=C1CC=CC(C)(C)CC=C(C)CCC1
REMARK SMILES IDX 2 1 1 2 15 3 14 4 13 5 11 6 12 7 10 8 3 10 4 11 5 12 6 13
REMARK SMILES IDX 7 14 8 15 9 16
REMARK H PARENT
REMARK Flexibility Score: 60.00
ROOT
ATOM      1  C   UNL     1       1.297  13.095   4.848  1.00  0.00    -0.074 C 
ATOM      2  C   UNL     1       2.339  13.371   5.648  1.00  0.00     0.008 C 
ENDROOT
BRANCH   1   3
ATOM      3  C   UNL     1      -0.069  12.858   5.471  1.00  0.00     0.031 C 
BRANCH   3   4
ATOM      4  C   UNL     1      -0.778  14.169   5.847  1.00  0.00     0.009 C 
BRANCH   4   5
ATOM      5  C   UNL     1      -2.289  14.162   5.545  1.00  0.00     0.030 C 
BRANCH   5   6
ATOM      6  C   UNL     1      -2.694  15.213   4.516  1.00  0.00    -0.077 C 
ATOM      7  C   UNL     1      -3.484  16.406   4.997  1.00  0.00     0.039 C 
ATOM      8  C   UNL     1      -2.361  15.182   3.200  1.00  0.00    -0.027 CG0
ATOM      9  G   UNL     1      -1.452  14.186   2.503  1.00  0.00     0.000 G0
ENDBRANCH   5   6
ENDBRANCH   4   5
ENDBRANCH   3   4
ENDBRANCH   1   3
BRANCH   1  10
ATOM     10  C   UNL     1       1.492  13.128   3.345  1.00  0.00     0.057 C 
BRANCH  10  11
ATOM     11  C   UNL     1       1.679  14.532   2.829  1.00  0.00    -0.026 C 
ATOM     12  C   UNL     1       0.852  15.228   2.017  1.00  0.00    -0.024 C 
BRANCH  12  13
ATOM     13  C   UNL     1      -0.504  14.803   1.437  1.00  0.00    -0.014 C 
ATOM     14  C   UNL     1      -1.186  16.003   0.742  1.00  0.00     0.016 C 
ATOM     15  C   UNL     1      -0.233  13.747   0.335  1.00  0.00     0.016 C 
BRANCH  13  16
ATOM     16  C   UNL     1      -1.462  14.178   2.501  1.00  0.00     0.038 CG0
ATOM     17  G   UNL     1      -2.340  15.202   3.196  1.00  0.00     0.000 G0
ENDBRANCH  13  16
ENDBRANCH  12  13
ENDBRANCH  10  11
ENDBRANCH   1  10
TORSDOF 0
ENDMDL
MODEL 7
REMARK VINA RESULT:    -3.614      2.039      4.045
REMARK INTER + INTRA:          -4.668
REMARK INTER:                  -5.413
REMARK INTRA:                   0.746
REMARK UNBOUND:                 0.637
REMARK SMILES C=C1CC=CC(C)(C)CC=C(C)CCC1
REMARK SMILES IDX 2 1 1 2 15 3 14 4 13 5 11 6 12 7 10 8 3 10 4 11 5 12 6 13
REMARK SMILES IDX 7 14 8 15 9 16
REMARK H PARENT
REMARK Flexibility Score: 60.00
ROOT
ATOM      1  C   UNL     1       4.766  16.011   3.495  1.00  0.00    -0.074 C 
ATOM      2  C   UNL     1       5.604  16.471   4.439  1.00  0.00     0.008 C 
ENDROOT
BRANCH   1   3
ATOM      3  C   UNL     1       4.275  16.964   2.418  1.00  0.00     0.031 C 
BRANCH   3   4
ATOM      4  C   UNL     1       3.635  16.227   1.230  1.00  0.00     0.009 C 
BRANCH   4   5
ATOM      5  C   UNL     1       2.097  16.160   1.300  1.00  0.00     0.030 C 
BRANCH   5   6
ATOM      6  C   UNL     1       1.552  14.752   1.082  1.00  0.00    -0.077 C 
ATOM      7  C   UNL     1       1.546  14.206  -0.325  1.00  0.00     0.039 C 
ATOM      8  C   UNL     1       1.109  13.929   2.067  1.00  0.00    -0.027 CG0
ATOM      9  G   UNL     1       1.154  14.174   3.564  1.00  0.00     0.000 G0
ENDBRANCH   5   6
ENDBRANCH   4   5
ENDBRANCH   3   4
ENDBRANCH   1   3
BRANCH   1  10
ATOM     10  C   UNL     1       4.418  14.537   3.473  1.00  0.00     0.057 C 
BRANCH  10  11
ATOM     11  C   UNL     1       4.089  14.011   4.847  1.00  0.00    -0.026 C 
ATOM     12  C   UNL     1       2.961  13.378   5.239  1.00  0.00    -0.024 C 
BRANCH  12  13
ATOM     13  C   UNL     1       1.737  12.992   4.398  1.00  0.00    -0.014 C 
ATOM     14  C   UNL     1       2.081  11.810   3.465  1.00  0.00     0.016 C 
ATOM     15  C   UNL     1       0.640  12.487   5.370  1.00  0.00     0.016 C 
BRANCH  13  16
ATOM     16  C   UNL     1       1.157  14.184   3.570  1.00  0.00     0.038 CG0
ATOM     17  G   UNL     1       1.129  13.922   2.075  1.00  0.00     0.000 G0
ENDBRANCH  13  16
ENDBRANCH  12  13
ENDBRANCH  10  11
ENDBRANCH   1  10
TORSDOF 0
ENDMDL
MODEL 8
REMARK VINA RESULT:    -3.506      1.887      5.068
REMARK INTER + INTRA:          -4.509
REMARK INTER:                  -5.400
REMARK INTRA:                   0.891
REMARK UNBOUND:                 0.637
REMARK SMILES C=C1CC=CC(C)(C)CC=C(C)CCC1
REMARK SMILES IDX 2 1 1 2 15 3 14 4 13 5 11 6 12 7 10 8 3 10 4 11 5 12 6 13
REMARK SMILES IDX 7 14 8 15 9 16
REMARK H PARENT
REMARK Flexibility Score: 60.00
ROOT
ATOM      1  C   UNL     1       4.383  15.225   3.313  1.00  0.00    -0.074 C 
ATOM      2  C   UNL     1       5.377  16.000   3.776  1.00  0.00     0.008 C 
ENDROOT
BRANCH   1   3
ATOM      3  C   UNL     1       4.438  13.727   3.565  1.00  0.00     0.031 C 
BRANCH   3   4
ATOM      4  C   UNL     1       3.332  13.251   4.520  1.00  0.00     0.009 C 
BRANCH   4   5
ATOM      5  C   UNL     1       2.200  12.476   3.816  1.00  0.00     0.030 C 
BRANCH   5   6
ATOM      6  C   UNL     1       0.974  13.340   3.536  1.00  0.00    -0.077 C 
ATOM      7  C   UNL     1       0.101  13.730   4.704  1.00  0.00     0.039 C 
ATOM      8  C   UNL     1       0.627  13.825   2.316  1.00  0.00    -0.027 CG0
ATOM      9  G   UNL     1       1.411  13.711   1.022  1.00  0.00     0.000 G0
ENDBRANCH   5   6
ENDBRANCH   4   5
ENDBRANCH   3   4
ENDBRANCH   1   3
BRANCH   1  10
ATOM     10  C   UNL     1       3.190  15.876   2.645  1.00  0.00     0.057 C 
BRANCH  10  11
ATOM     11  C   UNL     1       3.441  16.160   1.186  1.00  0.00    -0.026 C 
ATOM     12  C   UNL     1       2.688  15.777   0.131  1.00  0.00    -0.024 C 
BRANCH  12  13
ATOM     13  C   UNL     1       1.369  14.993   0.128  1.00  0.00    -0.014 C 
ATOM     14  C   UNL     1       0.203  15.909   0.565  1.00  0.00     0.016 C 
ATOM     15  C   UNL     1       1.077  14.570  -1.335  1.00  0.00     0.016 C 
BRANCH  13  16
ATOM     16  C   UNL     1       1.412  13.710   1.019  1.00  0.00     0.038 CG0
ATOM     17  G   UNL     1       0.629  13.846   2.311  1.00  0.00     0.000 G0
ENDBRANCH  13  16
ENDBRANCH  12  13
ENDBRANCH  10  11
ENDBRANCH   1  10
TORSDOF 0
ENDMDL
MODEL 9
REMARK VINA RESULT:    -3.369      2.318      4.736
REMARK INTER + INTRA:          -4.308
REMARK INTER:                  -5.522
REMARK INTRA:                   1.214
REMARK UNBOUND:                 0.637
REMARK SMILES C=C1CC=CC(C)(C)CC=C(C)CCC1
REMARK SMILES IDX 2 1 1 2 15 3 14 4 13 5 11 6 12 7 10 8 3 10 4 11 5 12 6 13
REMARK SMILES IDX 7 14 8 15 9 16
REMARK H PARENT
REMARK Flexibility Score: 60.00
ROOT
ATOM      1  C   UNL     1       2.722  14.253   2.860  1.00  0.00    -0.074 C 
ATOM      2  C   UNL     1       3.218  13.622   3.937  1.00  0.00     0.008 C 
ENDROOT
BRANCH   1   3
ATOM      3  C   UNL     1       3.481  15.436   2.283  1.00  0.00     0.031 C 
BRANCH   3   4
ATOM      4  C   UNL     1       2.565  16.405   1.519  1.00  0.00     0.009 C 
BRANCH   4   5
ATOM      5  C   UNL     1       2.918  16.540   0.025  1.00  0.00     0.030 C 
BRANCH   5   6
ATOM      6  C   UNL     1       1.994  15.731  -0.879  1.00  0.00    -0.077 C 
ATOM      7  C   UNL     1       2.613  14.979  -2.033  1.00  0.00     0.039 C 
ATOM      8  C   UNL     1       0.654  15.597  -0.702  1.00  0.00    -0.027 CG0
ATOM      9  G   UNL     1      -0.179  16.116   0.455  1.00  0.00     0.000 G0
ENDBRANCH   5   6
ENDBRANCH   4   5
ENDBRANCH   3   4
ENDBRANCH   1   3
BRANCH   1  10
ATOM     10  C   UNL     1       1.477  13.704   2.193  1.00  0.00     0.057 C 
BRANCH  10  11
ATOM     11  C   UNL     1       0.223  14.059   2.951  1.00  0.00    -0.026 C 
ATOM     12  C   UNL     1      -0.890  14.652   2.467  1.00  0.00    -0.024 C 
BRANCH  12  13
ATOM     13  C   UNL     1      -1.198  15.087   1.028  1.00  0.00    -0.014 C 
ATOM     14  C   UNL     1      -1.270  13.851   0.102  1.00  0.00     0.016 C 
ATOM     15  C   UNL     1      -2.609  15.729   1.022  1.00  0.00     0.016 C 
BRANCH  13  16
ATOM     16  C   UNL     1      -0.175  16.125   0.465  1.00  0.00     0.038 CG0
ATOM     17  G   UNL     1       0.653  15.591  -0.689  1.00  0.00     0.000 G0
ENDBRANCH  13  16
ENDBRANCH  12  13
ENDBRANCH  10  11
ENDBRANCH   1  10
TORSDOF 0
ENDMDL
