MODEL 1
REMARK VINA RESULT:    -3.573      0.000      0.000
REMARK INTER + INTRA:          -4.546
REMARK INTER:                  -4.409
REMARK INTRA:                  -0.137
REMARK UNBOUND:                -0.137
REMARK SMILES CCCCCC(=O)[O-]
REMARK SMILES IDX 4 1 5 2 6 3 7 4 8 5 3 6 2 7 1 8
REMARK H PARENT
REMARK Flexibility Score: inf
ROOT
ATOM      1  C   UNL     1       6.508  11.125  31.269  1.00  0.00     0.006 C 
ENDROOT
BRANCH   1   2
ATOM      2  C   UNL     1       7.893  10.847  31.859  1.00  0.00     0.053 C 
BRANCH   2   3
ATOM      3  C   UNL     1       8.545   9.702  31.149  1.00  0.00     0.041 C 
ATOM      4  O   UNL     1       9.438   9.026  31.725  1.00  0.00    -0.550 OA
ATOM      5  O   UNL     1       8.133   9.351  29.870  1.00  0.00    -0.550 OA
ENDBRANCH   2   3
ENDBRANCH   1   2
BRANCH   1   6
ATOM      6  C   UNL     1       5.420  11.020  32.349  1.00  0.00     0.000 C 
BRANCH   6   7
ATOM      7  C   UNL     1       4.090  10.487  31.797  1.00  0.00    -0.003 C 
ATOM      8  C   UNL     1       4.279   9.514  30.634  1.00  0.00     0.004 C 
ENDBRANCH   6   7
ENDBRANCH   1   6
TORSDOF 4
ENDMDL
MODEL 2
REMARK VINA RESULT:    -3.564      0.384      1.197
REMARK INTER + INTRA:          -4.535
REMARK INTER:                  -4.356
REMARK INTRA:                  -0.179
REMARK UNBOUND:                -0.137
REMARK SMILES CCCCCC(=O)[O-]
REMARK SMILES IDX 4 1 5 2 6 3 7 4 8 5 3 6 2 7 1 8
REMARK H PARENT
REMARK Flexibility Score: inf
ROOT
ATOM      1  C   UNL     1       6.379  11.124  31.424  1.00  0.00     0.006 C 
ENDROOT
BRANCH   1   2
ATOM      2  C   UNL     1       7.657  10.634  32.109  1.00  0.00     0.053 C 
BRANCH   2   3
ATOM      3  C   UNL     1       8.433   9.740  31.192  1.00  0.00     0.041 C 
ATOM      4  O   UNL     1       8.182   9.726  29.959  1.00  0.00    -0.550 OA
ATOM      5  O   UNL     1       9.467   8.959  31.693  1.00  0.00    -0.550 OA
ENDBRANCH   2   3
ENDBRANCH   1   2
BRANCH   1   6
ATOM      6  C   UNL     1       5.135  10.732  32.236  1.00  0.00     0.000 C 
BRANCH   6   7
ATOM      7  C   UNL     1       4.020  10.141  31.360  1.00  0.00    -0.003 C 
ATOM      8  C   UNL     1       4.536   9.097  30.370  1.00  0.00     0.004 C 
ENDBRANCH   6   7
ENDBRANCH   1   6
TORSDOF 4
ENDMDL
MODEL 3
REMARK VINA RESULT:    -3.467      2.210      3.655
REMARK INTER + INTRA:          -4.415
REMARK INTER:                  -4.206
REMARK INTRA:                  -0.210
REMARK UNBOUND:                -0.137
REMARK SMILES CCCCCC(=O)[O-]
REMARK SMILES IDX 4 1 5 2 6 3 7 4 8 5 3 6 2 7 1 8
REMARK H PARENT
REMARK Flexibility Score: inf
ROOT
ATOM      1  C   UNL     1       4.642   9.074  30.316  1.00  0.00     0.006 C 
ENDROOT
BRANCH   1   2
ATOM      2  C   UNL     1       4.188   9.292  28.870  1.00  0.00     0.053 C 
BRANCH   2   3
ATOM      3  C   UNL     1       5.260   9.979  28.083  1.00  0.00     0.041 C 
ATOM      4  O   UNL     1       6.389  10.189  28.599  1.00  0.00    -0.550 OA
ATOM      5  O   UNL     1       5.027  10.343  26.763  1.00  0.00    -0.550 OA
ENDBRANCH   2   3
ENDBRANCH   1   2
BRANCH   1   6
ATOM      6  C   UNL     1       3.875   9.995  31.278  1.00  0.00     0.000 C 
BRANCH   6   7
ATOM      7  C   UNL     1       4.808  10.884  32.113  1.00  0.00    -0.003 C 
ATOM      8  C   UNL     1       6.254  10.390  32.111  1.00  0.00     0.004 C 
ENDBRANCH   6   7
ENDBRANCH   1   6
TORSDOF 4
ENDMDL
MODEL 4
REMARK VINA RESULT:    -3.412      1.988      3.639
REMARK INTER + INTRA:          -4.347
REMARK INTER:                  -4.130
REMARK INTRA:                  -0.217
REMARK UNBOUND:                -0.137
REMARK SMILES CCCCCC(=O)[O-]
REMARK SMILES IDX 4 1 5 2 6 3 7 4 8 5 3 6 2 7 1 8
REMARK H PARENT
REMARK Flexibility Score: inf
ROOT
ATOM      1  C   UNL     1       6.095  11.125  31.495  1.00  0.00     0.006 C 
ENDROOT
BRANCH   1   2
ATOM      2  C   UNL     1       5.025  10.029  31.495  1.00  0.00     0.053 C 
BRANCH   2   3
ATOM      3  C   UNL     1       5.035   9.287  30.195  1.00  0.00     0.041 C 
ATOM      4  O   UNL     1       4.346   8.243  30.057  1.00  0.00    -0.550 OA
ATOM      5  O   UNL     1       5.767   9.777  29.120  1.00  0.00    -0.550 OA
ENDBRANCH   2   3
ENDBRANCH   1   2
BRANCH   1   6
ATOM      6  C   UNL     1       7.342  10.675  32.271  1.00  0.00     0.000 C 
BRANCH   6   7
ATOM      7  C   UNL     1       8.598  10.620  31.388  1.00  0.00    -0.003 C 
ATOM      8  C   UNL     1       9.072   9.192  31.123  1.00  0.00     0.004 C 
ENDBRANCH   6   7
ENDBRANCH   1   6
TORSDOF 4
ENDMDL
MODEL 5
REMARK VINA RESULT:    -3.400      3.089      3.896
REMARK INTER + INTRA:          -4.332
REMARK INTER:                  -4.201
REMARK INTRA:                  -0.131
REMARK UNBOUND:                -0.137
REMARK SMILES CCCCCC(=O)[O-]
REMARK SMILES IDX 4 1 5 2 6 3 7 4 8 5 3 6 2 7 1 8
REMARK H PARENT
REMARK Flexibility Score: inf
ROOT
ATOM      1  C   UNL     1       4.718   8.363  29.289  1.00  0.00     0.006 C 
ENDROOT
BRANCH   1   2
ATOM      2  C   UNL     1       6.020   9.047  28.865  1.00  0.00     0.053 C 
BRANCH   2   3
ATOM      3  C   UNL     1       6.013   9.319  27.393  1.00  0.00     0.041 C 
ATOM      4  O   UNL     1       5.288  10.233  26.921  1.00  0.00    -0.550 OA
ATOM      5  O   UNL     1       6.846   8.596  26.548  1.00  0.00    -0.550 OA
ENDBRANCH   2   3
ENDBRANCH   1   2
BRANCH   1   6
ATOM      6  C   UNL     1       3.922   9.249  30.259  1.00  0.00     0.000 C 
BRANCH   6   7
ATOM      7  C   UNL     1       4.822   9.966  31.277  1.00  0.00    -0.003 C 
ATOM      8  C   UNL     1       4.049  10.939  32.167  1.00  0.00     0.004 C 
ENDBRANCH   6   7
ENDBRANCH   1   6
TORSDOF 4
ENDMDL
MODEL 6
REMARK VINA RESULT:    -3.352      2.024      3.128
REMARK INTER + INTRA:          -4.273
REMARK INTER:                  -4.189
REMARK INTRA:                  -0.084
REMARK UNBOUND:                -0.137
REMARK SMILES CCCCCC(=O)[O-]
REMARK SMILES IDX 4 1 5 2 6 3 7 4 8 5 3 6 2 7 1 8
REMARK H PARENT
REMARK Flexibility Score: inf
ROOT
ATOM      1  C   UNL     1       5.323   9.605  30.141  1.00  0.00     0.006 C 
ENDROOT
BRANCH   1   2
ATOM      2  C   UNL     1       5.091   8.606  29.004  1.00  0.00     0.053 C 
BRANCH   2   3
ATOM      3  C   UNL     1       6.385   7.985  28.580  1.00  0.00     0.041 C 
ATOM      4  O   UNL     1       7.464   8.333  29.128  1.00  0.00    -0.550 OA
ATOM      5  O   UNL     1       6.394   6.987  27.614  1.00  0.00    -0.550 OA
ENDBRANCH   2   3
ENDBRANCH   1   2
BRANCH   1   6
ATOM      6  C   UNL     1       4.051   9.781  30.985  1.00  0.00     0.000 C 
BRANCH   6   7
ATOM      7  C   UNL     1       4.217  10.836  32.089  1.00  0.00    -0.003 C 
ATOM      8  C   UNL     1       5.678  11.066  32.473  1.00  0.00     0.004 C 
ENDBRANCH   6   7
ENDBRANCH   1   6
TORSDOF 4
ENDMDL
MODEL 7
REMARK VINA RESULT:    -3.275      2.200      4.142
REMARK INTER + INTRA:          -4.178
REMARK INTER:                  -4.041
REMARK INTRA:                  -0.137
REMARK UNBOUND:                -0.137
REMARK SMILES CCCCCC(=O)[O-]
REMARK SMILES IDX 4 1 5 2 6 3 7 4 8 5 3 6 2 7 1 8
REMARK H PARENT
REMARK Flexibility Score: inf
ROOT
ATOM      1  C   UNL     1       8.339  10.570  31.407  1.00  0.00     0.006 C 
ENDROOT
BRANCH   1   2
ATOM      2  C   UNL     1       7.091  10.388  32.275  1.00  0.00     0.053 C 
BRANCH   2   3
ATOM      3  C   UNL     1       5.856  10.425  31.431  1.00  0.00     0.041 C 
ATOM      4  O   UNL     1       5.933  10.249  30.187  1.00  0.00    -0.550 OA
ATOM      5  O   UNL     1       4.612  10.605  32.025  1.00  0.00    -0.550 OA
ENDBRANCH   2   3
ENDBRANCH   1   2
BRANCH   1   6
ATOM      6  C   UNL     1       9.168   9.277  31.359  1.00  0.00     0.000 C 
BRANCH   6   7
ATOM      7  C   UNL     1       9.058   8.555  30.008  1.00  0.00    -0.003 C 
ATOM      8  C   UNL     1      10.389   8.493  29.260  1.00  0.00     0.004 C 
ENDBRANCH   6   7
ENDBRANCH   1   6
TORSDOF 4
ENDMDL
MODEL 8
REMARK VINA RESULT:    -3.268      2.134      2.687
REMARK INTER + INTRA:          -4.170
REMARK INTER:                  -3.961
REMARK INTRA:                  -0.208
REMARK UNBOUND:                -0.137
REMARK SMILES CCCCCC(=O)[O-]
REMARK SMILES IDX 4 1 5 2 6 3 7 4 8 5 3 6 2 7 1 8
REMARK H PARENT
REMARK Flexibility Score: inf
ROOT
ATOM      1  C   UNL     1       7.519  10.762  30.720  1.00  0.00     0.006 C 
ENDROOT
BRANCH   1   2
ATOM      2  C   UNL     1       7.725   9.461  29.940  1.00  0.00     0.053 C 
BRANCH   2   3
ATOM      3  C   UNL     1       6.585   9.229  28.998  1.00  0.00     0.041 C 
ATOM      4  O   UNL     1       5.829  10.182  28.672  1.00  0.00    -0.550 OA
ATOM      5  O   UNL     1       6.387   7.972  28.441  1.00  0.00    -0.550 OA
ENDBRANCH   2   3
ENDBRANCH   1   2
BRANCH   1   6
ATOM      6  C   UNL     1       7.240  10.475  32.203  1.00  0.00     0.000 C 
BRANCH   6   7
ATOM      7  C   UNL     1       5.933  11.116  32.693  1.00  0.00    -0.003 C 
ATOM      8  C   UNL     1       4.698  10.553  31.990  1.00  0.00     0.004 C 
ENDBRANCH   6   7
ENDBRANCH   1   6
TORSDOF 4
ENDMDL
MODEL 9
REMARK VINA RESULT:    -3.230     17.063     17.685
REMARK INTER + INTRA:          -4.122
REMARK INTER:                  -3.949
REMARK INTRA:                  -0.174
REMARK UNBOUND:                -0.137
REMARK SMILES CCCCCC(=O)[O-]
REMARK SMILES IDX 4 1 5 2 6 3 7 4 8 5 3 6 2 7 1 8
REMARK H PARENT
REMARK Flexibility Score: inf
ROOT
ATOM      1  C   UNL     1       6.695  -7.977  36.676  1.00  0.00     0.006 C 
ENDROOT
BRANCH   1   2
ATOM      2  C   UNL     1       7.731  -7.182  35.878  1.00  0.00     0.053 C 
BRANCH   2   3
ATOM      3  C   UNL     1       8.398  -6.166  36.751  1.00  0.00     0.041 C 
ATOM      4  O   UNL     1       7.707  -5.354  37.420  1.00  0.00    -0.550 OA
ATOM      5  O   UNL     1       9.783  -6.148  36.864  1.00  0.00    -0.550 OA
ENDBRANCH   2   3
ENDBRANCH   1   2
BRANCH   1   6
ATOM      6  C   UNL     1       5.319  -7.927  35.993  1.00  0.00     0.000 C 
BRANCH   6   7
ATOM      7  C   UNL     1       5.028  -6.563  35.351  1.00  0.00    -0.003 C 
ATOM      8  C   UNL     1       4.547  -6.680  33.905  1.00  0.00     0.004 C 
ENDBRANCH   6   7
ENDBRANCH   1   6
TORSDOF 4
ENDMDL
