MODEL 1
REMARK VINA RESULT:    -5.874      0.000      0.000
REMARK INTER + INTRA:          -9.944
REMARK INTER:                  -8.965
REMARK INTRA:                  -0.979
REMARK UNBOUND:                -0.979
REMARK SMILES CC(=O)CCC=C(C)CCC=C(C)CCC=C(C)C
REMARK SMILES IDX 10 1 11 2 12 3 13 4 14 5 15 6 16 7 18 8 17 9 19 10 9 11 7 12
REMARK SMILES IDX 6 13 8 14 5 15 4 16 2 17 3 18 1 19
REMARK H PARENT
REMARK Flexibility Score: inf
ROOT
ATOM      1  C   UNL     1       8.549  -4.289  42.292  1.00  0.00     0.032 C 
ENDROOT
BRANCH   1   2
ATOM      2  C   UNL     1       8.170  -3.578  41.017  1.00  0.00    -0.028 C 
ATOM      3  C   UNL     1       8.294  -2.245  40.819  1.00  0.00    -0.077 C 
ATOM      4  C   UNL     1       8.881  -1.333  41.870  1.00  0.00     0.039 C 
BRANCH   3   5
ATOM      5  C   UNL     1       7.850  -1.653  39.496  1.00  0.00     0.034 C 
BRANCH   5   6
ATOM      6  C   UNL     1       7.068  -2.668  38.649  1.00  0.00     0.032 C 
BRANCH   6   7
ATOM      7  C   UNL     1       6.518  -2.042  37.390  1.00  0.00    -0.028 C 
ATOM      8  C   UNL     1       6.055  -1.816  34.988  1.00  0.00     0.039 C 
ATOM      9  C   UNL     1       6.717  -2.523  36.143  1.00  0.00    -0.080 C 
ATOM     10  C   UNL     1       7.591  -3.726  35.877  1.00  0.00     0.039 C 
ENDBRANCH   6   7
ENDBRANCH   5   6
ENDBRANCH   3   5
ENDBRANCH   1   2
BRANCH   1  11
ATOM     11  C   UNL     1       7.382  -5.136  42.811  1.00  0.00     0.034 C 
BRANCH  11  12
ATOM     12  C   UNL     1       7.761  -6.600  42.855  1.00  0.00    -0.077 C 
ATOM     13  C   UNL     1       7.803  -7.302  41.698  1.00  0.00    -0.028 C 
ATOM     14  C   UNL     1       8.109  -7.227  44.184  1.00  0.00     0.039 C 
BRANCH  13  15
ATOM     15  C   UNL     1       8.130  -8.771  41.602  1.00  0.00     0.035 C 
BRANCH  15  16
ATOM     16  C   UNL     1       6.922  -9.564  41.080  1.00  0.00     0.079 C 
BRANCH  16  17
ATOM     17  C   UNL     1       6.373 -10.582  42.055  1.00  0.00     0.130 C 
ATOM     18  O   UNL     1       5.581 -11.413  41.639  1.00  0.00    -0.300 OA
ATOM     19  C   UNL     1       6.754 -10.612  43.510  1.00  0.00     0.087 C 
ENDBRANCH  16  17
ENDBRANCH  15  16
ENDBRANCH  13  15
ENDBRANCH  11  12
ENDBRANCH   1  11
TORSDOF 9
ENDMDL
MODEL 2
REMARK VINA RESULT:    -5.677      4.286      8.035
REMARK INTER + INTRA:          -9.643
REMARK INTER:                  -8.165
REMARK INTRA:                  -1.479
REMARK UNBOUND:                -0.979
REMARK SMILES CC(=O)CCC=C(C)CCC=C(C)CCC=C(C)C
REMARK SMILES IDX 10 1 11 2 12 3 13 4 14 5 15 6 16 7 18 8 17 9 19 10 9 11 7 12
REMARK SMILES IDX 6 13 8 14 5 15 4 16 2 17 3 18 1 19
REMARK H PARENT
REMARK Flexibility Score: inf
ROOT
ATOM      1  C   UNL     1       8.548  -8.535  44.000  1.00  0.00     0.032 C 
ENDROOT
BRANCH   1   2
ATOM      2  C   UNL     1       7.516  -9.619  43.812  1.00  0.00    -0.028 C 
ATOM      3  C   UNL     1       7.011  -9.994  42.614  1.00  0.00    -0.077 C 
ATOM      4  C   UNL     1       7.482  -9.374  41.319  1.00  0.00     0.039 C 
BRANCH   3   5
ATOM      5  C   UNL     1       5.956 -11.081  42.568  1.00  0.00     0.034 C 
BRANCH   5   6
ATOM      6  C   UNL     1       5.295 -11.177  41.185  1.00  0.00     0.032 C 
BRANCH   6   7
ATOM      7  C   UNL     1       5.314 -12.589  40.650  1.00  0.00    -0.028 C 
ATOM      8  C   UNL     1       6.062 -14.480  39.272  1.00  0.00     0.039 C 
ATOM      9  C   UNL     1       6.122 -13.024  39.659  1.00  0.00    -0.080 C 
ATOM     10  C   UNL     1       7.061 -12.096  38.924  1.00  0.00     0.039 C 
ENDBRANCH   6   7
ENDBRANCH   5   6
ENDBRANCH   3   5
ENDBRANCH   1   2
BRANCH   1  11
ATOM     11  C   UNL     1       7.877  -7.192  44.311  1.00  0.00     0.034 C 
BRANCH  11  12
ATOM     12  C   UNL     1       8.187  -6.177  43.233  1.00  0.00    -0.077 C 
ATOM     13  C   UNL     1       9.401  -6.204  42.633  1.00  0.00    -0.028 C 
ATOM     14  C   UNL     1       7.122  -5.181  42.836  1.00  0.00     0.039 C 
BRANCH  13  15
ATOM     15  C   UNL     1       9.852  -5.232  41.573  1.00  0.00     0.035 C 
BRANCH  15  16
ATOM     16  C   UNL     1      10.639  -4.072  42.199  1.00  0.00     0.079 C 
BRANCH  16  17
ATOM     17  C   UNL     1       9.978  -2.719  42.058  1.00  0.00     0.130 C 
ATOM     18  O   UNL     1      10.153  -2.093  41.024  1.00  0.00    -0.300 OA
ATOM     19  C   UNL     1       9.120  -2.109  43.133  1.00  0.00     0.087 C 
ENDBRANCH  16  17
ENDBRANCH  15  16
ENDBRANCH  13  15
ENDBRANCH  11  12
ENDBRANCH   1  11
TORSDOF 9
ENDMDL
MODEL 3
REMARK VINA RESULT:    -5.665      1.694      2.698
REMARK INTER + INTRA:          -9.625
REMARK INTER:                  -8.419
REMARK INTRA:                  -1.206
REMARK UNBOUND:                -0.979
REMARK SMILES CC(=O)CCC=C(C)CCC=C(C)CCC=C(C)C
REMARK SMILES IDX 10 1 11 2 12 3 13 4 14 5 15 6 16 7 18 8 17 9 19 10 9 11 7 12
REMARK SMILES IDX 6 13 8 14 5 15 4 16 2 17 3 18 1 19
REMARK H PARENT
REMARK Flexibility Score: inf
ROOT
ATOM      1  C   UNL     1       8.093  -5.858  43.031  1.00  0.00     0.032 C 
ENDROOT
BRANCH   1   2
ATOM      2  C   UNL     1       7.921  -4.390  42.729  1.00  0.00    -0.028 C 
ATOM      3  C   UNL     1       8.937  -3.548  42.428  1.00  0.00    -0.077 C 
ATOM      4  C   UNL     1      10.366  -4.026  42.320  1.00  0.00     0.039 C 
BRANCH   3   5
ATOM      5  C   UNL     1       8.629  -2.087  42.170  1.00  0.00     0.034 C 
BRANCH   5   6
ATOM      6  C   UNL     1       9.063  -1.650  40.764  1.00  0.00     0.032 C 
BRANCH   6   7
ATOM      7  C   UNL     1       7.893  -1.577  39.812  1.00  0.00    -0.028 C 
ATOM      8  C   UNL     1       6.298  -2.365  38.118  1.00  0.00     0.039 C 
ATOM      9  C   UNL     1       7.525  -2.567  38.969  1.00  0.00    -0.080 C 
ATOM     10  C   UNL     1       8.313  -3.850  38.846  1.00  0.00     0.039 C 
ENDBRANCH   6   7
ENDBRANCH   5   6
ENDBRANCH   3   5
ENDBRANCH   1   2
BRANCH   1  11
ATOM     11  C   UNL     1       7.919  -6.699  41.762  1.00  0.00     0.034 C 
BRANCH  11  12
ATOM     12  C   UNL     1       7.728  -8.159  42.109  1.00  0.00    -0.077 C 
ATOM     13  C   UNL     1       7.201  -8.992  41.181  1.00  0.00    -0.028 C 
ATOM     14  C   UNL     1       8.158  -8.650  43.472  1.00  0.00     0.039 C 
BRANCH  13  15
ATOM     15  C   UNL     1       6.924 -10.457  41.407  1.00  0.00     0.035 C 
BRANCH  15  16
ATOM     16  C   UNL     1       6.355 -11.105  40.136  1.00  0.00     0.079 C 
BRANCH  16  17
ATOM     17  C   UNL     1       7.299 -12.066  39.448  1.00  0.00     0.130 C 
ATOM     18  O   UNL     1       6.925 -12.607  38.418  1.00  0.00    -0.300 OA
ATOM     19  C   UNL     1       8.670 -12.388  39.975  1.00  0.00     0.087 C 
ENDBRANCH  16  17
ENDBRANCH  15  16
ENDBRANCH  13  15
ENDBRANCH  11  12
ENDBRANCH   1  11
TORSDOF 9
ENDMDL
MODEL 4
REMARK VINA RESULT:    -5.634      3.298      4.914
REMARK INTER + INTRA:          -9.577
REMARK INTER:                  -8.129
REMARK INTRA:                  -1.448
REMARK UNBOUND:                -0.979
REMARK SMILES CC(=O)CCC=C(C)CCC=C(C)CCC=C(C)C
REMARK SMILES IDX 10 1 11 2 12 3 13 4 14 5 15 6 16 7 18 8 17 9 19 10 9 11 7 12
REMARK SMILES IDX 6 13 8 14 5 15 4 16 2 17 3 18 1 19
REMARK H PARENT
REMARK Flexibility Score: inf
ROOT
ATOM      1  C   UNL     1       8.587  -8.567  43.504  1.00  0.00     0.032 C 
ENDROOT
BRANCH   1   2
ATOM      2  C   UNL     1       8.207  -7.132  43.766  1.00  0.00    -0.028 C 
ATOM      3  C   UNL     1       7.771  -6.272  42.816  1.00  0.00    -0.077 C 
ATOM      4  C   UNL     1       7.579  -6.698  41.380  1.00  0.00     0.039 C 
BRANCH   3   5
ATOM      5  C   UNL     1       7.447  -4.844  43.209  1.00  0.00     0.034 C 
BRANCH   5   6
ATOM      6  C   UNL     1       8.090  -3.828  42.255  1.00  0.00     0.032 C 
BRANCH   6   7
ATOM      7  C   UNL     1       9.556  -3.625  42.556  1.00  0.00    -0.028 C 
ATOM      8  C   UNL     1      11.975  -3.598  42.128  1.00  0.00     0.039 C 
ATOM      9  C   UNL     1      10.563  -3.909  41.701  1.00  0.00    -0.080 C 
ATOM     10  C   UNL     1      10.315  -4.539  40.350  1.00  0.00     0.039 C 
ENDBRANCH   6   7
ENDBRANCH   5   6
ENDBRANCH   3   5
ENDBRANCH   1   2
BRANCH   1  11
ATOM     11  C   UNL     1       7.718  -9.521  44.332  1.00  0.00     0.034 C 
BRANCH  11  12
ATOM     12  C   UNL     1       6.804 -10.327  43.435  1.00  0.00    -0.077 C 
ATOM     13  C   UNL     1       6.866 -10.140  42.095  1.00  0.00    -0.028 C 
ATOM     14  C   UNL     1       5.871 -11.338  44.058  1.00  0.00     0.039 C 
BRANCH  13  15
ATOM     15  C   UNL     1       5.991 -10.849  41.092  1.00  0.00     0.035 C 
BRANCH  15  16
ATOM     16  C   UNL     1       6.651 -10.857  39.706  1.00  0.00     0.079 C 
BRANCH  16  17
ATOM     17  C   UNL     1       7.350 -12.151  39.353  1.00  0.00     0.130 C 
ATOM     18  O   UNL     1       6.784 -12.929  38.601  1.00  0.00    -0.300 OA
ATOM     19  C   UNL     1       8.705 -12.523  39.890  1.00  0.00     0.087 C 
ENDBRANCH  16  17
ENDBRANCH  15  16
ENDBRANCH  13  15
ENDBRANCH  11  12
ENDBRANCH   1  11
TORSDOF 9
ENDMDL
MODEL 5
REMARK VINA RESULT:    -5.593      2.383      7.894
REMARK INTER + INTRA:          -9.515
REMARK INTER:                  -8.618
REMARK INTRA:                  -0.898
REMARK UNBOUND:                -0.979
REMARK SMILES CC(=O)CCC=C(C)CCC=C(C)CCC=C(C)C
REMARK SMILES IDX 10 1 11 2 12 3 13 4 14 5 15 6 16 7 18 8 17 9 19 10 9 11 7 12
REMARK SMILES IDX 6 13 8 14 5 15 4 16 2 17 3 18 1 19
REMARK H PARENT
REMARK Flexibility Score: inf
ROOT
ATOM      1  C   UNL     1       8.970  -4.164  41.722  1.00  0.00     0.032 C 
ENDROOT
BRANCH   1   2
ATOM      2  C   UNL     1       8.439  -5.077  42.798  1.00  0.00    -0.028 C 
ATOM      3  C   UNL     1       8.604  -6.420  42.810  1.00  0.00    -0.077 C 
ATOM      4  C   UNL     1       9.394  -7.138  41.741  1.00  0.00     0.039 C 
BRANCH   3   5
ATOM      5  C   UNL     1       7.995  -7.226  43.939  1.00  0.00     0.034 C 
BRANCH   5   6
ATOM      6  C   UNL     1       8.611  -8.630  44.036  1.00  0.00     0.032 C 
BRANCH   6   7
ATOM      7  C   UNL     1       7.564  -9.685  44.306  1.00  0.00    -0.028 C 
ATOM      8  C   UNL     1       5.869 -11.382  43.776  1.00  0.00     0.039 C 
ATOM      9  C   UNL     1       6.839 -10.309  43.352  1.00  0.00    -0.080 C 
ATOM     10  C   UNL     1       6.962  -9.953  41.888  1.00  0.00     0.039 C 
ENDBRANCH   6   7
ENDBRANCH   5   6
ENDBRANCH   3   5
ENDBRANCH   1   2
BRANCH   1  11
ATOM     11  C   UNL     1       8.711  -2.695  42.077  1.00  0.00     0.034 C 
BRANCH  11  12
ATOM     12  C   UNL     1       8.240  -1.926  40.863  1.00  0.00    -0.077 C 
ATOM     13  C   UNL     1       7.640  -2.597  39.852  1.00  0.00    -0.028 C 
ATOM     14  C   UNL     1       8.427  -0.427  40.828  1.00  0.00     0.039 C 
BRANCH  13  15
ATOM     15  C   UNL     1       7.156  -1.961  38.573  1.00  0.00     0.035 C 
BRANCH  15  16
ATOM     16  C   UNL     1       6.503  -3.008  37.659  1.00  0.00     0.079 C 
BRANCH  16  17
ATOM     17  C   UNL     1       7.238  -3.248  36.359  1.00  0.00     0.130 C 
ATOM     18  O   UNL     1       8.105  -4.108  36.333  1.00  0.00    -0.300 OA
ATOM     19  C   UNL     1       6.954  -2.472  35.101  1.00  0.00     0.087 C 
ENDBRANCH  16  17
ENDBRANCH  15  16
ENDBRANCH  13  15
ENDBRANCH  11  12
ENDBRANCH   1  11
TORSDOF 9
ENDMDL
MODEL 6
REMARK VINA RESULT:    -5.519      1.404      2.148
REMARK INTER + INTRA:          -9.402
REMARK INTER:                  -8.110
REMARK INTRA:                  -1.291
REMARK UNBOUND:                -0.979
REMARK SMILES CC(=O)CCC=C(C)CCC=C(C)CCC=C(C)C
REMARK SMILES IDX 10 1 11 2 12 3 13 4 14 5 15 6 16 7 18 8 17 9 19 10 9 11 7 12
REMARK SMILES IDX 6 13 8 14 5 15 4 16 2 17 3 18 1 19
REMARK H PARENT
REMARK Flexibility Score: inf
ROOT
ATOM      1  C   UNL     1      10.307  -3.108  41.203  1.00  0.00     0.032 C 
ENDROOT
BRANCH   1   2
ATOM      2  C   UNL     1       9.916  -3.513  39.804  1.00  0.00    -0.028 C 
ATOM      3  C   UNL     1       8.795  -3.094  39.173  1.00  0.00    -0.077 C 
ATOM      4  C   UNL     1       7.834  -2.121  39.813  1.00  0.00     0.039 C 
BRANCH   3   5
ATOM      5  C   UNL     1       8.506  -3.599  37.773  1.00  0.00     0.034 C 
BRANCH   5   6
ATOM      6  C   UNL     1       7.009  -3.530  37.438  1.00  0.00     0.032 C 
BRANCH   6   7
ATOM      7  C   UNL     1       6.761  -2.855  36.110  1.00  0.00    -0.028 C 
ATOM      8  C   UNL     1       5.987  -1.109  34.566  1.00  0.00     0.039 C 
ATOM      9  C   UNL     1       6.106  -1.684  35.955  1.00  0.00    -0.080 C 
ATOM     10  C   UNL     1       5.482  -0.952  37.120  1.00  0.00     0.039 C 
ENDBRANCH   6   7
ENDBRANCH   5   6
ENDBRANCH   3   5
ENDBRANCH   1   2
BRANCH   1  11
ATOM     11  C   UNL     1      10.447  -4.338  42.108  1.00  0.00     0.034 C 
BRANCH  11  12
ATOM     12  C   UNL     1       9.144  -5.104  42.174  1.00  0.00    -0.077 C 
ATOM     13  C   UNL     1       9.107  -6.378  41.715  1.00  0.00    -0.028 C 
ATOM     14  C   UNL     1       7.931  -4.436  42.778  1.00  0.00     0.039 C 
BRANCH  13  15
ATOM     15  C   UNL     1       7.870  -7.240  41.689  1.00  0.00     0.035 C 
BRANCH  15  16
ATOM     16  C   UNL     1       8.091  -8.531  42.492  1.00  0.00     0.079 C 
BRANCH  16  17
ATOM     17  C   UNL     1       7.156  -9.662  42.126  1.00  0.00     0.130 C 
ATOM     18  O   UNL     1       6.750  -9.730  40.976  1.00  0.00    -0.300 OA
ATOM     19  C   UNL     1       6.701 -10.701  43.115  1.00  0.00     0.087 C 
ENDBRANCH  16  17
ENDBRANCH  15  16
ENDBRANCH  13  15
ENDBRANCH  11  12
ENDBRANCH   1  11
TORSDOF 9
ENDMDL
MODEL 7
REMARK VINA RESULT:    -5.509      1.602      2.215
REMARK INTER + INTRA:          -9.387
REMARK INTER:                  -8.598
REMARK INTRA:                  -0.789
REMARK UNBOUND:                -0.979
REMARK SMILES CC(=O)CCC=C(C)CCC=C(C)CCC=C(C)C
REMARK SMILES IDX 10 1 11 2 12 3 13 4 14 5 15 6 16 7 18 8 17 9 19 10 9 11 7 12
REMARK SMILES IDX 6 13 8 14 5 15 4 16 2 17 3 18 1 19
REMARK H PARENT
REMARK Flexibility Score: inf
ROOT
ATOM      1  C   UNL     1       7.884  -5.960  42.163  1.00  0.00     0.032 C 
ENDROOT
BRANCH   1   2
ATOM      2  C   UNL     1       7.910  -4.861  41.131  1.00  0.00    -0.028 C 
ATOM      3  C   UNL     1       8.173  -3.562  41.405  1.00  0.00    -0.077 C 
ATOM      4  C   UNL     1       8.520  -3.094  42.799  1.00  0.00     0.039 C 
BRANCH   3   5
ATOM      5  C   UNL     1       8.141  -2.551  40.277  1.00  0.00     0.034 C 
BRANCH   5   6
ATOM      6  C   UNL     1       7.454  -3.113  39.024  1.00  0.00     0.032 C 
BRANCH   6   7
ATOM      7  C   UNL     1       6.688  -2.047  38.277  1.00  0.00    -0.028 C 
ATOM      8  C   UNL     1       5.582  -0.973  36.365  1.00  0.00     0.039 C 
ATOM      9  C   UNL     1       6.405  -2.089  36.957  1.00  0.00    -0.080 C 
ATOM     10  C   UNL     1       6.900  -3.202  36.063  1.00  0.00     0.039 C 
ENDBRANCH   6   7
ENDBRANCH   5   6
ENDBRANCH   3   5
ENDBRANCH   1   2
BRANCH   1  11
ATOM     11  C   UNL     1       8.528  -7.239  41.613  1.00  0.00     0.034 C 
BRANCH  11  12
ATOM     12  C   UNL     1       7.832  -8.466  42.159  1.00  0.00    -0.077 C 
ATOM     13  C   UNL     1       7.143  -9.264  41.310  1.00  0.00    -0.028 C 
ATOM     14  C   UNL     1       7.952  -8.781  43.632  1.00  0.00     0.039 C 
BRANCH  13  15
ATOM     15  C   UNL     1       6.377 -10.494  41.726  1.00  0.00     0.035 C 
BRANCH  15  16
ATOM     16  C   UNL     1       7.235 -11.755  41.546  1.00  0.00     0.079 C 
BRANCH  16  17
ATOM     17  C   UNL     1       7.783 -11.945  40.149  1.00  0.00     0.130 C 
ATOM     18  O   UNL     1       8.994 -12.013  40.006  1.00  0.00    -0.300 OA
ATOM     19  C   UNL     1       6.905 -12.047  38.931  1.00  0.00     0.087 C 
ENDBRANCH  16  17
ENDBRANCH  15  16
ENDBRANCH  13  15
ENDBRANCH  11  12
ENDBRANCH   1  11
TORSDOF 9
ENDMDL
MODEL 8
REMARK VINA RESULT:    -5.501      2.978      7.604
REMARK INTER + INTRA:          -9.375
REMARK INTER:                  -8.568
REMARK INTRA:                  -0.806
REMARK UNBOUND:                -0.979
REMARK SMILES CC(=O)CCC=C(C)CCC=C(C)CCC=C(C)C
REMARK SMILES IDX 10 1 11 2 12 3 13 4 14 5 15 6 16 7 18 8 17 9 19 10 9 11 7 12
REMARK SMILES IDX 6 13 8 14 5 15 4 16 2 17 3 18 1 19
REMARK H PARENT
REMARK Flexibility Score: inf
ROOT
ATOM      1  C   UNL     1       7.449  -2.087  38.969  1.00  0.00     0.032 C 
ENDROOT
BRANCH   1   2
ATOM      2  C   UNL     1       7.824  -3.154  39.967  1.00  0.00    -0.028 C 
ATOM      3  C   UNL     1       8.368  -2.907  41.181  1.00  0.00    -0.077 C 
ATOM      4  C   UNL     1       8.612  -1.500  41.676  1.00  0.00     0.039 C 
BRANCH   3   5
ATOM      5  C   UNL     1       8.723  -4.074  42.080  1.00  0.00     0.034 C 
BRANCH   5   6
ATOM      6  C   UNL     1       7.502  -4.954  42.384  1.00  0.00     0.032 C 
BRANCH   6   7
ATOM      7  C   UNL     1       7.614  -6.313  41.737  1.00  0.00    -0.028 C 
ATOM      8  C   UNL     1       7.951  -8.743  41.614  1.00  0.00     0.039 C 
ATOM      9  C   UNL     1       7.932  -7.452  42.391  1.00  0.00    -0.080 C 
ATOM     10  C   UNL     1       8.285  -7.462  43.860  1.00  0.00     0.039 C 
ENDBRANCH   6   7
ENDBRANCH   5   6
ENDBRANCH   3   5
ENDBRANCH   1   2
BRANCH   1  11
ATOM     11  C   UNL     1       6.448  -2.629  37.943  1.00  0.00     0.034 C 
BRANCH  11  12
ATOM     12  C   UNL     1       7.052  -2.633  36.556  1.00  0.00    -0.077 C 
ATOM     13  C   UNL     1       7.981  -3.569  36.247  1.00  0.00    -0.028 C 
ATOM     14  C   UNL     1       6.581  -1.612  35.548  1.00  0.00     0.039 C 
BRANCH  13  15
ATOM     15  C   UNL     1       8.688  -3.665  34.918  1.00  0.00     0.035 C 
BRANCH  15  16
ATOM     16  C   UNL     1       9.021  -5.127  34.585  1.00  0.00     0.079 C 
BRANCH  16  17
ATOM     17  C   UNL     1      10.353  -5.323  33.895  1.00  0.00     0.130 C 
ATOM     18  O   UNL     1      11.332  -5.566  34.584  1.00  0.00    -0.300 OA
ATOM     19  C   UNL     1      10.526  -5.228  32.403  1.00  0.00     0.087 C 
ENDBRANCH  16  17
ENDBRANCH  15  16
ENDBRANCH  13  15
ENDBRANCH  11  12
ENDBRANCH   1  11
TORSDOF 9
ENDMDL
MODEL 9
REMARK VINA RESULT:    -5.471      3.064      7.761
REMARK INTER + INTRA:          -9.329
REMARK INTER:                  -8.105
REMARK INTRA:                  -1.224
REMARK UNBOUND:                -0.979
REMARK SMILES CC(=O)CCC=C(C)CCC=C(C)CCC=C(C)C
REMARK SMILES IDX 10 1 11 2 12 3 13 4 14 5 15 6 16 7 18 8 17 9 19 10 9 11 7 12
REMARK SMILES IDX 6 13 8 14 5 15 4 16 2 17 3 18 1 19
REMARK H PARENT
REMARK Flexibility Score: inf
ROOT
ATOM      1  C   UNL     1      10.165  -3.606  40.878  1.00  0.00     0.032 C 
ENDROOT
BRANCH   1   2
ATOM      2  C   UNL     1       9.294  -4.826  41.037  1.00  0.00    -0.028 C 
ATOM      3  C   UNL     1       8.282  -4.932  41.929  1.00  0.00    -0.077 C 
ATOM      4  C   UNL     1       7.895  -3.788  42.837  1.00  0.00     0.039 C 
BRANCH   3   5
ATOM      5  C   UNL     1       7.500  -6.228  42.005  1.00  0.00     0.034 C 
BRANCH   5   6
ATOM      6  C   UNL     1       8.330  -7.426  41.523  1.00  0.00     0.032 C 
BRANCH   6   7
ATOM      7  C   UNL     1       7.602  -8.733  41.730  1.00  0.00    -0.028 C 
ATOM      8  C   UNL     1       6.734 -10.673  42.962  1.00  0.00     0.039 C 
ATOM      9  C   UNL     1       7.549  -9.406  42.900  1.00  0.00    -0.080 C 
ATOM     10  C   UNL     1       8.290  -8.937  44.130  1.00  0.00     0.039 C 
ENDBRANCH   6   7
ENDBRANCH   5   6
ENDBRANCH   3   5
ENDBRANCH   1   2
BRANCH   1  11
ATOM     11  C   UNL     1      10.154  -3.114  39.426  1.00  0.00     0.034 C 
BRANCH  11  12
ATOM     12  C   UNL     1       8.738  -2.857  38.958  1.00  0.00    -0.077 C 
ATOM     13  C   UNL     1       8.231  -3.611  37.954  1.00  0.00    -0.028 C 
ATOM     14  C   UNL     1       7.923  -1.787  39.644  1.00  0.00     0.039 C 
BRANCH  13  15
ATOM     15  C   UNL     1       6.851  -3.438  37.369  1.00  0.00     0.035 C 
BRANCH  15  16
ATOM     16  C   UNL     1       6.935  -2.937  35.920  1.00  0.00     0.079 C 
BRANCH  16  17
ATOM     17  C   UNL     1       6.067  -1.735  35.622  1.00  0.00     0.130 C 
ATOM     18  O   UNL     1       5.543  -1.657  34.522  1.00  0.00    -0.300 OA
ATOM     19  C   UNL     1       5.826  -0.632  36.616  1.00  0.00     0.087 C 
ENDBRANCH  16  17
ENDBRANCH  15  16
ENDBRANCH  13  15
ENDBRANCH  11  12
ENDBRANCH   1  11
TORSDOF 9
ENDMDL
