MODEL 1
REMARK VINA RESULT:    -4.419      0.000      0.000
REMARK INTER + INTRA:          -5.639
REMARK INTER:                  -5.323
REMARK INTRA:                  -0.316
REMARK UNBOUND:                -0.316
REMARK SMILES O=c1c(O)c(-c2ccc(O)c(O)c2)oc2cc(O)cc(O)c12
REMARK SMILES IDX 5 1 3 2 2 3 1 4 22 5 20 6 19 7 17 8 16 9 15 10 14 11 6 12
REMARK SMILES IDX 7 13 8 14 9 15 13 16 11 17 10 18 12 20 4 22 21 24 18 26
REMARK H PARENT 10 19 12 21 4 23 21 25 18 27
REMARK Flexibility Score: inf
ROOT
ATOM      1  C   UNL     1       5.577  11.743   8.258  1.00  0.00     0.180 A 
ATOM      2  C   UNL     1       6.731  12.243   8.887  1.00  0.00     0.208 A 
ATOM      3  C   UNL     1       7.879  12.479   8.115  1.00  0.00     0.238 A 
ATOM      4  O   UNL     1       8.926  12.874   8.692  1.00  0.00    -0.285 OA
ATOM      5  C   UNL     1       7.855  12.228   6.721  1.00  0.00     0.111 A 
ATOM      6  C   UNL     1       8.948  12.469   5.835  1.00  0.00     0.134 A 
ATOM      7  C   UNL     1       8.856  12.060   4.499  1.00  0.00     0.093 A 
ATOM      8  C   UNL     1       7.686  11.480   4.002  1.00  0.00     0.123 A 
ATOM      9  C   UNL     1       6.594  11.295   4.845  1.00  0.00     0.094 A 
ATOM     10  C   UNL     1       6.668  11.658   6.192  1.00  0.00     0.146 A 
ATOM     11  O   UNL     1       5.607  11.455   6.963  1.00  0.00    -0.452 OA
ENDROOT
BRANCH   1  12
ATOM     12  C   UNL     1       4.321  11.493   9.002  1.00  0.00     0.025 A 
ATOM     13  C   UNL     1       4.133  10.258   9.643  1.00  0.00     0.016 A 
ATOM     14  C   UNL     1       2.946   9.993  10.332  1.00  0.00     0.051 A 
ATOM     15  C   UNL     1       1.926  10.952  10.377  1.00  0.00     0.157 A 
ATOM     16  C   UNL     1       3.286  12.444   9.032  1.00  0.00     0.062 A 
ATOM     17  C   UNL     1       2.094  12.177   9.721  1.00  0.00     0.158 A 
BRANCH  15  18
ATOM     18  O   UNL     1       0.742  10.691  11.065  1.00  0.00    -0.504 OA
ATOM     19  H   UNL     1       0.128  11.438  11.367  1.00  0.00     0.293 HD
ENDBRANCH  15  18
BRANCH  17  20
ATOM     20  O   UNL     1       1.072  13.124   9.756  1.00  0.00    -0.504 OA
ATOM     21  H   UNL     1       1.257  14.097   9.973  1.00  0.00     0.293 HD
ENDBRANCH  17  20
ENDBRANCH   1  12
BRANCH   2  22
ATOM     22  O   UNL     1       6.740  12.462  10.268  1.00  0.00    -0.502 OA
ATOM     23  H   UNL     1       5.984  12.934  10.748  1.00  0.00     0.293 HD
ENDBRANCH   2  22
BRANCH   6  24
ATOM     24  O   UNL     1      10.125  13.125   6.208  1.00  0.00    -0.507 OA
ATOM     25  H   UNL     1      10.316  13.482   7.132  1.00  0.00     0.293 HD
ENDBRANCH   6  24
BRANCH   8  26
ATOM     26  O   UNL     1       7.598  11.091   2.667  1.00  0.00    -0.508 OA
ATOM     27  H   UNL     1       7.946  11.681   1.919  1.00  0.00     0.293 HD
ENDBRANCH   8  26
TORSDOF 6
ENDMDL
MODEL 2
REMARK VINA RESULT:    -3.081      1.538      6.963
REMARK INTER + INTRA:          -4.028
REMARK INTER:                  -3.722
REMARK INTRA:                  -0.305
REMARK UNBOUND:                -0.316
REMARK SMILES O=c1c(O)c(-c2ccc(O)c(O)c2)oc2cc(O)cc(O)c12
REMARK SMILES IDX 5 1 3 2 2 3 1 4 22 5 20 6 19 7 17 8 16 9 15 10 14 11 6 12
REMARK SMILES IDX 7 13 8 14 9 15 13 16 11 17 10 18 12 20 4 22 21 24 18 26
REMARK H PARENT 10 19 12 21 4 23 21 25 18 27
REMARK Flexibility Score: inf
ROOT
ATOM      1  C   UNL     1       5.575  11.260   8.077  1.00  0.00     0.180 A 
ATOM      2  C   UNL     1       5.681  10.098   8.860  1.00  0.00     0.208 A 
ATOM      3  C   UNL     1       4.589   9.709   9.652  1.00  0.00     0.238 A 
ATOM      4  O   UNL     1       4.708   8.698  10.392  1.00  0.00    -0.285 OA
ATOM      5  C   UNL     1       3.400  10.479   9.640  1.00  0.00     0.111 A 
ATOM      6  C   UNL     1       2.218  10.155  10.373  1.00  0.00     0.134 A 
ATOM      7  C   UNL     1       1.147  11.058  10.389  1.00  0.00     0.093 A 
ATOM      8  C   UNL     1       1.191  12.241   9.645  1.00  0.00     0.123 A 
ATOM      9  C   UNL     1       2.316  12.535   8.880  1.00  0.00     0.094 A 
ATOM     10  C   UNL     1       3.415  11.672   8.873  1.00  0.00     0.146 A 
ATOM     11  O   UNL     1       4.472  11.997   8.138  1.00  0.00    -0.452 OA
ENDROOT
BRANCH   1  12
ATOM     12  C   UNL     1       6.674  11.720   7.197  1.00  0.00     0.025 A 
ATOM     13  C   UNL     1       7.714  12.493   7.737  1.00  0.00     0.016 A 
ATOM     14  C   UNL     1       8.750  12.955   6.921  1.00  0.00     0.051 A 
ATOM     15  C   UNL     1       8.753  12.664   5.551  1.00  0.00     0.157 A 
ATOM     16  C   UNL     1       6.671  11.447   5.817  1.00  0.00     0.062 A 
ATOM     17  C   UNL     1       7.709  11.913   4.997  1.00  0.00     0.158 A 
BRANCH  15  18
ATOM     18  O   UNL     1       9.786  13.121   4.734  1.00  0.00    -0.504 OA
ATOM     19  H   UNL     1       9.700  13.130   3.725  1.00  0.00     0.293 HD
ENDBRANCH  15  18
BRANCH  17  20
ATOM     20  O   UNL     1       7.707  11.636   3.631  1.00  0.00    -0.504 OA
ATOM     21  H   UNL     1       7.757  10.685   3.282  1.00  0.00     0.293 HD
ENDBRANCH  17  20
ENDBRANCH   1  12
BRANCH   2  22
ATOM     22  O   UNL     1       6.871   9.366   8.874  1.00  0.00    -0.502 OA
ATOM     23  H   UNL     1       7.690   9.650   8.351  1.00  0.00     0.293 HD
ENDBRANCH   2  22
BRANCH   6  24
ATOM     24  O   UNL     1       2.036   8.959  11.073  1.00  0.00    -0.507 OA
ATOM     25  H   UNL     1       2.747   8.254  11.201  1.00  0.00     0.293 HD
ENDBRANCH   6  24
BRANCH   8  26
ATOM     26  O   UNL     1       0.114  13.125   9.654  1.00  0.00    -0.508 OA
ATOM     27  H   UNL     1      -0.084  13.727   8.863  1.00  0.00     0.293 HD
ENDBRANCH   8  26
TORSDOF 6
ENDMDL
MODEL 3
REMARK VINA RESULT:    -2.031      1.335      3.104
REMARK INTER + INTRA:          -2.763
REMARK INTER:                  -2.457
REMARK INTRA:                  -0.306
REMARK UNBOUND:                -0.316
REMARK SMILES O=c1c(O)c(-c2ccc(O)c(O)c2)oc2cc(O)cc(O)c12
REMARK SMILES IDX 5 1 3 2 2 3 1 4 22 5 20 6 19 7 17 8 16 9 15 10 14 11 6 12
REMARK SMILES IDX 7 13 8 14 9 15 13 16 11 17 10 18 12 20 4 22 21 24 18 26
REMARK H PARENT 10 19 12 21 4 23 21 25 18 27
REMARK Flexibility Score: inf
ROOT
ATOM      1  C   UNL     1       4.562  10.981   7.029  1.00  0.00     0.180 A 
ATOM      2  C   UNL     1       4.277  10.708   5.680  1.00  0.00     0.208 A 
ATOM      3  C   UNL     1       5.273  10.929   4.715  1.00  0.00     0.238 A 
ATOM      4  O   UNL     1       4.994  10.735   3.503  1.00  0.00    -0.285 OA
ATOM      5  C   UNL     1       6.546  11.405   5.113  1.00  0.00     0.111 A 
ATOM      6  C   UNL     1       7.641  11.627   4.224  1.00  0.00     0.134 A 
ATOM      7  C   UNL     1       8.812  12.224   4.709  1.00  0.00     0.093 A 
ATOM      8  C   UNL     1       8.950  12.546   6.062  1.00  0.00     0.123 A 
ATOM      9  C   UNL     1       7.909  12.278   6.946  1.00  0.00     0.094 A 
ATOM     10  C   UNL     1       6.714  11.718   6.486  1.00  0.00     0.146 A 
ATOM     11  O   UNL     1       5.743  11.489   7.362  1.00  0.00    -0.452 OA
ENDROOT
BRANCH   1  12
ATOM     12  C   UNL     1       3.573  10.749   8.105  1.00  0.00     0.025 A 
ATOM     13  C   UNL     1       3.593   9.537   8.813  1.00  0.00     0.016 A 
ATOM     14  C   UNL     1       2.655   9.289   9.819  1.00  0.00     0.051 A 
ATOM     15  C   UNL     1       1.674  10.243  10.121  1.00  0.00     0.157 A 
ATOM     16  C   UNL     1       2.573  11.695   8.398  1.00  0.00     0.062 A 
ATOM     17  C   UNL     1       1.630  11.446   9.406  1.00  0.00     0.158 A 
BRANCH  15  18
ATOM     18  O   UNL     1       0.738  10.000  11.125  1.00  0.00    -0.504 OA
ATOM     19  H   UNL     1       0.513  10.700  11.821  1.00  0.00     0.293 HD
ENDBRANCH  15  18
BRANCH  17  20
ATOM     20  O   UNL     1       0.645  12.387   9.698  1.00  0.00    -0.504 OA
ATOM     21  H   UNL     1       0.074  12.801   8.971  1.00  0.00     0.293 HD
ENDBRANCH  17  20
ENDBRANCH   1  12
BRANCH   2  22
ATOM     22  O   UNL     1       3.006  10.260   5.306  1.00  0.00    -0.502 OA
ATOM     23  H   UNL     1       2.495  10.661   4.530  1.00  0.00     0.293 HD
ENDBRANCH   2  22
BRANCH   6  24
ATOM     24  O   UNL     1       7.641  11.258   2.876  1.00  0.00    -0.507 OA
ATOM     25  H   UNL     1       6.813  11.157   2.308  1.00  0.00     0.293 HD
ENDBRANCH   6  24
BRANCH   8  26
ATOM     26  O   UNL     1      10.125  13.125   6.537  1.00  0.00    -0.508 OA
ATOM     27  H   UNL     1      10.160  13.591   7.436  1.00  0.00     0.293 HD
ENDBRANCH   8  26
TORSDOF 6
ENDMDL
