MODEL 1
REMARK VINA RESULT:    -2.745      0.000      0.000
REMARK INTER + INTRA:          -3.329
REMARK INTER:                  -3.227
REMARK INTRA:                  -0.102
REMARK UNBOUND:                -0.102
REMARK SMILES O=C([O-])CCC(=O)[O-]
REMARK SMILES IDX 4 1 2 2 1 3 3 4 5 5 6 6 7 7 8 8
REMARK H PARENT
REMARK Flexibility Score: inf
ROOT
ATOM      1  C   UNL     1       1.144 -33.951   0.797  1.00  0.00     0.059 C 
ENDROOT
BRANCH   1   2
ATOM      2  C   UNL     1      -0.006 -33.105   0.341  1.00  0.00     0.042 C 
ATOM      3  O   UNL     1      -1.163 -33.595   0.265  1.00  0.00    -0.550 OA
ATOM      4  O   UNL     1       0.196 -31.765   0.037  1.00  0.00    -0.550 OA
ENDBRANCH   1   2
BRANCH   1   5
ATOM      5  C   UNL     1       2.241 -34.036  -0.269  1.00  0.00     0.059 C 
BRANCH   5   6
ATOM      6  C   UNL     1       3.478 -33.304   0.152  1.00  0.00     0.042 C 
ATOM      7  O   UNL     1       4.588 -33.899   0.178  1.00  0.00    -0.550 OA
ATOM      8  O   UNL     1       3.399 -31.977   0.557  1.00  0.00    -0.550 OA
ENDBRANCH   5   6
ENDBRANCH   1   5
TORSDOF 3
ENDMDL
MODEL 2
REMARK VINA RESULT:    -2.726      0.242      3.801
REMARK INTER + INTRA:          -3.306
REMARK INTER:                  -3.246
REMARK INTRA:                  -0.059
REMARK UNBOUND:                -0.102
REMARK SMILES O=C([O-])CCC(=O)[O-]
REMARK SMILES IDX 4 1 2 2 1 3 3 4 5 5 6 6 7 7 8 8
REMARK H PARENT
REMARK Flexibility Score: inf
ROOT
ATOM      1  C   UNL     1       2.404 -34.118  -0.252  1.00  0.00     0.059 C 
ENDROOT
BRANCH   1   2
ATOM      2  C   UNL     1       3.640 -33.374   0.153  1.00  0.00     0.042 C 
ATOM      3  O   UNL     1       4.772 -33.909   0.026  1.00  0.00    -0.550 OA
ATOM      4  O   UNL     1       3.542 -32.075   0.633  1.00  0.00    -0.550 OA
ENDBRANCH   1   2
BRANCH   1   5
ATOM      5  C   UNL     1       1.279 -33.945   0.774  1.00  0.00     0.059 C 
BRANCH   5   6
ATOM      6  C   UNL     1       0.200 -33.041   0.263  1.00  0.00     0.042 C 
ATOM      7  O   UNL     1      -0.925 -33.511  -0.052  1.00  0.00    -0.550 OA
ATOM      8  O   UNL     1       0.449 -31.684   0.096  1.00  0.00    -0.550 OA
ENDBRANCH   5   6
ENDBRANCH   1   5
TORSDOF 3
ENDMDL
MODEL 3
REMARK VINA RESULT:    -2.723      1.817      2.591
REMARK INTER + INTRA:          -3.303
REMARK INTER:                  -3.146
REMARK INTRA:                  -0.156
REMARK UNBOUND:                -0.102
REMARK SMILES O=C([O-])CCC(=O)[O-]
REMARK SMILES IDX 4 1 2 2 1 3 3 4 5 5 6 6 7 7 8 8
REMARK H PARENT
REMARK Flexibility Score: inf
ROOT
ATOM      1  C   UNL     1      -0.730 -32.098  -0.304  1.00  0.00     0.059 C 
ENDROOT
BRANCH   1   2
ATOM      2  C   UNL     1      -1.769 -32.527   0.688  1.00  0.00     0.042 C 
ATOM      3  O   UNL     1      -1.982 -31.839   1.720  1.00  0.00    -0.550 OA
ATOM      4  O   UNL     1      -2.528 -33.665   0.450  1.00  0.00    -0.550 OA
ENDBRANCH   1   2
BRANCH   1   5
ATOM      5  C   UNL     1       0.279 -33.218  -0.584  1.00  0.00     0.059 C 
BRANCH   5   6
ATOM      6  C   UNL     1       1.219 -33.414   0.565  1.00  0.00     0.042 C 
ATOM      7  O   UNL     1       1.187 -34.480   1.234  1.00  0.00    -0.550 OA
ATOM      8  O   UNL     1       2.101 -32.403   0.924  1.00  0.00    -0.550 OA
ENDBRANCH   5   6
ENDBRANCH   1   5
TORSDOF 3
ENDMDL
MODEL 4
REMARK VINA RESULT:    -2.697      7.862      8.608
REMARK INTER + INTRA:          -3.272
REMARK INTER:                  -3.146
REMARK INTRA:                  -0.126
REMARK UNBOUND:                -0.102
REMARK SMILES O=C([O-])CCC(=O)[O-]
REMARK SMILES IDX 4 1 2 2 1 3 3 4 5 5 6 6 7 7 8 8
REMARK H PARENT
REMARK Flexibility Score: inf
ROOT
ATOM      1  C   UNL     1       0.535 -39.092  -5.705  1.00  0.00     0.059 C 
ENDROOT
BRANCH   1   2
ATOM      2  C   UNL     1       1.308 -39.965  -6.648  1.00  0.00     0.042 C 
ATOM      3  O   UNL     1       1.277 -39.743  -7.887  1.00  0.00    -0.550 OA
ATOM      4  O   UNL     1       2.094 -40.997  -6.152  1.00  0.00    -0.550 OA
ENDBRANCH   1   2
BRANCH   1   5
ATOM      5  C   UNL     1       1.161 -39.078  -4.307  1.00  0.00     0.059 C 
BRANCH   5   6
ATOM      6  C   UNL     1       2.340 -38.157  -4.239  1.00  0.00     0.042 C 
ATOM      7  O   UNL     1       2.193 -36.924  -4.448  1.00  0.00    -0.550 OA
ATOM      8  O   UNL     1       3.609 -38.666  -3.987  1.00  0.00    -0.550 OA
ENDBRANCH   5   6
ENDBRANCH   1   5
TORSDOF 3
ENDMDL
MODEL 5
REMARK VINA RESULT:    -2.674      7.836      8.720
REMARK INTER + INTRA:          -3.244
REMARK INTER:                  -3.126
REMARK INTRA:                  -0.118
REMARK UNBOUND:                -0.102
REMARK SMILES O=C([O-])CCC(=O)[O-]
REMARK SMILES IDX 4 1 2 2 1 3 3 4 5 5 6 6 7 7 8 8
REMARK H PARENT
REMARK Flexibility Score: inf
ROOT
ATOM      1  C   UNL     1       1.214 -39.061  -4.336  1.00  0.00     0.059 C 
ENDROOT
BRANCH   1   2
ATOM      2  C   UNL     1       2.348 -38.084  -4.254  1.00  0.00     0.042 C 
ATOM      3  O   UNL     1       3.495 -38.472  -3.909  1.00  0.00    -0.550 OA
ATOM      4  O   UNL     1       2.145 -36.754  -4.598  1.00  0.00    -0.550 OA
ENDBRANCH   1   2
BRANCH   1   5
ATOM      5  C   UNL     1       0.560 -39.051  -5.722  1.00  0.00     0.059 C 
BRANCH   5   6
ATOM      6  C   UNL     1       1.322 -39.892  -6.699  1.00  0.00     0.042 C 
ATOM      7  O   UNL     1       1.166 -39.724  -7.937  1.00  0.00    -0.550 OA
ATOM      8  O   UNL     1       2.174 -40.891  -6.242  1.00  0.00    -0.550 OA
ENDBRANCH   5   6
ENDBRANCH   1   5
TORSDOF 3
ENDMDL
MODEL 6
REMARK VINA RESULT:    -2.650     11.104     11.662
REMARK INTER + INTRA:          -3.217
REMARK INTER:                  -3.131
REMARK INTRA:                  -0.086
REMARK UNBOUND:                -0.102
REMARK SMILES O=C([O-])CCC(=O)[O-]
REMARK SMILES IDX 4 1 2 2 1 3 3 4 5 5 6 6 7 7 8 8
REMARK H PARENT
REMARK Flexibility Score: inf
ROOT
ATOM      1  C   UNL     1      -6.006 -39.808  -2.024  1.00  0.00     0.059 C 
ENDROOT
BRANCH   1   2
ATOM      2  C   UNL     1      -5.756 -41.285  -2.069  1.00  0.00     0.042 C 
ATOM      3  O   UNL     1      -5.970 -41.996  -1.053  1.00  0.00    -0.550 OA
ATOM      4  O   UNL     1      -5.325 -41.880  -3.248  1.00  0.00    -0.550 OA
ENDBRANCH   1   2
BRANCH   1   5
ATOM      5  C   UNL     1      -5.799 -39.158  -3.396  1.00  0.00     0.059 C 
BRANCH   5   6
ATOM      6  C   UNL     1      -7.104 -38.795  -4.037  1.00  0.00     0.042 C 
ATOM      7  O   UNL     1      -8.123 -38.589  -3.327  1.00  0.00    -0.550 OA
ATOM      8  O   UNL     1      -7.204 -38.725  -5.422  1.00  0.00    -0.550 OA
ENDBRANCH   5   6
ENDBRANCH   1   5
TORSDOF 3
ENDMDL
MODEL 7
REMARK VINA RESULT:    -2.627     10.563     11.154
REMARK INTER + INTRA:          -3.189
REMARK INTER:                  -3.130
REMARK INTRA:                  -0.060
REMARK UNBOUND:                -0.102
REMARK SMILES O=C([O-])CCC(=O)[O-]
REMARK SMILES IDX 4 1 2 2 1 3 3 4 5 5 6 6 7 7 8 8
REMARK H PARENT
REMARK Flexibility Score: inf
ROOT
ATOM      1  C   UNL     1      -5.634 -38.990  -3.564  1.00  0.00     0.059 C 
ENDROOT
BRANCH   1   2
ATOM      2  C   UNL     1      -6.747 -38.291  -4.284  1.00  0.00     0.042 C 
ATOM      3  O   UNL     1      -7.247 -37.238  -3.810  1.00  0.00    -0.550 OA
ATOM      4  O   UNL     1      -7.202 -38.783  -5.501  1.00  0.00    -0.550 OA
ENDBRANCH   1   2
BRANCH   1   5
ATOM      5  C   UNL     1      -6.127 -39.659  -2.276  1.00  0.00     0.059 C 
BRANCH   5   6
ATOM      6  C   UNL     1      -5.706 -41.094  -2.204  1.00  0.00     0.042 C 
ATOM      7  O   UNL     1      -5.365 -41.708  -3.249  1.00  0.00    -0.550 OA
ATOM      8  O   UNL     1      -5.731 -41.767  -0.988  1.00  0.00    -0.550 OA
ENDBRANCH   5   6
ENDBRANCH   1   5
TORSDOF 3
ENDMDL
MODEL 8
REMARK VINA RESULT:    -2.614      9.232     10.247
REMARK INTER + INTRA:          -3.174
REMARK INTER:                  -2.987
REMARK INTRA:                  -0.187
REMARK UNBOUND:                -0.102
REMARK SMILES O=C([O-])CCC(=O)[O-]
REMARK SMILES IDX 4 1 2 2 1 3 3 4 5 5 6 6 7 7 8 8
REMARK H PARENT
REMARK Flexibility Score: inf
ROOT
ATOM      1  C   UNL     1       1.442 -39.952  -5.607  1.00  0.00     0.059 C 
ENDROOT
BRANCH   1   2
ATOM      2  C   UNL     1       2.881 -40.320  -5.807  1.00  0.00     0.042 C 
ATOM      3  O   UNL     1       3.793 -39.522  -5.467  1.00  0.00    -0.550 OA
ATOM      4  O   UNL     1       3.213 -41.562  -6.333  1.00  0.00    -0.550 OA
ENDBRANCH   1   2
BRANCH   1   5
ATOM      5  C   UNL     1       0.665 -39.971  -6.928  1.00  0.00     0.059 C 
BRANCH   5   6
ATOM      6  C   UNL     1       1.255 -39.026  -7.929  1.00  0.00     0.042 C 
ATOM      7  O   UNL     1       1.291 -37.791  -7.690  1.00  0.00    -0.550 OA
ATOM      8  O   UNL     1       1.728 -39.505  -9.145  1.00  0.00    -0.550 OA
ENDBRANCH   5   6
ENDBRANCH   1   5
TORSDOF 3
ENDMDL
MODEL 9
REMARK VINA RESULT:    -2.593      9.244      9.899
REMARK INTER + INTRA:          -3.150
REMARK INTER:                  -2.975
REMARK INTRA:                  -0.175
REMARK UNBOUND:                -0.102
REMARK SMILES O=C([O-])CCC(=O)[O-]
REMARK SMILES IDX 4 1 2 2 1 3 3 4 5 5 6 6 7 7 8 8
REMARK H PARENT
REMARK Flexibility Score: inf
ROOT
ATOM      1  C   UNL     1       0.572 -40.015  -6.908  1.00  0.00     0.059 C 
ENDROOT
BRANCH   1   2
ATOM      2  C   UNL     1       1.226 -39.118  -7.915  1.00  0.00     0.042 C 
ATOM      3  O   UNL     1       1.656 -39.590  -9.000  1.00  0.00    -0.550 OA
ATOM      4  O   UNL     1       1.322 -37.754  -7.671  1.00  0.00    -0.550 OA
ENDBRANCH   1   2
BRANCH   1   5
ATOM      5  C   UNL     1       1.327 -40.009  -5.574  1.00  0.00     0.059 C 
BRANCH   5   6
ATOM      6  C   UNL     1       2.764 -40.394  -5.750  1.00  0.00     0.042 C 
ATOM      7  O   UNL     1       3.675 -39.553  -5.532  1.00  0.00    -0.550 OA
ATOM      8  O   UNL     1       3.094 -41.667  -6.197  1.00  0.00    -0.550 OA
ENDBRANCH   5   6
ENDBRANCH   1   5
TORSDOF 3
ENDMDL
