MODEL 1
REMARK VINA RESULT:    -3.707      0.000      0.000
REMARK INTER + INTRA:          -3.815
REMARK INTER:                  -3.815
REMARK INTRA:                   0.000
REMARK UNBOUND:                 0.000
REMARK SMILES CC1(C)[C@@H]2CC[C@@](C)(C2)[C@H]1O
REMARK SMILES IDX 1 1 2 2 4 3 5 4 6 5 7 6 9 7 10 8 8 9 3 10 11 11
REMARK H PARENT 11 12
REMARK Flexibility Score: inf
ROOT
ATOM      1  C   UNL     1     165.738 171.722 171.498  1.00  0.00     0.014 C 
ATOM      2  C   UNL     1     164.690 172.116 170.428  1.00  0.00    -0.006 C 
ATOM      3  C   UNL     1     163.432 171.181 170.410  1.00  0.00    -0.002 C 
ATOM      4  C   UNL     1     163.837 169.693 170.407  1.00  0.00     0.005 C 
ATOM      5  C   UNL     1     164.476 169.516 169.022  1.00  0.00     0.010 C 
ATOM      6  C   UNL     1     164.256 170.899 168.365  1.00  0.00    -0.006 C 
ATOM      7  C   UNL     1     162.941 171.324 168.979  1.00  0.00     0.013 C 
ATOM      8  C   UNL     1     165.257 171.914 168.980  1.00  0.00     0.126 C 
ATOM      9  C   UNL     1     164.248 170.847 166.833  1.00  0.00     0.014 C 
ATOM     10  C   UNL     1     164.252 173.575 170.726  1.00  0.00     0.014 C 
ENDROOT
BRANCH   8  11
ATOM     11  O   UNL     1     165.264 173.111 168.241  1.00  0.00    -0.392 OA
ATOM     12  H   UNL     1     164.341 173.475 168.284  1.00  0.00     0.211 HD
ENDBRANCH   8  11
TORSDOF 1
ENDMDL
MODEL 2
REMARK VINA RESULT:    -3.695     10.588     12.222
REMARK INTER + INTRA:          -3.803
REMARK INTER:                  -3.803
REMARK INTRA:                   0.000
REMARK UNBOUND:                 0.000
REMARK SMILES CC1(C)[C@@H]2CC[C@@](C)(C2)[C@H]1O
REMARK SMILES IDX 1 1 2 2 4 3 5 4 6 5 7 6 9 7 10 8 8 9 3 10 11 11
REMARK H PARENT 11 12
REMARK Flexibility Score: inf
ROOT
ATOM      1  C   UNL     1     165.383 159.550 171.529  1.00  0.00     0.014 C 
ATOM      2  C   UNL     1     166.474 159.147 170.506  1.00  0.00    -0.006 C 
ATOM      3  C   UNL     1     167.728 160.084 170.527  1.00  0.00    -0.002 C 
ATOM      4  C   UNL     1     167.320 161.572 170.491  1.00  0.00     0.005 C 
ATOM      5  C   UNL     1     166.736 161.731 169.080  1.00  0.00     0.010 C 
ATOM      6  C   UNL     1     166.985 160.341 168.448  1.00  0.00    -0.006 C 
ATOM      7  C   UNL     1     168.277 159.927 169.119  1.00  0.00     0.013 C 
ATOM      8  C   UNL     1     165.963 159.330 169.035  1.00  0.00     0.126 C 
ATOM      9  C   UNL     1     167.054 160.376 166.917  1.00  0.00     0.014 C 
ATOM     10  C   UNL     1     166.903 157.693 170.837  1.00  0.00     0.014 C 
ENDROOT
BRANCH   8  11
ATOM     11  O   UNL     1     165.989 158.125 168.309  1.00  0.00    -0.392 OA
ATOM     12  H   UNL     1     166.497 157.474 168.860  1.00  0.00     0.211 HD
ENDBRANCH   8  11
TORSDOF 1
ENDMDL
MODEL 3
REMARK VINA RESULT:    -3.693      7.752      8.634
REMARK INTER + INTRA:          -3.800
REMARK INTER:                  -3.800
REMARK INTRA:                   0.000
REMARK UNBOUND:                 0.000
REMARK SMILES CC1(C)[C@@H]2CC[C@@](C)(C2)[C@H]1O
REMARK SMILES IDX 1 1 2 2 4 3 5 4 6 5 7 6 9 7 10 8 8 9 3 10 11 11
REMARK H PARENT 11 12
REMARK Flexibility Score: inf
ROOT
ATOM      1  C   UNL     1     159.557 165.871 171.500  1.00  0.00     0.014 C 
ATOM      2  C   UNL     1     159.151 164.762 170.498  1.00  0.00    -0.006 C 
ATOM      3  C   UNL     1     160.085 163.505 170.542  1.00  0.00    -0.002 C 
ATOM      4  C   UNL     1     161.573 163.908 170.499  1.00  0.00     0.005 C 
ATOM      5  C   UNL     1     161.734 164.465 169.077  1.00  0.00     0.010 C 
ATOM      6  C   UNL     1     160.344 164.208 168.450  1.00  0.00    -0.006 C 
ATOM      7  C   UNL     1     159.926 162.931 169.145  1.00  0.00     0.013 C 
ATOM      8  C   UNL     1     159.336 165.244 169.017  1.00  0.00     0.126 C 
ATOM      9  C   UNL     1     160.379 164.110 166.920  1.00  0.00     0.014 C 
ATOM     10  C   UNL     1     157.695 164.344 170.836  1.00  0.00     0.014 C 
ENDROOT
BRANCH   8  11
ATOM     11  O   UNL     1     158.131 165.208 168.292  1.00  0.00    -0.392 OA
ATOM     12  H   UNL     1     158.175 164.405 167.709  1.00  0.00     0.211 HD
ENDBRANCH   8  11
TORSDOF 1
ENDMDL
MODEL 4
REMARK VINA RESULT:    -3.681      7.776      8.642
REMARK INTER + INTRA:          -3.789
REMARK INTER:                  -3.789
REMARK INTRA:                   0.000
REMARK UNBOUND:                 0.000
REMARK SMILES CC1(C)[C@@H]2CC[C@@](C)(C2)[C@H]1O
REMARK SMILES IDX 1 1 2 2 4 3 5 4 6 5 7 6 9 7 10 8 8 9 3 10 11 11
REMARK H PARENT 11 12
REMARK Flexibility Score: inf
ROOT
ATOM      1  C   UNL     1     171.669 165.363 171.575  1.00  0.00     0.014 C 
ATOM      2  C   UNL     1     172.062 166.461 170.557  1.00  0.00    -0.006 C 
ATOM      3  C   UNL     1     171.121 167.713 170.591  1.00  0.00    -0.002 C 
ATOM      4  C   UNL     1     169.635 167.300 170.561  1.00  0.00     0.005 C 
ATOM      5  C   UNL     1     169.469 166.724 169.147  1.00  0.00     0.010 C 
ATOM      6  C   UNL     1     170.854 166.981 168.509  1.00  0.00    -0.006 C 
ATOM      7  C   UNL     1     171.268 168.270 169.184  1.00  0.00     0.013 C 
ATOM      8  C   UNL     1     171.872 165.959 169.083  1.00  0.00     0.126 C 
ATOM      9  C   UNL     1     170.809 167.059 166.978  1.00  0.00     0.014 C 
ATOM     10  C   UNL     1     173.517 166.894 170.881  1.00  0.00     0.014 C 
ENDROOT
BRANCH   8  11
ATOM     11  O   UNL     1     173.072 165.993 168.351  1.00  0.00    -0.392 OA
ATOM     12  H   UNL     1     172.817 166.021 167.391  1.00  0.00     0.211 HD
ENDBRANCH   8  11
TORSDOF 1
ENDMDL
MODEL 5
REMARK VINA RESULT:    -3.523      8.628      9.818
REMARK INTER + INTRA:          -3.626
REMARK INTER:                  -3.626
REMARK INTRA:                   0.000
REMARK UNBOUND:                 0.000
REMARK SMILES CC1(C)[C@@H]2CC[C@@](C)(C2)[C@H]1O
REMARK SMILES IDX 1 1 2 2 4 3 5 4 6 5 7 6 9 7 10 8 8 9 3 10 11 11
REMARK H PARENT 11 12
REMARK Flexibility Score: inf
ROOT
ATOM      1  C   UNL     1     157.829 162.721 171.381  1.00  0.00     0.014 C 
ATOM      2  C   UNL     1     159.205 162.697 170.672  1.00  0.00    -0.006 C 
ATOM      3  C   UNL     1     160.038 164.008 170.880  1.00  0.00    -0.002 C 
ATOM      4  C   UNL     1     159.187 165.265 170.607  1.00  0.00     0.005 C 
ATOM      5  C   UNL     1     158.945 165.191 169.092  1.00  0.00     0.010 C 
ATOM      6  C   UNL     1     159.782 163.960 168.673  1.00  0.00    -0.006 C 
ATOM      7  C   UNL     1     160.933 164.023 169.652  1.00  0.00     0.013 C 
ATOM      8  C   UNL     1     159.038 162.670 169.114  1.00  0.00     0.126 C 
ATOM      9  C   UNL     1     160.206 163.990 167.199  1.00  0.00     0.014 C 
ATOM     10  C   UNL     1     159.993 161.483 171.233  1.00  0.00     0.014 C 
ENDROOT
BRANCH   8  11
ATOM     11  O   UNL     1     159.633 161.535 168.535  1.00  0.00    -0.392 OA
ATOM     12  H   UNL     1     160.473 161.368 169.038  1.00  0.00     0.211 HD
ENDBRANCH   8  11
TORSDOF 1
ENDMDL
MODEL 6
REMARK VINA RESULT:    -3.517      7.413      8.191
REMARK INTER + INTRA:          -3.619
REMARK INTER:                  -3.619
REMARK INTRA:                   0.000
REMARK UNBOUND:                 0.000
REMARK SMILES CC1(C)[C@@H]2CC[C@@](C)(C2)[C@H]1O
REMARK SMILES IDX 1 1 2 2 4 3 5 4 6 5 7 6 9 7 10 8 8 9 3 10 11 11
REMARK H PARENT 11 12
REMARK Flexibility Score: inf
ROOT
ATOM      1  C   UNL     1     173.355 168.548 171.429  1.00  0.00     0.014 C 
ATOM      2  C   UNL     1     171.995 168.540 170.688  1.00  0.00    -0.006 C 
ATOM      3  C   UNL     1     171.168 167.227 170.911  1.00  0.00    -0.002 C 
ATOM      4  C   UNL     1     172.037 165.972 170.691  1.00  0.00     0.005 C 
ATOM      5  C   UNL     1     172.314 166.008 169.181  1.00  0.00     0.010 C 
ATOM      6  C   UNL     1     171.476 167.220 168.710  1.00  0.00    -0.006 C 
ATOM      7  C   UNL     1     170.303 167.172 169.664  1.00  0.00     0.013 C 
ATOM      8  C   UNL     1     172.198 168.528 169.134  1.00  0.00     0.126 C 
ATOM      9  C   UNL     1     171.087 167.148 167.228  1.00  0.00     0.014 C 
ATOM     10  C   UNL     1     171.183 169.760 171.199  1.00  0.00     0.014 C 
ENDROOT
BRANCH   8  11
ATOM     11  O   UNL     1     171.607 169.642 168.511  1.00  0.00    -0.392 OA
ATOM     12  H   UNL     1     170.968 170.027 169.167  1.00  0.00     0.211 HD
ENDBRANCH   8  11
TORSDOF 1
ENDMDL
MODEL 7
REMARK VINA RESULT:    -3.514      1.614      2.558
REMARK INTER + INTRA:          -3.617
REMARK INTER:                  -3.617
REMARK INTRA:                   0.000
REMARK UNBOUND:                 0.000
REMARK SMILES CC1(C)[C@@H]2CC[C@@](C)(C2)[C@H]1O
REMARK SMILES IDX 1 1 2 2 4 3 5 4 6 5 7 6 9 7 10 8 8 9 3 10 11 11
REMARK H PARENT 11 12
REMARK Flexibility Score: inf
ROOT
ATOM      1  C   UNL     1     162.658 173.088 171.582  1.00  0.00     0.014 C 
ATOM      2  C   UNL     1     162.677 171.797 170.728  1.00  0.00    -0.006 C 
ATOM      3  C   UNL     1     163.989 170.956 170.895  1.00  0.00    -0.002 C 
ATOM      4  C   UNL     1     165.246 171.842 170.764  1.00  0.00     0.005 C 
ATOM      5  C   UNL     1     165.225 172.247 169.283  1.00  0.00     0.010 C 
ATOM      6  C   UNL     1     164.020 171.451 168.728  1.00  0.00    -0.006 C 
ATOM      7  C   UNL     1     164.061 170.200 169.579  1.00  0.00     0.013 C 
ATOM      8  C   UNL     1     162.707 172.133 169.197  1.00  0.00     0.126 C 
ATOM      9  C   UNL     1     164.111 171.189 167.220  1.00  0.00     0.014 C 
ATOM     10  C   UNL     1     161.453 170.943 171.153  1.00  0.00     0.014 C 
ENDROOT
BRANCH   8  11
ATOM     11  O   UNL     1     161.601 171.595 168.514  1.00  0.00    -0.392 OA
ATOM     12  H   UNL     1     161.204 172.338 167.987  1.00  0.00     0.211 HD
ENDBRANCH   8  11
TORSDOF 1
ENDMDL
MODEL 8
REMARK VINA RESULT:    -3.513     11.224     12.485
REMARK INTER + INTRA:          -3.615
REMARK INTER:                  -3.615
REMARK INTRA:                   0.000
REMARK UNBOUND:                 0.000
REMARK SMILES CC1(C)[C@@H]2CC[C@@](C)(C2)[C@H]1O
REMARK SMILES IDX 1 1 2 2 4 3 5 4 6 5 7 6 9 7 10 8 8 9 3 10 11 11
REMARK H PARENT 11 12
REMARK Flexibility Score: inf
ROOT
ATOM      1  C   UNL     1     168.560 157.958 171.499  1.00  0.00     0.014 C 
ATOM      2  C   UNL     1     168.538 159.298 170.724  1.00  0.00    -0.006 C 
ATOM      3  C   UNL     1     167.210 160.108 170.911  1.00  0.00    -0.002 C 
ATOM      4  C   UNL     1     165.971 159.214 170.699  1.00  0.00     0.005 C 
ATOM      5  C   UNL     1     166.030 158.899 169.197  1.00  0.00     0.010 C 
ATOM      6  C   UNL     1     167.234 159.745 168.718  1.00  0.00    -0.006 C 
ATOM      7  C   UNL     1     167.155 160.941 169.641  1.00  0.00     0.013 C 
ATOM      8  C   UNL     1     168.547 159.055 169.175  1.00  0.00     0.126 C 
ATOM      9  C   UNL     1     167.172 160.095 167.226  1.00  0.00     0.014 C 
ATOM     10  C   UNL     1     169.739 160.143 171.227  1.00  0.00     0.014 C 
ENDROOT
BRANCH   8  11
ATOM     11  O   UNL     1     169.659 159.648 168.550  1.00  0.00    -0.392 OA
ATOM     12  H   UNL     1     170.338 159.796 169.260  1.00  0.00     0.211 HD
ENDBRANCH   8  11
TORSDOF 1
ENDMDL
MODEL 9
REMARK VINA RESULT:    -3.478      1.575      3.335
REMARK INTER + INTRA:          -3.580
REMARK INTER:                  -3.580
REMARK INTRA:                   0.000
REMARK UNBOUND:                 0.000
REMARK SMILES CC1(C)[C@@H]2CC[C@@](C)(C2)[C@H]1O
REMARK SMILES IDX 1 1 2 2 4 3 5 4 6 5 7 6 9 7 10 8 8 9 3 10 11 11
REMARK H PARENT 11 12
REMARK Flexibility Score: inf
ROOT
ATOM      1  C   UNL     1     164.443 169.401 169.202  1.00  0.00     0.014 C 
ATOM      2  C   UNL     1     164.041 170.854 168.847  1.00  0.00    -0.006 C 
ATOM      3  C   UNL     1     165.032 171.931 169.405  1.00  0.00    -0.002 C 
ATOM      4  C   UNL     1     165.347 171.689 170.895  1.00  0.00     0.005 C 
ATOM      5  C   UNL     1     164.008 171.997 171.582  1.00  0.00     0.010 C 
ATOM      6  C   UNL     1     163.127 172.483 170.407  1.00  0.00    -0.006 C 
ATOM      7  C   UNL     1     164.147 173.161 169.518  1.00  0.00     0.013 C 
ATOM      8  C   UNL     1     162.701 171.258 169.555  1.00  0.00     0.126 C 
ATOM      9  C   UNL     1     161.976 173.394 170.851  1.00  0.00     0.014 C 
ATOM     10  C   UNL     1     163.980 170.952 167.300  1.00  0.00     0.014 C 
ENDROOT
BRANCH   8  11
ATOM     11  O   UNL     1     161.702 171.621 168.633  1.00  0.00    -0.392 OA
ATOM     12  H   UNL     1     161.589 170.848 168.019  1.00  0.00     0.211 HD
ENDBRANCH   8  11
TORSDOF 1
ENDMDL
