MODEL 1
REMARK VINA RESULT:    -7.115      0.000      0.000
REMARK INTER + INTRA:          -8.657
REMARK INTER:                  -8.363
REMARK INTRA:                  -0.294
REMARK UNBOUND:                -0.294
REMARK SMILES O=c1c(O)c(-c2ccc(O)cc2)oc2cc(O)cc(O)c12
REMARK SMILES IDX 5 1 3 2 2 3 1 4 21 5 19 6 18 7 16 8 15 9 14 10 13 11 6 12
REMARK SMILES IDX 7 13 8 14 9 15 12 16 11 17 10 18 4 20 20 22 17 24
REMARK H PARENT 10 19 4 21 20 23 17 25
REMARK Flexibility Score: inf
ROOT
ATOM      1  C   UNL     1      25.663 -25.957  27.533  1.00  0.00     0.180 A 
ATOM      2  C   UNL     1      25.213 -25.049  28.507  1.00  0.00     0.208 A 
ATOM      3  C   UNL     1      25.564 -25.263  29.849  1.00  0.00     0.238 A 
ATOM      4  O   UNL     1      25.115 -24.477  30.724  1.00  0.00    -0.285 OA
ATOM      5  C   UNL     1      26.373 -26.371  30.200  1.00  0.00     0.111 A 
ATOM      6  C   UNL     1      26.822 -26.662  31.523  1.00  0.00     0.134 A 
ATOM      7  C   UNL     1      27.507 -27.857  31.772  1.00  0.00     0.093 A 
ATOM      8  C   UNL     1      27.817 -28.739  30.735  1.00  0.00     0.123 A 
ATOM      9  C   UNL     1      27.436 -28.436  29.431  1.00  0.00     0.094 A 
ATOM     10  C   UNL     1      26.718 -27.269  29.156  1.00  0.00     0.146 A 
ATOM     11  O   UNL     1      26.364 -27.023  27.901  1.00  0.00    -0.452 OA
ENDROOT
BRANCH   1  12
ATOM     12  C   UNL     1      25.355 -25.786  26.094  1.00  0.00     0.021 A 
ATOM     13  C   UNL     1      24.284 -26.496  25.526  1.00  0.00     0.016 A 
ATOM     14  C   UNL     1      23.991 -26.367  24.165  1.00  0.00     0.047 A 
ATOM     15  C   UNL     1      24.774 -25.537  23.353  1.00  0.00     0.115 A 
ATOM     16  C   UNL     1      26.150 -24.971  25.267  1.00  0.00     0.016 A 
ATOM     17  C   UNL     1      25.855 -24.844  23.906  1.00  0.00     0.047 A 
BRANCH  15  18
ATOM     18  O   UNL     1      24.491 -25.400  21.995  1.00  0.00    -0.508 OA
ATOM     19  H   UNL     1      23.555 -25.536  21.633  1.00  0.00     0.293 HD
ENDBRANCH  15  18
ENDBRANCH   1  12
BRANCH   2  20
ATOM     20  O   UNL     1      24.398 -23.974  28.143  1.00  0.00    -0.502 OA
ATOM     21  H   UNL     1      24.413 -23.089  28.635  1.00  0.00     0.293 HD
ENDBRANCH   2  20
BRANCH   6  22
ATOM     22  O   UNL     1      26.645 -25.803  32.612  1.00  0.00    -0.507 OA
ATOM     23  H   UNL     1      26.829 -26.049  33.573  1.00  0.00     0.293 HD
ENDBRANCH   6  22
BRANCH   8  24
ATOM     24  O   UNL     1      28.514 -29.919  30.991  1.00  0.00    -0.508 OA
ATOM     25  H   UNL     1      28.874 -30.133  31.913  1.00  0.00     0.293 HD
ENDBRANCH   8  24
TORSDOF 5
ENDMDL
MODEL 2
REMARK VINA RESULT:    -7.001      1.830      6.654
REMARK INTER + INTRA:          -8.523
REMARK INTER:                  -8.227
REMARK INTRA:                  -0.296
REMARK UNBOUND:                -0.294
REMARK SMILES O=c1c(O)c(-c2ccc(O)cc2)oc2cc(O)cc(O)c12
REMARK SMILES IDX 5 1 3 2 2 3 1 4 21 5 19 6 18 7 16 8 15 9 14 10 13 11 6 12
REMARK SMILES IDX 7 13 8 14 9 15 12 16 11 17 10 18 4 20 20 22 17 24
REMARK H PARENT 10 19 4 21 20 23 17 25
REMARK Flexibility Score: inf
ROOT
ATOM      1  C   UNL     1      25.672 -25.513  27.648  1.00  0.00     0.180 A 
ATOM      2  C   UNL     1      25.708 -24.127  27.877  1.00  0.00     0.208 A 
ATOM      3  C   UNL     1      25.437 -23.254  26.811  1.00  0.00     0.238 A 
ATOM      4  O   UNL     1      25.524 -22.013  27.008  1.00  0.00    -0.285 OA
ATOM      5  C   UNL     1      25.120 -23.777  25.534  1.00  0.00     0.111 A 
ATOM      6  C   UNL     1      24.789 -22.986  24.393  1.00  0.00     0.134 A 
ATOM      7  C   UNL     1      24.621 -23.605  23.149  1.00  0.00     0.093 A 
ATOM      8  C   UNL     1      24.705 -24.993  23.019  1.00  0.00     0.123 A 
ATOM      9  C   UNL     1      24.967 -25.779  24.138  1.00  0.00     0.094 A 
ATOM     10  C   UNL     1      25.177 -25.187  25.386  1.00  0.00     0.146 A 
ATOM     11  O   UNL     1      25.436 -25.971  26.424  1.00  0.00    -0.452 OA
ENDROOT
BRANCH   1  12
ATOM     12  C   UNL     1      25.921 -26.496  28.727  1.00  0.00     0.021 A 
ATOM     13  C   UNL     1      27.223 -26.983  28.933  1.00  0.00     0.016 A 
ATOM     14  C   UNL     1      27.476 -27.929  29.931  1.00  0.00     0.047 A 
ATOM     15  C   UNL     1      26.428 -28.411  30.725  1.00  0.00     0.115 A 
ATOM     16  C   UNL     1      24.870 -27.001  29.514  1.00  0.00     0.016 A 
ATOM     17  C   UNL     1      25.126 -27.949  30.511  1.00  0.00     0.047 A 
BRANCH  15  18
ATOM     18  O   UNL     1      26.668 -29.354  31.722  1.00  0.00    -0.508 OA
ATOM     19  H   UNL     1      27.353 -30.091  31.601  1.00  0.00     0.293 HD
ENDBRANCH  15  18
ENDBRANCH   1  12
BRANCH   2  20
ATOM     20  O   UNL     1      26.045 -23.631  29.139  1.00  0.00    -0.502 OA
ATOM     21  H   UNL     1      25.373 -23.556  29.892  1.00  0.00     0.293 HD
ENDBRANCH   2  20
BRANCH   6  22
ATOM     22  O   UNL     1      24.591 -21.602  24.434  1.00  0.00    -0.507 OA
ATOM     23  H   UNL     1      24.278 -21.043  23.655  1.00  0.00     0.293 HD
ENDBRANCH   6  22
BRANCH   8  24
ATOM     24  O   UNL     1      24.520 -25.603  21.779  1.00  0.00    -0.508 OA
ATOM     25  H   UNL     1      25.017 -26.447  21.524  1.00  0.00     0.293 HD
ENDBRANCH   8  24
TORSDOF 5
ENDMDL
MODEL 3
REMARK VINA RESULT:    -6.997      1.911      6.765
REMARK INTER + INTRA:          -8.518
REMARK INTER:                  -8.234
REMARK INTRA:                  -0.285
REMARK UNBOUND:                -0.294
REMARK SMILES O=c1c(O)c(-c2ccc(O)cc2)oc2cc(O)cc(O)c12
REMARK SMILES IDX 5 1 3 2 2 3 1 4 21 5 19 6 18 7 16 8 15 9 14 10 13 11 6 12
REMARK SMILES IDX 7 13 8 14 9 15 12 16 11 17 10 18 4 20 20 22 17 24
REMARK H PARENT 10 19 4 21 20 23 17 25
REMARK Flexibility Score: inf
ROOT
ATOM      1  C   UNL     1      26.419 -26.495  27.783  1.00  0.00     0.180 A 
ATOM      2  C   UNL     1      27.253 -25.736  26.943  1.00  0.00     0.208 A 
ATOM      3  C   UNL     1      26.680 -25.031  25.872  1.00  0.00     0.238 A 
ATOM      4  O   UNL     1      27.437 -24.397  25.092  1.00  0.00    -0.285 OA
ATOM      5  C   UNL     1      25.280 -25.081  25.663  1.00  0.00     0.111 A 
ATOM      6  C   UNL     1      24.588 -24.374  24.634  1.00  0.00     0.134 A 
ATOM      7  C   UNL     1      23.220 -24.601  24.441  1.00  0.00     0.093 A 
ATOM      8  C   UNL     1      22.507 -25.459  25.281  1.00  0.00     0.123 A 
ATOM      9  C   UNL     1      23.161 -26.107  26.326  1.00  0.00     0.094 A 
ATOM     10  C   UNL     1      24.533 -25.929  26.521  1.00  0.00     0.146 A 
ATOM     11  O   UNL     1      25.119 -26.575  27.521  1.00  0.00    -0.452 OA
ENDROOT
BRANCH   1  12
ATOM     12  C   UNL     1      26.945 -27.245  28.946  1.00  0.00     0.021 A 
ATOM     13  C   UNL     1      27.418 -28.555  28.769  1.00  0.00     0.016 A 
ATOM     14  C   UNL     1      27.897 -29.289  29.858  1.00  0.00     0.047 A 
ATOM     15  C   UNL     1      27.896 -28.727  31.141  1.00  0.00     0.115 A 
ATOM     16  C   UNL     1      26.927 -26.694  30.241  1.00  0.00     0.016 A 
ATOM     17  C   UNL     1      27.406 -27.430  31.329  1.00  0.00     0.047 A 
BRANCH  15  18
ATOM     18  O   UNL     1      28.371 -29.448  32.234  1.00  0.00    -0.508 OA
ATOM     19  H   UNL     1      29.350 -29.429  32.496  1.00  0.00     0.293 HD
ENDBRANCH  15  18
ENDBRANCH   1  12
BRANCH   2  20
ATOM     20  O   UNL     1      28.634 -25.718  27.153  1.00  0.00    -0.502 OA
ATOM     21  H   UNL     1      29.236 -26.484  26.877  1.00  0.00     0.293 HD
ENDBRANCH   2  20
BRANCH   6  22
ATOM     22  O   UNL     1      25.188 -23.426  23.800  1.00  0.00    -0.507 OA
ATOM     23  H   UNL     1      25.985 -23.604  23.208  1.00  0.00     0.293 HD
ENDBRANCH   6  22
BRANCH   8  24
ATOM     24  O   UNL     1      21.142 -25.666  25.091  1.00  0.00    -0.508 OA
ATOM     25  H   UNL     1      20.458 -24.966  25.354  1.00  0.00     0.293 HD
ENDBRANCH   8  24
TORSDOF 5
ENDMDL
MODEL 4
REMARK VINA RESULT:    -6.990      1.855      6.732
REMARK INTER + INTRA:          -8.511
REMARK INTER:                  -8.221
REMARK INTRA:                  -0.289
REMARK UNBOUND:                -0.294
REMARK SMILES O=c1c(O)c(-c2ccc(O)cc2)oc2cc(O)cc(O)c12
REMARK SMILES IDX 5 1 3 2 2 3 1 4 21 5 19 6 18 7 16 8 15 9 14 10 13 11 6 12
REMARK SMILES IDX 7 13 8 14 9 15 12 16 11 17 10 18 4 20 20 22 17 24
REMARK H PARENT 10 19 4 21 20 23 17 25
REMARK Flexibility Score: inf
ROOT
ATOM      1  C   UNL     1      26.335 -26.518  27.752  1.00  0.00     0.180 A 
ATOM      2  C   UNL     1      25.008 -26.674  27.317  1.00  0.00     0.208 A 
ATOM      3  C   UNL     1      24.580 -25.977  26.175  1.00  0.00     0.238 A 
ATOM      4  O   UNL     1      23.376 -26.078  25.822  1.00  0.00    -0.285 OA
ATOM      5  C   UNL     1      25.488 -25.146  25.474  1.00  0.00     0.111 A 
ATOM      6  C   UNL     1      25.173 -24.426  24.282  1.00  0.00     0.134 A 
ATOM      7  C   UNL     1      26.110 -23.534  23.748  1.00  0.00     0.093 A 
ATOM      8  C   UNL     1      27.373 -23.384  24.325  1.00  0.00     0.123 A 
ATOM      9  C   UNL     1      27.711 -24.128  25.452  1.00  0.00     0.094 A 
ATOM     10  C   UNL     1      26.785 -24.999  26.031  1.00  0.00     0.146 A 
ATOM     11  O   UNL     1      27.143 -25.680  27.112  1.00  0.00    -0.452 OA
ENDROOT
BRANCH   1  12
ATOM     12  C   UNL     1      26.868 -27.237  28.932  1.00  0.00     0.021 A 
ATOM     13  C   UNL     1      27.413 -28.521  28.772  1.00  0.00     0.016 A 
ATOM     14  C   UNL     1      27.900 -29.227  29.876  1.00  0.00     0.047 A 
ATOM     15  C   UNL     1      27.836 -28.663  31.156  1.00  0.00     0.115 A 
ATOM     16  C   UNL     1      26.788 -26.684  30.224  1.00  0.00     0.016 A 
ATOM     17  C   UNL     1      27.275 -27.393  31.327  1.00  0.00     0.047 A 
BRANCH  15  18
ATOM     18  O   UNL     1      28.319 -29.356  32.264  1.00  0.00    -0.508 OA
ATOM     19  H   UNL     1      29.238 -29.783  32.262  1.00  0.00     0.293 HD
ENDBRANCH  15  18
ENDBRANCH   1  12
BRANCH   2  20
ATOM     20  O   UNL     1      24.123 -27.480  28.036  1.00  0.00    -0.502 OA
ATOM     21  H   UNL     1      23.637 -27.153  28.862  1.00  0.00     0.293 HD
ENDBRANCH   2  20
BRANCH   6  22
ATOM     22  O   UNL     1      23.975 -24.572  23.577  1.00  0.00    -0.507 OA
ATOM     23  H   UNL     1      23.839 -25.197  22.796  1.00  0.00     0.293 HD
ENDBRANCH   6  22
BRANCH   8  24
ATOM     24  O   UNL     1      28.305 -22.505  23.776  1.00  0.00    -0.508 OA
ATOM     25  H   UNL     1      29.176 -22.836  23.380  1.00  0.00     0.293 HD
ENDBRANCH   8  24
TORSDOF 5
ENDMDL
MODEL 5
REMARK VINA RESULT:    -6.957      4.588      7.349
REMARK INTER + INTRA:          -8.471
REMARK INTER:                  -8.302
REMARK INTRA:                  -0.169
REMARK UNBOUND:                -0.294
REMARK SMILES O=c1c(O)c(-c2ccc(O)cc2)oc2cc(O)cc(O)c12
REMARK SMILES IDX 5 1 3 2 2 3 1 4 21 5 19 6 18 7 16 8 15 9 14 10 13 11 6 12
REMARK SMILES IDX 7 13 8 14 9 15 12 16 11 17 10 18 4 20 20 22 17 24
REMARK H PARENT 10 19 4 21 20 23 17 25
REMARK Flexibility Score: inf
ROOT
ATOM      1  C   UNL     1      23.617 -21.375  26.883  1.00  0.00     0.180 A 
ATOM      2  C   UNL     1      23.053 -22.284  27.794  1.00  0.00     0.208 A 
ATOM      3  C   UNL     1      22.945 -23.635  27.429  1.00  0.00     0.238 A 
ATOM      4  O   UNL     1      22.391 -24.435  28.227  1.00  0.00    -0.285 OA
ATOM      5  C   UNL     1      23.417 -24.064  26.164  1.00  0.00     0.111 A 
ATOM      6  C   UNL     1      23.395 -25.415  25.706  1.00  0.00     0.134 A 
ATOM      7  C   UNL     1      23.767 -25.703  24.387  1.00  0.00     0.093 A 
ATOM      8  C   UNL     1      24.222 -24.697  23.531  1.00  0.00     0.123 A 
ATOM      9  C   UNL     1      24.304 -23.385  23.988  1.00  0.00     0.094 A 
ATOM     10  C   UNL     1      23.905 -23.060  25.287  1.00  0.00     0.146 A 
ATOM     11  O   UNL     1      23.989 -21.795  25.679  1.00  0.00    -0.452 OA
ENDROOT
BRANCH   1  12
ATOM     12  C   UNL     1      23.787 -19.939  27.204  1.00  0.00     0.021 A 
ATOM     13  C   UNL     1      24.702 -19.556  28.199  1.00  0.00     0.016 A 
ATOM     14  C   UNL     1      24.861 -18.208  28.534  1.00  0.00     0.047 A 
ATOM     15  C   UNL     1      24.097 -17.228  27.888  1.00  0.00     0.115 A 
ATOM     16  C   UNL     1      23.008 -18.951  26.575  1.00  0.00     0.016 A 
ATOM     17  C   UNL     1      23.168 -17.603  26.912  1.00  0.00     0.047 A 
BRANCH  15  18
ATOM     18  O   UNL     1      24.247 -15.881  28.213  1.00  0.00    -0.508 OA
ATOM     19  H   UNL     1      23.478 -15.337  28.587  1.00  0.00     0.293 HD
ENDBRANCH  15  18
ENDBRANCH   1  12
BRANCH   2  20
ATOM     20  O   UNL     1      22.574 -21.837  29.028  1.00  0.00    -0.502 OA
ATOM     21  H   UNL     1      23.133 -21.275  29.658  1.00  0.00     0.293 HD
ENDBRANCH   2  20
BRANCH   6  22
ATOM     22  O   UNL     1      23.045 -26.505  26.508  1.00  0.00    -0.507 OA
ATOM     23  H   UNL     1      23.056 -26.504  27.517  1.00  0.00     0.293 HD
ENDBRANCH   6  22
BRANCH   8  24
ATOM     24  O   UNL     1      24.606 -24.996  22.225  1.00  0.00    -0.508 OA
ATOM     25  H   UNL     1      24.867 -25.936  21.951  1.00  0.00     0.293 HD
ENDBRANCH   8  24
TORSDOF 5
ENDMDL
MODEL 6
REMARK VINA RESULT:    -6.755      4.776      7.419
REMARK INTER + INTRA:          -8.234
REMARK INTER:                  -8.028
REMARK INTRA:                  -0.205
REMARK UNBOUND:                -0.294
REMARK SMILES O=c1c(O)c(-c2ccc(O)cc2)oc2cc(O)cc(O)c12
REMARK SMILES IDX 5 1 3 2 2 3 1 4 21 5 19 6 18 7 16 8 15 9 14 10 13 11 6 12
REMARK SMILES IDX 7 13 8 14 9 15 12 16 11 17 10 18 4 20 20 22 17 24
REMARK H PARENT 10 19 4 21 20 23 17 25
REMARK Flexibility Score: inf
ROOT
ATOM      1  C   UNL     1      23.853 -21.151  26.487  1.00  0.00     0.180 A 
ATOM      2  C   UNL     1      24.393 -21.327  25.202  1.00  0.00     0.208 A 
ATOM      3  C   UNL     1      24.376 -22.607  24.626  1.00  0.00     0.238 A 
ATOM      4  O   UNL     1      24.909 -22.769  23.497  1.00  0.00    -0.285 OA
ATOM      5  C   UNL     1      23.805 -23.692  25.334  1.00  0.00     0.111 A 
ATOM      6  C   UNL     1      23.698 -25.023  24.830  1.00  0.00     0.134 A 
ATOM      7  C   UNL     1      23.234 -26.043  25.669  1.00  0.00     0.093 A 
ATOM      8  C   UNL     1      22.813 -25.769  26.972  1.00  0.00     0.123 A 
ATOM      9  C   UNL     1      22.857 -24.463  27.453  1.00  0.00     0.094 A 
ATOM     10  C   UNL     1      23.349 -23.429  26.652  1.00  0.00     0.146 A 
ATOM     11  O   UNL     1      23.385 -22.201  27.153  1.00  0.00    -0.452 OA
ENDROOT
BRANCH   1  12
ATOM     12  C   UNL     1      23.812 -19.828  27.151  1.00  0.00     0.021 A 
ATOM     13  C   UNL     1      22.923 -18.846  26.684  1.00  0.00     0.016 A 
ATOM     14  C   UNL     1      22.885 -17.582  27.282  1.00  0.00     0.047 A 
ATOM     15  C   UNL     1      23.745 -17.281  28.346  1.00  0.00     0.115 A 
ATOM     16  C   UNL     1      24.687 -19.512  28.207  1.00  0.00     0.016 A 
ATOM     17  C   UNL     1      24.647 -18.247  28.803  1.00  0.00     0.047 A 
BRANCH  15  18
ATOM     18  O   UNL     1      23.715 -16.026  28.950  1.00  0.00    -0.508 OA
ATOM     19  H   UNL     1      24.216 -15.238  28.558  1.00  0.00     0.293 HD
ENDBRANCH  15  18
ENDBRANCH   1  12
BRANCH   2  20
ATOM     20  O   UNL     1      24.971 -20.247  24.528  1.00  0.00    -0.502 OA
ATOM     21  H   UNL     1      25.813 -20.340  23.974  1.00  0.00     0.293 HD
ENDBRANCH   2  20
BRANCH   6  22
ATOM     22  O   UNL     1      24.005 -25.386  23.516  1.00  0.00    -0.507 OA
ATOM     23  H   UNL     1      23.501 -25.074  22.700  1.00  0.00     0.293 HD
ENDBRANCH   6  22
BRANCH   8  24
ATOM     24  O   UNL     1      22.338 -26.788  27.795  1.00  0.00    -0.508 OA
ATOM     25  H   UNL     1      21.528 -27.342  27.539  1.00  0.00     0.293 HD
ENDBRANCH   8  24
TORSDOF 5
ENDMDL
MODEL 7
REMARK VINA RESULT:    -6.744      6.798      9.713
REMARK INTER + INTRA:          -8.222
REMARK INTER:                  -8.062
REMARK INTRA:                  -0.159
REMARK UNBOUND:                -0.294
REMARK SMILES O=c1c(O)c(-c2ccc(O)cc2)oc2cc(O)cc(O)c12
REMARK SMILES IDX 5 1 3 2 2 3 1 4 21 5 19 6 18 7 16 8 15 9 14 10 13 11 6 12
REMARK SMILES IDX 7 13 8 14 9 15 12 16 11 17 10 18 4 20 20 22 17 24
REMARK H PARENT 10 19 4 21 20 23 17 25
REMARK Flexibility Score: inf
ROOT
ATOM      1  C   UNL     1      27.235 -27.215  36.415  1.00  0.00     0.180 A 
ATOM      2  C   UNL     1      27.064 -27.949  37.602  1.00  0.00     0.208 A 
ATOM      3  C   UNL     1      26.740 -27.265  38.784  1.00  0.00     0.238 A 
ATOM      4  O   UNL     1      26.641 -27.920  39.854  1.00  0.00    -0.285 OA
ATOM      5  C   UNL     1      26.576 -25.858  38.763  1.00  0.00     0.111 A 
ATOM      6  C   UNL     1      26.209 -25.068  39.893  1.00  0.00     0.134 A 
ATOM      7  C   UNL     1      26.204 -23.672  39.787  1.00  0.00     0.093 A 
ATOM      8  C   UNL     1      26.489 -23.041  38.574  1.00  0.00     0.123 A 
ATOM      9  C   UNL     1      26.789 -23.806  37.450  1.00  0.00     0.094 A 
ATOM     10  C   UNL     1      26.838 -25.200  37.534  1.00  0.00     0.146 A 
ATOM     11  O   UNL     1      27.140 -25.891  36.442  1.00  0.00    -0.452 OA
ENDROOT
BRANCH   1  12
ATOM     12  C   UNL     1      27.553 -27.867  35.124  1.00  0.00     0.021 A 
ATOM     13  C   UNL     1      26.604 -28.710  34.522  1.00  0.00     0.016 A 
ATOM     14  C   UNL     1      26.893 -29.353  33.315  1.00  0.00     0.047 A 
ATOM     15  C   UNL     1      28.139 -29.173  32.702  1.00  0.00     0.115 A 
ATOM     16  C   UNL     1      28.811 -27.707  34.513  1.00  0.00     0.016 A 
ATOM     17  C   UNL     1      29.097 -28.353  33.306  1.00  0.00     0.047 A 
BRANCH  15  18
ATOM     18  O   UNL     1      28.438 -29.808  31.498  1.00  0.00    -0.508 OA
ATOM     19  H   UNL     1      28.135 -29.428  30.609  1.00  0.00     0.293 HD
ENDBRANCH  15  18
ENDBRANCH   1  12
BRANCH   2  20
ATOM     20  O   UNL     1      27.252 -29.334  37.606  1.00  0.00    -0.502 OA
ATOM     21  H   UNL     1      28.172 -29.758  37.616  1.00  0.00     0.293 HD
ENDBRANCH   2  20
BRANCH   6  22
ATOM     22  O   UNL     1      25.818 -25.602  41.125  1.00  0.00    -0.507 OA
ATOM     23  H   UNL     1      24.993 -25.326  41.635  1.00  0.00     0.293 HD
ENDBRANCH   6  22
BRANCH   8  24
ATOM     24  O   UNL     1      26.465 -21.652  38.473  1.00  0.00    -0.508 OA
ATOM     25  H   UNL     1      25.770 -21.172  37.912  1.00  0.00     0.293 HD
ENDBRANCH   8  24
TORSDOF 5
ENDMDL
MODEL 8
REMARK VINA RESULT:    -6.732      4.924      7.069
REMARK INTER + INTRA:          -8.207
REMARK INTER:                  -7.907
REMARK INTRA:                  -0.300
REMARK UNBOUND:                -0.294
REMARK SMILES O=c1c(O)c(-c2ccc(O)cc2)oc2cc(O)cc(O)c12
REMARK SMILES IDX 5 1 3 2 2 3 1 4 21 5 19 6 18 7 16 8 15 9 14 10 13 11 6 12
REMARK SMILES IDX 7 13 8 14 9 15 12 16 11 17 10 18 4 20 20 22 17 24
REMARK H PARENT 10 19 4 21 20 23 17 25
REMARK Flexibility Score: inf
ROOT
ATOM      1  C   UNL     1      23.311 -21.368  26.618  1.00  0.00     0.180 A 
ATOM      2  C   UNL     1      22.569 -22.302  25.876  1.00  0.00     0.208 A 
ATOM      3  C   UNL     1      23.183 -23.503  25.486  1.00  0.00     0.238 A 
ATOM      4  O   UNL     1      22.531 -24.313  24.776  1.00  0.00    -0.285 OA
ATOM      5  C   UNL     1      24.525 -23.762  25.856  1.00  0.00     0.111 A 
ATOM      6  C   UNL     1      25.234 -24.963  25.549  1.00  0.00     0.134 A 
ATOM      7  C   UNL     1      26.597 -25.055  25.851  1.00  0.00     0.093 A 
ATOM      8  C   UNL     1      27.262 -24.017  26.508  1.00  0.00     0.123 A 
ATOM      9  C   UNL     1      26.565 -22.866  26.865  1.00  0.00     0.094 A 
ATOM     10  C   UNL     1      25.212 -22.728  26.544  1.00  0.00     0.146 A 
ATOM     11  O   UNL     1      24.588 -21.610  26.892  1.00  0.00    -0.452 OA
ENDROOT
BRANCH   1  12
ATOM     12  C   UNL     1      22.727 -20.090  27.087  1.00  0.00     0.021 A 
ATOM     13  C   UNL     1      22.892 -18.928  26.314  1.00  0.00     0.016 A 
ATOM     14  C   UNL     1      22.368 -17.707  26.749  1.00  0.00     0.047 A 
ATOM     15  C   UNL     1      21.685 -17.630  27.970  1.00  0.00     0.115 A 
ATOM     16  C   UNL     1      22.058 -20.000  28.321  1.00  0.00     0.016 A 
ATOM     17  C   UNL     1      21.536 -18.778  28.755  1.00  0.00     0.047 A 
BRANCH  15  18
ATOM     18  O   UNL     1      21.158 -16.419  28.414  1.00  0.00    -0.508 OA
ATOM     19  H   UNL     1      20.212 -16.352  28.769  1.00  0.00     0.293 HD
ENDBRANCH  15  18
ENDBRANCH   1  12
BRANCH   2  20
ATOM     20  O   UNL     1      21.253 -22.018  25.502  1.00  0.00    -0.502 OA
ATOM     21  H   UNL     1      20.466 -22.173  26.120  1.00  0.00     0.293 HD
ENDBRANCH   2  20
BRANCH   6  22
ATOM     22  O   UNL     1      24.642 -26.093  24.978  1.00  0.00    -0.507 OA
ATOM     23  H   UNL     1      24.565 -26.992  25.429  1.00  0.00     0.293 HD
ENDBRANCH   6  22
BRANCH   8  24
ATOM     24  O   UNL     1      28.616 -24.125  26.819  1.00  0.00    -0.508 OA
ATOM     25  H   UNL     1      28.954 -24.810  27.486  1.00  0.00     0.293 HD
ENDBRANCH   8  24
TORSDOF 5
ENDMDL
MODEL 9
REMARK VINA RESULT:    -6.506      2.990      6.710
REMARK INTER + INTRA:          -7.941
REMARK INTER:                  -7.669
REMARK INTRA:                  -0.272
REMARK UNBOUND:                -0.294
REMARK SMILES O=c1c(O)c(-c2ccc(O)cc2)oc2cc(O)cc(O)c12
REMARK SMILES IDX 5 1 3 2 2 3 1 4 21 5 19 6 18 7 16 8 15 9 14 10 13 11 6 12
REMARK SMILES IDX 7 13 8 14 9 15 12 16 11 17 10 18 4 20 20 22 17 24
REMARK H PARENT 10 19 4 21 20 23 17 25
REMARK Flexibility Score: inf
ROOT
ATOM      1  C   UNL     1      24.963 -24.891  28.137  1.00  0.00     0.180 A 
ATOM      2  C   UNL     1      23.817 -25.175  27.375  1.00  0.00     0.208 A 
ATOM      3  C   UNL     1      23.044 -24.110  26.885  1.00  0.00     0.238 A 
ATOM      4  O   UNL     1      21.989 -24.371  26.249  1.00  0.00    -0.285 OA
ATOM      5  C   UNL     1      23.435 -22.775  27.148  1.00  0.00     0.111 A 
ATOM      6  C   UNL     1      22.750 -21.619  26.667  1.00  0.00     0.134 A 
ATOM      7  C   UNL     1      23.151 -20.349  27.098  1.00  0.00     0.093 A 
ATOM      8  C   UNL     1      24.253 -20.190  27.941  1.00  0.00     0.123 A 
ATOM      9  C   UNL     1      24.966 -21.307  28.367  1.00  0.00     0.094 A 
ATOM     10  C   UNL     1      24.567 -22.591  27.984  1.00  0.00     0.146 A 
ATOM     11  O   UNL     1      25.267 -23.630  28.422  1.00  0.00    -0.452 OA
ENDROOT
BRANCH   1  12
ATOM     12  C   UNL     1      25.842 -25.958  28.667  1.00  0.00     0.021 A 
ATOM     13  C   UNL     1      25.774 -26.298  30.029  1.00  0.00     0.016 A 
ATOM     14  C   UNL     1      26.611 -27.287  30.555  1.00  0.00     0.047 A 
ATOM     15  C   UNL     1      27.536 -27.937  29.729  1.00  0.00     0.115 A 
ATOM     16  C   UNL     1      26.788 -26.601  27.848  1.00  0.00     0.016 A 
ATOM     17  C   UNL     1      27.625 -27.589  28.378  1.00  0.00     0.047 A 
BRANCH  15  18
ATOM     18  O   UNL     1      28.375 -28.925  30.242  1.00  0.00    -0.508 OA
ATOM     19  H   UNL     1      29.304 -28.706  30.583  1.00  0.00     0.293 HD
ENDBRANCH  15  18
ENDBRANCH   1  12
BRANCH   2  20
ATOM     20  O   UNL     1      23.436 -26.500  27.146  1.00  0.00    -0.502 OA
ATOM     21  H   UNL     1      24.087 -27.205  26.824  1.00  0.00     0.293 HD
ENDBRANCH   2  20
BRANCH   6  22
ATOM     22  O   UNL     1      21.695 -21.664  25.750  1.00  0.00    -0.507 OA
ATOM     23  H   UNL     1      20.849 -22.199  25.873  1.00  0.00     0.293 HD
ENDBRANCH   6  22
BRANCH   8  24
ATOM     24  O   UNL     1      24.655 -18.920  28.352  1.00  0.00    -0.508 OA
ATOM     25  H   UNL     1      25.635 -18.670  28.417  1.00  0.00     0.293 HD
ENDBRANCH   8  24
TORSDOF 5
ENDMDL
