MODEL 1
REMARK VINA RESULT:    -5.328      0.000      0.000
REMARK INTER + INTRA:          -5.845
REMARK INTER:                  -5.795
REMARK INTRA:                  -0.050
REMARK UNBOUND:                -0.050
REMARK SMILES COc1cc2ccc(=O)oc2cc1O
REMARK SMILES IDX 3 1 13 2 12 3 11 4 5 5 4 6 6 7 7 8 8 9 9 10 10 11 2 12 1 13
REMARK SMILES IDX 14 14
REMARK H PARENT 14 15
REMARK Flexibility Score: inf
ROOT
ATOM      1  C   UNL     1     -96.114  83.948 209.128  1.00  0.00     0.161 A 
ATOM      2  C   UNL     1     -95.900  82.939 210.087  1.00  0.00     0.161 A 
ATOM      3  C   UNL     1     -96.300  81.623 209.828  1.00  0.00     0.098 A 
ATOM      4  C   UNL     1     -96.913  81.296 208.617  1.00  0.00     0.142 A 
ATOM      5  C   UNL     1     -97.133  82.300 207.650  1.00  0.00     0.022 A 
ATOM      6  C   UNL     1     -96.734  83.618 207.905  1.00  0.00     0.062 A 
ATOM      7  C   UNL     1     -97.751  81.941 206.447  1.00  0.00     0.019 A 
ATOM      8  C   UNL     1     -98.129  80.615 206.240  1.00  0.00     0.094 A 
ATOM      9  C   UNL     1     -97.880  79.674 207.245  1.00  0.00     0.336 A 
ATOM     10  O   UNL     1     -98.214  78.473 207.077  1.00  0.00    -0.246 OA
ATOM     11  O   UNL     1     -97.290  80.042 208.380  1.00  0.00    -0.423 OA
ENDROOT
BRANCH   1  12
ATOM     12  O   UNL     1     -95.701  85.258 209.420  1.00  0.00    -0.493 OA
ATOM     13  C   UNL     1     -96.489  86.423 209.197  1.00  0.00     0.278 C 
ENDBRANCH   1  12
BRANCH   2  14
ATOM     14  O   UNL     1     -95.289  83.227 211.308  1.00  0.00    -0.504 OA
ATOM     15  H   UNL     1     -95.184  84.174 211.650  1.00  0.00     0.293 HD
ENDBRANCH   2  14
TORSDOF 2
ENDMDL
MODEL 2
REMARK VINA RESULT:    -5.086      2.906      3.955
REMARK INTER + INTRA:          -5.583
REMARK INTER:                  -5.520
REMARK INTRA:                  -0.062
REMARK UNBOUND:                -0.050
REMARK SMILES COc1cc2ccc(=O)oc2cc1O
REMARK SMILES IDX 3 1 13 2 12 3 11 4 5 5 4 6 6 7 7 8 8 9 9 10 10 11 2 12 1 13
REMARK SMILES IDX 14 14
REMARK H PARENT 14 15
REMARK Flexibility Score: inf
ROOT
ATOM      1  C   UNL     1     -96.006  84.664 208.822  1.00  0.00     0.161 A 
ATOM      2  C   UNL     1     -96.571  85.954 208.770  1.00  0.00     0.161 A 
ATOM      3  C   UNL     1     -97.695  86.198 207.973  1.00  0.00     0.098 A 
ATOM      4  C   UNL     1     -98.269  85.169 207.224  1.00  0.00     0.142 A 
ATOM      5  C   UNL     1     -97.710  83.875 207.269  1.00  0.00     0.022 A 
ATOM      6  C   UNL     1     -96.584  83.625 208.065  1.00  0.00     0.062 A 
ATOM      7  C   UNL     1     -98.306  82.865 206.507  1.00  0.00     0.019 A 
ATOM      8  C   UNL     1     -99.426  83.163 205.730  1.00  0.00     0.094 A 
ATOM      9  C   UNL     1     -99.924  84.470 205.734  1.00  0.00     0.336 A 
ATOM     10  O   UNL     1    -100.933  84.759 205.040  1.00  0.00    -0.246 OA
ATOM     11  O   UNL     1     -99.338  85.412 206.469  1.00  0.00    -0.423 OA
ENDROOT
BRANCH   1  12
ATOM     12  O   UNL     1     -94.878  84.453 209.632  1.00  0.00    -0.493 OA
ATOM     13  C   UNL     1     -94.876  83.685 210.832  1.00  0.00     0.278 C 
ENDBRANCH   1  12
BRANCH   2  14
ATOM     14  O   UNL     1     -96.027  87.007 209.505  1.00  0.00    -0.504 OA
ATOM     15  H   UNL     1     -95.450  87.722 209.080  1.00  0.00     0.293 HD
ENDBRANCH   2  14
TORSDOF 2
ENDMDL
MODEL 3
REMARK VINA RESULT:    -5.062      2.457      3.420
REMARK INTER + INTRA:          -5.556
REMARK INTER:                  -5.491
REMARK INTRA:                  -0.065
REMARK UNBOUND:                -0.050
REMARK SMILES COc1cc2ccc(=O)oc2cc1O
REMARK SMILES IDX 3 1 13 2 12 3 11 4 5 5 4 6 6 7 7 8 8 9 9 10 10 11 2 12 1 13
REMARK SMILES IDX 14 14
REMARK H PARENT 14 15
REMARK Flexibility Score: inf
ROOT
ATOM      1  C   UNL     1     -97.494  87.136 208.451  1.00  0.00     0.161 A 
ATOM      2  C   UNL     1     -96.551  86.224 208.964  1.00  0.00     0.161 A 
ATOM      3  C   UNL     1     -96.570  84.886 208.554  1.00  0.00     0.098 A 
ATOM      4  C   UNL     1     -97.520  84.441 207.633  1.00  0.00     0.142 A 
ATOM      5  C   UNL     1     -98.469  85.347 207.113  1.00  0.00     0.022 A 
ATOM      6  C   UNL     1     -98.454  86.687 207.521  1.00  0.00     0.062 A 
ATOM      7  C   UNL     1     -99.408  84.871 206.193  1.00  0.00     0.019 A 
ATOM      8  C   UNL     1     -99.382  83.528 205.819  1.00  0.00     0.094 A 
ATOM      9  C   UNL     1     -98.412  82.689 206.376  1.00  0.00     0.336 A 
ATOM     10  O   UNL     1     -98.372  81.473 206.051  1.00  0.00    -0.246 OA
ATOM     11  O   UNL     1     -97.529  83.167 207.249  1.00  0.00    -0.423 OA
ENDROOT
BRANCH   1  12
ATOM     12  O   UNL     1     -97.448  88.471 208.884  1.00  0.00    -0.493 OA
ATOM     13  C   UNL     1     -96.858  89.539 208.148  1.00  0.00     0.278 C 
ENDBRANCH   1  12
BRANCH   2  14
ATOM     14  O   UNL     1     -95.586  86.630 209.886  1.00  0.00    -0.504 OA
ATOM     15  H   UNL     1     -95.610  87.541 210.327  1.00  0.00     0.293 HD
ENDBRANCH   2  14
TORSDOF 2
ENDMDL
MODEL 4
REMARK VINA RESULT:    -5.051      2.499      5.490
REMARK INTER + INTRA:          -5.544
REMARK INTER:                  -5.489
REMARK INTRA:                  -0.056
REMARK UNBOUND:                -0.050
REMARK SMILES COc1cc2ccc(=O)oc2cc1O
REMARK SMILES IDX 3 1 13 2 12 3 11 4 5 5 4 6 6 7 7 8 8 9 9 10 10 11 2 12 1 13
REMARK SMILES IDX 14 14
REMARK H PARENT 14 15
REMARK Flexibility Score: inf
ROOT
ATOM      1  C   UNL     1     -96.248  79.467 206.295  1.00  0.00     0.161 A 
ATOM      2  C   UNL     1     -97.471  79.618 205.611  1.00  0.00     0.161 A 
ATOM      3  C   UNL     1     -98.176  80.825 205.686  1.00  0.00     0.098 A 
ATOM      4  C   UNL     1     -97.675  81.891 206.436  1.00  0.00     0.142 A 
ATOM      5  C   UNL     1     -96.452  81.749 207.124  1.00  0.00     0.022 A 
ATOM      6  C   UNL     1     -95.743  80.543 207.052  1.00  0.00     0.062 A 
ATOM      7  C   UNL     1     -95.977  82.835 207.867  1.00  0.00     0.019 A 
ATOM      8  C   UNL     1     -96.719  84.015 207.908  1.00  0.00     0.094 A 
ATOM      9  C   UNL     1     -97.924  84.082 207.200  1.00  0.00     0.336 A 
ATOM     10  O   UNL     1     -98.608  85.138 207.224  1.00  0.00    -0.246 OA
ATOM     11  O   UNL     1     -98.352  83.035 206.500  1.00  0.00    -0.423 OA
ENDROOT
BRANCH   1  12
ATOM     12  O   UNL     1     -95.567  78.242 206.199  1.00  0.00    -0.493 OA
ATOM     13  C   UNL     1     -95.729  77.155 207.104  1.00  0.00     0.278 C 
ENDBRANCH   1  12
BRANCH   2  14
ATOM     14  O   UNL     1     -98.003  78.576 204.851  1.00  0.00    -0.504 OA
ATOM     15  H   UNL     1     -98.943  78.228 204.993  1.00  0.00     0.293 HD
ENDBRANCH   2  14
TORSDOF 2
ENDMDL
MODEL 5
REMARK VINA RESULT:    -4.953      2.516      4.397
REMARK INTER + INTRA:          -5.437
REMARK INTER:                  -5.372
REMARK INTRA:                  -0.065
REMARK UNBOUND:                -0.050
REMARK SMILES COc1cc2ccc(=O)oc2cc1O
REMARK SMILES IDX 3 1 13 2 12 3 11 4 5 5 4 6 6 7 7 8 8 9 9 10 10 11 2 12 1 13
REMARK SMILES IDX 14 14
REMARK H PARENT 14 15
REMARK Flexibility Score: inf
ROOT
ATOM      1  C   UNL     1     -98.109  87.298 207.606  1.00  0.00     0.161 A 
ATOM      2  C   UNL     1     -97.320  87.603 208.733  1.00  0.00     0.161 A 
ATOM      3  C   UNL     1     -96.582  86.599 209.369  1.00  0.00     0.098 A 
ATOM      4  C   UNL     1     -96.618  85.286 208.894  1.00  0.00     0.142 A 
ATOM      5  C   UNL     1     -97.406  84.970 207.767  1.00  0.00     0.022 A 
ATOM      6  C   UNL     1     -98.146  85.973 207.127  1.00  0.00     0.062 A 
ATOM      7  C   UNL     1     -97.422  83.647 207.315  1.00  0.00     0.019 A 
ATOM      8  C   UNL     1     -96.667  82.685 207.987  1.00  0.00     0.094 A 
ATOM      9  C   UNL     1     -95.911  83.071 209.098  1.00  0.00     0.336 A 
ATOM     10  O   UNL     1     -95.224  82.218 209.717  1.00  0.00    -0.246 OA
ATOM     11  O   UNL     1     -95.913  84.338 209.506  1.00  0.00    -0.423 OA
ENDROOT
BRANCH   1  12
ATOM     12  O   UNL     1     -98.837  88.330 206.992  1.00  0.00    -0.493 OA
ATOM     13  C   UNL     1     -98.416  89.035 205.827  1.00  0.00     0.278 C 
ENDBRANCH   1  12
BRANCH   2  14
ATOM     14  O   UNL     1     -97.258  88.903 209.236  1.00  0.00    -0.504 OA
ATOM     15  H   UNL     1     -98.089  89.444 209.439  1.00  0.00     0.293 HD
ENDBRANCH   2  14
TORSDOF 2
ENDMDL
MODEL 6
REMARK VINA RESULT:    -4.912      1.745      5.002
REMARK INTER + INTRA:          -5.394
REMARK INTER:                  -5.343
REMARK INTRA:                  -0.051
REMARK UNBOUND:                -0.050
REMARK SMILES COc1cc2ccc(=O)oc2cc1O
REMARK SMILES IDX 3 1 13 2 12 3 11 4 5 5 4 6 6 7 7 8 8 9 9 10 10 11 2 12 1 13
REMARK SMILES IDX 14 14
REMARK H PARENT 14 15
REMARK Flexibility Score: inf
ROOT
ATOM      1  C   UNL     1     -96.500  82.221 208.076  1.00  0.00     0.161 A 
ATOM      2  C   UNL     1     -95.736  82.697 209.160  1.00  0.00     0.161 A 
ATOM      3  C   UNL     1     -95.785  84.049 209.516  1.00  0.00     0.098 A 
ATOM      4  C   UNL     1     -96.590  84.940 208.803  1.00  0.00     0.142 A 
ATOM      5  C   UNL     1     -97.358  84.473 207.716  1.00  0.00     0.022 A 
ATOM      6  C   UNL     1     -97.313  83.120 207.356  1.00  0.00     0.062 A 
ATOM      7  C   UNL     1     -98.154  85.389 207.021  1.00  0.00     0.019 A 
ATOM      8  C   UNL     1     -98.166  86.726 207.418  1.00  0.00     0.094 A 
ATOM      9  C   UNL     1     -97.378  87.117 208.505  1.00  0.00     0.336 A 
ATOM     10  O   UNL     1     -97.375  88.319 208.879  1.00  0.00    -0.246 OA
ATOM     11  O   UNL     1     -96.630  86.224 209.150  1.00  0.00    -0.423 OA
ENDROOT
BRANCH   1  12
ATOM     12  O   UNL     1     -96.428  80.858 207.745  1.00  0.00    -0.493 OA
ATOM     13  C   UNL     1     -96.260  80.354 206.423  1.00  0.00     0.278 C 
ENDBRANCH   1  12
BRANCH   2  14
ATOM     14  O   UNL     1     -94.921  81.837 209.897  1.00  0.00    -0.504 OA
ATOM     15  H   UNL     1     -95.135  80.854 210.010  1.00  0.00     0.293 HD
ENDBRANCH   2  14
TORSDOF 2
ENDMDL
MODEL 7
REMARK VINA RESULT:    -4.895      1.208      4.781
REMARK INTER + INTRA:          -5.375
REMARK INTER:                  -5.311
REMARK INTRA:                  -0.065
REMARK UNBOUND:                -0.050
REMARK SMILES COc1cc2ccc(=O)oc2cc1O
REMARK SMILES IDX 3 1 13 2 12 3 11 4 5 5 4 6 6 7 7 8 8 9 9 10 10 11 2 12 1 13
REMARK SMILES IDX 14 14
REMARK H PARENT 14 15
REMARK Flexibility Score: inf
ROOT
ATOM      1  C   UNL     1     -96.994  80.685 208.065  1.00  0.00     0.161 A 
ATOM      2  C   UNL     1     -96.153  80.837 209.186  1.00  0.00     0.161 A 
ATOM      3  C   UNL     1     -95.819  82.115 209.647  1.00  0.00     0.098 A 
ATOM      4  C   UNL     1     -96.314  83.251 209.003  1.00  0.00     0.142 A 
ATOM      5  C   UNL     1     -97.156  83.109 207.880  1.00  0.00     0.022 A 
ATOM      6  C   UNL     1     -97.493  81.832 207.415  1.00  0.00     0.062 A 
ATOM      7  C   UNL     1     -97.635  84.266 207.257  1.00  0.00     0.019 A 
ATOM      8  C   UNL     1     -97.270  85.515 207.758  1.00  0.00     0.094 A 
ATOM      9  C   UNL     1     -96.432  85.579 208.875  1.00  0.00     0.336 A 
ATOM     10  O   UNL     1     -96.091  86.697 209.342  1.00  0.00    -0.246 OA
ATOM     11  O   UNL     1     -95.990  84.463 209.450  1.00  0.00    -0.423 OA
ENDROOT
BRANCH   1  12
ATOM     12  O   UNL     1     -97.309  79.388 207.629  1.00  0.00    -0.493 OA
ATOM     13  C   UNL     1     -98.501  78.687 207.972  1.00  0.00     0.278 C 
ENDBRANCH   1  12
BRANCH   2  14
ATOM     14  O   UNL     1     -95.640  79.726 209.856  1.00  0.00    -0.504 OA
ATOM     15  H   UNL     1     -96.084  78.817 209.814  1.00  0.00     0.293 HD
ENDBRANCH   2  14
TORSDOF 2
ENDMDL
MODEL 8
REMARK VINA RESULT:    -4.854      2.534      3.692
REMARK INTER + INTRA:          -5.330
REMARK INTER:                  -5.266
REMARK INTRA:                  -0.064
REMARK UNBOUND:                -0.050
REMARK SMILES COc1cc2ccc(=O)oc2cc1O
REMARK SMILES IDX 3 1 13 2 12 3 11 4 5 5 4 6 6 7 7 8 8 9 9 10 10 11 2 12 1 13
REMARK SMILES IDX 14 14
REMARK H PARENT 14 15
REMARK Flexibility Score: inf
ROOT
ATOM      1  C   UNL     1     -97.491  86.432 207.998  1.00  0.00     0.161 A 
ATOM      2  C   UNL     1     -98.604  86.416 207.134  1.00  0.00     0.161 A 
ATOM      3  C   UNL     1     -99.011  85.221 206.531  1.00  0.00     0.098 A 
ATOM      4  C   UNL     1     -98.319  84.033 206.777  1.00  0.00     0.142 A 
ATOM      5  C   UNL     1     -97.203  84.039 207.640  1.00  0.00     0.022 A 
ATOM      6  C   UNL     1     -96.792  85.233 208.247  1.00  0.00     0.062 A 
ATOM      7  C   UNL     1     -96.531  82.833 207.867  1.00  0.00     0.019 A 
ATOM      8  C   UNL     1     -96.978  81.671 207.239  1.00  0.00     0.094 A 
ATOM      9  C   UNL     1     -98.092  81.742 206.396  1.00  0.00     0.336 A 
ATOM     10  O   UNL     1     -98.511  80.704 205.821  1.00  0.00    -0.246 OA
ATOM     11  O   UNL     1     -98.714  82.902 206.198  1.00  0.00    -0.423 OA
ENDROOT
BRANCH   1  12
ATOM     12  O   UNL     1     -97.110  87.649 208.587  1.00  0.00    -0.493 OA
ATOM     13  C   UNL     1     -96.098  88.512 208.077  1.00  0.00     0.278 C 
ENDBRANCH   1  12
BRANCH   2  14
ATOM     14  O   UNL     1     -99.321  87.582 206.864  1.00  0.00    -0.504 OA
ATOM     15  H   UNL     1     -99.124  88.459 207.332  1.00  0.00     0.293 HD
ENDBRANCH   2  14
TORSDOF 2
ENDMDL
