MODEL 1
REMARK VINA RESULT:    -3.685      0.000      0.000
REMARK INTER + INTRA:          -4.361
REMARK INTER:                  -4.332
REMARK INTRA:                  -0.030
REMARK UNBOUND:                -0.030
REMARK SMILES O=C([O-])CCC(=O)[O-]
REMARK SMILES IDX 4 1 2 2 1 3 3 4 5 5 6 6 7 7 8 8
REMARK H PARENT
REMARK Flexibility Score: inf
ROOT
ATOM      1  C   UNL     1     -98.848 -61.865 -64.374  1.00  0.00     0.059 C 
ENDROOT
BRANCH   1   2
ATOM      2  C   UNL     1     -98.857 -63.205 -63.711  1.00  0.00     0.042 C 
ATOM      3  O   UNL     1     -99.939 -63.703 -63.302  1.00  0.00    -0.550 OA
ATOM      4  O   UNL     1     -97.663 -63.884 -63.499  1.00  0.00    -0.550 OA
ENDBRANCH   1   2
BRANCH   1   5
ATOM      5  C   UNL     1     -99.563 -61.932 -65.724  1.00  0.00     0.059 C 
BRANCH   5   6
ATOM      6  C   UNL     1     -99.853 -60.555 -66.232  1.00  0.00     0.042 C 
ATOM      7  O   UNL     1     -98.918 -59.824 -66.651  1.00  0.00    -0.550 OA
ATOM      8  O   UNL     1    -101.151 -60.059 -66.196  1.00  0.00    -0.550 OA
ENDBRANCH   5   6
ENDBRANCH   1   5
TORSDOF 3
ENDMDL
MODEL 2
REMARK VINA RESULT:    -3.680      1.157      4.024
REMARK INTER + INTRA:          -4.355
REMARK INTER:                  -4.265
REMARK INTRA:                  -0.090
REMARK UNBOUND:                -0.030
REMARK SMILES O=C([O-])CCC(=O)[O-]
REMARK SMILES IDX 4 1 2 2 1 3 3 4 5 5 6 6 7 7 8 8
REMARK H PARENT
REMARK Flexibility Score: inf
ROOT
ATOM      1  C   UNL     1     -99.674 -61.646 -66.056  1.00  0.00     0.059 C 
ENDROOT
BRANCH   1   2
ATOM      2  C   UNL     1    -100.219 -60.282 -66.335  1.00  0.00     0.042 C 
ATOM      3  O   UNL     1    -101.448 -60.047 -66.185  1.00  0.00    -0.550 OA
ATOM      4  O   UNL     1     -99.380 -59.281 -66.808  1.00  0.00    -0.550 OA
ENDBRANCH   1   2
BRANCH   1   5
ATOM      5  C   UNL     1     -99.708 -61.938 -64.554  1.00  0.00     0.059 C 
BRANCH   5   6
ATOM      6  C   UNL     1     -98.319 -62.080 -64.018  1.00  0.00     0.042 C 
ATOM      7  O   UNL     1     -97.524 -61.104 -64.051  1.00  0.00    -0.550 OA
ATOM      8  O   UNL     1     -97.884 -63.305 -63.526  1.00  0.00    -0.550 OA
ENDBRANCH   5   6
ENDBRANCH   1   5
TORSDOF 3
ENDMDL
MODEL 3
REMARK VINA RESULT:    -3.632      0.130      1.624
REMARK INTER + INTRA:          -4.298
REMARK INTER:                  -4.271
REMARK INTRA:                  -0.027
REMARK UNBOUND:                -0.030
REMARK SMILES O=C([O-])CCC(=O)[O-]
REMARK SMILES IDX 4 1 2 2 1 3 3 4 5 5 6 6 7 7 8 8
REMARK H PARENT
REMARK Flexibility Score: inf
ROOT
ATOM      1  C   UNL     1     -98.857 -61.812 -64.398  1.00  0.00     0.059 C 
ENDROOT
BRANCH   1   2
ATOM      2  C   UNL     1     -98.818 -63.133 -63.699  1.00  0.00     0.042 C 
ATOM      3  O   UNL     1     -97.721 -63.732 -63.537  1.00  0.00    -0.550 OA
ATOM      4  O   UNL     1     -99.997 -63.727 -63.268  1.00  0.00    -0.550 OA
ENDBRANCH   1   2
BRANCH   1   5
ATOM      5  C   UNL     1     -99.573 -61.940 -65.744  1.00  0.00     0.059 C 
BRANCH   5   6
ATOM      6  C   UNL     1     -99.871 -60.587 -66.309  1.00  0.00     0.042 C 
ATOM      7  O   UNL     1    -101.054 -60.156 -66.330  1.00  0.00    -0.550 OA
ATOM      8  O   UNL     1     -98.849 -59.822 -66.858  1.00  0.00    -0.550 OA
ENDBRANCH   5   6
ENDBRANCH   1   5
TORSDOF 3
ENDMDL
MODEL 4
REMARK VINA RESULT:    -3.454      3.125      4.054
REMARK INTER + INTRA:          -4.090
REMARK INTER:                  -4.050
REMARK INTRA:                  -0.040
REMARK UNBOUND:                -0.030
REMARK SMILES O=C([O-])CCC(=O)[O-]
REMARK SMILES IDX 4 1 2 2 1 3 3 4 5 5 6 6 7 7 8 8
REMARK H PARENT
REMARK Flexibility Score: inf
ROOT
ATOM      1  C   UNL     1     -98.445 -58.969 -66.694  1.00  0.00     0.059 C 
ENDROOT
BRANCH   1   2
ATOM      2  C   UNL     1     -97.342 -58.541 -65.780  1.00  0.00     0.042 C 
ATOM      3  O   UNL     1     -96.725 -57.464 -65.993  1.00  0.00    -0.550 OA
ATOM      4  O   UNL     1     -96.963 -59.353 -64.719  1.00  0.00    -0.550 OA
ENDBRANCH   1   2
BRANCH   1   5
ATOM      5  C   UNL     1     -99.051 -60.291 -66.218  1.00  0.00     0.059 C 
BRANCH   5   6
ATOM      6  C   UNL     1    -100.502 -60.361 -66.576  1.00  0.00     0.042 C 
ATOM      7  O   UNL     1    -100.872 -60.993 -67.600  1.00  0.00    -0.550 OA
ATOM      8  O   UNL     1    -101.442 -59.687 -65.805  1.00  0.00    -0.550 OA
ENDBRANCH   5   6
ENDBRANCH   1   5
TORSDOF 3
ENDMDL
MODEL 5
REMARK VINA RESULT:    -3.414      2.030      4.456
REMARK INTER + INTRA:          -4.043
REMARK INTER:                  -3.960
REMARK INTRA:                  -0.083
REMARK UNBOUND:                -0.030
REMARK SMILES O=C([O-])CCC(=O)[O-]
REMARK SMILES IDX 4 1 2 2 1 3 3 4 5 5 6 6 7 7 8 8
REMARK H PARENT
REMARK Flexibility Score: inf
ROOT
ATOM      1  C   UNL     1     -99.383 -59.366 -66.489  1.00  0.00     0.059 C 
ENDROOT
BRANCH   1   2
ATOM      2  C   UNL     1     -98.027 -58.796 -66.758  1.00  0.00     0.042 C 
ATOM      3  O   UNL     1     -97.485 -58.026 -65.922  1.00  0.00    -0.550 OA
ATOM      4  O   UNL     1     -97.380 -59.076 -67.955  1.00  0.00    -0.550 OA
ENDBRANCH   1   2
BRANCH   1   5
ATOM      5  C   UNL     1     -99.312 -60.891 -66.390  1.00  0.00     0.059 C 
BRANCH   5   6
ATOM      6  C   UNL     1     -99.121 -61.315 -64.968  1.00  0.00     0.042 C 
ATOM      7  O   UNL     1    -100.093 -61.760 -64.304  1.00  0.00    -0.550 OA
ATOM      8  O   UNL     1     -97.879 -61.173 -64.360  1.00  0.00    -0.550 OA
ENDBRANCH   5   6
ENDBRANCH   1   5
TORSDOF 3
ENDMDL
MODEL 6
REMARK VINA RESULT:    -3.403      2.529      3.692
REMARK INTER + INTRA:          -4.030
REMARK INTER:                  -3.927
REMARK INTRA:                  -0.102
REMARK UNBOUND:                -0.030
REMARK SMILES O=C([O-])CCC(=O)[O-]
REMARK SMILES IDX 4 1 2 2 1 3 3 4 5 5 6 6 7 7 8 8
REMARK H PARENT
REMARK Flexibility Score: inf
ROOT
ATOM      1  C   UNL     1     -99.551 -59.485 -66.599  1.00  0.00     0.059 C 
ENDROOT
BRANCH   1   2
ATOM      2  C   UNL     1     -99.672 -60.962 -66.399  1.00  0.00     0.042 C 
ATOM      3  O   UNL     1     -99.769 -61.730 -67.393  1.00  0.00    -0.550 OA
ATOM      4  O   UNL     1     -99.726 -61.488 -65.115  1.00  0.00    -0.550 OA
ENDBRANCH   1   2
BRANCH   1   5
ATOM      5  C   UNL     1     -98.132 -59.120 -67.041  1.00  0.00     0.059 C 
BRANCH   5   6
ATOM      6  C   UNL     1     -97.353 -58.563 -65.892  1.00  0.00     0.042 C 
ATOM      7  O   UNL     1     -96.938 -57.375 -65.925  1.00  0.00    -0.550 OA
ATOM      8  O   UNL     1     -97.043 -59.372 -64.805  1.00  0.00    -0.550 OA
ENDBRANCH   5   6
ENDBRANCH   1   5
TORSDOF 3
ENDMDL
MODEL 7
REMARK VINA RESULT:    -3.378      2.542      4.416
REMARK INTER + INTRA:          -4.000
REMARK INTER:                  -3.943
REMARK INTRA:                  -0.058
REMARK UNBOUND:                -0.030
REMARK SMILES O=C([O-])CCC(=O)[O-]
REMARK SMILES IDX 4 1 2 2 1 3 3 4 5 5 6 6 7 7 8 8
REMARK H PARENT
REMARK Flexibility Score: inf
ROOT
ATOM      1  C   UNL     1     -98.531 -59.665 -65.905  1.00  0.00     0.059 C 
ENDROOT
BRANCH   1   2
ATOM      2  C   UNL     1     -97.683 -58.656 -66.613  1.00  0.00     0.042 C 
ATOM      3  O   UNL     1     -97.530 -58.723 -67.862  1.00  0.00    -0.550 OA
ATOM      4  O   UNL     1     -97.023 -57.672 -65.890  1.00  0.00    -0.550 OA
ENDBRANCH   1   2
BRANCH   1   5
ATOM      5  C   UNL     1     -99.662 -60.146 -66.815  1.00  0.00     0.059 C 
BRANCH   5   6
ATOM      6  C   UNL     1     -99.804 -61.632 -66.732  1.00  0.00     0.042 C 
ATOM      7  O   UNL     1     -99.565 -62.232 -65.652  1.00  0.00    -0.550 OA
ATOM      8  O   UNL     1    -100.154 -62.362 -67.862  1.00  0.00    -0.550 OA
ENDBRANCH   5   6
ENDBRANCH   1   5
TORSDOF 3
ENDMDL
MODEL 8
REMARK VINA RESULT:    -3.154      1.978      2.799
REMARK INTER + INTRA:          -3.736
REMARK INTER:                  -3.731
REMARK INTRA:                  -0.006
REMARK UNBOUND:                -0.030
REMARK SMILES O=C([O-])CCC(=O)[O-]
REMARK SMILES IDX 4 1 2 2 1 3 3 4 5 5 6 6 7 7 8 8
REMARK H PARENT
REMARK Flexibility Score: inf
ROOT
ATOM      1  C   UNL     1     -99.423 -60.954 -66.402  1.00  0.00     0.059 C 
ENDROOT
BRANCH   1   2
ATOM      2  C   UNL     1     -99.032 -61.592 -65.107  1.00  0.00     0.042 C 
ATOM      3  O   UNL     1     -98.116 -61.089 -64.403  1.00  0.00    -0.550 OA
ATOM      4  O   UNL     1     -99.646 -62.769 -64.698  1.00  0.00    -0.550 OA
ENDBRANCH   1   2
BRANCH   1   5
ATOM      5  C   UNL     1     -99.409 -59.430 -66.273  1.00  0.00     0.059 C 
BRANCH   5   6
ATOM      6  C   UNL     1     -98.109 -58.875 -66.761  1.00  0.00     0.042 C 
ATOM      7  O   UNL     1     -97.689 -59.165 -67.912  1.00  0.00    -0.550 OA
ATOM      8  O   UNL     1     -97.336 -58.075 -65.927  1.00  0.00    -0.550 OA
ENDBRANCH   5   6
ENDBRANCH   1   5
TORSDOF 3
ENDMDL
MODEL 9
REMARK VINA RESULT:    -2.806      6.812      7.328
REMARK INTER + INTRA:          -3.328
REMARK INTER:                  -3.210
REMARK INTRA:                  -0.118
REMARK UNBOUND:                -0.030
REMARK SMILES O=C([O-])CCC(=O)[O-]
REMARK SMILES IDX 4 1 2 2 1 3 3 4 5 5 6 6 7 7 8 8
REMARK H PARENT
REMARK Flexibility Score: inf
ROOT
ATOM      1  C   UNL     1     -94.322 -62.992 -70.768  1.00  0.00     0.059 C 
ENDROOT
BRANCH   1   2
ATOM      2  C   UNL     1     -93.466 -62.778 -69.561  1.00  0.00     0.042 C 
ATOM      3  O   UNL     1     -93.119 -63.758 -68.849  1.00  0.00    -0.550 OA
ATOM      4  O   UNL     1     -93.089 -61.492 -69.194  1.00  0.00    -0.550 OA
ENDBRANCH   1   2
BRANCH   1   5
ATOM      5  C   UNL     1     -94.649 -61.654 -71.436  1.00  0.00     0.059 C 
BRANCH   5   6
ATOM      6  C   UNL     1     -96.038 -61.222 -71.089  1.00  0.00     0.042 C 
ATOM      7  O   UNL     1     -97.000 -61.514 -71.848  1.00  0.00    -0.550 OA
ATOM      8  O   UNL     1     -96.265 -60.454 -69.953  1.00  0.00    -0.550 OA
ENDBRANCH   5   6
ENDBRANCH   1   5
TORSDOF 3
ENDMDL
