MODEL 1
REMARK VINA RESULT:    -5.476      0.000      0.000
REMARK INTER + INTRA:         -11.380
REMARK INTER:                  -9.957
REMARK INTRA:                  -1.423
REMARK UNBOUND:                -1.423
REMARK SMILES CCCCCCCCCCCCCCCC(=O)[O-]
REMARK SMILES IDX 9 1 10 2 11 3 12 4 13 5 14 6 15 7 16 8 17 9 18 10 8 11 7 12
REMARK SMILES IDX 6 13 5 14 4 15 3 16 2 17 1 18
REMARK H PARENT
REMARK Flexibility Score: inf
ROOT
ATOM      1  C   UNL     1     -10.540 -15.051  26.314  1.00  0.00     0.000 C 
ENDROOT
BRANCH   1   2
ATOM      2  C   UNL     1      -9.134 -14.532  25.962  1.00  0.00     0.000 C 
BRANCH   2   3
ATOM      3  C   UNL     1      -8.030 -15.204  26.794  1.00  0.00     0.000 C 
BRANCH   3   4
ATOM      4  C   UNL     1      -6.780 -14.318  26.938  1.00  0.00     0.000 C 
BRANCH   4   5
ATOM      5  C   UNL     1      -6.589 -13.797  28.371  1.00  0.00     0.000 C 
BRANCH   5   6
ATOM      6  C   UNL     1      -7.121 -14.775  29.434  1.00  0.00     0.006 C 
BRANCH   6   7
ATOM      7  C   UNL     1      -7.502 -14.061  30.738  1.00  0.00     0.053 C 
BRANCH   7   8
ATOM      8  C   UNL     1      -6.293 -13.702  31.548  1.00  0.00     0.041 C 
ATOM      9  O   UNL     1      -6.360 -12.791  32.414  1.00  0.00    -0.550 OA
ATOM     10  O   UNL     1      -5.103 -14.398  31.370  1.00  0.00    -0.550 OA
ENDBRANCH   7   8
ENDBRANCH   6   7
ENDBRANCH   5   6
ENDBRANCH   4   5
ENDBRANCH   3   4
ENDBRANCH   2   3
ENDBRANCH   1   2
BRANCH   1  11
ATOM     11  C   UNL     1     -10.532 -15.984  27.546  1.00  0.00     0.000 C 
BRANCH  11  12
ATOM     12  C   UNL     1     -11.794 -16.859  27.670  1.00  0.00    -0.000 C 
BRANCH  12  13
ATOM     13  C   UNL     1     -12.939 -16.244  28.497  1.00  0.00    -0.000 C 
BRANCH  13  14
ATOM     14  C   UNL     1     -13.478 -17.139  29.629  1.00  0.00    -0.000 C 
BRANCH  14  15
ATOM     15  C   UNL     1     -12.583 -18.360  29.907  1.00  0.00    -0.000 C 
BRANCH  15  16
ATOM     16  C   UNL     1     -11.644 -18.134  31.110  1.00  0.00    -0.000 C 
BRANCH  16  17
ATOM     17  C   UNL     1     -10.174 -18.486  30.823  1.00  0.00    -0.003 C 
ATOM     18  C   UNL     1      -9.210 -17.344  31.139  1.00  0.00     0.004 C 
ENDBRANCH  16  17
ENDBRANCH  15  16
ENDBRANCH  14  15
ENDBRANCH  13  14
ENDBRANCH  12  13
ENDBRANCH  11  12
ENDBRANCH   1  11
TORSDOF 14
ENDMDL
MODEL 2
REMARK VINA RESULT:    -5.357      2.253      5.910
REMARK INTER + INTRA:         -11.165
REMARK INTER:                  -9.987
REMARK INTRA:                  -1.178
REMARK UNBOUND:                -1.423
REMARK SMILES CCCCCCCCCCCCCCCC(=O)[O-]
REMARK SMILES IDX 9 1 10 2 11 3 12 4 13 5 14 6 15 7 16 8 17 9 18 10 8 11 7 12
REMARK SMILES IDX 6 13 5 14 4 15 3 16 2 17 1 18
REMARK H PARENT
REMARK Flexibility Score: inf
ROOT
ATOM      1  C   UNL     1      -8.026 -15.167  26.661  1.00  0.00     0.000 C 
ENDROOT
BRANCH   1   2
ATOM      2  C   UNL     1      -9.235 -14.495  25.986  1.00  0.00     0.000 C 
BRANCH   2   3
ATOM      3  C   UNL     1     -10.563 -15.197  26.316  1.00  0.00     0.000 C 
BRANCH   3   4
ATOM      4  C   UNL     1     -10.489 -16.011  27.620  1.00  0.00     0.000 C 
BRANCH   4   5
ATOM      5  C   UNL     1     -11.827 -16.678  27.974  1.00  0.00     0.000 C 
BRANCH   5   6
ATOM      6  C   UNL     1     -11.650 -18.091  28.559  1.00  0.00     0.006 C 
BRANCH   6   7
ATOM      7  C   UNL     1     -11.691 -18.091  30.093  1.00  0.00     0.053 C 
BRANCH   7   8
ATOM      8  C   UNL     1     -10.315 -18.055  30.686  1.00  0.00     0.041 C 
ATOM      9  O   UNL     1      -9.657 -19.120  30.825  1.00  0.00    -0.550 OA
ATOM     10  O   UNL     1      -9.745 -16.840  31.050  1.00  0.00    -0.550 OA
ENDBRANCH   7   8
ENDBRANCH   6   7
ENDBRANCH   5   6
ENDBRANCH   4   5
ENDBRANCH   3   4
ENDBRANCH   2   3
ENDBRANCH   1   2
BRANCH   1  11
ATOM     11  C   UNL     1      -6.873 -14.174  26.929  1.00  0.00     0.000 C 
BRANCH  11  12
ATOM     12  C   UNL     1      -6.360 -14.194  28.381  1.00  0.00    -0.000 C 
BRANCH  12  13
ATOM     13  C   UNL     1      -7.304 -14.860  29.400  1.00  0.00    -0.000 C 
BRANCH  13  14
ATOM     14  C   UNL     1      -7.423 -14.129  30.751  1.00  0.00    -0.000 C 
BRANCH  14  15
ATOM     15  C   UNL     1      -6.727 -12.756  30.755  1.00  0.00    -0.000 C 
BRANCH  15  16
ATOM     16  C   UNL     1      -5.958 -12.494  32.066  1.00  0.00    -0.000 C 
BRANCH  16  17
ATOM     17  C   UNL     1      -4.794 -13.471  32.307  1.00  0.00    -0.003 C 
ATOM     18  C   UNL     1      -3.530 -12.783  32.820  1.00  0.00     0.004 C 
ENDBRANCH  16  17
ENDBRANCH  15  16
ENDBRANCH  14  15
ENDBRANCH  13  14
ENDBRANCH  12  13
ENDBRANCH  11  12
ENDBRANCH   1  11
TORSDOF 14
ENDMDL
MODEL 3
REMARK VINA RESULT:    -5.294      1.080      4.189
REMARK INTER + INTRA:         -11.050
REMARK INTER:                  -9.599
REMARK INTRA:                  -1.451
REMARK UNBOUND:                -1.423
REMARK SMILES CCCCCCCCCCCCCCCC(=O)[O-]
REMARK SMILES IDX 9 1 10 2 11 3 12 4 13 5 14 6 15 7 16 8 17 9 18 10 8 11 7 12
REMARK SMILES IDX 6 13 5 14 4 15 3 16 2 17 1 18
REMARK H PARENT
REMARK Flexibility Score: inf
ROOT
ATOM      1  C   UNL     1     -11.875 -18.459  30.767  1.00  0.00     0.000 C 
ENDROOT
BRANCH   1   2
ATOM      2  C   UNL     1     -10.460 -18.733  30.229  1.00  0.00     0.000 C 
BRANCH   2   3
ATOM      3  C   UNL     1      -9.375 -17.953  30.990  1.00  0.00     0.000 C 
BRANCH   3   4
ATOM      4  C   UNL     1      -9.325 -16.469  30.584  1.00  0.00     0.000 C 
BRANCH   4   5
ATOM      5  C   UNL     1      -8.097 -15.744  31.156  1.00  0.00     0.000 C 
BRANCH   5   6
ATOM      6  C   UNL     1      -7.315 -14.964  30.084  1.00  0.00     0.006 C 
BRANCH   6   7
ATOM      7  C   UNL     1      -6.952 -13.547  30.547  1.00  0.00     0.053 C 
BRANCH   7   8
ATOM      8  C   UNL     1      -5.490 -13.418  30.849  1.00  0.00     0.041 C 
ATOM      9  O   UNL     1      -4.735 -12.790  30.063  1.00  0.00    -0.550 OA
ATOM     10  O   UNL     1      -4.970 -13.962  32.018  1.00  0.00    -0.550 OA
ENDBRANCH   7   8
ENDBRANCH   6   7
ENDBRANCH   5   6
ENDBRANCH   4   5
ENDBRANCH   3   4
ENDBRANCH   2   3
ENDBRANCH   1   2
BRANCH   1  11
ATOM     11  C   UNL     1     -12.887 -18.158  29.640  1.00  0.00     0.000 C 
BRANCH  11  12
ATOM     12  C   UNL     1     -13.198 -16.660  29.467  1.00  0.00    -0.000 C 
BRANCH  12  13
ATOM     13  C   UNL     1     -12.934 -16.093  28.058  1.00  0.00    -0.000 C 
BRANCH  13  14
ATOM     14  C   UNL     1     -11.633 -16.580  27.394  1.00  0.00    -0.000 C 
BRANCH  14  15
ATOM     15  C   UNL     1     -10.893 -15.465  26.634  1.00  0.00    -0.000 C 
BRANCH  15  16
ATOM     16  C   UNL     1      -9.386 -15.435  26.960  1.00  0.00    -0.000 C 
BRANCH  16  17
ATOM     17  C   UNL     1      -8.672 -14.161  26.477  1.00  0.00    -0.003 C 
ATOM     18  C   UNL     1      -9.462 -13.397  25.416  1.00  0.00     0.004 C 
ENDBRANCH  16  17
ENDBRANCH  15  16
ENDBRANCH  14  15
ENDBRANCH  13  14
ENDBRANCH  12  13
ENDBRANCH  11  12
ENDBRANCH   1  11
TORSDOF 14
ENDMDL
MODEL 4
REMARK VINA RESULT:    -5.240      3.581      6.699
REMARK INTER + INTRA:         -10.952
REMARK INTER:                 -10.044
REMARK INTRA:                  -0.908
REMARK UNBOUND:                -1.423
REMARK SMILES CCCCCCCCCCCCCCCC(=O)[O-]
REMARK SMILES IDX 9 1 10 2 11 3 12 4 13 5 14 6 15 7 16 8 17 9 18 10 8 11 7 12
REMARK SMILES IDX 6 13 5 14 4 15 3 16 2 17 1 18
REMARK H PARENT
REMARK Flexibility Score: inf
ROOT
ATOM      1  C   UNL     1     -11.282 -15.617  26.741  1.00  0.00     0.000 C 
ENDROOT
BRANCH   1   2
ATOM      2  C   UNL     1     -11.072 -16.662  27.851  1.00  0.00     0.000 C 
BRANCH   2   3
ATOM      3  C   UNL     1     -11.763 -16.274  29.169  1.00  0.00     0.000 C 
BRANCH   3   4
ATOM      4  C   UNL     1     -13.185 -16.852  29.280  1.00  0.00     0.000 C 
BRANCH   4   5
ATOM      5  C   UNL     1     -13.218 -18.196  30.023  1.00  0.00     0.000 C 
BRANCH   5   6
ATOM      6  C   UNL     1     -12.296 -18.217  31.255  1.00  0.00     0.006 C 
BRANCH   6   7
ATOM      7  C   UNL     1     -13.071 -18.476  32.554  1.00  0.00     0.053 C 
BRANCH   7   8
ATOM      8  C   UNL     1     -12.903 -19.887  33.029  1.00  0.00     0.041 C 
ATOM      9  O   UNL     1     -11.945 -20.189  33.788  1.00  0.00    -0.550 OA
ATOM     10  O   UNL     1     -13.825 -20.860  32.662  1.00  0.00    -0.550 OA
ENDBRANCH   7   8
ENDBRANCH   6   7
ENDBRANCH   5   6
ENDBRANCH   4   5
ENDBRANCH   3   4
ENDBRANCH   2   3
ENDBRANCH   1   2
BRANCH   1  11
ATOM     11  C   UNL     1      -9.949 -15.039  26.216  1.00  0.00     0.000 C 
BRANCH  11  12
ATOM     12  C   UNL     1      -8.731 -15.396  27.087  1.00  0.00    -0.000 C 
BRANCH  12  13
ATOM     13  C   UNL     1      -7.610 -14.339  27.111  1.00  0.00    -0.000 C 
BRANCH  13  14
ATOM     14  C   UNL     1      -6.705 -14.377  28.357  1.00  0.00    -0.000 C 
BRANCH  14  15
ATOM     15  C   UNL     1      -7.441 -14.860  29.619  1.00  0.00    -0.000 C 
BRANCH  15  16
ATOM     16  C   UNL     1      -7.368 -13.834  30.768  1.00  0.00    -0.000 C 
BRANCH  16  17
ATOM     17  C   UNL     1      -6.423 -12.653  30.486  1.00  0.00    -0.003 C 
ATOM     18  C   UNL     1      -6.002 -11.905  31.750  1.00  0.00     0.004 C 
ENDBRANCH  16  17
ENDBRANCH  15  16
ENDBRANCH  14  15
ENDBRANCH  13  14
ENDBRANCH  12  13
ENDBRANCH  11  12
ENDBRANCH   1  11
TORSDOF 14
ENDMDL
MODEL 5
REMARK VINA RESULT:    -5.204      1.577      2.457
REMARK INTER + INTRA:         -10.886
REMARK INTER:                 -10.078
REMARK INTRA:                  -0.808
REMARK UNBOUND:                -1.423
REMARK SMILES CCCCCCCCCCCCCCCC(=O)[O-]
REMARK SMILES IDX 9 1 10 2 11 3 12 4 13 5 14 6 15 7 16 8 17 9 18 10 8 11 7 12
REMARK SMILES IDX 6 13 5 14 4 15 3 16 2 17 1 18
REMARK H PARENT
REMARK Flexibility Score: inf
ROOT
ATOM      1  C   UNL     1     -10.782 -15.968  27.677  1.00  0.00     0.000 C 
ENDROOT
BRANCH   1   2
ATOM      2  C   UNL     1     -10.689 -15.242  26.323  1.00  0.00     0.000 C 
BRANCH   2   3
ATOM      3  C   UNL     1      -9.360 -14.490  26.144  1.00  0.00     0.000 C 
BRANCH   3   4
ATOM      4  C   UNL     1      -8.180 -15.214  26.816  1.00  0.00     0.000 C 
BRANCH   4   5
ATOM      5  C   UNL     1      -6.864 -14.431  26.696  1.00  0.00     0.000 C 
BRANCH   5   6
ATOM      6  C   UNL     1      -6.248 -14.090  28.065  1.00  0.00     0.006 C 
BRANCH   6   7
ATOM      7  C   UNL     1      -7.185 -14.447  29.226  1.00  0.00     0.053 C 
BRANCH   7   8
ATOM      8  C   UNL     1      -6.612 -14.038  30.549  1.00  0.00     0.041 C 
ATOM      9  O   UNL     1      -7.308 -13.374  31.362  1.00  0.00    -0.550 OA
ATOM     10  O   UNL     1      -5.322 -14.421  30.898  1.00  0.00    -0.550 OA
ENDBRANCH   7   8
ENDBRANCH   6   7
ENDBRANCH   5   6
ENDBRANCH   4   5
ENDBRANCH   3   4
ENDBRANCH   2   3
ENDBRANCH   1   2
BRANCH   1  11
ATOM     11  C   UNL     1     -11.986 -16.932  27.747  1.00  0.00     0.000 C 
BRANCH  11  12
ATOM     12  C   UNL     1     -13.144 -16.418  28.623  1.00  0.00    -0.000 C 
BRANCH  12  13
ATOM     13  C   UNL     1     -13.414 -17.236  29.901  1.00  0.00    -0.000 C 
BRANCH  13  14
ATOM     14  C   UNL     1     -12.248 -17.274  30.907  1.00  0.00    -0.000 C 
BRANCH  14  15
ATOM     15  C   UNL     1     -12.044 -18.663  31.537  1.00  0.00    -0.000 C 
BRANCH  15  16
ATOM     16  C   UNL     1     -12.933 -18.878  32.779  1.00  0.00    -0.000 C 
BRANCH  16  17
ATOM     17  C   UNL     1     -13.531 -20.292  32.875  1.00  0.00    -0.003 C 
ATOM     18  C   UNL     1     -14.357 -20.509  34.142  1.00  0.00     0.004 C 
ENDBRANCH  16  17
ENDBRANCH  15  16
ENDBRANCH  14  15
ENDBRANCH  13  14
ENDBRANCH  12  13
ENDBRANCH  11  12
ENDBRANCH   1  11
TORSDOF 14
ENDMDL
MODEL 6
REMARK VINA RESULT:    -5.185      1.442      2.969
REMARK INTER + INTRA:         -10.852
REMARK INTER:                  -9.846
REMARK INTRA:                  -1.006
REMARK UNBOUND:                -1.423
REMARK SMILES CCCCCCCCCCCCCCCC(=O)[O-]
REMARK SMILES IDX 9 1 10 2 11 3 12 4 13 5 14 6 15 7 16 8 17 9 18 10 8 11 7 12
REMARK SMILES IDX 6 13 5 14 4 15 3 16 2 17 1 18
REMARK H PARENT
REMARK Flexibility Score: inf
ROOT
ATOM      1  C   UNL     1      -7.031 -14.304  26.805  1.00  0.00     0.000 C 
ENDROOT
BRANCH   1   2
ATOM      2  C   UNL     1      -6.380 -14.435  28.194  1.00  0.00     0.000 C 
BRANCH   2   3
ATOM      3  C   UNL     1      -7.390 -14.819  29.287  1.00  0.00     0.000 C 
BRANCH   3   4
ATOM      4  C   UNL     1      -6.800 -14.692  30.703  1.00  0.00     0.000 C 
BRANCH   4   5
ATOM      5  C   UNL     1      -7.118 -13.338  31.354  1.00  0.00     0.000 C 
BRANCH   5   6
ATOM      6  C   UNL     1      -5.910 -12.383  31.359  1.00  0.00     0.006 C 
BRANCH   6   7
ATOM      7  C   UNL     1      -5.107 -12.471  32.663  1.00  0.00     0.053 C 
BRANCH   7   8
ATOM      8  C   UNL     1      -3.674 -12.828  32.411  1.00  0.00     0.041 C 
ATOM      9  O   UNL     1      -2.755 -12.238  33.037  1.00  0.00    -0.550 OA
ATOM     10  O   UNL     1      -3.356 -13.837  31.509  1.00  0.00    -0.550 OA
ENDBRANCH   7   8
ENDBRANCH   6   7
ENDBRANCH   5   6
ENDBRANCH   4   5
ENDBRANCH   3   4
ENDBRANCH   2   3
ENDBRANCH   1   2
BRANCH   1  11
ATOM     11  C   UNL     1      -8.218 -15.275  26.617  1.00  0.00     0.000 C 
BRANCH  11  12
ATOM     12  C   UNL     1      -9.519 -14.586  26.164  1.00  0.00    -0.000 C 
BRANCH  12  13
ATOM     13  C   UNL     1     -10.817 -15.331  26.529  1.00  0.00    -0.000 C 
BRANCH  13  14
ATOM     14  C   UNL     1     -10.706 -16.278  27.738  1.00  0.00    -0.000 C 
BRANCH  14  15
ATOM     15  C   UNL     1     -12.069 -16.816  28.208  1.00  0.00    -0.000 C 
BRANCH  15  16
ATOM     16  C   UNL     1     -11.927 -17.924  29.272  1.00  0.00    -0.000 C 
BRANCH  16  17
ATOM     17  C   UNL     1     -10.499 -18.482  29.397  1.00  0.00    -0.003 C 
ATOM     18  C   UNL     1     -10.049 -18.660  30.846  1.00  0.00     0.004 C 
ENDBRANCH  16  17
ENDBRANCH  15  16
ENDBRANCH  14  15
ENDBRANCH  13  14
ENDBRANCH  12  13
ENDBRANCH  11  12
ENDBRANCH   1  11
TORSDOF 14
ENDMDL
MODEL 7
REMARK VINA RESULT:    -5.112      3.114      6.663
REMARK INTER + INTRA:         -10.720
REMARK INTER:                  -9.852
REMARK INTRA:                  -0.868
REMARK UNBOUND:                -1.423
REMARK SMILES CCCCCCCCCCCCCCCC(=O)[O-]
REMARK SMILES IDX 9 1 10 2 11 3 12 4 13 5 14 6 15 7 16 8 17 9 18 10 8 11 7 12
REMARK SMILES IDX 6 13 5 14 4 15 3 16 2 17 1 18
REMARK H PARENT
REMARK Flexibility Score: inf
ROOT
ATOM      1  C   UNL     1      -6.893 -14.262  26.935  1.00  0.00     0.000 C 
ENDROOT
BRANCH   1   2
ATOM      2  C   UNL     1      -8.073 -15.209  26.650  1.00  0.00     0.000 C 
BRANCH   2   3
ATOM      3  C   UNL     1      -9.287 -14.478  26.053  1.00  0.00     0.000 C 
BRANCH   3   4
ATOM      4  C   UNL     1     -10.610 -15.214  26.328  1.00  0.00     0.000 C 
BRANCH   4   5
ATOM      5  C   UNL     1     -10.594 -15.974  27.664  1.00  0.00     0.000 C 
BRANCH   5   6
ATOM      6  C   UNL     1     -11.777 -16.949  27.807  1.00  0.00     0.006 C 
BRANCH   6   7
ATOM      7  C   UNL     1     -11.651 -17.832  29.055  1.00  0.00     0.053 C 
BRANCH   7   8
ATOM      8  C   UNL     1     -12.521 -17.342  30.172  1.00  0.00     0.041 C 
ATOM      9  O   UNL     1     -13.774 -17.340  30.045  1.00  0.00    -0.550 OA
ATOM     10  O   UNL     1     -11.949 -16.922  31.367  1.00  0.00    -0.550 OA
ENDBRANCH   7   8
ENDBRANCH   6   7
ENDBRANCH   5   6
ENDBRANCH   4   5
ENDBRANCH   3   4
ENDBRANCH   2   3
ENDBRANCH   1   2
BRANCH   1  11
ATOM     11  C   UNL     1      -6.302 -14.465  28.348  1.00  0.00     0.000 C 
BRANCH  11  12
ATOM     12  C   UNL     1      -7.342 -14.348  29.478  1.00  0.00    -0.000 C 
BRANCH  12  13
ATOM     13  C   UNL     1      -6.769 -14.420  30.906  1.00  0.00    -0.000 C 
BRANCH  13  14
ATOM     14  C   UNL     1      -6.886 -13.118  31.721  1.00  0.00    -0.000 C 
BRANCH  14  15
ATOM     15  C   UNL     1      -5.762 -12.114  31.413  1.00  0.00    -0.000 C 
BRANCH  15  16
ATOM     16  C   UNL     1      -4.714 -12.043  32.542  1.00  0.00    -0.000 C 
BRANCH  16  17
ATOM     17  C   UNL     1      -3.469 -12.910  32.287  1.00  0.00    -0.003 C 
ATOM     18  C   UNL     1      -2.231 -12.418  33.036  1.00  0.00     0.004 C 
ENDBRANCH  16  17
ENDBRANCH  15  16
ENDBRANCH  14  15
ENDBRANCH  13  14
ENDBRANCH  12  13
ENDBRANCH  11  12
ENDBRANCH   1  11
TORSDOF 14
ENDMDL
MODEL 8
REMARK VINA RESULT:    -5.059      1.535      3.975
REMARK INTER + INTRA:         -10.622
REMARK INTER:                  -9.375
REMARK INTRA:                  -1.247
REMARK UNBOUND:                -1.423
REMARK SMILES CCCCCCCCCCCCCCCC(=O)[O-]
REMARK SMILES IDX 9 1 10 2 11 3 12 4 13 5 14 6 15 7 16 8 17 9 18 10 8 11 7 12
REMARK SMILES IDX 6 13 5 14 4 15 3 16 2 17 1 18
REMARK H PARENT
REMARK Flexibility Score: inf
ROOT
ATOM      1  C   UNL     1      -6.873 -13.928  28.586  1.00  0.00     0.000 C 
ENDROOT
BRANCH   1   2
ATOM      2  C   UNL     1      -7.690 -14.917  29.438  1.00  0.00     0.000 C 
BRANCH   2   3
ATOM      3  C   UNL     1      -7.200 -14.990  30.893  1.00  0.00     0.000 C 
BRANCH   3   4
ATOM      4  C   UNL     1      -6.828 -13.608  31.458  1.00  0.00     0.000 C 
BRANCH   4   5
ATOM      5  C   UNL     1      -5.926 -13.701  32.699  1.00  0.00     0.000 C 
BRANCH   5   6
ATOM      6  C   UNL     1      -4.525 -13.110  32.461  1.00  0.00     0.006 C 
BRANCH   6   7
ATOM      7  C   UNL     1      -4.305 -12.713  30.995  1.00  0.00     0.053 C 
BRANCH   7   8
ATOM      8  C   UNL     1      -3.441 -13.702  30.274  1.00  0.00     0.041 C 
ATOM      9  O   UNL     1      -3.560 -14.934  30.507  1.00  0.00    -0.550 OA
ATOM     10  O   UNL     1      -2.530 -13.265  29.319  1.00  0.00    -0.550 OA
ENDBRANCH   7   8
ENDBRANCH   6   7
ENDBRANCH   5   6
ENDBRANCH   4   5
ENDBRANCH   3   4
ENDBRANCH   2   3
ENDBRANCH   1   2
BRANCH   1  11
ATOM     11  C   UNL     1      -6.822 -14.335  27.097  1.00  0.00     0.000 C 
BRANCH  11  12
ATOM     12  C   UNL     1      -7.991 -15.237  26.659  1.00  0.00    -0.000 C 
BRANCH  12  13
ATOM     13  C   UNL     1      -9.194 -14.497  26.043  1.00  0.00    -0.000 C 
BRANCH  13  14
ATOM     14  C   UNL     1     -10.560 -15.172  26.271  1.00  0.00    -0.000 C 
BRANCH  14  15
ATOM     15  C   UNL     1     -10.603 -16.024  27.551  1.00  0.00    -0.000 C 
BRANCH  15  16
ATOM     16  C   UNL     1     -11.923 -16.811  27.686  1.00  0.00    -0.000 C 
BRANCH  16  17
ATOM     17  C   UNL     1     -11.986 -17.706  28.935  1.00  0.00    -0.003 C 
ATOM     18  C   UNL     1     -10.635 -18.316  29.305  1.00  0.00     0.004 C 
ENDBRANCH  16  17
ENDBRANCH  15  16
ENDBRANCH  14  15
ENDBRANCH  13  14
ENDBRANCH  12  13
ENDBRANCH  11  12
ENDBRANCH   1  11
TORSDOF 14
ENDMDL
MODEL 9
REMARK VINA RESULT:    -4.956      3.010      6.813
REMARK INTER + INTRA:         -10.435
REMARK INTER:                  -9.179
REMARK INTRA:                  -1.255
REMARK UNBOUND:                -1.423
REMARK SMILES CCCCCCCCCCCCCCCC(=O)[O-]
REMARK SMILES IDX 9 1 10 2 11 3 12 4 13 5 14 6 15 7 16 8 17 9 18 10 8 11 7 12
REMARK SMILES IDX 6 13 5 14 4 15 3 16 2 17 1 18
REMARK H PARENT
REMARK Flexibility Score: inf
ROOT
ATOM      1  C   UNL     1      -5.835 -14.870  27.840  1.00  0.00     0.000 C 
ENDROOT
BRANCH   1   2
ATOM      2  C   UNL     1      -6.990 -14.159  27.112  1.00  0.00     0.000 C 
BRANCH   2   3
ATOM      3  C   UNL     1      -8.086 -15.132  26.650  1.00  0.00     0.000 C 
BRANCH   3   4
ATOM      4  C   UNL     1      -9.336 -14.404  26.125  1.00  0.00     0.000 C 
BRANCH   4   5
ATOM      5  C   UNL     1     -10.619 -15.229  26.312  1.00  0.00     0.000 C 
BRANCH   5   6
ATOM      6  C   UNL     1     -10.638 -16.007  27.640  1.00  0.00     0.006 C 
BRANCH   6   7
ATOM      7  C   UNL     1     -11.961 -16.755  27.853  1.00  0.00     0.053 C 
BRANCH   7   8
ATOM      8  C   UNL     1     -12.445 -16.636  29.266  1.00  0.00     0.041 C 
ATOM      9  O   UNL     1     -13.563 -17.114  29.595  1.00  0.00    -0.550 OA
ATOM     10  O   UNL     1     -11.645 -16.030  30.228  1.00  0.00    -0.550 OA
ENDBRANCH   7   8
ENDBRANCH   6   7
ENDBRANCH   5   6
ENDBRANCH   4   5
ENDBRANCH   3   4
ENDBRANCH   2   3
ENDBRANCH   1   2
BRANCH   1  11
ATOM     11  C   UNL     1      -4.890 -13.879  28.556  1.00  0.00     0.000 C 
BRANCH  11  12
ATOM     12  C   UNL     1      -5.562 -12.546  28.939  1.00  0.00    -0.000 C 
BRANCH  12  13
ATOM     13  C   UNL     1      -4.663 -11.555  29.702  1.00  0.00    -0.000 C 
BRANCH  13  14
ATOM     14  C   UNL     1      -3.752 -12.190  30.770  1.00  0.00    -0.000 C 
BRANCH  14  15
ATOM     15  C   UNL     1      -4.315 -12.057  32.195  1.00  0.00    -0.000 C 
BRANCH  15  16
ATOM     16  C   UNL     1      -4.990 -13.356  32.681  1.00  0.00    -0.000 C 
BRANCH  16  17
ATOM     17  C   UNL     1      -6.495 -13.425  32.374  1.00  0.00    -0.003 C 
ATOM     18  C   UNL     1      -6.899 -14.700  31.635  1.00  0.00     0.004 C 
ENDBRANCH  16  17
ENDBRANCH  15  16
ENDBRANCH  14  15
ENDBRANCH  13  14
ENDBRANCH  12  13
ENDBRANCH  11  12
ENDBRANCH   1  11
TORSDOF 14
ENDMDL
