MODEL 1
REMARK VINA RESULT:    -5.816      0.000      0.000
REMARK INTER + INTRA:          -7.236
REMARK INTER:                  -7.176
REMARK INTRA:                  -0.061
REMARK UNBOUND:                -0.061
REMARK SMILES O=c1c(O)c(-c2cc(O)c(O)c(O)c2)oc2cc(O)cc(O)c12
REMARK SMILES IDX 5 1 3 2 2 3 1 4 23 5 21 6 20 7 18 8 17 9 16 10 15 11 6 12
REMARK SMILES IDX 7 13 8 14 14 15 10 16 12 17 9 18 11 20 13 22 4 24 22 26
REMARK SMILES IDX 19 28
REMARK H PARENT 9 19 11 21 13 23 4 25 22 27 19 29
REMARK Flexibility Score: inf
ROOT
ATOM      1  C   UNL     1      38.833  11.574  26.702  1.00  0.00     0.180 A 
ATOM      2  C   UNL     1      38.259  10.319  26.971  1.00  0.00     0.208 A 
ATOM      3  C   UNL     1      37.084  10.257  27.739  1.00  0.00     0.238 A 
ATOM      4  O   UNL     1      36.545   9.137  27.931  1.00  0.00    -0.285 OA
ATOM      5  C   UNL     1      36.509  11.450  28.242  1.00  0.00     0.111 A 
ATOM      6  C   UNL     1      35.344  11.503  29.065  1.00  0.00     0.134 A 
ATOM      7  C   UNL     1      34.789  12.745  29.396  1.00  0.00     0.093 A 
ATOM      8  C   UNL     1      35.391  13.934  28.991  1.00  0.00     0.123 A 
ATOM      9  C   UNL     1      36.565  13.895  28.236  1.00  0.00     0.094 A 
ATOM     10  C   UNL     1      37.122  12.671  27.859  1.00  0.00     0.146 A 
ATOM     11  O   UNL     1      38.233  12.677  27.133  1.00  0.00    -0.452 OA
ENDROOT
BRANCH   1  12
ATOM     12  C   UNL     1      40.083  11.717  25.921  1.00  0.00     0.029 A 
ATOM     13  C   UNL     1      40.142  12.653  24.877  1.00  0.00     0.062 A 
ATOM     14  C   UNL     1      41.320  12.823  24.137  1.00  0.00     0.162 A 
ATOM     15  C   UNL     1      41.233  10.974  26.240  1.00  0.00     0.062 A 
ATOM     16  C   UNL     1      42.459  12.061  24.448  1.00  0.00     0.200 A 
ATOM     17  C   UNL     1      42.414  11.141  25.503  1.00  0.00     0.162 A 
BRANCH  14  18
ATOM     18  O   UNL     1      41.362  13.746  23.093  1.00  0.00    -0.504 OA
ATOM     19  H   UNL     1      42.233  14.168  22.792  1.00  0.00     0.293 HD
ENDBRANCH  14  18
BRANCH  16  20
ATOM     20  O   UNL     1      43.642  12.210  23.724  1.00  0.00    -0.502 OA
ATOM     21  H   UNL     1      43.913  13.095  23.311  1.00  0.00     0.293 HD
ENDBRANCH  16  20
BRANCH  17  22
ATOM     22  O   UNL     1      43.551  10.398  25.818  1.00  0.00    -0.504 OA
ATOM     23  H   UNL     1      43.550   9.385  25.776  1.00  0.00     0.293 HD
ENDBRANCH  17  22
ENDBRANCH   1  12
BRANCH   2  24
ATOM     24  O   UNL     1      38.832   9.157  26.447  1.00  0.00    -0.502 OA
ATOM     25  H   UNL     1      39.201   9.110  25.505  1.00  0.00     0.293 HD
ENDBRANCH   2  24
BRANCH   6  26
ATOM     26  O   UNL     1      34.715  10.374  29.601  1.00  0.00    -0.507 OA
ATOM     27  H   UNL     1      33.766  10.096  29.402  1.00  0.00     0.293 HD
ENDBRANCH   6  26
BRANCH   8  28
ATOM     28  O   UNL     1      34.819  15.152  29.353  1.00  0.00    -0.508 OA
ATOM     29  H   UNL     1      33.902  15.199  29.782  1.00  0.00     0.293 HD
ENDBRANCH   8  28
TORSDOF 7
ENDMDL
MODEL 2
REMARK VINA RESULT:    -5.723      0.149      1.754
REMARK INTER + INTRA:          -7.122
REMARK INTER:                  -7.138
REMARK INTRA:                   0.016
REMARK UNBOUND:                -0.061
REMARK SMILES O=c1c(O)c(-c2cc(O)c(O)c(O)c2)oc2cc(O)cc(O)c12
REMARK SMILES IDX 5 1 3 2 2 3 1 4 23 5 21 6 20 7 18 8 17 9 16 10 15 11 6 12
REMARK SMILES IDX 7 13 8 14 14 15 10 16 12 17 9 18 11 20 13 22 4 24 22 26
REMARK SMILES IDX 19 28
REMARK H PARENT 9 19 11 21 13 23 4 25 22 27 19 29
REMARK Flexibility Score: inf
ROOT
ATOM      1  C   UNL     1      38.842  11.601  26.731  1.00  0.00     0.180 A 
ATOM      2  C   UNL     1      38.233  10.360  26.986  1.00  0.00     0.208 A 
ATOM      3  C   UNL     1      37.045  10.325  27.734  1.00  0.00     0.238 A 
ATOM      4  O   UNL     1      36.475   9.218  27.913  1.00  0.00    -0.285 OA
ATOM      5  C   UNL     1      36.491  11.529  28.232  1.00  0.00     0.111 A 
ATOM      6  C   UNL     1      35.314  11.609  29.036  1.00  0.00     0.134 A 
ATOM      7  C   UNL     1      34.785  12.863  29.363  1.00  0.00     0.093 A 
ATOM      8  C   UNL     1      35.423  14.039  28.972  1.00  0.00     0.123 A 
ATOM      9  C   UNL     1      36.607  13.973  28.237  1.00  0.00     0.094 A 
ATOM     10  C   UNL     1      37.140  12.736  27.864  1.00  0.00     0.146 A 
ATOM     11  O   UNL     1      38.263  12.717  27.156  1.00  0.00    -0.452 OA
ENDROOT
BRANCH   1  12
ATOM     12  C   UNL     1      40.108  11.715  25.971  1.00  0.00     0.029 A 
ATOM     13  C   UNL     1      41.187  10.878  26.296  1.00  0.00     0.062 A 
ATOM     14  C   UNL     1      42.388  10.952  25.579  1.00  0.00     0.162 A 
ATOM     15  C   UNL     1      40.235  12.607  24.891  1.00  0.00     0.062 A 
ATOM     16  C   UNL     1      42.514  11.860  24.514  1.00  0.00     0.200 A 
ATOM     17  C   UNL     1      41.434  12.683  24.170  1.00  0.00     0.162 A 
BRANCH  14  18
ATOM     18  O   UNL     1      43.458  10.125  25.920  1.00  0.00    -0.504 OA
ATOM     19  H   UNL     1      44.050  10.325  26.718  1.00  0.00     0.293 HD
ENDBRANCH  14  18
BRANCH  16  20
ATOM     20  O   UNL     1      43.701  11.954  23.787  1.00  0.00    -0.502 OA
ATOM     21  H   UNL     1      44.295  11.150  23.619  1.00  0.00     0.293 HD
ENDBRANCH  16  20
BRANCH  17  22
ATOM     22  O   UNL     1      41.559  13.572  23.104  1.00  0.00    -0.504 OA
ATOM     23  H   UNL     1      41.717  14.563  23.255  1.00  0.00     0.293 HD
ENDBRANCH  17  22
ENDBRANCH   1  12
BRANCH   2  24
ATOM     24  O   UNL     1      38.785   9.186  26.466  1.00  0.00    -0.502 OA
ATOM     25  H   UNL     1      39.634   9.182  25.915  1.00  0.00     0.293 HD
ENDBRANCH   2  24
BRANCH   6  26
ATOM     26  O   UNL     1      34.649  10.494  29.557  1.00  0.00    -0.507 OA
ATOM     27  H   UNL     1      33.752  10.160  29.239  1.00  0.00     0.293 HD
ENDBRANCH   6  26
BRANCH   8  28
ATOM     28  O   UNL     1      34.875  15.270  29.329  1.00  0.00    -0.508 OA
ATOM     29  H   UNL     1      34.619  15.476  30.287  1.00  0.00     0.293 HD
ENDBRANCH   8  28
TORSDOF 7
ENDMDL
MODEL 3
REMARK VINA RESULT:    -5.701      1.368      3.374
REMARK INTER + INTRA:          -7.095
REMARK INTER:                  -6.972
REMARK INTRA:                  -0.123
REMARK UNBOUND:                -0.061
REMARK SMILES O=c1c(O)c(-c2cc(O)c(O)c(O)c2)oc2cc(O)cc(O)c12
REMARK SMILES IDX 5 1 3 2 2 3 1 4 23 5 21 6 20 7 18 8 17 9 16 10 15 11 6 12
REMARK SMILES IDX 7 13 8 14 14 15 10 16 12 17 9 18 11 20 13 22 4 24 22 26
REMARK SMILES IDX 19 28
REMARK H PARENT 9 19 11 21 13 23 4 25 22 27 19 29
REMARK Flexibility Score: inf
ROOT
ATOM      1  C   UNL     1      38.595  12.435  27.438  1.00  0.00     0.180 A 
ATOM      2  C   UNL     1      38.411  13.770  27.842  1.00  0.00     0.208 A 
ATOM      3  C   UNL     1      37.231  14.121  28.517  1.00  0.00     0.238 A 
ATOM      4  O   UNL     1      37.097  15.304  28.924  1.00  0.00    -0.285 OA
ATOM      5  C   UNL     1      36.243  13.138  28.764  1.00  0.00     0.111 A 
ATOM      6  C   UNL     1      34.991  13.390  29.403  1.00  0.00     0.134 A 
ATOM      7  C   UNL     1      34.145  12.318  29.713  1.00  0.00     0.093 A 
ATOM      8  C   UNL     1      34.474  11.014  29.349  1.00  0.00     0.123 A 
ATOM      9  C   UNL     1      35.668  10.763  28.670  1.00  0.00     0.094 A 
ATOM     10  C   UNL     1      36.549  11.807  28.380  1.00  0.00     0.146 A 
ATOM     11  O   UNL     1      37.678  11.525  27.742  1.00  0.00    -0.452 OA
ENDROOT
BRANCH   1  12
ATOM     12  C   UNL     1      39.801  11.995  26.701  1.00  0.00     0.029 A 
ATOM     13  C   UNL     1      40.543  10.904  27.179  1.00  0.00     0.062 A 
ATOM     14  C   UNL     1      41.676  10.453  26.489  1.00  0.00     0.162 A 
ATOM     15  C   UNL     1      40.188  12.610  25.497  1.00  0.00     0.062 A 
ATOM     16  C   UNL     1      42.068  11.087  25.298  1.00  0.00     0.200 A 
ATOM     17  C   UNL     1      41.319  12.162  24.802  1.00  0.00     0.162 A 
BRANCH  14  18
ATOM     18  O   UNL     1      42.414   9.377  26.982  1.00  0.00    -0.504 OA
ATOM     19  H   UNL     1      43.155   9.509  27.661  1.00  0.00     0.293 HD
ENDBRANCH  14  18
BRANCH  16  20
ATOM     20  O   UNL     1      43.194  10.659  24.594  1.00  0.00    -0.502 OA
ATOM     21  H   UNL     1      43.143  10.357  23.627  1.00  0.00     0.293 HD
ENDBRANCH  16  20
BRANCH  17  22
ATOM     22  O   UNL     1      41.704  12.778  23.612  1.00  0.00    -0.504 OA
ATOM     23  H   UNL     1      42.328  12.322  22.956  1.00  0.00     0.293 HD
ENDBRANCH  17  22
ENDBRANCH   1  12
BRANCH   2  24
ATOM     24  O   UNL     1      39.410  14.719  27.606  1.00  0.00    -0.502 OA
ATOM     25  H   UNL     1      40.341  14.637  27.996  1.00  0.00     0.293 HD
ENDBRANCH   2  24
BRANCH   6  26
ATOM     26  O   UNL     1      34.524  14.668  29.727  1.00  0.00    -0.507 OA
ATOM     27  H   UNL     1      34.308  14.982  30.662  1.00  0.00     0.293 HD
ENDBRANCH   6  26
BRANCH   8  28
ATOM     28  O   UNL     1      33.600   9.973  29.660  1.00  0.00    -0.508 OA
ATOM     29  H   UNL     1      33.196   9.880  30.584  1.00  0.00     0.293 HD
ENDBRANCH   8  28
TORSDOF 7
ENDMDL
MODEL 4
REMARK VINA RESULT:    -5.681      3.779      8.237
REMARK INTER + INTRA:          -7.070
REMARK INTER:                  -6.860
REMARK INTRA:                  -0.210
REMARK UNBOUND:                -0.061
REMARK SMILES O=c1c(O)c(-c2cc(O)c(O)c(O)c2)oc2cc(O)cc(O)c12
REMARK SMILES IDX 5 1 3 2 2 3 1 4 23 5 21 6 20 7 18 8 17 9 16 10 15 11 6 12
REMARK SMILES IDX 7 13 8 14 14 15 10 16 12 17 9 18 11 20 13 22 4 24 22 26
REMARK SMILES IDX 19 28
REMARK H PARENT 9 19 11 21 13 23 4 25 22 27 19 29
REMARK Flexibility Score: inf
ROOT
ATOM      1  C   UNL     1      43.199  11.797  25.204  1.00  0.00     0.180 A 
ATOM      2  C   UNL     1      43.912  10.958  26.079  1.00  0.00     0.208 A 
ATOM      3  C   UNL     1      44.702   9.928  25.543  1.00  0.00     0.238 A 
ATOM      4  O   UNL     1      45.380   9.215  26.327  1.00  0.00    -0.285 OA
ATOM      5  C   UNL     1      44.756   9.740  24.141  1.00  0.00     0.111 A 
ATOM      6  C   UNL     1      45.490   8.703  23.490  1.00  0.00     0.134 A 
ATOM      7  C   UNL     1      45.577   8.691  22.093  1.00  0.00     0.093 A 
ATOM      8  C   UNL     1      44.905   9.637  21.321  1.00  0.00     0.123 A 
ATOM      9  C   UNL     1      44.134  10.619  21.945  1.00  0.00     0.094 A 
ATOM     10  C   UNL     1      44.058  10.679  23.338  1.00  0.00     0.146 A 
ATOM     11  O   UNL     1      43.322  11.635  23.892  1.00  0.00    -0.452 OA
ENDROOT
BRANCH   1  12
ATOM     12  C   UNL     1      42.327  12.888  25.695  1.00  0.00     0.029 A 
ATOM     13  C   UNL     1      42.608  14.214  25.332  1.00  0.00     0.062 A 
ATOM     14  C   UNL     1      41.785  15.262  25.766  1.00  0.00     0.162 A 
ATOM     15  C   UNL     1      41.187  12.619  26.473  1.00  0.00     0.062 A 
ATOM     16  C   UNL     1      40.660  14.987  26.560  1.00  0.00     0.200 A 
ATOM     17  C   UNL     1      40.360  13.664  26.909  1.00  0.00     0.162 A 
BRANCH  14  18
ATOM     18  O   UNL     1      42.082  16.578  25.410  1.00  0.00    -0.504 OA
ATOM     19  H   UNL     1      41.452  17.341  25.625  1.00  0.00     0.293 HD
ENDBRANCH  14  18
BRANCH  16  20
ATOM     20  O   UNL     1      39.828  16.014  27.007  1.00  0.00    -0.502 OA
ATOM     21  H   UNL     1      38.833  16.026  26.811  1.00  0.00     0.293 HD
ENDBRANCH  16  20
BRANCH  17  22
ATOM     22  O   UNL     1      39.235  13.394  27.685  1.00  0.00    -0.504 OA
ATOM     23  H   UNL     1      39.307  12.909  28.573  1.00  0.00     0.293 HD
ENDBRANCH  17  22
ENDBRANCH   1  12
BRANCH   2  24
ATOM     24  O   UNL     1      43.861  11.176  27.459  1.00  0.00    -0.502 OA
ATOM     25  H   UNL     1      43.990  10.430  28.132  1.00  0.00     0.293 HD
ENDBRANCH   2  24
BRANCH   6  26
ATOM     26  O   UNL     1      46.125   7.655  24.165  1.00  0.00    -0.507 OA
ATOM     27  H   UNL     1      45.736   7.158  24.952  1.00  0.00     0.293 HD
ENDBRANCH   6  26
BRANCH   8  28
ATOM     28  O   UNL     1      45.002   9.585  19.931  1.00  0.00    -0.508 OA
ATOM     29  H   UNL     1      44.494  10.233  19.341  1.00  0.00     0.293 HD
ENDBRANCH   8  28
TORSDOF 7
ENDMDL
MODEL 5
REMARK VINA RESULT:    -5.668      1.568      3.491
REMARK INTER + INTRA:          -7.054
REMARK INTER:                  -6.796
REMARK INTRA:                  -0.258
REMARK UNBOUND:                -0.061
REMARK SMILES O=c1c(O)c(-c2cc(O)c(O)c(O)c2)oc2cc(O)cc(O)c12
REMARK SMILES IDX 5 1 3 2 2 3 1 4 23 5 21 6 20 7 18 8 17 9 16 10 15 11 6 12
REMARK SMILES IDX 7 13 8 14 14 15 10 16 12 17 9 18 11 20 13 22 4 24 22 26
REMARK SMILES IDX 19 28
REMARK H PARENT 9 19 11 21 13 23 4 25 22 27 19 29
REMARK Flexibility Score: inf
ROOT
ATOM      1  C   UNL     1      39.662  12.081  26.133  1.00  0.00     0.180 A 
ATOM      2  C   UNL     1      39.385  13.032  27.132  1.00  0.00     0.208 A 
ATOM      3  C   UNL     1      38.294  12.821  27.991  1.00  0.00     0.238 A 
ATOM      4  O   UNL     1      38.085  13.647  28.916  1.00  0.00    -0.285 OA
ATOM      5  C   UNL     1      37.484  11.671  27.830  1.00  0.00     0.111 A 
ATOM      6  C   UNL     1      36.330  11.376  28.616  1.00  0.00     0.134 A 
ATOM      7  C   UNL     1      35.681  10.146  28.456  1.00  0.00     0.093 A 
ATOM      8  C   UNL     1      36.102   9.229  27.495  1.00  0.00     0.123 A 
ATOM      9  C   UNL     1      37.193   9.532  26.679  1.00  0.00     0.094 A 
ATOM     10  C   UNL     1      37.884  10.735  26.840  1.00  0.00     0.146 A 
ATOM     11  O   UNL     1      38.922  10.981  26.051  1.00  0.00    -0.452 OA
ENDROOT
BRANCH   1  12
ATOM     12  C   UNL     1      40.778  12.246  25.176  1.00  0.00     0.029 A 
ATOM     13  C   UNL     1      41.855  11.346  25.207  1.00  0.00     0.062 A 
ATOM     14  C   UNL     1      42.913  11.468  24.297  1.00  0.00     0.162 A 
ATOM     15  C   UNL     1      40.757  13.253  24.195  1.00  0.00     0.062 A 
ATOM     16  C   UNL     1      42.895  12.491  23.334  1.00  0.00     0.200 A 
ATOM     17  C   UNL     1      41.813  13.379  23.282  1.00  0.00     0.162 A 
BRANCH  14  18
ATOM     18  O   UNL     1      43.985  10.577  24.347  1.00  0.00    -0.504 OA
ATOM     19  H   UNL     1      44.281  10.056  23.529  1.00  0.00     0.293 HD
ENDBRANCH  14  18
BRANCH  16  20
ATOM     20  O   UNL     1      43.939  12.634  22.420  1.00  0.00    -0.502 OA
ATOM     21  H   UNL     1      44.669  11.938  22.322  1.00  0.00     0.293 HD
ENDBRANCH  16  20
BRANCH  17  22
ATOM     22  O   UNL     1      41.792  14.383  22.315  1.00  0.00    -0.504 OA
ATOM     23  H   UNL     1      41.103  15.127  22.338  1.00  0.00     0.293 HD
ENDBRANCH  17  22
ENDBRANCH   1  12
BRANCH   2  24
ATOM     24  O   UNL     1      40.211  14.149  27.286  1.00  0.00    -0.502 OA
ATOM     25  H   UNL     1      41.159  14.177  26.932  1.00  0.00     0.293 HD
ENDBRANCH   2  24
BRANCH   6  26
ATOM     26  O   UNL     1      35.770  12.262  29.542  1.00  0.00    -0.507 OA
ATOM     27  H   UNL     1      36.113  12.407  30.480  1.00  0.00     0.293 HD
ENDBRANCH   6  26
BRANCH   8  28
ATOM     28  O   UNL     1      35.422   8.020  27.353  1.00  0.00    -0.508 OA
ATOM     29  H   UNL     1      34.856   7.825  26.536  1.00  0.00     0.293 HD
ENDBRANCH   8  28
TORSDOF 7
ENDMDL
MODEL 6
REMARK VINA RESULT:    -5.638      2.937      4.353
REMARK INTER + INTRA:          -7.017
REMARK INTER:                  -6.768
REMARK INTRA:                  -0.249
REMARK UNBOUND:                -0.061
REMARK SMILES O=c1c(O)c(-c2cc(O)c(O)c(O)c2)oc2cc(O)cc(O)c12
REMARK SMILES IDX 5 1 3 2 2 3 1 4 23 5 21 6 20 7 18 8 17 9 16 10 15 11 6 12
REMARK SMILES IDX 7 13 8 14 14 15 10 16 12 17 9 18 11 20 13 22 4 24 22 26
REMARK SMILES IDX 19 28
REMARK H PARENT 9 19 11 21 13 23 4 25 22 27 19 29
REMARK Flexibility Score: inf
ROOT
ATOM      1  C   UNL     1      37.918  12.574  28.340  1.00  0.00     0.180 A 
ATOM      2  C   UNL     1      38.305  11.604  27.399  1.00  0.00     0.208 A 
ATOM      3  C   UNL     1      37.483  10.482  27.199  1.00  0.00     0.238 A 
ATOM      4  O   UNL     1      37.807   9.645  26.317  1.00  0.00    -0.285 OA
ATOM      5  C   UNL     1      36.295  10.336  27.955  1.00  0.00     0.111 A 
ATOM      6  C   UNL     1      35.409   9.221  27.866  1.00  0.00     0.134 A 
ATOM      7  C   UNL     1      34.197   9.244  28.565  1.00  0.00     0.093 A 
ATOM      8  C   UNL     1      33.868  10.309  29.401  1.00  0.00     0.123 A 
ATOM      9  C   UNL     1      34.754  11.378  29.543  1.00  0.00     0.094 A 
ATOM     10  C   UNL     1      35.955  11.401  28.830  1.00  0.00     0.146 A 
ATOM     11  O   UNL     1      36.765  12.440  28.986  1.00  0.00    -0.452 OA
ENDROOT
BRANCH   1  12
ATOM     12  C   UNL     1      38.743  13.770  28.623  1.00  0.00     0.029 A 
ATOM     13  C   UNL     1      38.237  15.045  28.324  1.00  0.00     0.062 A 
ATOM     14  C   UNL     1      38.990  16.194  28.602  1.00  0.00     0.162 A 
ATOM     15  C   UNL     1      40.002  13.661  29.239  1.00  0.00     0.062 A 
ATOM     16  C   UNL     1      40.256  16.075  29.198  1.00  0.00     0.200 A 
ATOM     17  C   UNL     1      40.758  14.807  29.520  1.00  0.00     0.162 A 
BRANCH  14  18
ATOM     18  O   UNL     1      38.483  17.454  28.287  1.00  0.00    -0.504 OA
ATOM     19  H   UNL     1      38.909  18.035  27.573  1.00  0.00     0.293 HD
ENDBRANCH  14  18
BRANCH  16  20
ATOM     20  O   UNL     1      41.025  17.204  29.482  1.00  0.00    -0.502 OA
ATOM     21  H   UNL     1      41.045  18.010  28.868  1.00  0.00     0.293 HD
ENDBRANCH  16  20
BRANCH  17  22
ATOM     22  O   UNL     1      42.008  14.695  30.125  1.00  0.00    -0.504 OA
ATOM     23  H   UNL     1      42.628  13.917  29.923  1.00  0.00     0.293 HD
ENDBRANCH  17  22
ENDBRANCH   1  12
BRANCH   2  24
ATOM     24  O   UNL     1      39.471  11.779  26.648  1.00  0.00    -0.502 OA
ATOM     25  H   UNL     1      39.860  12.693  26.454  1.00  0.00     0.293 HD
ENDBRANCH   2  24
BRANCH   6  26
ATOM     26  O   UNL     1      35.684   8.064  27.129  1.00  0.00    -0.507 OA
ATOM     27  H   UNL     1      36.604   7.671  26.998  1.00  0.00     0.293 HD
ENDBRANCH   6  26
BRANCH   8  28
ATOM     28  O   UNL     1      32.658  10.291  30.094  1.00  0.00    -0.508 OA
ATOM     29  H   UNL     1      32.607   9.984  31.059  1.00  0.00     0.293 HD
ENDBRANCH   8  28
TORSDOF 7
ENDMDL
MODEL 7
REMARK VINA RESULT:    -5.607      2.933      5.946
REMARK INTER + INTRA:          -6.979
REMARK INTER:                  -6.673
REMARK INTRA:                  -0.306
REMARK UNBOUND:                -0.061
REMARK SMILES O=c1c(O)c(-c2cc(O)c(O)c(O)c2)oc2cc(O)cc(O)c12
REMARK SMILES IDX 5 1 3 2 2 3 1 4 23 5 21 6 20 7 18 8 17 9 16 10 15 11 6 12
REMARK SMILES IDX 7 13 8 14 14 15 10 16 12 17 9 18 11 20 13 22 4 24 22 26
REMARK SMILES IDX 19 28
REMARK H PARENT 9 19 11 21 13 23 4 25 22 27 19 29
REMARK Flexibility Score: inf
ROOT
ATOM      1  C   UNL     1      43.075  11.882  24.483  1.00  0.00     0.180 A 
ATOM      2  C   UNL     1      43.437  13.240  24.473  1.00  0.00     0.208 A 
ATOM      3  C   UNL     1      42.617  14.170  25.133  1.00  0.00     0.238 A 
ATOM      4  O   UNL     1      42.975  15.376  25.166  1.00  0.00    -0.285 OA
ATOM      5  C   UNL     1      41.437  13.732  25.780  1.00  0.00     0.111 A 
ATOM      6  C   UNL     1      40.511  14.591  26.445  1.00  0.00     0.134 A 
ATOM      7  C   UNL     1      39.445  14.035  27.163  1.00  0.00     0.093 A 
ATOM      8  C   UNL     1      39.235  12.657  27.187  1.00  0.00     0.123 A 
ATOM      9  C   UNL     1      40.099  11.811  26.490  1.00  0.00     0.094 A 
ATOM     10  C   UNL     1      41.192  12.334  25.795  1.00  0.00     0.146 A 
ATOM     11  O   UNL     1      41.997  11.495  25.155  1.00  0.00    -0.452 OA
ENDROOT
BRANCH   1  12
ATOM     12  C   UNL     1      43.875  10.848  23.789  1.00  0.00     0.029 A 
ATOM     13  C   UNL     1      44.624   9.932  24.544  1.00  0.00     0.062 A 
ATOM     14  C   UNL     1      45.373   8.930  23.912  1.00  0.00     0.162 A 
ATOM     15  C   UNL     1      43.856  10.726  22.389  1.00  0.00     0.062 A 
ATOM     16  C   UNL     1      45.365   8.829  22.510  1.00  0.00     0.200 A 
ATOM     17  C   UNL     1      44.602   9.725  21.752  1.00  0.00     0.162 A 
BRANCH  14  18
ATOM     18  O   UNL     1      46.125   8.035  24.672  1.00  0.00    -0.504 OA
ATOM     19  H   UNL     1      46.856   7.469  24.256  1.00  0.00     0.293 HD
ENDBRANCH  14  18
BRANCH  16  20
ATOM     20  O   UNL     1      46.105   7.842  21.858  1.00  0.00    -0.502 OA
ATOM     21  H   UNL     1      45.663   7.103  21.323  1.00  0.00     0.293 HD
ENDBRANCH  16  20
BRANCH  17  22
ATOM     22  O   UNL     1      44.586   9.611  20.363  1.00  0.00    -0.504 OA
ATOM     23  H   UNL     1      44.018  10.223  19.787  1.00  0.00     0.293 HD
ENDBRANCH  17  22
ENDBRANCH   1  12
BRANCH   2  24
ATOM     24  O   UNL     1      44.618  13.648  23.845  1.00  0.00    -0.502 OA
ATOM     25  H   UNL     1      45.450  13.071  23.826  1.00  0.00     0.293 HD
ENDBRANCH   2  24
BRANCH   6  26
ATOM     26  O   UNL     1      40.577  15.988  26.408  1.00  0.00    -0.507 OA
ATOM     27  H   UNL     1      40.943  16.566  27.150  1.00  0.00     0.293 HD
ENDBRANCH   6  26
BRANCH   8  28
ATOM     28  O   UNL     1      38.154  12.139  27.900  1.00  0.00    -0.508 OA
ATOM     29  H   UNL     1      37.930  12.467  28.832  1.00  0.00     0.293 HD
ENDBRANCH   8  28
TORSDOF 7
ENDMDL
MODEL 8
REMARK VINA RESULT:    -5.593      3.735      8.600
REMARK INTER + INTRA:          -6.962
REMARK INTER:                  -6.656
REMARK INTRA:                  -0.306
REMARK UNBOUND:                -0.061
REMARK SMILES O=c1c(O)c(-c2cc(O)c(O)c(O)c2)oc2cc(O)cc(O)c12
REMARK SMILES IDX 5 1 3 2 2 3 1 4 23 5 21 6 20 7 18 8 17 9 16 10 15 11 6 12
REMARK SMILES IDX 7 13 8 14 14 15 10 16 12 17 9 18 11 20 13 22 4 24 22 26
REMARK SMILES IDX 19 28
REMARK H PARENT 9 19 11 21 13 23 4 25 22 27 19 29
REMARK Flexibility Score: inf
ROOT
ATOM      1  C   UNL     1      43.324  13.431  24.204  1.00  0.00     0.180 A 
ATOM      2  C   UNL     1      43.851  13.218  22.917  1.00  0.00     0.208 A 
ATOM      3  C   UNL     1      44.649  14.215  22.334  1.00  0.00     0.238 A 
ATOM      4  O   UNL     1      45.162  13.996  21.206  1.00  0.00    -0.285 OA
ATOM      5  C   UNL     1      44.898  15.419  23.037  1.00  0.00     0.111 A 
ATOM      6  C   UNL     1      45.658  16.514  22.526  1.00  0.00     0.134 A 
ATOM      7  C   UNL     1      45.949  17.601  23.359  1.00  0.00     0.093 A 
ATOM      8  C   UNL     1      45.453  17.664  24.660  1.00  0.00     0.123 A 
ATOM      9  C   UNL     1      44.658  16.627  25.150  1.00  0.00     0.094 A 
ATOM     10  C   UNL     1      44.381  15.512  24.355  1.00  0.00     0.146 A 
ATOM     11  O   UNL     1      43.629  14.543  24.862  1.00  0.00    -0.452 OA
ENDROOT
BRANCH   1  12
ATOM     12  C   UNL     1      42.454  12.438  24.873  1.00  0.00     0.029 A 
ATOM     13  C   UNL     1      43.031  11.311  25.479  1.00  0.00     0.062 A 
ATOM     14  C   UNL     1      42.232  10.367  26.137  1.00  0.00     0.162 A 
ATOM     15  C   UNL     1      41.065  12.628  24.966  1.00  0.00     0.062 A 
ATOM     16  C   UNL     1      40.841  10.554  26.207  1.00  0.00     0.200 A 
ATOM     17  C   UNL     1      40.261  11.688  25.625  1.00  0.00     0.162 A 
BRANCH  14  18
ATOM     18  O   UNL     1      42.815   9.243  26.722  1.00  0.00    -0.504 OA
ATOM     19  H   UNL     1      42.400   8.323  26.634  1.00  0.00     0.293 HD
ENDBRANCH  14  18
BRANCH  16  20
ATOM     20  O   UNL     1      40.024   9.627  26.854  1.00  0.00    -0.502 OA
ATOM     21  H   UNL     1      39.315   9.907  27.523  1.00  0.00     0.293 HD
ENDBRANCH  16  20
BRANCH  17  22
ATOM     22  O   UNL     1      38.882  11.876  25.709  1.00  0.00    -0.504 OA
ATOM     23  H   UNL     1      38.366  12.354  24.978  1.00  0.00     0.293 HD
ENDBRANCH  17  22
ENDBRANCH   1  12
BRANCH   2  24
ATOM     24  O   UNL     1      43.610  12.013  22.251  1.00  0.00    -0.502 OA
ATOM     25  H   UNL     1      42.963  11.941  21.475  1.00  0.00     0.293 HD
ENDBRANCH   2  24
BRANCH   6  26
ATOM     26  O   UNL     1      46.125  16.592  21.210  1.00  0.00    -0.507 OA
ATOM     27  H   UNL     1      46.336  15.797  20.626  1.00  0.00     0.293 HD
ENDBRANCH   6  26
BRANCH   8  28
ATOM     28  O   UNL     1      45.750  18.769  25.456  1.00  0.00    -0.508 OA
ATOM     29  H   UNL     1      45.378  19.688  25.245  1.00  0.00     0.293 HD
ENDBRANCH   8  28
TORSDOF 7
ENDMDL
