MODEL 1
REMARK VINA RESULT:    -4.481      0.000      0.000
REMARK INTER + INTRA:          -4.904
REMARK INTER:                  -4.874
REMARK INTRA:                  -0.030
REMARK UNBOUND:                -0.030
REMARK SMILES O=C([O-])c1ccc(O)cc1
REMARK SMILES IDX 4 1 5 2 10 3 6 4 9 5 7 6 2 7 1 8 3 9 8 10
REMARK H PARENT 8 11
REMARK Flexibility Score: inf
ROOT
ATOM      1  C   UNL     1      40.543  -5.194   1.731  1.00  0.00    -0.003 A 
ATOM      2  C   UNL     1      40.899  -4.467   2.882  1.00  0.00     0.014 A 
ATOM      3  C   UNL     1      39.455  -4.753   0.956  1.00  0.00     0.014 A 
ATOM      4  C   UNL     1      40.180  -3.324   3.248  1.00  0.00     0.047 A 
ATOM      5  C   UNL     1      38.740  -3.610   1.325  1.00  0.00     0.047 A 
ATOM      6  C   UNL     1      39.099  -2.893   2.469  1.00  0.00     0.115 A 
ENDROOT
BRANCH   1   7
ATOM      7  C   UNL     1      41.298  -6.403   1.340  1.00  0.00     0.071 C 
ATOM      8  O   UNL     1      42.556  -6.375   1.255  1.00  0.00    -0.545 OA
ATOM      9  O   UNL     1      40.631  -7.591   1.058  1.00  0.00    -0.545 OA
ENDBRANCH   1   7
BRANCH   6  10
ATOM     10  O   UNL     1      38.376  -1.756   2.825  1.00  0.00    -0.508 OA
ATOM     11  H   UNL     1      37.691  -1.346   2.200  1.00  0.00     0.293 HD
ENDBRANCH   6  10
TORSDOF 2
ENDMDL
MODEL 2
REMARK VINA RESULT:    -4.294     18.241     19.120
REMARK INTER + INTRA:          -4.701
REMARK INTER:                  -4.674
REMARK INTRA:                  -0.027
REMARK UNBOUND:                -0.030
REMARK SMILES O=C([O-])c1ccc(O)cc1
REMARK SMILES IDX 4 1 5 2 10 3 6 4 9 5 7 6 2 7 1 8 3 9 8 10
REMARK H PARENT 8 11
REMARK Flexibility Score: inf
ROOT
ATOM      1  C   UNL     1      34.963  -5.355  20.242  1.00  0.00    -0.003 A 
ATOM      2  C   UNL     1      34.629  -4.392  19.271  1.00  0.00     0.014 A 
ATOM      3  C   UNL     1      36.027  -5.092  21.124  1.00  0.00     0.014 A 
ATOM      4  C   UNL     1      35.345  -3.194  19.187  1.00  0.00     0.047 A 
ATOM      5  C   UNL     1      36.739  -3.892  21.037  1.00  0.00     0.047 A 
ATOM      6  C   UNL     1      36.402  -2.941  20.070  1.00  0.00     0.115 A 
ENDROOT
BRANCH   1   7
ATOM      7  C   UNL     1      34.211  -6.624  20.336  1.00  0.00     0.071 C 
ATOM      8  O   UNL     1      33.234  -6.734  21.125  1.00  0.00    -0.545 OA
ATOM      9  O   UNL     1      34.570  -7.716  19.553  1.00  0.00    -0.545 OA
ENDBRANCH   1   7
BRANCH   6  10
ATOM     10  O   UNL     1      37.122  -1.750  19.995  1.00  0.00    -0.508 OA
ATOM     11  H   UNL     1      38.017  -1.701  19.524  1.00  0.00     0.293 HD
ENDBRANCH   6  10
TORSDOF 2
ENDMDL
MODEL 3
REMARK VINA RESULT:    -4.064     11.737     12.315
REMARK INTER + INTRA:          -4.451
REMARK INTER:                  -4.422
REMARK INTRA:                  -0.028
REMARK UNBOUND:                -0.030
REMARK SMILES O=C([O-])c1ccc(O)cc1
REMARK SMILES IDX 4 1 5 2 10 3 6 4 9 5 7 6 2 7 1 8 3 9 8 10
REMARK H PARENT 8 11
REMARK Flexibility Score: inf
ROOT
ATOM      1  C   UNL     1      37.076  -7.472  12.653  1.00  0.00    -0.003 A 
ATOM      2  C   UNL     1      37.102  -6.487  13.658  1.00  0.00     0.014 A 
ATOM      3  C   UNL     1      36.067  -8.451  12.686  1.00  0.00     0.014 A 
ATOM      4  C   UNL     1      36.138  -6.484  14.672  1.00  0.00     0.047 A 
ATOM      5  C   UNL     1      35.105  -8.444  13.701  1.00  0.00     0.047 A 
ATOM      6  C   UNL     1      35.138  -7.464  14.695  1.00  0.00     0.115 A 
ENDROOT
BRANCH   1   7
ATOM      7  C   UNL     1      38.091  -7.480  11.579  1.00  0.00     0.071 C 
ATOM      8  O   UNL     1      39.306  -7.686  11.845  1.00  0.00    -0.545 OA
ATOM      9  O   UNL     1      37.720  -7.261  10.256  1.00  0.00    -0.545 OA
ENDBRANCH   1   7
BRANCH   6  10
ATOM     10  O   UNL     1      34.173  -7.470  15.701  1.00  0.00    -0.508 OA
ATOM     11  H   UNL     1      33.395  -8.118  15.685  1.00  0.00     0.293 HD
ENDBRANCH   6  10
TORSDOF 2
ENDMDL
MODEL 4
REMARK VINA RESULT:    -4.003     11.538     12.667
REMARK INTER + INTRA:          -4.384
REMARK INTER:                  -4.356
REMARK INTRA:                  -0.028
REMARK UNBOUND:                -0.030
REMARK SMILES O=C([O-])c1ccc(O)cc1
REMARK SMILES IDX 4 1 5 2 10 3 6 4 9 5 7 6 2 7 1 8 3 9 8 10
REMARK H PARENT 8 11
REMARK Flexibility Score: inf
ROOT
ATOM      1  C   UNL     1      36.760  -8.003  13.302  1.00  0.00    -0.003 A 
ATOM      2  C   UNL     1      36.996  -9.390  13.248  1.00  0.00     0.014 A 
ATOM      3  C   UNL     1      37.599  -7.141  12.572  1.00  0.00     0.014 A 
ATOM      4  C   UNL     1      38.047  -9.900  12.479  1.00  0.00     0.047 A 
ATOM      5  C   UNL     1      38.649  -7.655  11.805  1.00  0.00     0.047 A 
ATOM      6  C   UNL     1      38.876  -9.033  11.756  1.00  0.00     0.115 A 
ENDROOT
BRANCH   1   7
ATOM      7  C   UNL     1      35.651  -7.457  14.112  1.00  0.00     0.071 C 
ATOM      8  O   UNL     1      34.452  -7.699  13.804  1.00  0.00    -0.545 OA
ATOM      9  O   UNL     1      35.914  -6.669  15.227  1.00  0.00    -0.545 OA
ENDBRANCH   1   7
BRANCH   6  10
ATOM     10  O   UNL     1      39.927  -9.531  10.988  1.00  0.00    -0.508 OA
ATOM     11  H   UNL     1      40.832  -9.077  10.970  1.00  0.00     0.293 HD
ENDBRANCH   6  10
TORSDOF 2
ENDMDL
MODEL 5
REMARK VINA RESULT:    -3.995      8.126      9.079
REMARK INTER + INTRA:          -4.375
REMARK INTER:                  -4.346
REMARK INTRA:                  -0.029
REMARK UNBOUND:                -0.030
REMARK SMILES O=C([O-])c1ccc(O)cc1
REMARK SMILES IDX 4 1 5 2 10 3 6 4 9 5 7 6 2 7 1 8 3 9 8 10
REMARK H PARENT 8 11
REMARK Flexibility Score: inf
ROOT
ATOM      1  C   UNL     1      38.635  -7.442  10.178  1.00  0.00    -0.003 A 
ATOM      2  C   UNL     1      39.734  -8.321  10.172  1.00  0.00     0.014 A 
ATOM      3  C   UNL     1      38.463  -6.561   9.095  1.00  0.00     0.014 A 
ATOM      4  C   UNL     1      40.639  -8.317   9.106  1.00  0.00     0.047 A 
ATOM      5  C   UNL     1      39.370  -6.560   8.031  1.00  0.00     0.047 A 
ATOM      6  C   UNL     1      40.458  -7.436   8.032  1.00  0.00     0.115 A 
ENDROOT
BRANCH   1   7
ATOM      7  C   UNL     1      37.675  -7.441  11.302  1.00  0.00     0.071 C 
ATOM      8  O   UNL     1      38.072  -7.265  12.485  1.00  0.00    -0.545 OA
ATOM      9  O   UNL     1      36.318  -7.636  11.070  1.00  0.00    -0.545 OA
ENDBRANCH   1   7
BRANCH   6  10
ATOM     10  O   UNL     1      41.354  -7.424   6.965  1.00  0.00    -0.508 OA
ATOM     11  H   UNL     1      41.234  -8.034   6.166  1.00  0.00     0.293 HD
ENDBRANCH   6  10
TORSDOF 2
ENDMDL
MODEL 6
REMARK VINA RESULT:    -3.917      8.867      9.381
REMARK INTER + INTRA:          -4.290
REMARK INTER:                  -4.262
REMARK INTRA:                  -0.028
REMARK UNBOUND:                -0.030
REMARK SMILES O=C([O-])c1ccc(O)cc1
REMARK SMILES IDX 4 1 5 2 10 3 6 4 9 5 7 6 2 7 1 8 3 9 8 10
REMARK H PARENT 8 11
REMARK Flexibility Score: inf
ROOT
ATOM      1  C   UNL     1      38.864  -8.032   9.483  1.00  0.00    -0.003 A 
ATOM      2  C   UNL     1      38.001  -7.217  10.241  1.00  0.00     0.014 A 
ATOM      3  C   UNL     1      38.663  -9.424   9.486  1.00  0.00     0.014 A 
ATOM      4  C   UNL     1      36.962  -7.786  10.984  1.00  0.00     0.047 A 
ATOM      5  C   UNL     1      37.622  -9.988  10.230  1.00  0.00     0.047 A 
ATOM      6  C   UNL     1      36.770  -9.174  10.980  1.00  0.00     0.115 A 
ENDROOT
BRANCH   1   7
ATOM      7  C   UNL     1      39.965  -7.437   8.696  1.00  0.00     0.071 C 
ATOM      8  O   UNL     1      41.167  -7.651   9.009  1.00  0.00    -0.545 OA
ATOM      9  O   UNL     1      39.689  -6.631   7.597  1.00  0.00    -0.545 OA
ENDBRANCH   1   7
BRANCH   6  10
ATOM     10  O   UNL     1      35.738  -9.750  11.717  1.00  0.00    -0.508 OA
ATOM     11  H   UNL     1      35.275 -10.597  11.408  1.00  0.00     0.293 HD
ENDBRANCH   6  10
TORSDOF 2
ENDMDL
MODEL 7
REMARK VINA RESULT:    -3.910     12.641     13.703
REMARK INTER + INTRA:          -4.283
REMARK INTER:                  -4.250
REMARK INTRA:                  -0.033
REMARK UNBOUND:                -0.030
REMARK SMILES O=C([O-])c1ccc(O)cc1
REMARK SMILES IDX 4 1 5 2 10 3 6 4 9 5 7 6 2 7 1 8 3 9 8 10
REMARK H PARENT 8 11
REMARK Flexibility Score: inf
ROOT
ATOM      1  C   UNL     1      35.196  -7.661  14.308  1.00  0.00    -0.003 A 
ATOM      2  C   UNL     1      35.431  -8.624  13.309  1.00  0.00     0.014 A 
ATOM      3  C   UNL     1      36.099  -6.591  14.448  1.00  0.00     0.014 A 
ATOM      4  C   UNL     1      36.545  -8.517  12.470  1.00  0.00     0.047 A 
ATOM      5  C   UNL     1      37.211  -6.488  13.607  1.00  0.00     0.047 A 
ATOM      6  C   UNL     1      37.438  -7.448  12.618  1.00  0.00     0.115 A 
ENDROOT
BRANCH   1   7
ATOM      7  C   UNL     1      34.021  -7.769  15.199  1.00  0.00     0.071 C 
ATOM      8  O   UNL     1      32.938  -8.255  14.775  1.00  0.00    -0.545 OA
ATOM      9  O   UNL     1      34.094  -7.334  16.518  1.00  0.00    -0.545 OA
ENDBRANCH   1   7
BRANCH   6  10
ATOM     10  O   UNL     1      38.550  -7.332  11.787  1.00  0.00    -0.508 OA
ATOM     11  H   UNL     1      39.487  -7.249  12.165  1.00  0.00     0.293 HD
ENDBRANCH   6  10
TORSDOF 2
ENDMDL
MODEL 8
REMARK VINA RESULT:    -3.831      7.324      7.827
REMARK INTER + INTRA:          -4.197
REMARK INTER:                  -4.164
REMARK INTRA:                  -0.033
REMARK UNBOUND:                -0.030
REMARK SMILES O=C([O-])c1ccc(O)cc1
REMARK SMILES IDX 4 1 5 2 10 3 6 4 9 5 7 6 2 7 1 8 3 9 8 10
REMARK H PARENT 8 11
REMARK Flexibility Score: inf
ROOT
ATOM      1  C   UNL     1      40.452  -7.697   8.426  1.00  0.00    -0.003 A 
ATOM      2  C   UNL     1      40.214  -8.672   9.413  1.00  0.00     0.014 A 
ATOM      3  C   UNL     1      39.523  -6.655   8.260  1.00  0.00     0.014 A 
ATOM      4  C   UNL     1      39.070  -8.603  10.214  1.00  0.00     0.047 A 
ATOM      5  C   UNL     1      38.380  -6.590   9.064  1.00  0.00     0.047 A 
ATOM      6  C   UNL     1      38.150  -7.561  10.041  1.00  0.00     0.115 A 
ENDROOT
BRANCH   1   7
ATOM      7  C   UNL     1      41.660  -7.765   7.576  1.00  0.00     0.071 C 
ATOM      8  O   UNL     1      42.743  -8.219   8.033  1.00  0.00    -0.545 OA
ATOM      9  O   UNL     1      41.617  -7.327   6.256  1.00  0.00    -0.545 OA
ENDBRANCH   1   7
BRANCH   6  10
ATOM     10  O   UNL     1      37.007  -7.483  10.834  1.00  0.00    -0.508 OA
ATOM     11  H   UNL     1      36.719  -6.612  11.264  1.00  0.00     0.293 HD
ENDBRANCH   6  10
TORSDOF 2
ENDMDL
MODEL 9
REMARK VINA RESULT:    -3.811     16.163     18.112
REMARK INTER + INTRA:          -4.175
REMARK INTER:                  -4.149
REMARK INTRA:                  -0.027
REMARK UNBOUND:                -0.030
REMARK SMILES O=C([O-])c1ccc(O)cc1
REMARK SMILES IDX 4 1 5 2 10 3 6 4 9 5 7 6 2 7 1 8 3 9 8 10
REMARK H PARENT 8 11
REMARK Flexibility Score: inf
ROOT
ATOM      1  C   UNL     1      39.186   7.595  14.265  1.00  0.00    -0.003 A 
ATOM      2  C   UNL     1      37.885   7.724  14.787  1.00  0.00     0.014 A 
ATOM      3  C   UNL     1      40.265   7.439  15.154  1.00  0.00     0.014 A 
ATOM      4  C   UNL     1      37.672   7.699  16.169  1.00  0.00     0.047 A 
ATOM      5  C   UNL     1      40.046   7.414  16.535  1.00  0.00     0.047 A 
ATOM      6  C   UNL     1      38.753   7.543  17.046  1.00  0.00     0.115 A 
ENDROOT
BRANCH   1   7
ATOM      7  C   UNL     1      39.419   7.621  12.805  1.00  0.00     0.071 C 
ATOM      8  O   UNL     1      39.657   8.708  12.213  1.00  0.00    -0.545 OA
ATOM      9  O   UNL     1      39.378   6.445  12.064  1.00  0.00    -0.545 OA
ENDBRANCH   1   7
BRANCH   6  10
ATOM     10  O   UNL     1      38.550   7.517  18.425  1.00  0.00    -0.508 OA
ATOM     11  H   UNL     1      38.601   6.652  18.951  1.00  0.00     0.293 HD
ENDBRANCH   6  10
TORSDOF 2
ENDMDL
