MODEL 1
REMARK VINA RESULT:    -3.509      0.000      0.000
REMARK INTER + INTRA:          -4.449
REMARK INTER:                  -4.329
REMARK INTRA:                  -0.120
REMARK UNBOUND:                -0.120
REMARK SMILES CCCCCC(=O)[O-]
REMARK SMILES IDX 4 1 5 2 6 3 7 4 8 5 3 6 2 7 1 8
REMARK H PARENT
REMARK Flexibility Score: inf
ROOT
ATOM      1  C   UNL     1     -99.594  31.306 -38.230  1.00  0.00     0.006 C 
ENDROOT
BRANCH   1   2
ATOM      2  C   UNL     1    -100.537  30.555 -37.286  1.00  0.00     0.053 C 
BRANCH   2   3
ATOM      3  C   UNL     1    -101.820  31.307 -37.118  1.00  0.00     0.041 C 
ATOM      4  O   UNL     1    -102.642  31.378 -38.069  1.00  0.00    -0.550 OA
ATOM      5  O   UNL     1    -102.085  31.972 -35.928  1.00  0.00    -0.550 OA
ENDBRANCH   2   3
ENDBRANCH   1   2
BRANCH   1   6
ATOM      6  C   UNL     1     -98.935  32.495 -37.515  1.00  0.00     0.000 C 
BRANCH   6   7
ATOM      7  C   UNL     1     -98.267  33.475 -38.491  1.00  0.00    -0.003 C 
ATOM      8  C   UNL     1     -97.206  32.807 -39.365  1.00  0.00     0.004 C 
ENDBRANCH   6   7
ENDBRANCH   1   6
TORSDOF 4
ENDMDL
MODEL 2
REMARK VINA RESULT:    -3.501      0.102      1.150
REMARK INTER + INTRA:          -4.440
REMARK INTER:                  -4.325
REMARK INTRA:                  -0.115
REMARK UNBOUND:                -0.120
REMARK SMILES CCCCCC(=O)[O-]
REMARK SMILES IDX 4 1 5 2 6 3 7 4 8 5 3 6 2 7 1 8
REMARK H PARENT
REMARK Flexibility Score: inf
ROOT
ATOM      1  C   UNL     1     -99.614  31.298 -38.169  1.00  0.00     0.006 C 
ENDROOT
BRANCH   1   2
ATOM      2  C   UNL     1    -100.592  30.582 -37.233  1.00  0.00     0.053 C 
BRANCH   2   3
ATOM      3  C   UNL     1    -101.873  31.349 -37.127  1.00  0.00     0.041 C 
ATOM      4  O   UNL     1    -102.185  31.915 -36.046  1.00  0.00    -0.550 OA
ATOM      5  O   UNL     1    -102.745  31.399 -38.208  1.00  0.00    -0.550 OA
ENDBRANCH   2   3
ENDBRANCH   1   2
BRANCH   1   6
ATOM      6  C   UNL     1     -98.967  32.502 -37.470  1.00  0.00     0.000 C 
BRANCH   6   7
ATOM      7  C   UNL     1     -98.297  33.469 -38.459  1.00  0.00    -0.003 C 
ATOM      8  C   UNL     1     -97.209  32.798 -39.296  1.00  0.00     0.004 C 
ENDBRANCH   6   7
ENDBRANCH   1   6
TORSDOF 4
ENDMDL
MODEL 3
REMARK VINA RESULT:    -3.483      2.281      2.680
REMARK INTER + INTRA:          -4.417
REMARK INTER:                  -4.351
REMARK INTRA:                  -0.066
REMARK UNBOUND:                -0.120
REMARK SMILES CCCCCC(=O)[O-]
REMARK SMILES IDX 4 1 5 2 6 3 7 4 8 5 3 6 2 7 1 8
REMARK H PARENT
REMARK Flexibility Score: inf
ROOT
ATOM      1  C   UNL     1    -100.011  32.139 -36.622  1.00  0.00     0.006 C 
ENDROOT
BRANCH   1   2
ATOM      2  C   UNL     1    -100.288  30.768 -35.998  1.00  0.00     0.053 C 
BRANCH   2   3
ATOM      3  C   UNL     1     -99.733  30.702 -34.610  1.00  0.00     0.041 C 
ATOM      4  O   UNL     1     -98.513  30.451 -34.428  1.00  0.00    -0.550 OA
ATOM      5  O   UNL     1    -100.573  30.868 -33.516  1.00  0.00    -0.550 OA
ENDBRANCH   2   3
ENDBRANCH   1   2
BRANCH   1   6
ATOM      6  C   UNL     1     -99.252  31.995 -37.950  1.00  0.00     0.000 C 
BRANCH   6   7
ATOM      7  C   UNL     1     -98.309  33.177 -38.222  1.00  0.00    -0.003 C 
ATOM      8  C   UNL     1     -97.236  32.848 -39.259  1.00  0.00     0.004 C 
ENDBRANCH   6   7
ENDBRANCH   1   6
TORSDOF 4
ENDMDL
MODEL 4
REMARK VINA RESULT:    -3.453      1.824      2.191
REMARK INTER + INTRA:          -4.380
REMARK INTER:                  -4.319
REMARK INTRA:                  -0.061
REMARK UNBOUND:                -0.120
REMARK SMILES CCCCCC(=O)[O-]
REMARK SMILES IDX 4 1 5 2 6 3 7 4 8 5 3 6 2 7 1 8
REMARK H PARENT
REMARK Flexibility Score: inf
ROOT
ATOM      1  C   UNL     1    -100.224  31.947 -36.944  1.00  0.00     0.006 C 
ENDROOT
BRANCH   1   2
ATOM      2  C   UNL     1     -99.686  31.387 -35.624  1.00  0.00     0.053 C 
BRANCH   2   3
ATOM      3  C   UNL     1    -100.743  31.434 -34.565  1.00  0.00     0.041 C 
ATOM      4  O   UNL     1    -101.759  32.162 -34.717  1.00  0.00    -0.550 OA
ATOM      5  O   UNL     1    -100.582  30.711 -33.390  1.00  0.00    -0.550 OA
ENDBRANCH   2   3
ENDBRANCH   1   2
BRANCH   1   6
ATOM      6  C   UNL     1     -99.189  31.791 -38.068  1.00  0.00     0.000 C 
BRANCH   6   7
ATOM      7  C   UNL     1     -98.308  33.039 -38.237  1.00  0.00    -0.003 C 
ATOM      8  C   UNL     1     -97.237  32.864 -39.313  1.00  0.00     0.004 C 
ENDBRANCH   6   7
ENDBRANCH   1   6
TORSDOF 4
ENDMDL
MODEL 5
REMARK VINA RESULT:    -3.206      3.031      4.168
REMARK INTER + INTRA:          -4.076
REMARK INTER:                  -3.919
REMARK INTRA:                  -0.157
REMARK UNBOUND:                -0.120
REMARK SMILES CCCCCC(=O)[O-]
REMARK SMILES IDX 4 1 5 2 6 3 7 4 8 5 3 6 2 7 1 8
REMARK H PARENT
REMARK Flexibility Score: inf
ROOT
ATOM      1  C   UNL     1    -100.330  31.730 -37.500  1.00  0.00     0.006 C 
ENDROOT
BRANCH   1   2
ATOM      2  C   UNL     1     -99.122  31.536 -38.421  1.00  0.00     0.053 C 
BRANCH   2   3
ATOM      3  C   UNL     1     -98.288  32.778 -38.459  1.00  0.00     0.041 C 
ATOM      4  O   UNL     1     -98.653  33.806 -37.831  1.00  0.00    -0.550 OA
ATOM      5  O   UNL     1     -97.131  32.815 -39.228  1.00  0.00    -0.550 OA
ENDBRANCH   2   3
ENDBRANCH   1   2
BRANCH   1   6
ATOM      6  C   UNL     1    -100.307  30.717 -36.345  1.00  0.00     0.000 C 
BRANCH   6   7
ATOM      7  C   UNL     1     -99.626  31.272 -35.085  1.00  0.00    -0.003 C 
ATOM      8  C   UNL     1     -98.793  30.221 -34.352  1.00  0.00     0.004 C 
ENDBRANCH   6   7
ENDBRANCH   1   6
TORSDOF 4
ENDMDL
MODEL 6
REMARK VINA RESULT:    -3.191      3.119      4.655
REMARK INTER + INTRA:          -4.057
REMARK INTER:                  -3.986
REMARK INTRA:                  -0.071
REMARK UNBOUND:                -0.120
REMARK SMILES CCCCCC(=O)[O-]
REMARK SMILES IDX 4 1 5 2 6 3 7 4 8 5 3 6 2 7 1 8
REMARK H PARENT
REMARK Flexibility Score: inf
ROOT
ATOM      1  C   UNL     1     -99.387  31.962 -37.759  1.00  0.00     0.006 C 
ENDROOT
BRANCH   1   2
ATOM      2  C   UNL     1     -98.568  33.232 -38.008  1.00  0.00     0.053 C 
BRANCH   2   3
ATOM      3  C   UNL     1     -97.825  33.130 -39.302  1.00  0.00     0.041 C 
ATOM      4  O   UNL     1     -96.657  32.660 -39.328  1.00  0.00    -0.550 OA
ATOM      5  O   UNL     1     -98.404  33.601 -40.475  1.00  0.00    -0.550 OA
ENDBRANCH   2   3
ENDBRANCH   1   2
BRANCH   1   6
ATOM      6  C   UNL     1     -99.711  31.802 -36.265  1.00  0.00     0.000 C 
BRANCH   6   7
ATOM      7  C   UNL     1    -101.155  31.337 -36.021  1.00  0.00    -0.003 C 
ATOM      8  C   UNL     1    -102.013  32.405 -35.344  1.00  0.00     0.004 C 
ENDBRANCH   6   7
ENDBRANCH   1   6
TORSDOF 4
ENDMDL
MODEL 7
REMARK VINA RESULT:    -3.049      2.780      4.364
REMARK INTER + INTRA:          -3.882
REMARK INTER:                  -3.777
REMARK INTRA:                  -0.105
REMARK UNBOUND:                -0.120
REMARK SMILES CCCCCC(=O)[O-]
REMARK SMILES IDX 4 1 5 2 6 3 7 4 8 5 3 6 2 7 1 8
REMARK H PARENT
REMARK Flexibility Score: inf
ROOT
ATOM      1  C   UNL     1    -100.135  31.864 -37.177  1.00  0.00     0.006 C 
ENDROOT
BRANCH   1   2
ATOM      2  C   UNL     1     -99.174  31.596 -38.339  1.00  0.00     0.053 C 
BRANCH   2   3
ATOM      3  C   UNL     1     -98.266  32.767 -38.548  1.00  0.00     0.041 C 
ATOM      4  O   UNL     1     -98.518  33.871 -37.998  1.00  0.00    -0.550 OA
ATOM      5  O   UNL     1     -97.167  32.652 -39.391  1.00  0.00    -0.550 OA
ENDBRANCH   2   3
ENDBRANCH   1   2
BRANCH   1   6
ATOM      6  C   UNL     1    -101.038  30.648 -36.921  1.00  0.00     0.000 C 
BRANCH   6   7
ATOM      7  C   UNL     1    -101.939  30.317 -38.121  1.00  0.00    -0.003 C 
ATOM      8  C   UNL     1    -103.096  31.303 -38.279  1.00  0.00     0.004 C 
ENDBRANCH   6   7
ENDBRANCH   1   6
TORSDOF 4
ENDMDL
MODEL 8
REMARK VINA RESULT:    -2.931     14.624     15.354
REMARK INTER + INTRA:          -3.736
REMARK INTER:                  -3.541
REMARK INTRA:                  -0.195
REMARK UNBOUND:                -0.120
REMARK SMILES CCCCCC(=O)[O-]
REMARK SMILES IDX 4 1 5 2 6 3 7 4 8 5 3 6 2 7 1 8
REMARK H PARENT
REMARK Flexibility Score: inf
ROOT
ATOM      1  C   UNL     1     -95.650  45.473 -36.732  1.00  0.00     0.006 C 
ENDROOT
BRANCH   1   2
ATOM      2  C   UNL     1     -95.707  46.787 -35.948  1.00  0.00     0.053 C 
BRANCH   2   3
ATOM      3  C   UNL     1     -97.122  47.132 -35.606  1.00  0.00     0.041 C 
ATOM      4  O   UNL     1     -97.407  47.577 -34.463  1.00  0.00    -0.550 OA
ATOM      5  O   UNL     1     -98.134  46.915 -36.533  1.00  0.00    -0.550 OA
ENDBRANCH   2   3
ENDBRANCH   1   2
BRANCH   1   6
ATOM      6  C   UNL     1     -95.004  45.683 -38.109  1.00  0.00     0.000 C 
BRANCH   6   7
ATOM      7  C   UNL     1     -96.040  45.937 -39.215  1.00  0.00    -0.003 C 
ATOM      8  C   UNL     1     -95.829  47.274 -39.926  1.00  0.00     0.004 C 
ENDBRANCH   6   7
ENDBRANCH   1   6
TORSDOF 4
ENDMDL
MODEL 9
REMARK VINA RESULT:    -2.824      1.860      2.357
REMARK INTER + INTRA:          -3.605
REMARK INTER:                  -3.544
REMARK INTRA:                  -0.061
REMARK UNBOUND:                -0.120
REMARK SMILES CCCCCC(=O)[O-]
REMARK SMILES IDX 4 1 5 2 6 3 7 4 8 5 3 6 2 7 1 8
REMARK H PARENT
REMARK Flexibility Score: inf
ROOT
ATOM      1  C   UNL     1    -101.345  31.714 -36.436  1.00  0.00     0.006 C 
ENDROOT
BRANCH   1   2
ATOM      2  C   UNL     1    -102.015  32.492 -35.300  1.00  0.00     0.053 C 
BRANCH   2   3
ATOM      3  C   UNL     1    -103.491  32.580 -35.524  1.00  0.00     0.041 C 
ATOM      4  O   UNL     1    -103.976  32.327 -36.659  1.00  0.00    -0.550 OA
ATOM      5  O   UNL     1    -104.328  32.990 -34.494  1.00  0.00    -0.550 OA
ENDBRANCH   2   3
ENDBRANCH   1   2
BRANCH   1   6
ATOM      6  C   UNL     1     -99.842  32.027 -36.504  1.00  0.00     0.000 C 
BRANCH   6   7
ATOM      7  C   UNL     1     -99.304  32.031 -37.943  1.00  0.00    -0.003 C 
ATOM      8  C   UNL     1     -98.380  33.216 -38.225  1.00  0.00     0.004 C 
ENDBRANCH   6   7
ENDBRANCH   1   6
TORSDOF 4
ENDMDL
