MODEL 1
REMARK VINA RESULT:    -4.711      0.000      0.000
REMARK INTER + INTRA:          -5.079
REMARK INTER:                  -4.986
REMARK INTRA:                  -0.093
REMARK UNBOUND:                -0.093
REMARK SMILES C=C(C)[C@H]1CC=C(C)C(=O)C1
REMARK SMILES IDX 8 1 7 2 6 3 5 4 4 5 11 6 9 7 10 8 2 9 1 10 3 11
REMARK H PARENT
REMARK Flexibility Score: inf
ROOT
ATOM      1  C   UNL     1       5.224  -1.220   2.389  1.00  0.00     0.048 C 
ATOM      2  C   UNL     1       5.174  -1.578   0.930  1.00  0.00    -0.012 C 
ATOM      3  C   UNL     1       4.832  -0.647   0.024  1.00  0.00    -0.019 C 
ATOM      4  C   UNL     1       4.748  -0.957  -1.448  1.00  0.00     0.036 C 
ATOM      5  C   UNL     1       5.782  -2.026  -1.848  1.00  0.00     0.025 C 
ATOM      6  C   UNL     1       5.615  -3.284  -0.976  1.00  0.00     0.089 C 
ATOM      7  C   UNL     1       5.621  -2.921   0.483  1.00  0.00     0.158 C 
ATOM      8  O   UNL     1       5.977  -3.785   1.329  1.00  0.00    -0.295 OA
ENDROOT
BRANCH   5   9
ATOM      9  C   UNL     1       5.708  -2.355  -3.331  1.00  0.00    -0.077 C 
ATOM     10  C   UNL     1       6.800  -2.314  -4.115  1.00  0.00     0.008 C 
ATOM     11  C   UNL     1       4.374  -2.735  -3.919  1.00  0.00     0.039 C 
ENDBRANCH   5   9
TORSDOF 1
ENDMDL
MODEL 2
REMARK VINA RESULT:    -4.515      2.031      4.528
REMARK INTER + INTRA:          -4.872
REMARK INTER:                  -4.780
REMARK INTRA:                  -0.093
REMARK UNBOUND:                -0.093
REMARK SMILES C=C(C)[C@H]1CC=C(C)C(=O)C1
REMARK SMILES IDX 8 1 7 2 6 3 5 4 4 5 11 6 9 7 10 8 2 9 1 10 3 11
REMARK H PARENT
REMARK Flexibility Score: inf
ROOT
ATOM      1  C   UNL     1       5.171  -4.703  -5.287  1.00  0.00     0.048 C 
ATOM      2  C   UNL     1       5.214  -3.750  -4.125  1.00  0.00    -0.012 C 
ATOM      3  C   UNL     1       6.045  -2.694  -4.155  1.00  0.00    -0.019 C 
ATOM      4  C   UNL     1       6.140  -1.720  -3.010  1.00  0.00     0.036 C 
ATOM      5  C   UNL     1       4.782  -1.565  -2.300  1.00  0.00     0.025 C 
ATOM      6  C   UNL     1       4.253  -2.940  -1.852  1.00  0.00     0.089 C 
ATOM      7  C   UNL     1       4.252  -3.906  -3.005  1.00  0.00     0.158 C 
ATOM      8  O   UNL     1       3.446  -4.876  -2.992  1.00  0.00    -0.295 OA
ENDROOT
BRANCH   5   9
ATOM      9  C   UNL     1       4.863  -0.587  -1.138  1.00  0.00    -0.077 C 
ATOM     10  C   UNL     1       4.689   0.734  -1.319  1.00  0.00     0.008 C 
ATOM     11  C   UNL     1       5.141  -1.128   0.241  1.00  0.00     0.039 C 
ENDBRANCH   5   9
TORSDOF 1
ENDMDL
MODEL 3
REMARK VINA RESULT:    -4.487      2.034      4.530
REMARK INTER + INTRA:          -4.842
REMARK INTER:                  -4.747
REMARK INTRA:                  -0.095
REMARK UNBOUND:                -0.093
REMARK SMILES C=C(C)[C@H]1CC=C(C)C(=O)C1
REMARK SMILES IDX 8 1 7 2 6 3 5 4 4 5 11 6 9 7 10 8 2 9 1 10 3 11
REMARK H PARENT
REMARK Flexibility Score: inf
ROOT
ATOM      1  C   UNL     1       5.066  -4.628  -5.322  1.00  0.00     0.048 C 
ATOM      2  C   UNL     1       5.150  -3.704  -4.139  1.00  0.00    -0.012 C 
ATOM      3  C   UNL     1       6.003  -2.665  -4.161  1.00  0.00    -0.019 C 
ATOM      4  C   UNL     1       6.140  -1.720  -2.996  1.00  0.00     0.036 C 
ATOM      5  C   UNL     1       4.799  -1.554  -2.257  1.00  0.00     0.025 C 
ATOM      6  C   UNL     1       4.249  -2.928  -1.831  1.00  0.00     0.089 C 
ATOM      7  C   UNL     1       4.206  -3.867  -3.005  1.00  0.00     0.158 C 
ATOM      8  O   UNL     1       3.380  -4.819  -3.000  1.00  0.00    -0.295 OA
ENDROOT
BRANCH   5   9
ATOM      9  C   UNL     1       4.921  -0.606  -1.074  1.00  0.00    -0.077 C 
ATOM     10  C   UNL     1       5.259  -1.049   0.149  1.00  0.00     0.008 C 
ATOM     11  C   UNL     1       4.657   0.861  -1.296  1.00  0.00     0.039 C 
ENDBRANCH   5   9
TORSDOF 1
ENDMDL
MODEL 4
REMARK VINA RESULT:    -4.321      2.291      4.335
REMARK INTER + INTRA:          -4.667
REMARK INTER:                  -4.570
REMARK INTRA:                  -0.096
REMARK UNBOUND:                -0.093
REMARK SMILES C=C(C)[C@H]1CC=C(C)C(=O)C1
REMARK SMILES IDX 8 1 7 2 6 3 5 4 4 5 11 6 9 7 10 8 2 9 1 10 3 11
REMARK H PARENT
REMARK Flexibility Score: inf
ROOT
ATOM      1  C   UNL     1       6.398  -6.539  -2.509  1.00  0.00     0.048 C 
ATOM      2  C   UNL     1       5.975  -5.272  -1.819  1.00  0.00    -0.012 C 
ATOM      3  C   UNL     1       6.665  -4.826  -0.756  1.00  0.00    -0.019 C 
ATOM      4  C   UNL     1       6.273  -3.573  -0.018  1.00  0.00     0.036 C 
ATOM      5  C   UNL     1       5.647  -2.540  -0.973  1.00  0.00     0.025 C 
ATOM      6  C   UNL     1       4.462  -3.164  -1.734  1.00  0.00     0.089 C 
ATOM      7  C   UNL     1       4.874  -4.454  -2.387  1.00  0.00     0.158 C 
ATOM      8  O   UNL     1       4.248  -4.853  -3.407  1.00  0.00    -0.295 OA
ENDROOT
BRANCH   5   9
ATOM      9  C   UNL     1       5.241  -1.270  -0.243  1.00  0.00    -0.077 C 
ATOM     10  C   UNL     1       5.142  -1.232   1.098  1.00  0.00     0.008 C 
ATOM     11  C   UNL     1       4.949  -0.033  -1.053  1.00  0.00     0.039 C 
ENDBRANCH   5   9
TORSDOF 1
ENDMDL
MODEL 5
REMARK VINA RESULT:    -4.244      1.743      2.627
REMARK INTER + INTRA:          -4.585
REMARK INTER:                  -4.493
REMARK INTRA:                  -0.092
REMARK UNBOUND:                -0.093
REMARK SMILES C=C(C)[C@H]1CC=C(C)C(=O)C1
REMARK SMILES IDX 8 1 7 2 6 3 5 4 4 5 11 6 9 7 10 8 2 9 1 10 3 11
REMARK H PARENT
REMARK Flexibility Score: inf
ROOT
ATOM      1  C   UNL     1       5.237  -1.485   1.418  1.00  0.00     0.048 C 
ATOM      2  C   UNL     1       5.237  -1.893  -0.028  1.00  0.00    -0.012 C 
ATOM      3  C   UNL     1       5.398  -3.186  -0.359  1.00  0.00    -0.019 C 
ATOM      4  C   UNL     1       5.424  -3.646  -1.793  1.00  0.00     0.036 C 
ATOM      5  C   UNL     1       4.511  -2.772  -2.672  1.00  0.00     0.025 C 
ATOM      6  C   UNL     1       4.893  -1.287  -2.529  1.00  0.00     0.089 C 
ATOM      7  C   UNL     1       4.936  -0.889  -1.080  1.00  0.00     0.158 C 
ATOM      8  O   UNL     1       4.749   0.318  -0.769  1.00  0.00    -0.295 OA
ENDROOT
BRANCH   5   9
ATOM      9  C   UNL     1       4.529  -3.221  -4.125  1.00  0.00    -0.077 C 
ATOM     10  C   UNL     1       3.460  -3.807  -4.693  1.00  0.00     0.008 C 
ATOM     11  C   UNL     1       5.780  -2.993  -4.934  1.00  0.00     0.039 C 
ENDBRANCH   5   9
TORSDOF 1
ENDMDL
MODEL 6
REMARK VINA RESULT:    -4.213      2.298      4.686
REMARK INTER + INTRA:          -4.552
REMARK INTER:                  -4.457
REMARK INTRA:                  -0.095
REMARK UNBOUND:                -0.093
REMARK SMILES C=C(C)[C@H]1CC=C(C)C(=O)C1
REMARK SMILES IDX 8 1 7 2 6 3 5 4 4 5 11 6 9 7 10 8 2 9 1 10 3 11
REMARK H PARENT
REMARK Flexibility Score: inf
ROOT
ATOM      1  C   UNL     1       9.223  -3.346  -4.513  1.00  0.00     0.048 C 
ATOM      2  C   UNL     1       8.301  -2.573  -3.611  1.00  0.00    -0.012 C 
ATOM      3  C   UNL     1       6.981  -2.551  -3.862  1.00  0.00    -0.019 C 
ATOM      4  C   UNL     1       6.017  -1.778  -3.001  1.00  0.00     0.036 C 
ATOM      5  C   UNL     1       6.486  -1.747  -1.534  1.00  0.00     0.025 C 
ATOM      6  C   UNL     1       7.921  -1.196  -1.443  1.00  0.00     0.089 C 
ATOM      7  C   UNL     1       8.834  -1.940  -2.378  1.00  0.00     0.158 C 
ATOM      8  O   UNL     1      10.067  -1.990  -2.121  1.00  0.00    -0.295 OA
ENDROOT
BRANCH   5   9
ATOM      9  C   UNL     1       5.526  -0.966  -0.652  1.00  0.00    -0.077 C 
ATOM     10  C   UNL     1       4.910   0.145  -1.095  1.00  0.00     0.008 C 
ATOM     11  C   UNL     1       5.266  -1.462   0.747  1.00  0.00     0.039 C 
ENDBRANCH   5   9
TORSDOF 1
ENDMDL
MODEL 7
REMARK VINA RESULT:    -4.198      1.797      2.896
REMARK INTER + INTRA:          -4.537
REMARK INTER:                  -4.439
REMARK INTRA:                  -0.098
REMARK UNBOUND:                -0.093
REMARK SMILES C=C(C)[C@H]1CC=C(C)C(=O)C1
REMARK SMILES IDX 8 1 7 2 6 3 5 4 4 5 11 6 9 7 10 8 2 9 1 10 3 11
REMARK H PARENT
REMARK Flexibility Score: inf
ROOT
ATOM      1  C   UNL     1       4.584   0.813  -1.194  1.00  0.00     0.048 C 
ATOM      2  C   UNL     1       4.765  -0.668  -1.373  1.00  0.00    -0.012 C 
ATOM      3  C   UNL     1       4.756  -1.199  -2.608  1.00  0.00    -0.019 C 
ATOM      4  C   UNL     1       4.915  -2.679  -2.841  1.00  0.00     0.036 C 
ATOM      5  C   UNL     1       5.828  -3.313  -1.775  1.00  0.00     0.025 C 
ATOM      6  C   UNL     1       5.299  -3.000  -0.364  1.00  0.00     0.089 C 
ATOM      7  C   UNL     1       5.076  -1.522  -0.199  1.00  0.00     0.158 C 
ATOM      8  O   UNL     1       5.121  -1.019   0.957  1.00  0.00    -0.295 OA
ENDROOT
BRANCH   5   9
ATOM      9  C   UNL     1       5.995  -4.809  -1.995  1.00  0.00    -0.077 C 
ATOM     10  C   UNL     1       5.492  -5.420  -3.082  1.00  0.00     0.008 C 
ATOM     11  C   UNL     1       6.746  -5.609  -0.962  1.00  0.00     0.039 C 
ENDBRANCH   5   9
TORSDOF 1
ENDMDL
MODEL 8
REMARK VINA RESULT:    -4.040     14.526     15.843
REMARK INTER + INTRA:          -4.369
REMARK INTER:                  -4.278
REMARK INTRA:                  -0.092
REMARK UNBOUND:                -0.093
REMARK SMILES C=C(C)[C@H]1CC=C(C)C(=O)C1
REMARK SMILES IDX 8 1 7 2 6 3 5 4 4 5 11 6 9 7 10 8 2 9 1 10 3 11
REMARK H PARENT
REMARK Flexibility Score: inf
ROOT
ATOM      1  C   UNL     1      -7.244   2.049   0.892  1.00  0.00     0.048 C 
ATOM      2  C   UNL     1      -7.567   3.505   0.709  1.00  0.00    -0.012 C 
ATOM      3  C   UNL     1      -8.791   3.872   0.291  1.00  0.00    -0.019 C 
ATOM      4  C   UNL     1      -9.161   5.316   0.075  1.00  0.00     0.036 C 
ATOM      5  C   UNL     1      -8.417   6.233   1.063  1.00  0.00     0.025 C 
ATOM      6  C   UNL     1      -6.897   6.000   0.969  1.00  0.00     0.089 C 
ATOM      7  C   UNL     1      -6.577   4.538   1.108  1.00  0.00     0.158 C 
ATOM      8  O   UNL     1      -5.441   4.195   1.534  1.00  0.00    -0.295 OA
ENDROOT
BRANCH   5   9
ATOM      9  C   UNL     1      -8.775   7.696   0.854  1.00  0.00    -0.077 C 
ATOM     10  C   UNL     1      -9.511   8.374   1.753  1.00  0.00     0.008 C 
ATOM     11  C   UNL     1      -8.285   8.388  -0.391  1.00  0.00     0.039 C 
ENDBRANCH   5   9
TORSDOF 1
ENDMDL
MODEL 9
REMARK VINA RESULT:    -4.027      2.403      4.739
REMARK INTER + INTRA:          -4.355
REMARK INTER:                  -4.258
REMARK INTRA:                  -0.097
REMARK UNBOUND:                -0.093
REMARK SMILES C=C(C)[C@H]1CC=C(C)C(=O)C1
REMARK SMILES IDX 8 1 7 2 6 3 5 4 4 5 11 6 9 7 10 8 2 9 1 10 3 11
REMARK H PARENT
REMARK Flexibility Score: inf
ROOT
ATOM      1  C   UNL     1       6.045  -5.083  -4.815  1.00  0.00     0.048 C 
ATOM      2  C   UNL     1       5.696  -4.010  -3.822  1.00  0.00    -0.012 C 
ATOM      3  C   UNL     1       4.938  -4.307  -2.753  1.00  0.00    -0.019 C 
ATOM      4  C   UNL     1       4.544  -3.265  -1.739  1.00  0.00     0.036 C 
ATOM      5  C   UNL     1       5.644  -2.198  -1.585  1.00  0.00     0.025 C 
ATOM      6  C   UNL     1       5.984  -1.580  -2.953  1.00  0.00     0.089 C 
ATOM      7  C   UNL     1       6.291  -2.656  -3.958  1.00  0.00     0.158 C 
ATOM      8  O   UNL     1       7.033  -2.385  -4.941  1.00  0.00    -0.295 OA
ENDROOT
BRANCH   5   9
ATOM      9  C   UNL     1       5.259  -1.136  -0.567  1.00  0.00    -0.077 C 
ATOM     10  C   UNL     1       4.883   0.098  -0.948  1.00  0.00     0.008 C 
ATOM     11  C   UNL     1       5.304  -1.490   0.897  1.00  0.00     0.039 C 
ENDBRANCH   5   9
TORSDOF 1
ENDMDL
