MODEL 1
REMARK VINA RESULT:    -3.798      0.000      0.000
REMARK INTER + INTRA:          -5.274
REMARK INTER:                  -5.352
REMARK INTRA:                   0.078
REMARK UNBOUND:                 0.078
REMARK SMILES CC1=CCC(=C(C)C)C(=O)CC(C)=CCC1
REMARK SMILES IDX 12 1 14 2 13 3 15 4 16 5 2 6 1 7 3 8 11 10 9 11 10 12 5 13
REMARK SMILES IDX 6 14 7 15 8 16 4 17
REMARK H PARENT
REMARK Flexibility Score: 60.00
ROOT
ATOM      1  C   UNL     1       5.653  -1.111  -1.169  1.00  0.00    -0.070 C 
ATOM      2  C   UNL     1       6.992  -1.198  -0.924  1.00  0.00    -0.027 C 
ATOM      3  C   UNL     1       4.772  -0.749   0.005  1.00  0.00     0.039 C 
ENDROOT
BRANCH   2   4
ATOM      4  C   UNL     1       8.171  -1.478  -1.850  1.00  0.00     0.032 C 
BRANCH   4   5
ATOM      5  C   UNL     1       8.934  -2.792  -1.638  1.00  0.00     0.034 C 
BRANCH   5   6
ATOM      6  C   UNL     1       8.196  -4.112  -1.900  1.00  0.00    -0.077 C 
ATOM      7  C   UNL     1       8.377  -5.177  -0.840  1.00  0.00     0.039 C 
ATOM      8  C   UNL     1       7.335  -4.430  -2.911  1.00  0.00    -0.023 CG0
ATOM      9  G   UNL     1       6.859  -3.621  -4.103  1.00  0.00     0.000 G0
ENDBRANCH   5   6
ENDBRANCH   4   5
ENDBRANCH   2   4
BRANCH   1  10
ATOM     10  C   UNL     1       4.950  -1.346  -2.497  1.00  0.00     0.111 C 
BRANCH  10  11
ATOM     11  C   UNL     1       4.818  -2.806  -2.806  1.00  0.00     0.163 C 
ATOM     12  O   UNL     1       4.209  -3.551  -1.991  1.00  0.00    -0.294 OA
BRANCH  11  13
ATOM     13  C   UNL     1       5.359  -3.367  -4.071  1.00  0.00    -0.002 C 
ATOM     14  C   UNL     1       4.549  -3.629  -5.138  1.00  0.00    -0.069 C 
ATOM     15  C   UNL     1       3.048  -3.475  -5.037  1.00  0.00     0.039 C 
ATOM     16  C   UNL     1       5.109  -4.098  -6.462  1.00  0.00     0.039 C 
BRANCH  13  17
ATOM     17  C   UNL     1       6.852  -3.611  -4.106  1.00  0.00     0.066 CG0
ATOM     18  G   UNL     1       7.324  -4.426  -2.918  1.00  0.00     0.000 G0
ENDBRANCH  13  17
ENDBRANCH  11  13
ENDBRANCH  10  11
ENDBRANCH   1  10
TORSDOF 0
ENDMDL
MODEL 2
REMARK VINA RESULT:    -3.721      1.586      2.835
REMARK INTER + INTRA:          -5.166
REMARK INTER:                  -5.063
REMARK INTRA:                  -0.103
REMARK UNBOUND:                 0.078
REMARK SMILES CC1=CCC(=C(C)C)C(=O)CC(C)=CCC1
REMARK SMILES IDX 12 1 14 2 13 3 15 4 16 5 2 6 1 7 3 8 11 10 9 11 10 12 5 13
REMARK SMILES IDX 6 14 7 15 8 16 4 17
REMARK H PARENT
REMARK Flexibility Score: 60.00
ROOT
ATOM      1  C   UNL     1       5.918  -1.325  -1.253  1.00  0.00    -0.070 C 
ATOM      2  C   UNL     1       7.230  -1.137  -0.928  1.00  0.00    -0.027 C 
ATOM      3  C   UNL     1       4.896  -0.816  -0.263  1.00  0.00     0.039 C 
ENDROOT
BRANCH   2   4
ATOM      4  C   UNL     1       8.514  -1.458  -1.687  1.00  0.00     0.032 C 
BRANCH   4   5
ATOM      5  C   UNL     1       8.716  -2.908  -2.144  1.00  0.00     0.034 C 
BRANCH   5   6
ATOM      6  C   UNL     1       8.420  -3.258  -3.609  1.00  0.00    -0.077 C 
ATOM      7  C   UNL     1       9.315  -2.588  -4.629  1.00  0.00     0.039 C 
ATOM      8  C   UNL     1       7.518  -4.150  -4.115  1.00  0.00    -0.023 CG0
ATOM      9  G   UNL     1       6.509  -5.045  -3.420  1.00  0.00     0.000 G0
ENDBRANCH   5   6
ENDBRANCH   4   5
ENDBRANCH   2   4
BRANCH   1  10
ATOM     10  C   UNL     1       5.375  -2.001  -2.502  1.00  0.00     0.111 C 
BRANCH  10  11
ATOM     11  C   UNL     1       4.954  -3.413  -2.233  1.00  0.00     0.163 C 
ATOM     12  O   UNL     1       3.724  -3.678  -2.144  1.00  0.00    -0.294 OA
BRANCH  11  13
ATOM     13  C   UNL     1       5.962  -4.498  -2.112  1.00  0.00    -0.002 C 
ATOM     14  C   UNL     1       6.375  -4.956  -0.895  1.00  0.00    -0.069 C 
ATOM     15  C   UNL     1       5.915  -4.296   0.386  1.00  0.00     0.039 C 
ATOM     16  C   UNL     1       7.317  -6.131  -0.768  1.00  0.00     0.039 C 
BRANCH  13  17
ATOM     17  C   UNL     1       6.484  -5.069  -3.414  1.00  0.00     0.066 CG0
ATOM     18  G   UNL     1       7.492  -4.148  -4.075  1.00  0.00     0.000 G0
ENDBRANCH  13  17
ENDBRANCH  11  13
ENDBRANCH  10  11
ENDBRANCH   1  10
TORSDOF 0
ENDMDL
MODEL 3
REMARK VINA RESULT:    -3.666      1.630      4.074
REMARK INTER + INTRA:          -5.088
REMARK INTER:                  -5.046
REMARK INTRA:                  -0.041
REMARK UNBOUND:                 0.078
REMARK SMILES CC1=CCC(=C(C)C)C(=O)CC(C)=CCC1
REMARK SMILES IDX 12 1 14 2 13 3 15 4 16 5 2 6 1 7 3 8 11 10 9 11 10 12 5 13
REMARK SMILES IDX 6 14 7 15 8 16 4 17
REMARK H PARENT
REMARK Flexibility Score: 60.00
ROOT
ATOM      1  C   UNL     1       5.567  -1.541  -0.102  1.00  0.00    -0.070 C 
ATOM      2  C   UNL     1       4.744  -1.125  -1.107  1.00  0.00    -0.027 C 
ATOM      3  C   UNL     1       5.124  -1.226   1.308  1.00  0.00     0.039 C 
ENDROOT
BRANCH   2   4
ATOM      4  C   UNL     1       4.827  -1.306  -2.620  1.00  0.00     0.032 C 
BRANCH   4   5
ATOM      5  C   UNL     1       4.704  -2.734  -3.164  1.00  0.00     0.034 C 
BRANCH   5   6
ATOM      6  C   UNL     1       5.937  -3.373  -3.819  1.00  0.00    -0.077 C 
ATOM      7  C   UNL     1       6.406  -2.714  -5.098  1.00  0.00     0.039 C 
ATOM      8  C   UNL     1       6.717  -4.398  -3.366  1.00  0.00    -0.023 CG0
ATOM      9  G   UNL     1       6.610  -5.251  -2.116  1.00  0.00     0.000 G0
ENDBRANCH   5   6
ENDBRANCH   4   5
ENDBRANCH   2   4
BRANCH   1  10
ATOM     10  C   UNL     1       6.887  -2.281  -0.250  1.00  0.00     0.111 C 
BRANCH  10  11
ATOM     11  C   UNL     1       6.720  -3.759  -0.074  1.00  0.00     0.163 C 
ATOM     12  O   UNL     1       5.940  -4.184   0.822  1.00  0.00    -0.294 OA
BRANCH  11  13
ATOM     13  C   UNL     1       7.426  -4.715  -0.964  1.00  0.00    -0.002 C 
ATOM     14  C   UNL     1       8.723  -5.077  -0.737  1.00  0.00    -0.069 C 
ATOM     15  C   UNL     1       9.535  -4.426   0.359  1.00  0.00     0.039 C 
ATOM     16  C   UNL     1       9.410  -6.131  -1.575  1.00  0.00     0.039 C 
BRANCH  13  17
ATOM     17  C   UNL     1       6.619  -5.272  -2.117  1.00  0.00     0.066 CG0
ATOM     18  G   UNL     1       6.713  -4.396  -3.352  1.00  0.00     0.000 G0
ENDBRANCH  13  17
ENDBRANCH  11  13
ENDBRANCH  10  11
ENDBRANCH   1  10
TORSDOF 0
ENDMDL
MODEL 4
REMARK VINA RESULT:    -3.662      1.779      2.990
REMARK INTER + INTRA:          -5.082
REMARK INTER:                  -5.364
REMARK INTRA:                   0.281
REMARK UNBOUND:                 0.078
REMARK SMILES CC1=CCC(=C(C)C)C(=O)CC(C)=CCC1
REMARK SMILES IDX 12 1 14 2 13 3 15 4 16 5 2 6 1 7 3 8 11 10 9 11 10 12 5 13
REMARK SMILES IDX 6 14 7 15 8 16 4 17
REMARK H PARENT
REMARK Flexibility Score: 60.00
ROOT
ATOM      1  C   UNL     1       8.324  -1.932  -2.420  1.00  0.00    -0.070 C 
ATOM      2  C   UNL     1       7.806  -1.312  -1.321  1.00  0.00    -0.027 C 
ATOM      3  C   UNL     1       9.780  -2.329  -2.350  1.00  0.00     0.039 C 
ENDROOT
BRANCH   2   4
ATOM      4  C   UNL     1       6.395  -0.827  -1.007  1.00  0.00     0.032 C 
BRANCH   4   5
ATOM      5  C   UNL     1       5.583  -1.639   0.010  1.00  0.00     0.034 C 
BRANCH   5   6
ATOM      6  C   UNL     1       5.315  -3.121  -0.290  1.00  0.00    -0.077 C 
ATOM      7  C   UNL     1       5.576  -4.072   0.857  1.00  0.00     0.039 C 
ATOM      8  C   UNL     1       4.797  -3.689  -1.419  1.00  0.00    -0.023 CG0
ATOM      9  G   UNL     1       4.358  -3.070  -2.732  1.00  0.00     0.000 G0
ENDBRANCH   5   6
ENDBRANCH   4   5
ENDBRANCH   2   4
BRANCH   1  10
ATOM     10  C   UNL     1       7.592  -2.261  -3.712  1.00  0.00     0.111 C 
BRANCH  10  11
ATOM     11  C   UNL     1       6.725  -3.473  -3.569  1.00  0.00     0.163 C 
ATOM     12  O   UNL     1       7.238  -4.546  -3.149  1.00  0.00    -0.294 OA
BRANCH  11  13
ATOM     13  C   UNL     1       5.273  -3.410  -3.874  1.00  0.00    -0.002 C 
ATOM     14  C   UNL     1       4.794  -3.676  -5.125  1.00  0.00    -0.069 C 
ATOM     15  C   UNL     1       5.733  -3.926  -6.283  1.00  0.00     0.039 C 
ATOM     16  C   UNL     1       3.311  -3.718  -5.414  1.00  0.00     0.039 C 
BRANCH  13  17
ATOM     17  C   UNL     1       4.364  -3.052  -2.717  1.00  0.00     0.066 CG0
ATOM     18  G   UNL     1       4.813  -3.698  -1.421  1.00  0.00     0.000 G0
ENDBRANCH  13  17
ENDBRANCH  11  13
ENDBRANCH  10  11
ENDBRANCH   1  10
TORSDOF 0
ENDMDL
MODEL 5
REMARK VINA RESULT:    -3.486      1.806      4.036
REMARK INTER + INTRA:          -4.834
REMARK INTER:                  -4.949
REMARK INTRA:                   0.115
REMARK UNBOUND:                 0.078
REMARK SMILES CC1=CCC(=C(C)C)C(=O)CC(C)=CCC1
REMARK SMILES IDX 12 1 14 2 13 3 15 4 16 5 2 6 1 7 3 8 11 10 9 11 10 12 5 13
REMARK SMILES IDX 6 14 7 15 8 16 4 17
REMARK H PARENT
REMARK Flexibility Score: 60.00
ROOT
ATOM      1  C   UNL     1       5.667  -3.168  -4.365  1.00  0.00    -0.070 C 
ATOM      2  C   UNL     1       6.739  -4.004  -4.467  1.00  0.00    -0.027 C 
ATOM      3  C   UNL     1       4.687  -3.180  -5.515  1.00  0.00     0.039 C 
ENDROOT
BRANCH   2   4
ATOM      4  C   UNL     1       7.883  -4.302  -3.503  1.00  0.00     0.032 C 
BRANCH   4   5
ATOM      5  C   UNL     1       7.551  -5.127  -2.253  1.00  0.00     0.034 C 
BRANCH   5   6
ATOM      6  C   UNL     1       7.893  -4.536  -0.879  1.00  0.00    -0.077 C 
ATOM      7  C   UNL     1       9.369  -4.442  -0.562  1.00  0.00     0.039 C 
ATOM      8  C   UNL     1       7.055  -4.008   0.063  1.00  0.00    -0.023 CG0
ATOM      9  G   UNL     1       5.545  -3.865   0.082  1.00  0.00     0.000 G0
ENDBRANCH   5   6
ENDBRANCH   4   5
ENDBRANCH   2   4
BRANCH   1  10
ATOM     10  C   UNL     1       5.355  -2.218  -3.218  1.00  0.00     0.111 C 
BRANCH  10  11
ATOM     11  C   UNL     1       4.660  -2.917  -2.090  1.00  0.00     0.163 C 
ATOM     12  O   UNL     1       3.757  -3.757  -2.355  1.00  0.00    -0.294 OA
BRANCH  11  13
ATOM     13  C   UNL     1       5.050  -2.659  -0.680  1.00  0.00    -0.002 C 
ATOM     14  C   UNL     1       4.956  -1.414  -0.130  1.00  0.00    -0.069 C 
ATOM     15  C   UNL     1       4.566  -0.217  -0.967  1.00  0.00     0.039 C 
ATOM     16  C   UNL     1       5.249  -1.169   1.333  1.00  0.00     0.039 C 
BRANCH  13  17
ATOM     17  C   UNL     1       5.538  -3.858   0.105  1.00  0.00     0.066 CG0
ATOM     18  G   UNL     1       7.047  -3.998   0.050  1.00  0.00     0.000 G0
ENDBRANCH  13  17
ENDBRANCH  11  13
ENDBRANCH  10  11
ENDBRANCH   1  10
TORSDOF 0
ENDMDL
MODEL 6
REMARK VINA RESULT:    -3.405      1.858      3.662
REMARK INTER + INTRA:          -4.721
REMARK INTER:                  -4.787
REMARK INTRA:                   0.066
REMARK UNBOUND:                 0.078
REMARK SMILES CC1=CCC(=C(C)C)C(=O)CC(C)=CCC1
REMARK SMILES IDX 12 1 14 2 13 3 15 4 16 5 2 6 1 7 3 8 11 10 9 11 10 12 5 13
REMARK SMILES IDX 6 14 7 15 8 16 4 17
REMARK H PARENT
REMARK Flexibility Score: 60.00
ROOT
ATOM      1  C   UNL     1       8.192  -3.829  -1.450  1.00  0.00    -0.070 C 
ATOM      2  C   UNL     1       7.629  -3.788  -0.208  1.00  0.00    -0.027 C 
ATOM      3  C   UNL     1       9.675  -4.116  -1.511  1.00  0.00     0.039 C 
ENDROOT
BRANCH   2   4
ATOM      4  C   UNL     1       6.185  -3.586   0.239  1.00  0.00     0.032 C 
BRANCH   4   5
ATOM      5  C   UNL     1       5.679  -2.143   0.350  1.00  0.00     0.034 C 
BRANCH   5   6
ATOM      6  C   UNL     1       4.893  -1.554  -0.830  1.00  0.00    -0.077 C 
ATOM      7  C   UNL     1       4.886  -0.044  -0.916  1.00  0.00     0.039 C 
ATOM      8  C   UNL     1       4.271  -2.204  -1.859  1.00  0.00    -0.023 CG0
ATOM      9  G   UNL     1       4.121  -3.684  -2.152  1.00  0.00     0.000 G0
ENDBRANCH   5   6
ENDBRANCH   4   5
ENDBRANCH   2   4
BRANCH   1  10
ATOM     10  C   UNL     1       7.488  -3.607  -2.779  1.00  0.00     0.111 C 
BRANCH  10  11
ATOM     11  C   UNL     1       6.370  -4.582  -2.986  1.00  0.00     0.163 C 
ATOM     12  O   UNL     1       6.593  -5.813  -2.821  1.00  0.00    -0.294 OA
BRANCH  11  13
ATOM     13  C   UNL     1       5.006  -4.111  -3.341  1.00  0.00    -0.002 C 
ATOM     14  C   UNL     1       4.577  -4.078  -4.636  1.00  0.00    -0.069 C 
ATOM     15  C   UNL     1       5.514  -4.402  -5.778  1.00  0.00     0.039 C 
ATOM     16  C   UNL     1       3.157  -3.703  -4.992  1.00  0.00     0.039 C 
BRANCH  13  17
ATOM     17  C   UNL     1       4.125  -3.692  -2.183  1.00  0.00     0.066 CG0
ATOM     18  G   UNL     1       4.262  -2.214  -1.871  1.00  0.00     0.000 G0
ENDBRANCH  13  17
ENDBRANCH  11  13
ENDBRANCH  10  11
ENDBRANCH   1  10
TORSDOF 0
ENDMDL
MODEL 7
REMARK VINA RESULT:    -3.398      1.756      1.973
REMARK INTER + INTRA:          -4.710
REMARK INTER:                  -4.878
REMARK INTRA:                   0.168
REMARK UNBOUND:                 0.078
REMARK SMILES CC1=CCC(=C(C)C)C(=O)CC(C)=CCC1
REMARK SMILES IDX 12 1 14 2 13 3 15 4 16 5 2 6 1 7 3 8 11 10 9 11 10 12 5 13
REMARK SMILES IDX 6 14 7 15 8 16 4 17
REMARK H PARENT
REMARK Flexibility Score: 60.00
ROOT
ATOM      1  C   UNL     1       4.932  -1.036  -1.523  1.00  0.00    -0.070 C 
ATOM      2  C   UNL     1       5.331  -1.647  -0.370  1.00  0.00    -0.027 C 
ATOM      3  C   UNL     1       4.842   0.472  -1.493  1.00  0.00     0.039 C 
ENDROOT
BRANCH   2   4
ATOM      4  C   UNL     1       5.587  -3.114  -0.042  1.00  0.00     0.032 C 
BRANCH   4   5
ATOM      5  C   UNL     1       7.049  -3.563   0.071  1.00  0.00     0.034 C 
BRANCH   5   6
ATOM      6  C   UNL     1       7.571  -4.603  -0.931  1.00  0.00    -0.077 C 
ATOM      7  C   UNL     1       8.929  -5.187  -0.611  1.00  0.00     0.039 C 
ATOM      8  C   UNL     1       6.945  -5.134  -2.023  1.00  0.00    -0.023 CG0
ATOM      9  G   UNL     1       5.578  -4.856  -2.618  1.00  0.00     0.000 G0
ENDBRANCH   5   6
ENDBRANCH   4   5
ENDBRANCH   2   4
BRANCH   1  10
ATOM     10  C   UNL     1       4.562  -1.712  -2.833  1.00  0.00     0.111 C 
BRANCH  10  11
ATOM     11  C   UNL     1       5.721  -2.455  -3.424  1.00  0.00     0.163 C 
ATOM     12  O   UNL     1       6.816  -1.851  -3.584  1.00  0.00    -0.294 OA
BRANCH  11  13
ATOM     13  C   UNL     1       5.601  -3.892  -3.781  1.00  0.00    -0.002 C 
ATOM     14  C   UNL     1       5.548  -4.302  -5.082  1.00  0.00    -0.069 C 
ATOM     15  C   UNL     1       5.485  -3.303  -6.214  1.00  0.00     0.039 C 
ATOM     16  C   UNL     1       5.536  -5.768  -5.450  1.00  0.00     0.039 C 
BRANCH  13  17
ATOM     17  C   UNL     1       5.560  -4.864  -2.621  1.00  0.00     0.066 CG0
ATOM     18  G   UNL     1       6.939  -5.116  -2.041  1.00  0.00     0.000 G0
ENDBRANCH  13  17
ENDBRANCH  11  13
ENDBRANCH  10  11
ENDBRANCH   1  10
TORSDOF 0
ENDMDL
MODEL 8
REMARK VINA RESULT:    -3.284      2.042      3.980
REMARK INTER + INTRA:          -4.549
REMARK INTER:                  -4.924
REMARK INTRA:                   0.375
REMARK UNBOUND:                 0.078
REMARK SMILES CC1=CCC(=C(C)C)C(=O)CC(C)=CCC1
REMARK SMILES IDX 12 1 14 2 13 3 15 4 16 5 2 6 1 7 3 8 11 10 9 11 10 12 5 13
REMARK SMILES IDX 6 14 7 15 8 16 4 17
REMARK H PARENT
REMARK Flexibility Score: 60.00
ROOT
ATOM      1  C   UNL     1       6.470  -4.054  -0.601  1.00  0.00    -0.070 C 
ATOM      2  C   UNL     1       5.655  -3.370   0.252  1.00  0.00    -0.027 C 
ATOM      3  C   UNL     1       6.126  -5.504  -0.849  1.00  0.00     0.039 C 
ENDROOT
BRANCH   2   4
ATOM      4  C   UNL     1       5.652  -1.909   0.692  1.00  0.00     0.032 C 
BRANCH   4   5
ATOM      5  C   UNL     1       4.481  -1.037   0.224  1.00  0.00     0.034 C 
BRANCH   5   6
ATOM      6  C   UNL     1       4.573  -0.374  -1.157  1.00  0.00    -0.077 C 
ATOM      7  C   UNL     1       4.596   1.139  -1.151  1.00  0.00     0.039 C 
ATOM      8  C   UNL     1       4.722  -0.959  -2.383  1.00  0.00    -0.023 CG0
ATOM      9  G   UNL     1       4.805  -2.419  -2.784  1.00  0.00     0.000 G0
ENDBRANCH   5   6
ENDBRANCH   4   5
ENDBRANCH   2   4
BRANCH   1  10
ATOM     10  C   UNL     1       7.694  -3.514  -1.324  1.00  0.00     0.111 C 
BRANCH  10  11
ATOM     11  C   UNL     1       7.322  -2.520  -2.382  1.00  0.00     0.163 C 
ATOM     12  O   UNL     1       8.009  -1.469  -2.501  1.00  0.00    -0.294 OA
BRANCH  11  13
ATOM     13  C   UNL     1       6.189  -2.781  -3.306  1.00  0.00    -0.002 C 
ATOM     14  C   UNL     1       6.387  -3.334  -4.539  1.00  0.00    -0.069 C 
ATOM     15  C   UNL     1       7.781  -3.590  -5.066  1.00  0.00     0.039 C 
ATOM     16  C   UNL     1       5.228  -3.701  -5.438  1.00  0.00     0.039 C 
BRANCH  13  17
ATOM     17  C   UNL     1       4.813  -2.416  -2.792  1.00  0.00     0.066 CG0
ATOM     18  G   UNL     1       4.727  -0.958  -2.384  1.00  0.00     0.000 G0
ENDBRANCH  13  17
ENDBRANCH  11  13
ENDBRANCH  10  11
ENDBRANCH   1  10
TORSDOF 0
ENDMDL
MODEL 9
REMARK VINA RESULT:    -3.268      1.715      4.096
REMARK INTER + INTRA:          -4.527
REMARK INTER:                  -4.641
REMARK INTRA:                   0.114
REMARK UNBOUND:                 0.078
REMARK SMILES CC1=CCC(=C(C)C)C(=O)CC(C)=CCC1
REMARK SMILES IDX 12 1 14 2 13 3 15 4 16 5 2 6 1 7 3 8 11 10 9 11 10 12 5 13
REMARK SMILES IDX 6 14 7 15 8 16 4 17
REMARK H PARENT
REMARK Flexibility Score: 60.00
ROOT
ATOM      1  C   UNL     1       8.030  -4.491  -1.758  1.00  0.00    -0.070 C 
ATOM      2  C   UNL     1       8.079  -4.179  -3.085  1.00  0.00    -0.027 C 
ATOM      3  C   UNL     1       8.686  -5.787  -1.343  1.00  0.00     0.039 C 
ENDROOT
BRANCH   2   4
ATOM      4  C   UNL     1       7.589  -2.956  -3.854  1.00  0.00     0.032 C 
BRANCH   4   5
ATOM      5  C   UNL     1       6.251  -3.081  -4.593  1.00  0.00     0.034 C 
BRANCH   5   6
ATOM      6  C   UNL     1       5.353  -4.284  -4.274  1.00  0.00    -0.077 C 
ATOM      7  C   UNL     1       5.612  -5.524  -5.101  1.00  0.00     0.039 C 
ATOM      8  C   UNL     1       4.411  -4.417  -3.294  1.00  0.00    -0.023 CG0
ATOM      9  G   UNL     1       3.923  -3.437  -2.244  1.00  0.00     0.000 G0
ENDBRANCH   5   6
ENDBRANCH   4   5
ENDBRANCH   2   4
BRANCH   1  10
ATOM     10  C   UNL     1       7.378  -3.675  -0.653  1.00  0.00     0.111 C 
BRANCH  10  11
ATOM     11  C   UNL     1       5.886  -3.811  -0.666  1.00  0.00     0.163 C 
ATOM     12  O   UNL     1       5.351  -4.736   0.004  1.00  0.00    -0.294 OA
BRANCH  11  13
ATOM     13  C   UNL     1       5.041  -2.850  -1.421  1.00  0.00    -0.002 C 
ATOM     14  C   UNL     1       5.285  -1.508  -1.387  1.00  0.00    -0.069 C 
ATOM     15  C   UNL     1       6.349  -0.928  -0.483  1.00  0.00     0.039 C 
ATOM     16  C   UNL     1       4.497  -0.538  -2.238  1.00  0.00     0.039 C 
BRANCH  13  17
ATOM     17  C   UNL     1       3.916  -3.451  -2.236  1.00  0.00     0.066 CG0
ATOM     18  G   UNL     1       4.427  -4.419  -3.285  1.00  0.00     0.000 G0
ENDBRANCH  13  17
ENDBRANCH  11  13
ENDBRANCH  10  11
ENDBRANCH   1  10
TORSDOF 0
ENDMDL
