MODEL 1
REMARK VINA RESULT:    -3.333      0.000      0.000
REMARK INTER + INTRA:          -3.706
REMARK INTER:                  -3.527
REMARK INTRA:                  -0.178
REMARK UNBOUND:                -0.178
REMARK SMILES CC1=CC[C@@H]2[C@H]3[C@H](C(C)C)CC[C@]2(C)[C@@H]13
REMARK SMILES IDX 1 1 2 2 3 3 4 4 5 5 6 6 15 7 13 8 12 9 11 10 7 11 14 12 8 13
REMARK SMILES IDX 9 14 10 15
REMARK H PARENT
REMARK Flexibility Score: inf
ROOT
ATOM      1  C   UNL     1     147.988 145.376 134.125  1.00  0.00     0.039 C 
ATOM      2  C   UNL     1     146.792 146.059 133.533  1.00  0.00    -0.073 C 
ATOM      3  C   UNL     1     146.204 147.133 134.125  1.00  0.00    -0.027 C 
ATOM      4  C   UNL     1     144.978 147.763 133.458  1.00  0.00     0.031 C 
ATOM      5  C   UNL     1     144.591 146.971 132.167  1.00  0.00     0.003 C 
ATOM      6  C   UNL     1     144.616 145.465 132.520  1.00  0.00     0.004 C 
ATOM      7  C   UNL     1     146.143 145.526 132.255  1.00  0.00     0.024 C 
ATOM      8  C   UNL     1     145.829 146.689 131.281  1.00  0.00    -0.022 C 
ATOM      9  C   UNL     1     145.353 146.135 129.902  1.00  0.00     0.008 C 
ATOM     10  C   UNL     1     144.562 144.806 130.036  1.00  0.00     0.005 C 
ATOM     11  C   UNL     1     143.856 144.663 131.418  1.00  0.00    -0.005 C 
ATOM     12  C   UNL     1     146.879 147.809 131.094  1.00  0.00     0.012 C 
ENDROOT
BRANCH  11  13
ATOM     13  C   UNL     1     143.590 143.172 131.793  1.00  0.00    -0.014 C 
ATOM     14  C   UNL     1     143.501 142.231 130.578  1.00  0.00     0.007 C 
ATOM     15  C   UNL     1     144.642 142.647 132.783  1.00  0.00     0.007 C 
ENDBRANCH  11  13
TORSDOF 1
ENDMDL
MODEL 2
REMARK VINA RESULT:    -3.293      1.264      4.229
REMARK INTER + INTRA:          -3.663
REMARK INTER:                  -3.484
REMARK INTRA:                  -0.179
REMARK UNBOUND:                -0.178
REMARK SMILES CC1=CC[C@@H]2[C@H]3[C@H](C(C)C)CC[C@]2(C)[C@@H]13
REMARK SMILES IDX 1 1 2 2 3 3 4 4 5 5 6 6 15 7 13 8 12 9 11 10 7 11 14 12 8 13
REMARK SMILES IDX 9 14 10 15
REMARK H PARENT
REMARK Flexibility Score: inf
ROOT
ATOM      1  C   UNL     1     142.735 145.475 134.124  1.00  0.00     0.039 C 
ATOM      2  C   UNL     1     143.924 144.781 133.532  1.00  0.00    -0.073 C 
ATOM      3  C   UNL     1     144.503 143.702 134.123  1.00  0.00    -0.027 C 
ATOM      4  C   UNL     1     145.723 143.060 133.456  1.00  0.00     0.031 C 
ATOM      5  C   UNL     1     146.117 143.850 132.165  1.00  0.00     0.003 C 
ATOM      6  C   UNL     1     146.106 145.355 132.519  1.00  0.00     0.004 C 
ATOM      7  C   UNL     1     144.579 145.308 132.254  1.00  0.00     0.024 C 
ATOM      8  C   UNL     1     144.882 144.143 131.280  1.00  0.00    -0.022 C 
ATOM      9  C   UNL     1     145.363 144.693 129.901  1.00  0.00     0.008 C 
ATOM     10  C   UNL     1     146.165 146.015 130.035  1.00  0.00     0.005 C 
ATOM     11  C   UNL     1     146.873 146.152 131.417  1.00  0.00    -0.005 C 
ATOM     12  C   UNL     1     143.821 143.033 131.092  1.00  0.00     0.012 C 
ENDROOT
BRANCH  11  13
ATOM     13  C   UNL     1     147.152 147.640 131.792  1.00  0.00    -0.014 C 
ATOM     14  C   UNL     1     147.239 148.583 130.579  1.00  0.00     0.007 C 
ATOM     15  C   UNL     1     146.112 148.171 132.792  1.00  0.00     0.007 C 
ENDBRANCH  11  13
TORSDOF 1
ENDMDL
MODEL 3
REMARK VINA RESULT:    -3.113      1.659      2.911
REMARK INTER + INTRA:          -3.473
REMARK INTER:                  -3.253
REMARK INTRA:                  -0.220
REMARK UNBOUND:                -0.178
REMARK SMILES CC1=CC[C@@H]2[C@H]3[C@H](C(C)C)CC[C@]2(C)[C@@H]13
REMARK SMILES IDX 1 1 2 2 3 3 4 4 5 5 6 6 15 7 13 8 12 9 11 10 7 11 14 12 8 13
REMARK SMILES IDX 9 14 10 15
REMARK H PARENT
REMARK Flexibility Score: inf
ROOT
ATOM      1  C   UNL     1     145.459 148.199 134.039  1.00  0.00     0.039 C 
ATOM      2  C   UNL     1     144.708 147.013 133.513  1.00  0.00    -0.073 C 
ATOM      3  C   UNL     1     143.593 146.531 134.124  1.00  0.00    -0.027 C 
ATOM      4  C   UNL     1     142.893 145.307 133.526  1.00  0.00     0.031 C 
ATOM      5  C   UNL     1     143.674 144.790 132.274  1.00  0.00     0.003 C 
ATOM      6  C   UNL     1     145.174 144.743 132.648  1.00  0.00     0.004 C 
ATOM      7  C   UNL     1     145.213 146.251 132.287  1.00  0.00     0.024 C 
ATOM      8  C   UNL     1     144.044 145.949 131.317  1.00  0.00    -0.022 C 
ATOM      9  C   UNL     1     144.581 145.352 129.979  1.00  0.00     0.008 C 
ATOM     10  C   UNL     1     145.856 144.490 130.182  1.00  0.00     0.005 C 
ATOM     11  C   UNL     1     145.940 143.867 131.609  1.00  0.00    -0.005 C 
ATOM     12  C   UNL     1     142.994 147.053 131.047  1.00  0.00     0.012 C 
ENDROOT
BRANCH  11  13
ATOM     13  C   UNL     1     147.406 143.532 132.022  1.00  0.00    -0.014 C 
ATOM     14  C   UNL     1     148.393 143.496 130.841  1.00  0.00     0.007 C 
ATOM     15  C   UNL     1     147.919 144.500 133.100  1.00  0.00     0.007 C 
ENDBRANCH  11  13
TORSDOF 1
ENDMDL
MODEL 4
REMARK VINA RESULT:    -2.651      1.285      4.528
REMARK INTER + INTRA:          -2.984
REMARK INTER:                  -2.848
REMARK INTRA:                  -0.136
REMARK UNBOUND:                -0.178
REMARK SMILES CC1=CC[C@@H]2[C@H]3[C@H](C(C)C)CC[C@]2(C)[C@@H]13
REMARK SMILES IDX 1 1 2 2 3 3 4 4 5 5 6 6 15 7 13 8 12 9 11 10 7 11 14 12 8 13
REMARK SMILES IDX 9 14 10 15
REMARK H PARENT
REMARK Flexibility Score: inf
ROOT
ATOM      1  C   UNL     1     144.065 143.208 130.446  1.00  0.00     0.039 C 
ATOM      2  C   UNL     1     144.202 143.990 131.719  1.00  0.00    -0.073 C 
ATOM      3  C   UNL     1     143.171 144.139 132.593  1.00  0.00    -0.027 C 
ATOM      4  C   UNL     1     143.394 144.964 133.864  1.00  0.00     0.031 C 
ATOM      5  C   UNL     1     144.844 145.548 133.887  1.00  0.00     0.003 C 
ATOM      6  C   UNL     1     145.126 146.150 132.490  1.00  0.00     0.004 C 
ATOM      7  C   UNL     1     145.507 144.712 132.053  1.00  0.00     0.024 C 
ATOM      8  C   UNL     1     145.897 144.470 133.533  1.00  0.00    -0.022 C 
ATOM      9  C   UNL     1     147.322 145.035 133.824  1.00  0.00     0.008 C 
ATOM     10  C   UNL     1     147.645 146.298 132.981  1.00  0.00     0.005 C 
ATOM     11  C   UNL     1     146.367 147.092 132.573  1.00  0.00    -0.005 C 
ATOM     12  C   UNL     1     145.734 143.050 134.124  1.00  0.00     0.012 C 
ENDROOT
BRANCH  11  13
ATOM     13  C   UNL     1     146.592 147.955 131.293  1.00  0.00    -0.014 C 
ATOM     14  C   UNL     1     147.979 148.618 131.225  1.00  0.00     0.007 C 
ATOM     15  C   UNL     1     146.339 147.139 130.016  1.00  0.00     0.007 C 
ENDBRANCH  11  13
TORSDOF 1
ENDMDL
MODEL 5
REMARK VINA RESULT:    -2.567      1.162      2.748
REMARK INTER + INTRA:          -2.895
REMARK INTER:                  -2.758
REMARK INTRA:                  -0.137
REMARK UNBOUND:                -0.178
REMARK SMILES CC1=CC[C@@H]2[C@H]3[C@H](C(C)C)CC[C@]2(C)[C@@H]13
REMARK SMILES IDX 1 1 2 2 3 3 4 4 5 5 6 6 15 7 13 8 12 9 11 10 7 11 14 12 8 13
REMARK SMILES IDX 9 14 10 15
REMARK H PARENT
REMARK Flexibility Score: inf
ROOT
ATOM      1  C   UNL     1     146.546 147.557 130.379  1.00  0.00     0.039 C 
ATOM      2  C   UNL     1     146.473 146.759 131.646  1.00  0.00    -0.073 C 
ATOM      3  C   UNL     1     147.542 146.615 132.475  1.00  0.00    -0.027 C 
ATOM      4  C   UNL     1     147.383 145.773 133.744  1.00  0.00     0.031 C 
ATOM      5  C   UNL     1     145.944 145.167 133.821  1.00  0.00     0.003 C 
ATOM      6  C   UNL     1     145.613 144.577 132.430  1.00  0.00     0.004 C 
ATOM      7  C   UNL     1     145.193 146.015 132.027  1.00  0.00     0.024 C 
ATOM      8  C   UNL     1     144.862 146.234 133.524  1.00  0.00    -0.022 C 
ATOM      9  C   UNL     1     143.459 145.645 133.867  1.00  0.00     0.008 C 
ATOM     10  C   UNL     1     143.118 144.388 133.023  1.00  0.00     0.005 C 
ATOM     11  C   UNL     1     144.389 143.617 132.553  1.00  0.00    -0.005 C 
ATOM     12  C   UNL     1     145.030 147.649 134.125  1.00  0.00     0.012 C 
ENDROOT
BRANCH  11  13
ATOM     13  C   UNL     1     144.123 142.765 131.274  1.00  0.00    -0.014 C 
ATOM     14  C   UNL     1     142.759 142.052 131.273  1.00  0.00     0.007 C 
ATOM     15  C   UNL     1     144.271 143.610 129.998  1.00  0.00     0.007 C 
ENDBRANCH  11  13
TORSDOF 1
ENDMDL
MODEL 6
REMARK VINA RESULT:    -2.354      1.707      3.788
REMARK INTER + INTRA:          -2.670
REMARK INTER:                  -2.516
REMARK INTRA:                  -0.154
REMARK UNBOUND:                -0.178
REMARK SMILES CC1=CC[C@@H]2[C@H]3[C@H](C(C)C)CC[C@]2(C)[C@@H]13
REMARK SMILES IDX 1 1 2 2 3 3 4 4 5 5 6 6 15 7 13 8 12 9 11 10 7 11 14 12 8 13
REMARK SMILES IDX 9 14 10 15
REMARK H PARENT
REMARK Flexibility Score: inf
ROOT
ATOM      1  C   UNL     1     147.283 144.157 130.325  1.00  0.00     0.039 C 
ATOM      2  C   UNL     1     146.598 144.211 131.658  1.00  0.00    -0.073 C 
ATOM      3  C   UNL     1     146.441 143.108 132.438  1.00  0.00    -0.027 C 
ATOM      4  C   UNL     1     145.718 143.251 133.781  1.00  0.00     0.031 C 
ATOM      5  C   UNL     1     145.231 144.723 133.985  1.00  0.00     0.003 C 
ATOM      6  C   UNL     1     144.558 145.176 132.669  1.00  0.00     0.004 C 
ATOM      7  C   UNL     1     145.985 145.516 132.167  1.00  0.00     0.024 C 
ATOM      8  C   UNL     1     146.349 145.741 133.656  1.00  0.00    -0.022 C 
ATOM      9  C   UNL     1     145.898 147.160 134.122  1.00  0.00     0.008 C 
ATOM     10  C   UNL     1     144.605 147.638 133.407  1.00  0.00     0.005 C 
ATOM     11  C   UNL     1     143.705 146.455 132.937  1.00  0.00    -0.005 C 
ATOM     12  C   UNL     1     147.792 145.439 134.125  1.00  0.00     0.012 C 
ENDROOT
BRANCH  11  13
ATOM     13  C   UNL     1     142.775 146.856 131.751  1.00  0.00    -0.014 C 
ATOM     14  C   UNL     1     142.356 148.337 131.760  1.00  0.00     0.007 C 
ATOM     15  C   UNL     1     143.411 146.503 130.397  1.00  0.00     0.007 C 
ENDBRANCH  11  13
TORSDOF 1
ENDMDL
MODEL 7
REMARK VINA RESULT:    -2.317      1.835      3.827
REMARK INTER + INTRA:          -2.630
REMARK INTER:                  -2.468
REMARK INTRA:                  -0.163
REMARK UNBOUND:                -0.178
REMARK SMILES CC1=CC[C@@H]2[C@H]3[C@H](C(C)C)CC[C@]2(C)[C@@H]13
REMARK SMILES IDX 1 1 2 2 3 3 4 4 5 5 6 6 15 7 13 8 12 9 11 10 7 11 14 12 8 13
REMARK SMILES IDX 9 14 10 15
REMARK H PARENT
REMARK Flexibility Score: inf
ROOT
ATOM      1  C   UNL     1     143.485 146.552 130.306  1.00  0.00     0.039 C 
ATOM      2  C   UNL     1     144.183 146.517 131.633  1.00  0.00    -0.073 C 
ATOM      3  C   UNL     1     144.340 147.630 132.398  1.00  0.00    -0.027 C 
ATOM      4  C   UNL     1     145.076 147.508 133.736  1.00  0.00     0.031 C 
ATOM      5  C   UNL     1     145.575 146.042 133.952  1.00  0.00     0.003 C 
ATOM      6  C   UNL     1     146.239 145.577 132.635  1.00  0.00     0.004 C 
ATOM      7  C   UNL     1     144.809 145.222 132.152  1.00  0.00     0.024 C 
ATOM      8  C   UNL     1     144.460 145.013 133.646  1.00  0.00    -0.022 C 
ATOM      9  C   UNL     1     144.925 143.602 134.125  1.00  0.00     0.008 C 
ATOM     10  C   UNL     1     146.213 143.124 133.403  1.00  0.00     0.005 C 
ATOM     11  C   UNL     1     147.102 144.307 132.911  1.00  0.00    -0.005 C 
ATOM     12  C   UNL     1     143.020 145.312 134.125  1.00  0.00     0.012 C 
ENDROOT
BRANCH  11  13
ATOM     13  C   UNL     1     148.023 143.897 131.721  1.00  0.00    -0.014 C 
ATOM     14  C   UNL     1     148.402 142.406 131.711  1.00  0.00     0.007 C 
ATOM     15  C   UNL     1     147.400 144.286 130.371  1.00  0.00     0.007 C 
ENDBRANCH  11  13
TORSDOF 1
ENDMDL
MODEL 8
REMARK VINA RESULT:    -2.298      1.683      3.287
REMARK INTER + INTRA:          -2.610
REMARK INTER:                  -2.237
REMARK INTRA:                  -0.374
REMARK UNBOUND:                -0.178
REMARK SMILES CC1=CC[C@@H]2[C@H]3[C@H](C(C)C)CC[C@]2(C)[C@@H]13
REMARK SMILES IDX 1 1 2 2 3 3 4 4 5 5 6 6 15 7 13 8 12 9 11 10 7 11 14 12 8 13
REMARK SMILES IDX 9 14 10 15
REMARK H PARENT
REMARK Flexibility Score: inf
ROOT
ATOM      1  C   UNL     1     145.450 145.352 129.036  1.00  0.00     0.039 C 
ATOM      2  C   UNL     1     145.473 146.113 130.328  1.00  0.00    -0.073 C 
ATOM      3  C   UNL     1     146.130 147.296 130.461  1.00  0.00    -0.027 C 
ATOM      4  C   UNL     1     146.112 148.002 131.820  1.00  0.00     0.031 C 
ATOM      5  C   UNL     1     145.329 147.146 132.868  1.00  0.00     0.003 C 
ATOM      6  C   UNL     1     145.821 145.686 132.739  1.00  0.00     0.004 C 
ATOM      7  C   UNL     1     144.801 145.546 131.579  1.00  0.00     0.024 C 
ATOM      8  C   UNL     1     143.980 146.645 132.298  1.00  0.00    -0.022 C 
ATOM      9  C   UNL     1     143.135 146.028 133.456  1.00  0.00     0.008 C 
ATOM     10  C   UNL     1     143.839 144.816 134.125  1.00  0.00     0.005 C 
ATOM     11  C   UNL     1     145.392 144.880 134.004  1.00  0.00    -0.005 C 
ATOM     12  C   UNL     1     143.126 147.615 131.448  1.00  0.00     0.012 C 
ENDROOT
BRANCH  11  13
ATOM     13  C   UNL     1     146.050 143.470 134.109  1.00  0.00    -0.014 C 
ATOM     14  C   UNL     1     145.038 142.310 134.123  1.00  0.00     0.007 C 
ATOM     15  C   UNL     1     147.081 143.249 132.991  1.00  0.00     0.007 C 
ENDBRANCH  11  13
TORSDOF 1
ENDMDL
