MODEL 1
REMARK VINA RESULT:    -0.151      0.000      0.000
REMARK INTER + INTRA:          -0.226
REMARK INTER:                  -0.173
REMARK INTRA:                  -0.053
REMARK UNBOUND:                -0.053
REMARK SMILES O=C([O-])c1cc(O)c(O)c(O)c1
REMARK SMILES IDX 4 1 5 2 12 3 6 4 10 5 8 6 2 7 1 8 3 9 7 10 11 12 9 14
REMARK H PARENT 7 11 11 13 9 15
REMARK Flexibility Score: inf
ROOT
ATOM      1  C   UNL     1      11.057   1.981  18.607  1.00  0.00     0.005 A 
ATOM      2  C   UNL     1      11.369   1.865  17.242  1.00  0.00     0.060 A 
ATOM      3  C   UNL     1      10.234   1.009  19.203  1.00  0.00     0.060 A 
ATOM      4  C   UNL     1      10.870   0.796  16.485  1.00  0.00     0.162 A 
ATOM      5  C   UNL     1       9.734  -0.062  18.450  1.00  0.00     0.162 A 
ATOM      6  C   UNL     1      10.053  -0.168  17.087  1.00  0.00     0.200 A 
ENDROOT
BRANCH   1   7
ATOM      7  C   UNL     1      11.586   3.112  19.401  1.00  0.00     0.072 C 
ATOM      8  O   UNL     1      12.310   3.990  18.861  1.00  0.00    -0.545 OA
ATOM      9  O   UNL     1      11.291   3.222  20.755  1.00  0.00    -0.545 OA
ENDBRANCH   1   7
BRANCH   4  10
ATOM     10  O   UNL     1      11.184   0.686  15.130  1.00  0.00    -0.504 OA
ATOM     11  H   UNL     1      12.138   0.767  14.799  1.00  0.00     0.293 HD
ENDBRANCH   4  10
BRANCH   5  12
ATOM     12  O   UNL     1       8.918  -1.020  19.053  1.00  0.00    -0.504 OA
ATOM     13  H   UNL     1       8.123  -1.419  18.571  1.00  0.00     0.293 HD
ENDBRANCH   5  12
BRANCH   6  14
ATOM     14  O   UNL     1       9.565  -1.225  16.316  1.00  0.00    -0.502 OA
ATOM     15  H   UNL     1       8.780  -1.115  15.687  1.00  0.00     0.293 HD
ENDBRANCH   6  14
TORSDOF 4
ENDMDL
MODEL 2
REMARK VINA RESULT:    -0.029      0.137      2.425
REMARK INTER + INTRA:          -0.086
REMARK INTER:                  -0.034
REMARK INTRA:                  -0.052
REMARK UNBOUND:                -0.053
REMARK SMILES O=C([O-])c1cc(O)c(O)c(O)c1
REMARK SMILES IDX 4 1 5 2 12 3 6 4 10 5 8 6 2 7 1 8 3 9 7 10 11 12 9 14
REMARK H PARENT 7 11 11 13 9 15
REMARK Flexibility Score: inf
ROOT
ATOM      1  C   UNL     1      11.111   1.970  18.599  1.00  0.00     0.005 A 
ATOM      2  C   UNL     1      10.268   1.013  19.187  1.00  0.00     0.060 A 
ATOM      3  C   UNL     1      11.436   1.849  17.237  1.00  0.00     0.060 A 
ATOM      4  C   UNL     1       9.756  -0.049  18.428  1.00  0.00     0.162 A 
ATOM      5  C   UNL     1      10.926   0.790  16.474  1.00  0.00     0.162 A 
ATOM      6  C   UNL     1      10.084  -0.162  17.071  1.00  0.00     0.200 A 
ENDROOT
BRANCH   1   7
ATOM      7  C   UNL     1      11.649   3.088  19.407  1.00  0.00     0.072 C 
ATOM      8  O   UNL     1      12.131   4.109  18.848  1.00  0.00    -0.545 OA
ATOM      9  O   UNL     1      11.628   3.028  20.796  1.00  0.00    -0.545 OA
ENDBRANCH   1   7
BRANCH   4  10
ATOM     10  O   UNL     1       8.920  -0.997  19.016  1.00  0.00    -0.504 OA
ATOM     11  H   UNL     1       7.919  -0.990  18.861  1.00  0.00     0.293 HD
ENDBRANCH   4  10
BRANCH   5  12
ATOM     12  O   UNL     1      11.255   0.680  15.123  1.00  0.00    -0.504 OA
ATOM     13  H   UNL     1      11.324  -0.221  14.665  1.00  0.00     0.293 HD
ENDBRANCH   5  12
BRANCH   6  14
ATOM     14  O   UNL     1       9.564  -1.226  16.332  1.00  0.00    -0.502 OA
ATOM     15  H   UNL     1       9.243  -1.112  15.378  1.00  0.00     0.293 HD
ENDBRANCH   6  14
TORSDOF 4
ENDMDL
MODEL 3
REMARK VINA RESULT:     2.334     19.932     22.220
REMARK INTER + INTRA:           2.622
REMARK INTER:                   2.674
REMARK INTRA:                  -0.052
REMARK UNBOUND:                -0.053
REMARK SMILES O=C([O-])c1cc(O)c(O)c(O)c1
REMARK SMILES IDX 4 1 5 2 12 3 6 4 10 5 8 6 2 7 1 8 3 9 7 10 11 12 9 14
REMARK H PARENT 7 11 11 13 9 15
REMARK Flexibility Score: inf
ROOT
ATOM      1  C   UNL     1      -4.964  -9.417   5.516  1.00  0.00     0.005 A 
ATOM      2  C   UNL     1      -4.134  -9.911   4.496  1.00  0.00     0.060 A 
ATOM      3  C   UNL     1      -4.397  -8.639   6.540  1.00  0.00     0.060 A 
ATOM      4  C   UNL     1      -2.760  -9.632   4.498  1.00  0.00     0.162 A 
ATOM      5  C   UNL     1      -3.025  -8.357   6.546  1.00  0.00     0.162 A 
ATOM      6  C   UNL     1      -2.204  -8.855   5.522  1.00  0.00     0.200 A 
ENDROOT
BRANCH   1   7
ATOM      7  C   UNL     1      -6.414  -9.716   5.509  1.00  0.00     0.072 C 
ATOM      8  O   UNL     1      -7.096  -9.607   6.562  1.00  0.00    -0.545 OA
ATOM      9  O   UNL     1      -7.044 -10.121   4.337  1.00  0.00    -0.545 OA
ENDBRANCH   1   7
BRANCH   4  10
ATOM     10  O   UNL     1      -1.940 -10.125   3.483  1.00  0.00    -0.504 OA
ATOM     11  H   UNL     1      -1.182  -9.573   3.099  1.00  0.00     0.293 HD
ENDBRANCH   4  10
BRANCH   5  12
ATOM     12  O   UNL     1      -2.474  -7.584   7.568  1.00  0.00    -0.504 OA
ATOM     13  H   UNL     1      -1.516  -7.708   7.870  1.00  0.00     0.293 HD
ENDBRANCH   5  12
BRANCH   6  14
ATOM     14  O   UNL     1      -0.834  -8.589   5.506  1.00  0.00    -0.502 OA
ATOM     15  H   UNL     1      -0.410  -7.990   4.807  1.00  0.00     0.293 HD
ENDBRANCH   6  14
TORSDOF 4
ENDMDL
