MODEL 1
REMARK VINA RESULT:    -4.144      0.000      0.000
REMARK INTER + INTRA:          -4.262
REMARK INTER:                  -5.113
REMARK INTRA:                   0.850
REMARK UNBOUND:                 0.850
REMARK SMILES CC1=CC=CC(C)(C)CC1=O
REMARK SMILES IDX 1 1 2 2 3 3 10 4 11 5 9 6 4 8 5 9 6 10 7 11 8 12
REMARK H PARENT
REMARK Flexibility Score: 80.00
ROOT
ATOM      1  C   UNL     1     -13.969 -20.268  28.624  1.00  0.00     0.048 C 
ATOM      2  C   UNL     1     -12.996 -19.541  29.522  1.00  0.00    -0.008 C 
ATOM      3  C   UNL     1     -12.875 -19.967  30.797  1.00  0.00     0.007 C 
ENDROOT
BRANCH   2   4
ATOM      4  C   UNL     1     -12.209 -18.441  28.902  1.00  0.00     0.159 C 
ATOM      5  O   UNL     1     -12.454 -18.125  27.706  1.00  0.00    -0.295 OA
BRANCH   4   6
ATOM      6  C   UNL     1     -11.106 -17.700  29.598  1.00  0.00     0.091 CG0
ATOM      7  G   UNL     1     -11.503 -17.140  30.983  1.00  0.00     0.000 G0
ENDBRANCH   4   6
ENDBRANCH   2   4
BRANCH   3   8
ATOM      8  C   UNL     1     -12.023 -19.449  31.893  1.00  0.00    -0.003 C 
ATOM      9  C   UNL     1     -11.452 -18.244  32.007  1.00  0.00    -0.020 C 
BRANCH   9  10
ATOM     10  C   UNL     1     -11.498 -17.136  30.981  1.00  0.00    -0.010 CG0
ATOM     11  C   UNL     1     -12.887 -16.458  30.985  1.00  0.00     0.016 C 
ATOM     12  C   UNL     1     -10.448 -16.071  31.374  1.00  0.00     0.016 C 
ATOM     13  G   UNL     1     -11.113 -17.702  29.596  1.00  0.00     0.000 G0
ENDBRANCH   9  10
ENDBRANCH   3   8
TORSDOF 0
ENDMDL
MODEL 2
REMARK VINA RESULT:    -4.120      1.527      3.050
REMARK INTER + INTRA:          -4.233
REMARK INTER:                  -5.084
REMARK INTRA:                   0.851
REMARK UNBOUND:                 0.850
REMARK SMILES CC1=CC=CC(C)(C)CC1=O
REMARK SMILES IDX 1 1 2 2 3 3 10 4 11 5 9 6 4 8 5 9 6 10 7 11 8 12
REMARK H PARENT
REMARK Flexibility Score: 80.00
ROOT
ATOM      1  C   UNL     1     -12.661 -15.007  28.503  1.00  0.00     0.048 C 
ATOM      2  C   UNL     1     -12.901 -16.162  29.448  1.00  0.00    -0.008 C 
ATOM      3  C   UNL     1     -13.196 -15.873  30.734  1.00  0.00     0.007 C 
ENDROOT
BRANCH   2   4
ATOM      4  C   UNL     1     -12.843 -17.527  28.862  1.00  0.00     0.159 C 
ATOM      5  O   UNL     1     -12.544 -17.648  27.642  1.00  0.00    -0.295 OA
BRANCH   4   6
ATOM      6  C   UNL     1     -13.156 -18.782  29.621  1.00  0.00     0.091 CG0
ATOM      7  G   UNL     1     -12.417 -18.899  30.973  1.00  0.00     0.000 G0
ENDBRANCH   4   6
ENDBRANCH   2   4
BRANCH   3   8
ATOM      8  C   UNL     1     -13.464 -16.783  31.870  1.00  0.00    -0.003 C 
ATOM      9  C   UNL     1     -13.120 -18.069  32.010  1.00  0.00    -0.020 C 
BRANCH   9  10
ATOM     10  C   UNL     1     -12.418 -18.920  30.978  1.00  0.00    -0.010 CG0
ATOM     11  C   UNL     1     -10.921 -18.543  30.901  1.00  0.00     0.016 C 
ATOM     12  C   UNL     1     -12.513 -20.397  31.424  1.00  0.00     0.016 C 
ATOM     13  G   UNL     1     -13.140 -18.780  29.619  1.00  0.00     0.000 G0
ENDBRANCH   9  10
ENDBRANCH   3   8
TORSDOF 0
ENDMDL
MODEL 3
REMARK VINA RESULT:    -4.011      1.525      2.537
REMARK INTER + INTRA:          -4.099
REMARK INTER:                  -4.951
REMARK INTRA:                   0.852
REMARK UNBOUND:                 0.850
REMARK SMILES CC1=CC=CC(C)(C)CC1=O
REMARK SMILES IDX 1 1 2 2 3 3 10 4 11 5 9 6 4 8 5 9 6 10 7 11 8 12
REMARK H PARENT
REMARK Flexibility Score: 80.00
ROOT
ATOM      1  C   UNL     1     -13.735 -20.030  28.625  1.00  0.00     0.048 C 
ATOM      2  C   UNL     1     -12.996 -18.801  29.102  1.00  0.00    -0.008 C 
ATOM      3  C   UNL     1     -12.562 -17.926  28.170  1.00  0.00     0.007 C 
ENDROOT
BRANCH   2   4
ATOM      4  C   UNL     1     -12.857 -18.633  30.573  1.00  0.00     0.159 C 
ATOM      5  O   UNL     1     -13.256 -19.564  31.326  1.00  0.00    -0.295 OA
BRANCH   4   6
ATOM      6  C   UNL     1     -12.304 -17.404  31.231  1.00  0.00     0.091 CG0
ATOM      7  G   UNL     1     -10.918 -16.977  30.697  1.00  0.00     0.000 G0
ENDBRANCH   4   6
ENDBRANCH   2   4
BRANCH   3   8
ATOM      8  C   UNL     1     -11.810 -16.661  28.336  1.00  0.00    -0.003 C 
ATOM      9  C   UNL     1     -11.084 -16.253  29.383  1.00  0.00    -0.020 C 
BRANCH   9  10
ATOM     10  C   UNL     1     -10.920 -16.987  30.693  1.00  0.00    -0.010 CG0
ATOM     11  C   UNL     1      -9.957 -18.183  30.521  1.00  0.00     0.016 C 
ATOM     12  C   UNL     1     -10.291 -16.014  31.716  1.00  0.00     0.016 C 
ATOM     13  G   UNL     1     -12.309 -17.409  31.223  1.00  0.00     0.000 G0
ENDBRANCH   9  10
ENDBRANCH   3   8
TORSDOF 0
ENDMDL
MODEL 4
REMARK VINA RESULT:    -3.903      1.906      3.694
REMARK INTER + INTRA:          -3.966
REMARK INTER:                  -4.827
REMARK INTRA:                   0.861
REMARK UNBOUND:                 0.850
REMARK SMILES CC1=CC=CC(C)(C)CC1=O
REMARK SMILES IDX 1 1 2 2 3 3 10 4 11 5 9 6 4 8 5 9 6 10 7 11 8 12
REMARK H PARENT
REMARK Flexibility Score: 80.00
ROOT
ATOM      1  C   UNL     1     -13.420 -16.847  32.715  1.00  0.00     0.048 C 
ATOM      2  C   UNL     1     -12.944 -16.594  31.303  1.00  0.00    -0.008 C 
ATOM      3  C   UNL     1     -13.503 -15.570  30.623  1.00  0.00     0.007 C 
ENDROOT
BRANCH   2   4
ATOM      4  C   UNL     1     -11.852 -17.469  30.799  1.00  0.00     0.159 C 
ATOM      5  O   UNL     1     -11.475 -18.436  31.516  1.00  0.00    -0.295 OA
BRANCH   4   6
ATOM      6  C   UNL     1     -11.135 -17.256  29.499  1.00  0.00     0.091 CG0
ATOM      7  G   UNL     1     -12.074 -17.150  28.276  1.00  0.00     0.000 G0
ENDBRANCH   4   6
ENDBRANCH   2   4
BRANCH   3   8
ATOM      8  C   UNL     1     -13.250 -15.100  29.242  1.00  0.00    -0.003 C 
ATOM      9  C   UNL     1     -12.678 -15.759  28.228  1.00  0.00    -0.020 C 
BRANCH   9  10
ATOM     10  C   UNL     1     -12.088 -17.148  28.288  1.00  0.00    -0.010 CG0
ATOM     11  C   UNL     1     -13.213 -18.208  28.319  1.00  0.00     0.016 C 
ATOM     12  C   UNL     1     -11.257 -17.376  27.005  1.00  0.00     0.016 C 
ATOM     13  G   UNL     1     -11.137 -17.251  29.502  1.00  0.00     0.000 G0
ENDBRANCH   9  10
ENDBRANCH   3   8
TORSDOF 0
ENDMDL
MODEL 5
REMARK VINA RESULT:    -3.868      1.855      2.891
REMARK INTER + INTRA:          -3.922
REMARK INTER:                  -4.756
REMARK INTRA:                   0.834
REMARK UNBOUND:                 0.850
REMARK SMILES CC1=CC=CC(C)(C)CC1=O
REMARK SMILES IDX 1 1 2 2 3 3 10 4 11 5 9 6 4 8 5 9 6 10 7 11 8 12
REMARK H PARENT
REMARK Flexibility Score: 80.00
ROOT
ATOM      1  C   UNL     1     -14.397 -16.793  33.120  1.00  0.00     0.048 C 
ATOM      2  C   UNL     1     -13.533 -17.284  31.981  1.00  0.00    -0.008 C 
ATOM      3  C   UNL     1     -13.140 -18.576  32.000  1.00  0.00     0.007 C 
ENDROOT
BRANCH   2   4
ATOM      4  C   UNL     1     -13.233 -16.307  30.901  1.00  0.00     0.159 C 
ATOM      5  O   UNL     1     -13.629 -15.117  31.038  1.00  0.00    -0.295 OA
BRANCH   4   6
ATOM      6  C   UNL     1     -12.517 -16.653  29.630  1.00  0.00     0.091 CG0
ATOM      7  G   UNL     1     -11.168 -17.375  29.846  1.00  0.00     0.000 G0
ENDBRANCH   4   6
ENDBRANCH   2   4
BRANCH   3   8
ATOM      8  C   UNL     1     -12.293 -19.321  31.042  1.00  0.00    -0.003 C 
ATOM      9  C   UNL     1     -11.432 -18.839  30.138  1.00  0.00    -0.020 C 
BRANCH   9  10
ATOM     10  C   UNL     1     -11.176 -17.380  29.842  1.00  0.00    -0.010 CG0
ATOM     11  C   UNL     1     -10.306 -16.752  30.954  1.00  0.00     0.016 C 
ATOM     12  C   UNL     1     -10.390 -17.288  28.514  1.00  0.00     0.016 C 
ATOM     13  G   UNL     1     -12.525 -16.650  29.653  1.00  0.00     0.000 G0
ENDBRANCH   9  10
ENDBRANCH   3   8
TORSDOF 0
ENDMDL
MODEL 6
REMARK VINA RESULT:    -3.822      2.255      4.030
REMARK INTER + INTRA:          -3.866
REMARK INTER:                  -4.711
REMARK INTRA:                   0.845
REMARK UNBOUND:                 0.850
REMARK SMILES CC1=CC=CC(C)(C)CC1=O
REMARK SMILES IDX 1 1 2 2 3 3 10 4 11 5 9 6 4 8 5 9 6 10 7 11 8 12
REMARK H PARENT
REMARK Flexibility Score: 80.00
ROOT
ATOM      1  C   UNL     1     -15.000 -14.715  32.129  1.00  0.00     0.048 C 
ATOM      2  C   UNL     1     -13.847 -15.152  31.256  1.00  0.00    -0.008 C 
ATOM      3  C   UNL     1     -13.848 -14.756  29.965  1.00  0.00     0.007 C 
ENDROOT
BRANCH   2   4
ATOM      4  C   UNL     1     -12.773 -15.944  31.914  1.00  0.00     0.159 C 
ATOM      5  O   UNL     1     -12.932 -16.292  33.116  1.00  0.00    -0.295 OA
BRANCH   4   6
ATOM      6  C   UNL     1     -11.484 -16.327  31.250  1.00  0.00     0.091 CG0
ATOM      7  G   UNL     1     -11.666 -17.042  29.893  1.00  0.00     0.000 G0
ENDBRANCH   4   6
ENDBRANCH   2   4
BRANCH   3   8
ATOM      8  C   UNL     1     -12.873 -15.038  28.888  1.00  0.00    -0.003 C 
ATOM      9  C   UNL     1     -11.964 -16.018  28.819  1.00  0.00    -0.020 C 
BRANCH   9  10
ATOM     10  C   UNL     1     -11.681 -17.046  29.889  1.00  0.00    -0.010 CG0
ATOM     11  C   UNL     1     -12.796 -18.116  29.914  1.00  0.00     0.016 C 
ATOM     12  C   UNL     1     -10.352 -17.753  29.539  1.00  0.00     0.016 C 
ATOM     13  G   UNL     1     -11.503 -16.335  31.250  1.00  0.00     0.000 G0
ENDBRANCH   9  10
ENDBRANCH   3   8
TORSDOF 0
ENDMDL
MODEL 7
REMARK VINA RESULT:    -3.667      1.404      2.168
REMARK INTER + INTRA:          -3.675
REMARK INTER:                  -4.511
REMARK INTRA:                   0.837
REMARK UNBOUND:                 0.850
REMARK SMILES CC1=CC=CC(C)(C)CC1=O
REMARK SMILES IDX 1 1 2 2 3 3 10 4 11 5 9 6 4 8 5 9 6 10 7 11 8 12
REMARK H PARENT
REMARK Flexibility Score: 80.00
ROOT
ATOM      1  C   UNL     1     -13.261 -16.613  26.998  1.00  0.00     0.048 C 
ATOM      2  C   UNL     1     -12.708 -17.385  28.174  1.00  0.00    -0.008 C 
ATOM      3  C   UNL     1     -13.267 -18.579  28.463  1.00  0.00     0.007 C 
ENDROOT
BRANCH   2   4
ATOM      4  C   UNL     1     -11.550 -16.781  28.884  1.00  0.00     0.159 C 
ATOM      5  O   UNL     1     -11.149 -15.641  28.522  1.00  0.00    -0.295 OA
BRANCH   4   6
ATOM      6  C   UNL     1     -10.793 -17.459  29.988  1.00  0.00     0.091 CG0
ATOM      7  G   UNL     1     -11.691 -17.997  31.124  1.00  0.00     0.000 G0
ENDBRANCH   4   6
ENDBRANCH   2   4
BRANCH   3   8
ATOM      8  C   UNL     1     -12.948 -19.537  29.546  1.00  0.00    -0.003 C 
ATOM      9  C   UNL     1     -12.307 -19.311  30.698  1.00  0.00    -0.020 C 
BRANCH   9  10
ATOM     10  C   UNL     1     -11.691 -18.001  31.132  1.00  0.00    -0.010 CG0
ATOM     11  C   UNL     1     -12.792 -17.012  31.577  1.00  0.00     0.016 C 
ATOM     12  C   UNL     1     -10.779 -18.277  32.349  1.00  0.00     0.016 C 
ATOM     13  G   UNL     1     -10.812 -17.443  29.990  1.00  0.00     0.000 G0
ENDBRANCH   9  10
ENDBRANCH   3   8
TORSDOF 0
ENDMDL
MODEL 8
REMARK VINA RESULT:    -3.664      2.115      3.636
REMARK INTER + INTRA:          -3.670
REMARK INTER:                  -4.516
REMARK INTRA:                   0.846
REMARK UNBOUND:                 0.850
REMARK SMILES CC1=CC=CC(C)(C)CC1=O
REMARK SMILES IDX 1 1 2 2 3 3 10 4 11 5 9 6 4 8 5 9 6 10 7 11 8 12
REMARK H PARENT
REMARK Flexibility Score: 80.00
ROOT
ATOM      1  C   UNL     1     -14.224 -14.224  28.626  1.00  0.00     0.048 C 
ATOM      2  C   UNL     1     -13.179 -15.177  29.159  1.00  0.00    -0.008 C 
ATOM      3  C   UNL     1     -12.204 -15.579  28.316  1.00  0.00     0.007 C 
ENDROOT
BRANCH   2   4
ATOM      4  C   UNL     1     -13.286 -15.551  30.594  1.00  0.00     0.159 C 
ATOM      5  O   UNL     1     -14.286 -15.148  31.249  1.00  0.00    -0.295 OA
BRANCH   4   6
ATOM      6  C   UNL     1     -12.256 -16.352  31.334  1.00  0.00     0.091 CG0
ATOM      7  G   UNL     1     -11.888 -17.687  30.649  1.00  0.00     0.000 G0
ENDBRANCH   4   6
ENDBRANCH   2   4
BRANCH   3   8
ATOM      8  C   UNL     1     -11.071 -16.504  28.550  1.00  0.00    -0.003 C 
ATOM      9  C   UNL     1     -10.929 -17.423  29.512  1.00  0.00    -0.020 C 
BRANCH   9  10
ATOM     10  C   UNL     1     -11.894 -17.683  30.645  1.00  0.00    -0.010 CG0
ATOM     11  C   UNL     1     -13.131 -18.453  30.130  1.00  0.00     0.016 C 
ATOM     12  C   UNL     1     -11.183 -18.571  31.691  1.00  0.00     0.016 C 
ATOM     13  G   UNL     1     -12.263 -16.344  31.323  1.00  0.00     0.000 G0
ENDBRANCH   9  10
ENDBRANCH   3   8
TORSDOF 0
ENDMDL
MODEL 9
REMARK VINA RESULT:    -3.652      2.218      3.891
REMARK INTER + INTRA:          -3.656
REMARK INTER:                  -4.488
REMARK INTRA:                   0.833
REMARK UNBOUND:                 0.850
REMARK SMILES CC1=CC=CC(C)(C)CC1=O
REMARK SMILES IDX 1 1 2 2 3 3 10 4 11 5 9 6 4 8 5 9 6 10 7 11 8 12
REMARK H PARENT
REMARK Flexibility Score: 80.00
ROOT
ATOM      1  C   UNL     1     -12.530 -15.129  33.612  1.00  0.00     0.048 C 
ATOM      2  C   UNL     1     -12.163 -16.281  32.706  1.00  0.00    -0.008 C 
ATOM      3  C   UNL     1     -10.889 -16.357  32.267  1.00  0.00     0.007 C 
ENDROOT
BRANCH   2   4
ATOM      4  C   UNL     1     -13.235 -17.272  32.417  1.00  0.00     0.159 C 
ATOM      5  O   UNL     1     -14.398 -17.043  32.847  1.00  0.00    -0.295 OA
BRANCH   4   6
ATOM      6  C   UNL     1     -13.015 -18.556  31.674  1.00  0.00     0.091 CG0
ATOM      7  G   UNL     1     -12.331 -18.377  30.300  1.00  0.00     0.000 G0
ENDBRANCH   4   6
ENDBRANCH   2   4
BRANCH   3   8
ATOM      8  C   UNL     1     -10.253 -17.351  31.372  1.00  0.00    -0.003 C 
ATOM      9  C   UNL     1     -10.836 -18.194  30.512  1.00  0.00    -0.020 C 
BRANCH   9  10
ATOM     10  C   UNL     1     -12.322 -18.368  30.306  1.00  0.00    -0.010 CG0
ATOM     11  C   UNL     1     -12.891 -17.192  29.480  1.00  0.00     0.016 C 
ATOM     12  C   UNL     1     -12.548 -19.668  29.500  1.00  0.00     0.016 C 
ATOM     13  G   UNL     1     -13.016 -18.527  31.677  1.00  0.00     0.000 G0
ENDBRANCH   9  10
ENDBRANCH   3   8
TORSDOF 0
ENDMDL
