MODEL 1
REMARK VINA RESULT:    -3.989      0.000      0.000
REMARK INTER + INTRA:          -6.566
REMARK INTER:                  -6.088
REMARK INTRA:                  -0.478
REMARK UNBOUND:                -0.478
REMARK SMILES CCCCCCCCCC=CC(=O)[O-]
REMARK SMILES IDX 7 1 8 2 9 3 10 4 11 5 12 6 13 7 14 8 6 9 5 10 4 11 3 12 2 13
REMARK SMILES IDX 1 14
REMARK H PARENT
REMARK Flexibility Score: inf
ROOT
ATOM      1  C   UNL     1     121.130  72.237   2.471  1.00  0.00     0.000 C 
ENDROOT
BRANCH   1   2
ATOM      2  C   UNL     1     120.155  72.142   1.291  1.00  0.00     0.004 C 
BRANCH   2   3
ATOM      3  C   UNL     1     119.971  70.684   0.847  1.00  0.00     0.027 C 
BRANCH   3   4
ATOM      4  C   UNL     1     121.152  70.205   0.047  1.00  0.00    -0.025 C 
ATOM      5  C   UNL     1     121.347  68.953  -0.400  1.00  0.00     0.020 C 
BRANCH   5   6
ATOM      6  C   UNL     1     120.430  67.806  -0.238  1.00  0.00     0.064 C 
ATOM      7  O   UNL     1     119.875  67.323  -1.259  1.00  0.00    -0.545 OA
ATOM      8  O   UNL     1     120.139  67.258   1.004  1.00  0.00    -0.545 OA
ENDBRANCH   5   6
ENDBRANCH   3   4
ENDBRANCH   2   3
ENDBRANCH   1   2
BRANCH   1   9
ATOM      9  C   UNL     1     120.377  72.245   3.809  1.00  0.00     0.000 C 
BRANCH   9  10
ATOM     10  C   UNL     1     120.902  71.187   4.792  1.00  0.00     0.000 C 
BRANCH  10  11
ATOM     11  C   UNL     1     119.875  70.825   5.875  1.00  0.00    -0.000 C 
BRANCH  11  12
ATOM     12  C   UNL     1     120.379  71.230   7.265  1.00  0.00    -0.000 C 
BRANCH  12  13
ATOM     13  C   UNL     1     120.136  72.722   7.525  1.00  0.00    -0.003 C 
ATOM     14  C   UNL     1     120.568  73.114   8.936  1.00  0.00     0.004 C 
ENDBRANCH  12  13
ENDBRANCH  11  12
ENDBRANCH  10  11
ENDBRANCH   9  10
ENDBRANCH   1   9
TORSDOF 9
ENDMDL
MODEL 2
REMARK VINA RESULT:    -3.769      4.110      7.646
REMARK INTER + INTRA:          -6.230
REMARK INTER:                  -5.969
REMARK INTRA:                  -0.261
REMARK UNBOUND:                -0.478
REMARK SMILES CCCCCCCCCC=CC(=O)[O-]
REMARK SMILES IDX 7 1 8 2 9 3 10 4 11 5 12 6 13 7 14 8 6 9 5 10 4 11 3 12 2 13
REMARK SMILES IDX 1 14
REMARK H PARENT
REMARK Flexibility Score: inf
ROOT
ATOM      1  C   UNL     1     120.927  71.630   3.530  1.00  0.00     0.000 C 
ENDROOT
BRANCH   1   2
ATOM      2  C   UNL     1     120.233  72.912   4.003  1.00  0.00     0.004 C 
BRANCH   2   3
ATOM      3  C   UNL     1     119.875  72.825   5.493  1.00  0.00     0.027 C 
BRANCH   3   4
ATOM      4  C   UNL     1     120.293  71.503   6.078  1.00  0.00    -0.025 C 
ATOM      5  C   UNL     1     120.618  71.275   7.361  1.00  0.00     0.020 C 
BRANCH   5   6
ATOM      6  C   UNL     1     120.593  72.257   8.465  1.00  0.00     0.064 C 
ATOM      7  O   UNL     1     120.116  71.910   9.576  1.00  0.00    -0.545 OA
ATOM      8  O   UNL     1     121.055  73.557   8.313  1.00  0.00    -0.545 OA
ENDBRANCH   5   6
ENDBRANCH   3   4
ENDBRANCH   2   3
ENDBRANCH   1   2
BRANCH   1   9
ATOM      9  C   UNL     1     120.143  70.969   2.386  1.00  0.00     0.000 C 
BRANCH   9  10
ATOM     10  C   UNL     1     120.782  71.214   1.010  1.00  0.00     0.000 C 
BRANCH  10  11
ATOM     11  C   UNL     1     120.098  70.415  -0.110  1.00  0.00    -0.000 C 
BRANCH  11  12
ATOM     12  C   UNL     1     121.053  69.370  -0.699  1.00  0.00    -0.000 C 
BRANCH  12  13
ATOM     13  C   UNL     1     120.637  67.952  -0.290  1.00  0.00    -0.003 C 
ATOM     14  C   UNL     1     120.131  67.157  -1.491  1.00  0.00     0.004 C 
ENDBRANCH  12  13
ENDBRANCH  11  12
ENDBRANCH  10  11
ENDBRANCH   9  10
ENDBRANCH   1   9
TORSDOF 9
ENDMDL
MODEL 3
REMARK VINA RESULT:    -3.745      0.675      1.161
REMARK INTER + INTRA:          -6.194
REMARK INTER:                  -5.907
REMARK INTRA:                  -0.288
REMARK UNBOUND:                -0.478
REMARK SMILES CCCCCCCCCC=CC(=O)[O-]
REMARK SMILES IDX 7 1 8 2 9 3 10 4 11 5 12 6 13 7 14 8 6 9 5 10 4 11 3 12 2 13
REMARK SMILES IDX 1 14
REMARK H PARENT
REMARK Flexibility Score: inf
ROOT
ATOM      1  C   UNL     1     120.979  72.495   2.344  1.00  0.00     0.000 C 
ENDROOT
BRANCH   1   2
ATOM      2  C   UNL     1     120.139  72.174   1.103  1.00  0.00     0.004 C 
BRANCH   2   3
ATOM      3  C   UNL     1     120.044  70.658   0.880  1.00  0.00     0.027 C 
BRANCH   3   4
ATOM      4  C   UNL     1     121.178  70.161   0.024  1.00  0.00    -0.025 C 
ATOM      5  C   UNL     1     121.345  68.901  -0.411  1.00  0.00     0.020 C 
BRANCH   5   6
ATOM      6  C   UNL     1     120.436  67.759  -0.177  1.00  0.00     0.064 C 
ATOM      7  O   UNL     1     120.178  67.420   1.007  1.00  0.00    -0.545 OA
ATOM      8  O   UNL     1     119.875  67.032  -1.218  1.00  0.00    -0.545 OA
ENDBRANCH   5   6
ENDBRANCH   3   4
ENDBRANCH   2   3
ENDBRANCH   1   2
BRANCH   1   9
ATOM      9  C   UNL     1     120.617  71.562   3.510  1.00  0.00     0.000 C 
BRANCH   9  10
ATOM     10  C   UNL     1     119.875  72.289   4.642  1.00  0.00     0.000 C 
BRANCH  10  11
ATOM     11  C   UNL     1     120.143  71.667   6.021  1.00  0.00    -0.000 C 
BRANCH  11  12
ATOM     12  C   UNL     1     120.156  72.741   7.114  1.00  0.00    -0.000 C 
BRANCH  12  13
ATOM     13  C   UNL     1     120.924  72.259   8.351  1.00  0.00    -0.003 C 
ATOM     14  C   UNL     1     120.197  72.644   9.637  1.00  0.00     0.004 C 
ENDBRANCH  12  13
ENDBRANCH  11  12
ENDBRANCH  10  11
ENDBRANCH   9  10
ENDBRANCH   1   9
TORSDOF 9
ENDMDL
MODEL 4
REMARK VINA RESULT:    -3.737      3.645      8.594
REMARK INTER + INTRA:          -6.182
REMARK INTER:                  -5.952
REMARK INTRA:                  -0.230
REMARK UNBOUND:                -0.478
REMARK SMILES CCCCCCCCCC=CC(=O)[O-]
REMARK SMILES IDX 7 1 8 2 9 3 10 4 11 5 12 6 13 7 14 8 6 9 5 10 4 11 3 12 2 13
REMARK SMILES IDX 1 14
REMARK H PARENT
REMARK Flexibility Score: inf
ROOT
ATOM      1  C   UNL     1     120.464  68.741  -0.389  1.00  0.00     0.000 C 
ENDROOT
BRANCH   1   2
ATOM      2  C   UNL     1     121.010  70.141  -0.086  1.00  0.00     0.004 C 
BRANCH   2   3
ATOM      3  C   UNL     1     120.442  70.679   1.235  1.00  0.00     0.027 C 
BRANCH   3   4
ATOM      4  C   UNL     1     120.925  72.079   1.507  1.00  0.00    -0.025 C 
ATOM      5  C   UNL     1     120.975  72.677   2.708  1.00  0.00     0.020 C 
BRANCH   5   6
ATOM      6  C   UNL     1     120.607  72.078   4.008  1.00  0.00     0.064 C 
ATOM      7  O   UNL     1     119.945  72.764   4.828  1.00  0.00    -0.545 OA
ATOM      8  O   UNL     1     120.988  70.792   4.366  1.00  0.00    -0.545 OA
ENDBRANCH   5   6
ENDBRANCH   3   4
ENDBRANCH   2   3
ENDBRANCH   1   2
BRANCH   1   9
ATOM      9  C   UNL     1     119.986  68.640  -1.845  1.00  0.00     0.000 C 
BRANCH   9  10
ATOM     10  C   UNL     1     120.220  67.247  -2.450  1.00  0.00     0.000 C 
BRANCH  10  11
ATOM     11  C   UNL     1     119.876  67.186  -3.946  1.00  0.00    -0.000 C 
BRANCH  11  12
ATOM     12  C   UNL     1     120.166  68.527  -4.630  1.00  0.00    -0.000 C 
BRANCH  12  13
ATOM     13  C   UNL     1     120.605  68.320  -6.084  1.00  0.00    -0.003 C 
ATOM     14  C   UNL     1     121.018  66.872  -6.334  1.00  0.00     0.004 C 
ENDBRANCH  12  13
ENDBRANCH  11  12
ENDBRANCH  10  11
ENDBRANCH   9  10
ENDBRANCH   1   9
TORSDOF 9
ENDMDL
MODEL 5
REMARK VINA RESULT:    -3.735      4.196      8.986
REMARK INTER + INTRA:          -6.178
REMARK INTER:                  -5.774
REMARK INTRA:                  -0.404
REMARK UNBOUND:                -0.478
REMARK SMILES CCCCCCCCCC=CC(=O)[O-]
REMARK SMILES IDX 7 1 8 2 9 3 10 4 11 5 12 6 13 7 14 8 6 9 5 10 4 11 3 12 2 13
REMARK SMILES IDX 1 14
REMARK H PARENT
REMARK Flexibility Score: inf
ROOT
ATOM      1  C   UNL     1     120.932  69.552  -1.456  1.00  0.00     0.000 C 
ENDROOT
BRANCH   1   2
ATOM      2  C   UNL     1     120.458  68.922  -0.140  1.00  0.00     0.004 C 
BRANCH   2   3
ATOM      3  C   UNL     1     119.930  69.994   0.823  1.00  0.00     0.027 C 
BRANCH   3   4
ATOM      4  C   UNL     1     120.815  71.211   0.823  1.00  0.00    -0.025 C 
ATOM      5  C   UNL     1     121.092  71.987   1.884  1.00  0.00     0.020 C 
BRANCH   5   6
ATOM      6  C   UNL     1     120.622  71.784   3.271  1.00  0.00     0.064 C 
ATOM      7  O   UNL     1     119.875  72.651   3.793  1.00  0.00    -0.545 OA
ATOM      8  O   UNL     1     120.997  70.682   4.027  1.00  0.00    -0.545 OA
ENDBRANCH   5   6
ENDBRANCH   3   4
ENDBRANCH   2   3
ENDBRANCH   1   2
BRANCH   1   9
ATOM      9  C   UNL     1     119.875  69.385  -2.557  1.00  0.00     0.000 C 
BRANCH   9  10
ATOM     10  C   UNL     1     120.332  69.959  -3.908  1.00  0.00     0.000 C 
BRANCH  10  11
ATOM     11  C   UNL     1     120.312  68.912  -5.032  1.00  0.00    -0.000 C 
BRANCH  11  12
ATOM     12  C   UNL     1     119.953  69.557  -6.376  1.00  0.00    -0.000 C 
BRANCH  12  13
ATOM     13  C   UNL     1     120.090  68.550  -7.524  1.00  0.00    -0.003 C 
ATOM     14  C   UNL     1     121.156  67.502  -7.215  1.00  0.00     0.004 C 
ENDBRANCH  12  13
ENDBRANCH  11  12
ENDBRANCH  10  11
ENDBRANCH   9  10
ENDBRANCH   1   9
TORSDOF 9
ENDMDL
MODEL 6
REMARK VINA RESULT:    -3.545      3.689      8.403
REMARK INTER + INTRA:          -5.889
REMARK INTER:                  -5.829
REMARK INTRA:                  -0.060
REMARK UNBOUND:                -0.478
REMARK SMILES CCCCCCCCCC=CC(=O)[O-]
REMARK SMILES IDX 7 1 8 2 9 3 10 4 11 5 12 6 13 7 14 8 6 9 5 10 4 11 3 12 2 13
REMARK SMILES IDX 1 14
REMARK H PARENT
REMARK Flexibility Score: inf
ROOT
ATOM      1  C   UNL     1     120.990  70.462   0.046  1.00  0.00     0.000 C 
ENDROOT
BRANCH   1   2
ATOM      2  C   UNL     1     120.639  71.726   0.841  1.00  0.00     0.004 C 
BRANCH   2   3
ATOM      3  C   UNL     1     119.985  71.367   2.183  1.00  0.00     0.027 C 
BRANCH   3   4
ATOM      4  C   UNL     1     119.933  72.559   3.100  1.00  0.00    -0.025 C 
ATOM      5  C   UNL     1     120.177  72.550   4.421  1.00  0.00     0.020 C 
BRANCH   5   6
ATOM      6  C   UNL     1     120.586  71.385   5.234  1.00  0.00     0.064 C 
ATOM      7  O   UNL     1     121.517  70.649   4.817  1.00  0.00    -0.545 OA
ATOM      8  O   UNL     1     119.962  71.059   6.431  1.00  0.00    -0.545 OA
ENDBRANCH   5   6
ENDBRANCH   3   4
ENDBRANCH   2   3
ENDBRANCH   1   2
BRANCH   1   9
ATOM      9  C   UNL     1     119.895  70.137  -0.981  1.00  0.00     0.000 C 
BRANCH   9  10
ATOM     10  C   UNL     1     120.428  69.344  -2.184  1.00  0.00     0.000 C 
BRANCH  10  11
ATOM     11  C   UNL     1     119.875  69.856  -3.523  1.00  0.00    -0.000 C 
BRANCH  11  12
ATOM     12  C   UNL     1     119.988  68.781  -4.610  1.00  0.00    -0.000 C 
BRANCH  12  13
ATOM     13  C   UNL     1     120.523  69.376  -5.918  1.00  0.00    -0.003 C 
ATOM     14  C   UNL     1     120.661  68.304  -6.996  1.00  0.00     0.004 C 
ENDBRANCH  12  13
ENDBRANCH  11  12
ENDBRANCH  10  11
ENDBRANCH   9  10
ENDBRANCH   1   9
TORSDOF 9
ENDMDL
MODEL 7
REMARK VINA RESULT:    -3.468      2.726      6.586
REMARK INTER + INTRA:          -5.771
REMARK INTER:                  -5.396
REMARK INTRA:                  -0.375
REMARK UNBOUND:                -0.478
REMARK SMILES CCCCCCCCCC=CC(=O)[O-]
REMARK SMILES IDX 7 1 8 2 9 3 10 4 11 5 12 6 13 7 14 8 6 9 5 10 4 11 3 12 2 13
REMARK SMILES IDX 1 14
REMARK H PARENT
REMARK Flexibility Score: inf
ROOT
ATOM      1  C   UNL     1     121.309  72.019   1.218  1.00  0.00     0.000 C 
ENDROOT
BRANCH   1   2
ATOM      2  C   UNL     1     121.338  72.898   2.475  1.00  0.00     0.004 C 
BRANCH   2   3
ATOM      3  C   UNL     1     119.915  73.194   2.971  1.00  0.00     0.027 C 
BRANCH   3   4
ATOM      4  C   UNL     1     119.876  73.321   4.470  1.00  0.00    -0.025 C 
ATOM      5  C   UNL     1     120.195  72.360   5.352  1.00  0.00     0.020 C 
BRANCH   5   6
ATOM      6  C   UNL     1     120.687  71.002   5.038  1.00  0.00     0.064 C 
ATOM      7  O   UNL     1     119.876  70.041   5.063  1.00  0.00    -0.545 OA
ATOM      8  O   UNL     1     122.018  70.746   4.740  1.00  0.00    -0.545 OA
ENDBRANCH   5   6
ENDBRANCH   3   4
ENDBRANCH   2   3
ENDBRANCH   1   2
BRANCH   1   9
ATOM      9  C   UNL     1     119.892  71.491   0.949  1.00  0.00     0.000 C 
BRANCH   9  10
ATOM     10  C   UNL     1     119.891  70.073   0.356  1.00  0.00     0.000 C 
BRANCH  10  11
ATOM     11  C   UNL     1     120.198  70.060  -1.149  1.00  0.00    -0.000 C 
BRANCH  11  12
ATOM     12  C   UNL     1     120.365  68.625  -1.662  1.00  0.00    -0.000 C 
BRANCH  12  13
ATOM     13  C   UNL     1     120.709  67.667  -0.516  1.00  0.00    -0.003 C 
ATOM     14  C   UNL     1     120.151  66.270  -0.777  1.00  0.00     0.004 C 
ENDBRANCH  12  13
ENDBRANCH  11  12
ENDBRANCH  10  11
ENDBRANCH   9  10
ENDBRANCH   1   9
TORSDOF 9
ENDMDL
MODEL 8
REMARK VINA RESULT:    -3.339      4.318      6.304
REMARK INTER + INTRA:          -5.574
REMARK INTER:                  -5.145
REMARK INTRA:                  -0.430
REMARK UNBOUND:                -0.478
REMARK SMILES CCCCCCCCCC=CC(=O)[O-]
REMARK SMILES IDX 7 1 8 2 9 3 10 4 11 5 12 6 13 7 14 8 6 9 5 10 4 11 3 12 2 13
REMARK SMILES IDX 1 14
REMARK H PARENT
REMARK Flexibility Score: inf
ROOT
ATOM      1  C   UNL     1     120.675  69.100  -2.690  1.00  0.00     0.000 C 
ENDROOT
BRANCH   1   2
ATOM      2  C   UNL     1     120.002  69.830  -3.858  1.00  0.00     0.004 C 
BRANCH   2   3
ATOM      3  C   UNL     1     119.887  68.915  -5.085  1.00  0.00     0.027 C 
BRANCH   3   4
ATOM      4  C   UNL     1     120.536  67.581  -4.833  1.00  0.00    -0.025 C 
ATOM      5  C   UNL     1     120.973  66.725  -5.771  1.00  0.00     0.020 C 
BRANCH   5   6
ATOM      6  C   UNL     1     120.945  66.932  -7.235  1.00  0.00     0.064 C 
ATOM      7  O   UNL     1     121.839  67.641  -7.765  1.00  0.00    -0.545 OA
ATOM      8  O   UNL     1     119.953  66.392  -8.042  1.00  0.00    -0.545 OA
ENDBRANCH   5   6
ENDBRANCH   3   4
ENDBRANCH   2   3
ENDBRANCH   1   2
BRANCH   1   9
ATOM      9  C   UNL     1     119.880  69.289  -1.390  1.00  0.00     0.000 C 
BRANCH   9  10
ATOM     10  C   UNL     1     120.785  69.498  -0.166  1.00  0.00     0.000 C 
BRANCH  10  11
ATOM     11  C   UNL     1     120.875  70.971   0.259  1.00  0.00    -0.000 C 
BRANCH  11  12
ATOM     12  C   UNL     1     120.526  71.137   1.742  1.00  0.00    -0.000 C 
BRANCH  12  13
ATOM     13  C   UNL     1     121.052  72.470   2.286  1.00  0.00    -0.003 C 
ATOM     14  C   UNL     1     120.165  73.633   1.849  1.00  0.00     0.004 C 
ENDBRANCH  12  13
ENDBRANCH  11  12
ENDBRANCH  10  11
ENDBRANCH   9  10
ENDBRANCH   1   9
TORSDOF 9
ENDMDL
MODEL 9
REMARK VINA RESULT:    -2.566      2.983      4.664
REMARK INTER + INTRA:          -4.394
REMARK INTER:                  -4.336
REMARK INTRA:                  -0.058
REMARK UNBOUND:                -0.478
REMARK SMILES CCCCCCCCCC=CC(=O)[O-]
REMARK SMILES IDX 7 1 8 2 9 3 10 4 11 5 12 6 13 7 14 8 6 9 5 10 4 11 3 12 2 13
REMARK SMILES IDX 1 14
REMARK H PARENT
REMARK Flexibility Score: inf
ROOT
ATOM      1  C   UNL     1     120.682  69.503  -0.799  1.00  0.00     0.000 C 
ENDROOT
BRANCH   1   2
ATOM      2  C   UNL     1     120.193  68.114  -1.227  1.00  0.00     0.004 C 
BRANCH   2   3
ATOM      3  C   UNL     1     119.875  68.083  -2.728  1.00  0.00     0.027 C 
BRANCH   3   4
ATOM      4  C   UNL     1     119.926  69.463  -3.325  1.00  0.00    -0.025 C 
ATOM      5  C   UNL     1     120.252  69.763  -4.593  1.00  0.00     0.020 C 
BRANCH   5   6
ATOM      6  C   UNL     1     120.585  68.806  -5.669  1.00  0.00     0.064 C 
ATOM      7  O   UNL     1     120.949  69.251  -6.788  1.00  0.00    -0.545 OA
ATOM      8  O   UNL     1     120.486  67.432  -5.496  1.00  0.00    -0.545 OA
ENDBRANCH   5   6
ENDBRANCH   3   4
ENDBRANCH   2   3
ENDBRANCH   1   2
BRANCH   1   9
ATOM      9  C   UNL     1     119.981  69.961   0.489  1.00  0.00     0.000 C 
BRANCH   9  10
ATOM     10  C   UNL     1     119.986  71.488   0.656  1.00  0.00     0.000 C 
BRANCH  10  11
ATOM     11  C   UNL     1     120.984  71.963   1.723  1.00  0.00    -0.000 C 
BRANCH  11  12
ATOM     12  C   UNL     1     120.312  72.062   3.097  1.00  0.00    -0.000 C 
BRANCH  12  13
ATOM     13  C   UNL     1     121.163  71.383   4.176  1.00  0.00    -0.003 C 
ATOM     14  C   UNL     1     120.336  71.084   5.424  1.00  0.00     0.004 C 
ENDBRANCH  12  13
ENDBRANCH  11  12
ENDBRANCH  10  11
ENDBRANCH   9  10
ENDBRANCH   1   9
TORSDOF 9
ENDMDL
