MODEL 1
REMARK VINA RESULT:    -6.067      0.000      0.000
REMARK INTER + INTRA:          -7.557
REMARK INTER:                  -7.309
REMARK INTRA:                  -0.248
REMARK UNBOUND:                -0.248
REMARK SMILES O=c1c(O)c(-c2ccc(O)c(O)c2)oc2cc(O)cc(O)c12
REMARK SMILES IDX 5 1 3 2 2 3 1 4 22 5 20 6 19 7 17 8 16 9 15 10 14 11 6 12
REMARK SMILES IDX 7 13 8 14 9 15 13 16 11 17 10 18 12 20 4 22 21 24 18 26
REMARK H PARENT 10 19 12 21 4 23 21 25 18 27
REMARK Flexibility Score: inf
ROOT
ATOM      1  C   UNL     1      29.172 -17.534  24.051  1.00  0.00     0.180 A 
ATOM      2  C   UNL     1      29.152 -17.619  25.454  1.00  0.00     0.208 A 
ATOM      3  C   UNL     1      29.085 -18.884  26.059  1.00  0.00     0.238 A 
ATOM      4  O   UNL     1      29.122 -18.957  27.315  1.00  0.00    -0.285 OA
ATOM      5  C   UNL     1      29.023 -20.048  25.255  1.00  0.00     0.111 A 
ATOM      6  C   UNL     1      28.913 -21.378  25.760  1.00  0.00     0.134 A 
ATOM      7  C   UNL     1      28.992 -22.461  24.877  1.00  0.00     0.093 A 
ATOM      8  C   UNL     1      29.110 -22.262  23.502  1.00  0.00     0.123 A 
ATOM      9  C   UNL     1      29.158 -20.964  22.991  1.00  0.00     0.094 A 
ATOM     10  C   UNL     1      29.119 -19.864  23.850  1.00  0.00     0.146 A 
ATOM     11  O   UNL     1      29.179 -18.646  23.325  1.00  0.00    -0.452 OA
ENDROOT
BRANCH   1  12
ATOM     12  C   UNL     1      29.216 -16.236  23.341  1.00  0.00     0.025 A 
ATOM     13  C   UNL     1      30.368 -15.881  22.620  1.00  0.00     0.016 A 
ATOM     14  C   UNL     1      30.423 -14.671  21.925  1.00  0.00     0.051 A 
ATOM     15  C   UNL     1      29.322 -13.804  21.927  1.00  0.00     0.157 A 
ATOM     16  C   UNL     1      28.106 -15.372  23.323  1.00  0.00     0.062 A 
ATOM     17  C   UNL     1      28.161 -14.157  22.625  1.00  0.00     0.158 A 
BRANCH  15  18
ATOM     18  O   UNL     1      29.374 -12.594  21.238  1.00  0.00    -0.504 OA
ATOM     19  H   UNL     1      28.582 -11.962  21.218  1.00  0.00     0.293 HD
ENDBRANCH  15  18
BRANCH  17  20
ATOM     20  O   UNL     1      27.061 -13.299  22.615  1.00  0.00    -0.504 OA
ATOM     21  H   UNL     1      27.162 -12.307  22.797  1.00  0.00     0.293 HD
ENDBRANCH  17  20
ENDBRANCH   1  12
BRANCH   2  22
ATOM     22  O   UNL     1      29.236 -16.459  26.229  1.00  0.00    -0.502 OA
ATOM     23  H   UNL     1      30.117 -16.004  26.432  1.00  0.00     0.293 HD
ENDBRANCH   2  22
BRANCH   6  24
ATOM     24  O   UNL     1      28.699 -21.685  27.107  1.00  0.00    -0.507 OA
ATOM     25  H   UNL     1      28.881 -22.583  27.528  1.00  0.00     0.293 HD
ENDBRANCH   6  24
BRANCH   8  26
ATOM     26  O   UNL     1      29.170 -23.364  22.651  1.00  0.00    -0.508 OA
ATOM     27  H   UNL     1      29.934 -23.487  21.996  1.00  0.00     0.293 HD
ENDBRANCH   8  26
TORSDOF 6
ENDMDL
MODEL 2
REMARK VINA RESULT:    -5.934      1.582      2.949
REMARK INTER + INTRA:          -7.396
REMARK INTER:                  -7.079
REMARK INTRA:                  -0.317
REMARK UNBOUND:                -0.248
REMARK SMILES O=c1c(O)c(-c2ccc(O)c(O)c2)oc2cc(O)cc(O)c12
REMARK SMILES IDX 5 1 3 2 2 3 1 4 22 5 20 6 19 7 17 8 16 9 15 10 14 11 6 12
REMARK SMILES IDX 7 13 8 14 9 15 13 16 11 17 10 18 12 20 4 22 21 24 18 26
REMARK H PARENT 10 19 12 21 4 23 21 25 18 27
REMARK Flexibility Score: inf
ROOT
ATOM      1  C   UNL     1      29.328 -18.266  23.894  1.00  0.00     0.180 A 
ATOM      2  C   UNL     1      29.581 -18.957  22.695  1.00  0.00     0.208 A 
ATOM      3  C   UNL     1      29.484 -20.357  22.684  1.00  0.00     0.238 A 
ATOM      4  O   UNL     1      29.658 -20.967  21.596  1.00  0.00    -0.285 OA
ATOM      5  C   UNL     1      29.152 -21.052  23.873  1.00  0.00     0.111 A 
ATOM      6  C   UNL     1      29.066 -22.471  23.986  1.00  0.00     0.134 A 
ATOM      7  C   UNL     1      28.602 -23.042  25.177  1.00  0.00     0.093 A 
ATOM      8  C   UNL     1      28.285 -22.250  26.280  1.00  0.00     0.123 A 
ATOM      9  C   UNL     1      28.423 -20.864  26.200  1.00  0.00     0.094 A 
ATOM     10  C   UNL     1      28.848 -20.263  25.014  1.00  0.00     0.146 A 
ATOM     11  O   UNL     1      28.956 -18.940  24.975  1.00  0.00    -0.452 OA
ENDROOT
BRANCH   1  12
ATOM     12  C   UNL     1      29.435 -16.792  23.990  1.00  0.00     0.025 A 
ATOM     13  C   UNL     1      30.652 -16.212  24.382  1.00  0.00     0.016 A 
ATOM     14  C   UNL     1      30.781 -14.823  24.459  1.00  0.00     0.051 A 
ATOM     15  C   UNL     1      29.700 -13.994  24.132  1.00  0.00     0.157 A 
ATOM     16  C   UNL     1      28.359 -15.956  23.643  1.00  0.00     0.062 A 
ATOM     17  C   UNL     1      28.488 -14.561  23.719  1.00  0.00     0.158 A 
BRANCH  15  18
ATOM     18  O   UNL     1      29.823 -12.608  24.210  1.00  0.00    -0.504 OA
ATOM     19  H   UNL     1      29.114 -12.038  24.657  1.00  0.00     0.293 HD
ENDBRANCH  15  18
BRANCH  17  20
ATOM     20  O   UNL     1      27.418 -13.734  23.381  1.00  0.00    -0.504 OA
ATOM     21  H   UNL     1      26.459 -14.051  23.456  1.00  0.00     0.293 HD
ENDBRANCH  17  20
ENDBRANCH   1  12
BRANCH   2  22
ATOM     22  O   UNL     1      29.885 -18.251  21.528  1.00  0.00    -0.502 OA
ATOM     23  H   UNL     1      30.806 -18.269  21.107  1.00  0.00     0.293 HD
ENDBRANCH   2  22
BRANCH   6  24
ATOM     24  O   UNL     1      29.447 -23.359  22.975  1.00  0.00    -0.507 OA
ATOM     25  H   UNL     1      30.350 -23.366  22.526  1.00  0.00     0.293 HD
ENDBRANCH   6  24
BRANCH   8  26
ATOM     26  O   UNL     1      27.841 -22.854  27.454  1.00  0.00    -0.508 OA
ATOM     27  H   UNL     1      26.866 -22.823  27.731  1.00  0.00     0.293 HD
ENDBRANCH   8  26
TORSDOF 6
ENDMDL
MODEL 3
REMARK VINA RESULT:    -5.907      2.574      3.422
REMARK INTER + INTRA:          -7.363
REMARK INTER:                  -7.180
REMARK INTRA:                  -0.184
REMARK UNBOUND:                -0.248
REMARK SMILES O=c1c(O)c(-c2ccc(O)c(O)c2)oc2cc(O)cc(O)c12
REMARK SMILES IDX 5 1 3 2 2 3 1 4 22 5 20 6 19 7 17 8 16 9 15 10 14 11 6 12
REMARK SMILES IDX 7 13 8 14 9 15 13 16 11 17 10 18 12 20 4 22 21 24 18 26
REMARK H PARENT 10 19 12 21 4 23 21 25 18 27
REMARK Flexibility Score: inf
ROOT
ATOM      1  C   UNL     1      29.770 -18.975  22.428  1.00  0.00     0.180 A 
ATOM      2  C   UNL     1      29.343 -19.827  23.463  1.00  0.00     0.208 A 
ATOM      3  C   UNL     1      29.875 -21.124  23.539  1.00  0.00     0.238 A 
ATOM      4  O   UNL     1      29.531 -21.863  24.498  1.00  0.00    -0.285 OA
ATOM      5  C   UNL     1      30.813 -21.559  22.572  1.00  0.00     0.111 A 
ATOM      6  C   UNL     1      31.387 -22.866  22.529  1.00  0.00     0.134 A 
ATOM      7  C   UNL     1      32.402 -23.144  21.607  1.00  0.00     0.093 A 
ATOM      8  C   UNL     1      32.818 -22.187  20.683  1.00  0.00     0.123 A 
ATOM      9  C   UNL     1      32.223 -20.925  20.676  1.00  0.00     0.094 A 
ATOM     10  C   UNL     1      31.233 -20.605  21.608  1.00  0.00     0.146 A 
ATOM     11  O   UNL     1      30.699 -19.390  21.576  1.00  0.00    -0.452 OA
ENDROOT
BRANCH   1  12
ATOM     12  C   UNL     1      29.236 -17.603  22.268  1.00  0.00     0.025 A 
ATOM     13  C   UNL     1      28.399 -17.311  21.179  1.00  0.00     0.016 A 
ATOM     14  C   UNL     1      27.867 -16.028  21.019  1.00  0.00     0.051 A 
ATOM     15  C   UNL     1      28.152 -15.024  21.954  1.00  0.00     0.157 A 
ATOM     16  C   UNL     1      29.503 -16.598  23.214  1.00  0.00     0.062 A 
ATOM     17  C   UNL     1      28.969 -15.311  23.055  1.00  0.00     0.158 A 
BRANCH  15  18
ATOM     18  O   UNL     1      27.627 -13.743  21.798  1.00  0.00    -0.504 OA
ATOM     19  H   UNL     1      28.109 -13.035  21.256  1.00  0.00     0.293 HD
ENDBRANCH  15  18
BRANCH  17  20
ATOM     20  O   UNL     1      29.240 -14.314  23.992  1.00  0.00    -0.504 OA
ATOM     21  H   UNL     1      28.614 -13.528  24.126  1.00  0.00     0.293 HD
ENDBRANCH  17  20
ENDBRANCH   1  12
BRANCH   2  22
ATOM     22  O   UNL     1      28.433 -19.369  24.420  1.00  0.00    -0.502 OA
ATOM     23  H   UNL     1      27.461 -19.653  24.424  1.00  0.00     0.293 HD
ENDBRANCH   2  22
BRANCH   6  24
ATOM     24  O   UNL     1      30.978 -23.923  23.346  1.00  0.00    -0.507 OA
ATOM     25  H   UNL     1      31.586 -24.446  23.958  1.00  0.00     0.293 HD
ENDBRANCH   6  24
BRANCH   8  26
ATOM     26  O   UNL     1      33.821 -22.504  19.769  1.00  0.00    -0.508 OA
ATOM     27  H   UNL     1      34.366 -21.784  19.308  1.00  0.00     0.293 HD
ENDBRANCH   8  26
TORSDOF 6
ENDMDL
MODEL 4
REMARK VINA RESULT:    -5.757      1.695      6.724
REMARK INTER + INTRA:          -7.183
REMARK INTER:                  -6.893
REMARK INTRA:                  -0.290
REMARK UNBOUND:                -0.248
REMARK SMILES O=c1c(O)c(-c2ccc(O)c(O)c2)oc2cc(O)cc(O)c12
REMARK SMILES IDX 5 1 3 2 2 3 1 4 22 5 20 6 19 7 17 8 16 9 15 10 14 11 6 12
REMARK SMILES IDX 7 13 8 14 9 15 13 16 11 17 10 18 12 20 4 22 21 24 18 26
REMARK H PARENT 10 19 12 21 4 23 21 25 18 27
REMARK Flexibility Score: inf
ROOT
ATOM      1  C   UNL     1      29.593 -18.203  23.626  1.00  0.00     0.180 A 
ATOM      2  C   UNL     1      30.114 -17.599  24.784  1.00  0.00     0.208 A 
ATOM      3  C   UNL     1      29.996 -16.209  24.938  1.00  0.00     0.238 A 
ATOM      4  O   UNL     1      30.416 -15.680  26.000  1.00  0.00    -0.285 OA
ATOM      5  C   UNL     1      29.374 -15.437  23.927  1.00  0.00     0.111 A 
ATOM      6  C   UNL     1      29.236 -14.017  23.959  1.00  0.00     0.134 A 
ATOM      7  C   UNL     1      28.488 -13.373  22.967  1.00  0.00     0.093 A 
ATOM      8  C   UNL     1      27.929 -14.088  21.908  1.00  0.00     0.123 A 
ATOM      9  C   UNL     1      28.108 -15.469  21.834  1.00  0.00     0.094 A 
ATOM     10  C   UNL     1      28.818 -16.145  22.828  1.00  0.00     0.146 A 
ATOM     11  O   UNL     1      28.957 -17.462  22.726  1.00  0.00    -0.452 OA
ENDROOT
BRANCH   1  12
ATOM     12  C   UNL     1      29.700 -19.659  23.381  1.00  0.00     0.025 A 
ATOM     13  C   UNL     1      28.791 -20.533  23.998  1.00  0.00     0.016 A 
ATOM     14  C   UNL     1      28.860 -21.909  23.763  1.00  0.00     0.051 A 
ATOM     15  C   UNL     1      29.831 -22.429  22.897  1.00  0.00     0.157 A 
ATOM     16  C   UNL     1      30.660 -20.184  22.496  1.00  0.00     0.062 A 
ATOM     17  C   UNL     1      30.730 -21.565  22.260  1.00  0.00     0.158 A 
BRANCH  15  18
ATOM     18  O   UNL     1      29.907 -23.801  22.663  1.00  0.00    -0.504 OA
ATOM     19  H   UNL     1      29.618 -24.204  21.779  1.00  0.00     0.293 HD
ENDBRANCH  15  18
BRANCH  17  20
ATOM     20  O   UNL     1      31.686 -22.084  21.388  1.00  0.00    -0.504 OA
ATOM     21  H   UNL     1      32.674 -22.073  21.617  1.00  0.00     0.293 HD
ENDBRANCH  17  20
ENDBRANCH   1  12
BRANCH   2  22
ATOM     22  O   UNL     1      30.704 -18.382  25.780  1.00  0.00    -0.502 OA
ATOM     23  H   UNL     1      31.463 -18.043  26.359  1.00  0.00     0.293 HD
ENDBRANCH   2  22
BRANCH   6  24
ATOM     24  O   UNL     1      29.833 -13.198  24.921  1.00  0.00    -0.507 OA
ATOM     25  H   UNL     1      30.659 -12.639  24.769  1.00  0.00     0.293 HD
ENDBRANCH   6  24
BRANCH   8  26
ATOM     26  O   UNL     1      27.203 -13.411  20.930  1.00  0.00    -0.508 OA
ATOM     27  H   UNL     1      27.658 -12.991  20.127  1.00  0.00     0.293 HD
ENDBRANCH   8  26
TORSDOF 6
ENDMDL
MODEL 5
REMARK VINA RESULT:    -5.733      3.707      6.407
REMARK INTER + INTRA:          -7.153
REMARK INTER:                  -6.861
REMARK INTRA:                  -0.292
REMARK UNBOUND:                -0.248
REMARK SMILES O=c1c(O)c(-c2ccc(O)c(O)c2)oc2cc(O)cc(O)c12
REMARK SMILES IDX 5 1 3 2 2 3 1 4 22 5 20 6 19 7 17 8 16 9 15 10 14 11 6 12
REMARK SMILES IDX 7 13 8 14 9 15 13 16 11 17 10 18 12 20 4 22 21 24 18 26
REMARK H PARENT 10 19 12 21 4 23 21 25 18 27
REMARK Flexibility Score: inf
ROOT
ATOM      1  C   UNL     1      31.203 -21.837  22.955  1.00  0.00     0.180 A 
ATOM      2  C   UNL     1      30.646 -23.097  23.234  1.00  0.00     0.208 A 
ATOM      3  C   UNL     1      29.540 -23.177  24.095  1.00  0.00     0.238 A 
ATOM      4  O   UNL     1      29.011 -24.301  24.298  1.00  0.00    -0.285 OA
ATOM      5  C   UNL     1      29.014 -21.999  24.679  1.00  0.00     0.111 A 
ATOM      6  C   UNL     1      27.922 -21.966  25.596  1.00  0.00     0.134 A 
ATOM      7  C   UNL     1      27.403 -20.733  26.008  1.00  0.00     0.093 A 
ATOM      8  C   UNL     1      27.977 -19.533  25.590  1.00  0.00     0.123 A 
ATOM      9  C   UNL     1      29.083 -19.554  24.740  1.00  0.00     0.094 A 
ATOM     10  C   UNL     1      29.601 -20.768  24.282  1.00  0.00     0.146 A 
ATOM     11  O   UNL     1      30.648 -20.744  23.466  1.00  0.00    -0.452 OA
ENDROOT
BRANCH   1  12
ATOM     12  C   UNL     1      32.385 -21.675  22.078  1.00  0.00     0.025 A 
ATOM     13  C   UNL     1      33.665 -21.948  22.586  1.00  0.00     0.016 A 
ATOM     14  C   UNL     1      34.792 -21.823  21.769  1.00  0.00     0.051 A 
ATOM     15  C   UNL     1      34.654 -21.438  20.429  1.00  0.00     0.157 A 
ATOM     16  C   UNL     1      32.249 -21.309  20.727  1.00  0.00     0.062 A 
ATOM     17  C   UNL     1      33.380 -21.184  19.906  1.00  0.00     0.158 A 
BRANCH  15  18
ATOM     18  O   UNL     1      35.775 -21.309  19.612  1.00  0.00    -0.504 OA
ATOM     19  H   UNL     1      35.688 -21.164  18.612  1.00  0.00     0.293 HD
ENDBRANCH  15  18
BRANCH  17  20
ATOM     20  O   UNL     1      33.244 -20.814  18.569  1.00  0.00    -0.504 OA
ATOM     21  H   UNL     1      32.343 -20.824  18.105  1.00  0.00     0.293 HD
ENDBRANCH  17  20
ENDBRANCH   1  12
BRANCH   2  22
ATOM     22  O   UNL     1      31.166 -24.245  22.630  1.00  0.00    -0.502 OA
ATOM     23  H   UNL     1      32.059 -24.252  22.154  1.00  0.00     0.293 HD
ENDBRANCH   2  22
BRANCH   6  24
ATOM     24  O   UNL     1      27.333 -23.107  26.149  1.00  0.00    -0.507 OA
ATOM     25  H   UNL     1      27.383 -23.365  27.123  1.00  0.00     0.293 HD
ENDBRANCH   6  24
BRANCH   8  26
ATOM     26  O   UNL     1      27.444 -18.324  26.032  1.00  0.00    -0.508 OA
ATOM     27  H   UNL     1      26.657 -17.889  25.565  1.00  0.00     0.293 HD
ENDBRANCH   8  26
TORSDOF 6
ENDMDL
MODEL 6
REMARK VINA RESULT:    -5.680      1.961      2.639
REMARK INTER + INTRA:          -7.090
REMARK INTER:                  -6.763
REMARK INTRA:                  -0.327
REMARK UNBOUND:                -0.248
REMARK SMILES O=c1c(O)c(-c2ccc(O)c(O)c2)oc2cc(O)cc(O)c12
REMARK SMILES IDX 5 1 3 2 2 3 1 4 22 5 20 6 19 7 17 8 16 9 15 10 14 11 6 12
REMARK SMILES IDX 7 13 8 14 9 15 13 16 11 17 10 18 12 20 4 22 21 24 18 26
REMARK H PARENT 10 19 12 21 4 23 21 25 18 27
REMARK Flexibility Score: inf
ROOT
ATOM      1  C   UNL     1      29.417 -16.287  24.914  1.00  0.00     0.180 A 
ATOM      2  C   UNL     1      30.272 -15.848  25.940  1.00  0.00     0.208 A 
ATOM      3  C   UNL     1      30.526 -16.701  27.026  1.00  0.00     0.238 A 
ATOM      4  O   UNL     1      31.334 -16.325  27.915  1.00  0.00    -0.285 OA
ATOM      5  C   UNL     1      29.910 -17.975  27.082  1.00  0.00     0.111 A 
ATOM      6  C   UNL     1      30.063 -18.904  28.154  1.00  0.00     0.134 A 
ATOM      7  C   UNL     1      29.512 -20.186  28.041  1.00  0.00     0.093 A 
ATOM      8  C   UNL     1      28.757 -20.550  26.927  1.00  0.00     0.123 A 
ATOM      9  C   UNL     1      28.550 -19.629  25.899  1.00  0.00     0.094 A 
ATOM     10  C   UNL     1      29.118 -18.355  25.966  1.00  0.00     0.146 A 
ATOM     11  O   UNL     1      28.906 -17.511  24.963  1.00  0.00    -0.452 OA
ENDROOT
BRANCH   1  12
ATOM     12  C   UNL     1      29.081 -15.435  23.750  1.00  0.00     0.025 A 
ATOM     13  C   UNL     1      29.883 -15.493  22.599  1.00  0.00     0.016 A 
ATOM     14  C   UNL     1      29.572 -14.714  21.481  1.00  0.00     0.051 A 
ATOM     15  C   UNL     1      28.448 -13.878  21.493  1.00  0.00     0.157 A 
ATOM     16  C   UNL     1      27.942 -14.610  23.750  1.00  0.00     0.062 A 
ATOM     17  C   UNL     1      27.630 -13.829  22.628  1.00  0.00     0.158 A 
BRANCH  15  18
ATOM     18  O   UNL     1      28.136 -13.097  20.382  1.00  0.00    -0.504 OA
ATOM     19  H   UNL     1      27.682 -13.493  19.566  1.00  0.00     0.293 HD
ENDBRANCH  15  18
BRANCH  17  20
ATOM     20  O   UNL     1      26.504 -13.006  22.632  1.00  0.00    -0.504 OA
ATOM     21  H   UNL     1      26.071 -12.696  21.770  1.00  0.00     0.293 HD
ENDBRANCH  17  20
ENDBRANCH   1  12
BRANCH   2  22
ATOM     22  O   UNL     1      30.887 -14.596  25.855  1.00  0.00    -0.502 OA
ATOM     23  H   UNL     1      30.497 -13.834  25.315  1.00  0.00     0.293 HD
ENDBRANCH   2  22
BRANCH   6  24
ATOM     24  O   UNL     1      30.720 -18.610  29.352  1.00  0.00    -0.507 OA
ATOM     25  H   UNL     1      31.684 -18.831  29.549  1.00  0.00     0.293 HD
ENDBRANCH   6  24
BRANCH   8  26
ATOM     26  O   UNL     1      28.210 -21.829  26.855  1.00  0.00    -0.508 OA
ATOM     27  H   UNL     1      27.973 -22.256  25.967  1.00  0.00     0.293 HD
ENDBRANCH   8  26
TORSDOF 6
ENDMDL
MODEL 7
REMARK VINA RESULT:    -5.644      1.350      2.957
REMARK INTER + INTRA:          -7.047
REMARK INTER:                  -6.723
REMARK INTRA:                  -0.323
REMARK UNBOUND:                -0.248
REMARK SMILES O=c1c(O)c(-c2ccc(O)c(O)c2)oc2cc(O)cc(O)c12
REMARK SMILES IDX 5 1 3 2 2 3 1 4 22 5 20 6 19 7 17 8 16 9 15 10 14 11 6 12
REMARK SMILES IDX 7 13 8 14 9 15 13 16 11 17 10 18 12 20 4 22 21 24 18 26
REMARK H PARENT 10 19 12 21 4 23 21 25 18 27
REMARK Flexibility Score: inf
ROOT
ATOM      1  C   UNL     1      29.316 -17.590  24.319  1.00  0.00     0.180 A 
ATOM      2  C   UNL     1      29.175 -18.706  23.476  1.00  0.00     0.208 A 
ATOM      3  C   UNL     1      29.179 -19.992  24.040  1.00  0.00     0.238 A 
ATOM      4  O   UNL     1      28.998 -20.984  23.287  1.00  0.00    -0.285 OA
ATOM      5  C   UNL     1      29.339 -20.147  25.439  1.00  0.00     0.111 A 
ATOM      6  C   UNL     1      29.397 -21.403  26.114  1.00  0.00     0.134 A 
ATOM      7  C   UNL     1      29.426 -21.434  27.513  1.00  0.00     0.093 A 
ATOM      8  C   UNL     1      29.465 -20.257  28.259  1.00  0.00     0.123 A 
ATOM      9  C   UNL     1      29.469 -19.023  27.608  1.00  0.00     0.094 A 
ATOM     10  C   UNL     1      29.403 -18.959  26.214  1.00  0.00     0.146 A 
ATOM     11  O   UNL     1      29.398 -17.765  25.633  1.00  0.00    -0.452 OA
ENDROOT
BRANCH   1  12
ATOM     12  C   UNL     1      29.347 -16.206  23.795  1.00  0.00     0.025 A 
ATOM     13  C   UNL     1      30.570 -15.645  23.396  1.00  0.00     0.016 A 
ATOM     14  C   UNL     1      30.620 -14.348  22.879  1.00  0.00     0.051 A 
ATOM     15  C   UNL     1      29.444 -13.599  22.739  1.00  0.00     0.157 A 
ATOM     16  C   UNL     1      28.167 -15.457  23.634  1.00  0.00     0.062 A 
ATOM     17  C   UNL     1      28.216 -14.156  23.114  1.00  0.00     0.158 A 
BRANCH  15  18
ATOM     18  O   UNL     1      29.489 -12.304  22.227  1.00  0.00    -0.504 OA
ATOM     19  H   UNL     1      30.281 -11.975  21.685  1.00  0.00     0.293 HD
ENDBRANCH  15  18
BRANCH  17  20
ATOM     20  O   UNL     1      27.045 -13.413  22.961  1.00  0.00    -0.504 OA
ATOM     21  H   UNL     1      26.316 -13.422  23.665  1.00  0.00     0.293 HD
ENDBRANCH  17  20
ENDBRANCH   1  12
BRANCH   2  22
ATOM     22  O   UNL     1      28.996 -18.530  22.101  1.00  0.00    -0.502 OA
ATOM     23  H   UNL     1      29.397 -19.159  21.416  1.00  0.00     0.293 HD
ENDBRANCH   2  22
BRANCH   6  24
ATOM     24  O   UNL     1      29.457 -22.637  25.461  1.00  0.00    -0.507 OA
ATOM     25  H   UNL     1      29.509 -22.757  24.461  1.00  0.00     0.293 HD
ENDBRANCH   6  24
BRANCH   8  26
ATOM     26  O   UNL     1      29.509 -20.326  29.650  1.00  0.00    -0.508 OA
ATOM     27  H   UNL     1      29.084 -21.094  30.157  1.00  0.00     0.293 HD
ENDBRANCH   8  26
TORSDOF 6
ENDMDL
MODEL 8
REMARK VINA RESULT:    -5.617      4.253     10.088
REMARK INTER + INTRA:          -7.014
REMARK INTER:                  -6.688
REMARK INTRA:                  -0.326
REMARK UNBOUND:                -0.248
REMARK SMILES O=c1c(O)c(-c2ccc(O)c(O)c2)oc2cc(O)cc(O)c12
REMARK SMILES IDX 5 1 3 2 2 3 1 4 22 5 20 6 19 7 17 8 16 9 15 10 14 11 6 12
REMARK SMILES IDX 7 13 8 14 9 15 13 16 11 17 10 18 12 20 4 22 21 24 18 26
REMARK H PARENT 10 19 12 21 4 23 21 25 18 27
REMARK Flexibility Score: inf
ROOT
ATOM      1  C   UNL     1      30.707 -11.946  21.338  1.00  0.00     0.180 A 
ATOM      2  C   UNL     1      31.676 -11.672  20.357  1.00  0.00     0.208 A 
ATOM      3  C   UNL     1      32.061 -10.340  20.133  1.00  0.00     0.238 A 
ATOM      4  O   UNL     1      32.968 -10.106  19.293  1.00  0.00    -0.285 OA
ATOM      5  C   UNL     1      31.461  -9.298  20.881  1.00  0.00     0.111 A 
ATOM      6  C   UNL     1      31.745  -7.910  20.710  1.00  0.00     0.134 A 
ATOM      7  C   UNL     1      31.191  -6.977  21.594  1.00  0.00     0.093 A 
ATOM      8  C   UNL     1      30.310  -7.373  22.600  1.00  0.00     0.123 A 
ATOM      9  C   UNL     1      29.978  -8.722  22.739  1.00  0.00     0.094 A 
ATOM     10  C   UNL     1      30.544  -9.680  21.896  1.00  0.00     0.146 A 
ATOM     11  O   UNL     1      30.211 -10.954  22.068  1.00  0.00    -0.452 OA
ENDROOT
BRANCH   1  12
ATOM     12  C   UNL     1      30.232 -13.321  21.613  1.00  0.00     0.025 A 
ATOM     13  C   UNL     1      30.767 -14.032  22.699  1.00  0.00     0.016 A 
ATOM     14  C   UNL     1      30.318 -15.323  22.991  1.00  0.00     0.051 A 
ATOM     15  C   UNL     1      29.317 -15.915  22.210  1.00  0.00     0.157 A 
ATOM     16  C   UNL     1      29.213 -13.911  20.845  1.00  0.00     0.062 A 
ATOM     17  C   UNL     1      28.761 -15.207  21.137  1.00  0.00     0.158 A 
BRANCH  15  18
ATOM     18  O   UNL     1      28.868 -17.203  22.494  1.00  0.00    -0.504 OA
ATOM     19  H   UNL     1      29.497 -17.998  22.481  1.00  0.00     0.293 HD
ENDBRANCH  15  18
BRANCH  17  20
ATOM     20  O   UNL     1      27.755 -15.793  20.370  1.00  0.00    -0.504 OA
ATOM     21  H   UNL     1      27.637 -15.568  19.389  1.00  0.00     0.293 HD
ENDBRANCH  17  20
ENDBRANCH   1  12
BRANCH   2  22
ATOM     22  O   UNL     1      32.271 -12.717  19.646  1.00  0.00    -0.502 OA
ATOM     23  H   UNL     1      32.836 -13.427  20.094  1.00  0.00     0.293 HD
ENDBRANCH   2  22
BRANCH   6  24
ATOM     24  O   UNL     1      32.538  -7.398  19.679  1.00  0.00    -0.507 OA
ATOM     25  H   UNL     1      32.967  -6.484  19.682  1.00  0.00     0.293 HD
ENDBRANCH   6  24
BRANCH   8  26
ATOM     26  O   UNL     1      29.764  -6.416  23.452  1.00  0.00    -0.508 OA
ATOM     27  H   UNL     1      30.170  -6.221  24.361  1.00  0.00     0.293 HD
ENDBRANCH   8  26
TORSDOF 6
ENDMDL
MODEL 9
REMARK VINA RESULT:    -5.510      1.685      6.946
REMARK INTER + INTRA:          -6.885
REMARK INTER:                  -6.597
REMARK INTRA:                  -0.289
REMARK UNBOUND:                -0.248
REMARK SMILES O=c1c(O)c(-c2ccc(O)c(O)c2)oc2cc(O)cc(O)c12
REMARK SMILES IDX 5 1 3 2 2 3 1 4 22 5 20 6 19 7 17 8 16 9 15 10 14 11 6 12
REMARK SMILES IDX 7 13 8 14 9 15 13 16 11 17 10 18 12 20 4 22 21 24 18 26
REMARK H PARENT 10 19 12 21 4 23 21 25 18 27
REMARK Flexibility Score: inf
ROOT
ATOM      1  C   UNL     1      29.762 -17.658  24.147  1.00  0.00     0.180 A 
ATOM      2  C   UNL     1      31.110 -17.335  23.913  1.00  0.00     0.208 A 
ATOM      3  C   UNL     1      31.415 -16.250  23.076  1.00  0.00     0.238 A 
ATOM      4  O   UNL     1      32.621 -15.931  22.913  1.00  0.00    -0.285 OA
ATOM      5  C   UNL     1      30.369 -15.512  22.469  1.00  0.00     0.111 A 
ATOM      6  C   UNL     1      30.562 -14.419  21.572  1.00  0.00     0.134 A 
ATOM      7  C   UNL     1      29.457 -13.680  21.135  1.00  0.00     0.093 A 
ATOM      8  C   UNL     1      28.161 -14.033  21.510  1.00  0.00     0.123 A 
ATOM      9  C   UNL     1      27.955 -15.136  22.340  1.00  0.00     0.094 A 
ATOM     10  C   UNL     1      29.041 -15.871  22.821  1.00  0.00     0.146 A 
ATOM     11  O   UNL     1      28.804 -16.907  23.616  1.00  0.00    -0.452 OA
ENDROOT
BRANCH   1  12
ATOM     12  C   UNL     1      29.363 -18.803  24.997  1.00  0.00     0.025 A 
ATOM     13  C   UNL     1      29.014 -20.022  24.395  1.00  0.00     0.016 A 
ATOM     14  C   UNL     1      28.655 -21.122  25.179  1.00  0.00     0.051 A 
ATOM     15  C   UNL     1      28.654 -21.022  26.577  1.00  0.00     0.157 A 
ATOM     16  C   UNL     1      29.380 -18.713  26.401  1.00  0.00     0.062 A 
ATOM     17  C   UNL     1      29.021 -19.817  27.188  1.00  0.00     0.158 A 
BRANCH  15  18
ATOM     18  O   UNL     1      28.293 -22.114  27.363  1.00  0.00    -0.504 OA
ATOM     19  H   UNL     1      27.502 -22.074  27.996  1.00  0.00     0.293 HD
ENDBRANCH  15  18
BRANCH  17  20
ATOM     20  O   UNL     1      29.032 -19.724  28.580  1.00  0.00    -0.504 OA
ATOM     21  H   UNL     1      28.263 -20.073  29.141  1.00  0.00     0.293 HD
ENDBRANCH  17  20
ENDBRANCH   1  12
BRANCH   2  22
ATOM     22  O   UNL     1      32.126 -18.062  24.539  1.00  0.00    -0.502 OA
ATOM     23  H   UNL     1      32.846 -17.620  25.098  1.00  0.00     0.293 HD
ENDBRANCH   2  22
BRANCH   6  24
ATOM     24  O   UNL     1      31.807 -14.040  21.062  1.00  0.00    -0.507 OA
ATOM     25  H   UNL     1      31.944 -13.388  20.305  1.00  0.00     0.293 HD
ENDBRANCH   6  24
BRANCH   8  26
ATOM     26  O   UNL     1      27.082 -13.284  21.044  1.00  0.00    -0.508 OA
ATOM     27  H   UNL     1      26.191 -13.716  20.826  1.00  0.00     0.293 HD
ENDBRANCH   8  26
TORSDOF 6
ENDMDL
