MODEL 1
REMARK VINA RESULT:     0.000      0.000      0.000
REMARK INTER + INTRA:          -0.335
REMARK INTER:                   0.000
REMARK INTRA:                  -0.335
REMARK UNBOUND:                -0.335
REMARK SMILES O=c1c(O)c(-c2ccc(O)c(O)c2)oc2cc(O)cc(O)c12
REMARK SMILES IDX 5 1 3 2 2 3 1 4 22 5 20 6 19 7 17 8 16 9 15 10 14 11 6 12
REMARK SMILES IDX 7 13 8 14 9 15 13 16 11 17 10 18 12 20 4 22 21 24 18 26
REMARK H PARENT 10 19 12 21 4 23 21 25 18 27
REMARK Flexibility Score: inf
ROOT
ATOM      1  C   UNL     1      19.645  15.786  60.247  1.00  0.00     0.180 A 
ATOM      2  C   UNL     1      20.274  16.792  59.493  1.00  0.00     0.208 A 
ATOM      3  C   UNL     1      19.622  18.024  59.324  1.00  0.00     0.238 A 
ATOM      4  O   UNL     1      20.166  18.901  58.603  1.00  0.00    -0.285 OA
ATOM      5  C   UNL     1      18.358  18.241  59.924  1.00  0.00     0.111 A 
ATOM      6  C   UNL     1      17.626  19.464  59.852  1.00  0.00     0.134 A 
ATOM      7  C   UNL     1      16.328  19.523  60.371  1.00  0.00     0.093 A 
ATOM      8  C   UNL     1      15.760  18.427  61.018  1.00  0.00     0.123 A 
ATOM      9  C   UNL     1      16.490  17.244  61.148  1.00  0.00     0.094 A 
ATOM     10  C   UNL     1      17.774  17.143  60.607  1.00  0.00     0.146 A 
ATOM     11  O   UNL     1      18.431  15.997  60.742  1.00  0.00    -0.452 OA
ENDROOT
BRANCH   1  12
ATOM     12  C   UNL     1      20.279  14.470  60.491  1.00  0.00     0.025 A 
ATOM     13  C   UNL     1      21.125  14.259  61.594  1.00  0.00     0.016 A 
ATOM     14  C   UNL     1      21.694  13.002  61.817  1.00  0.00     0.051 A 
ATOM     15  C   UNL     1      21.416  11.936  60.952  1.00  0.00     0.157 A 
ATOM     16  C   UNL     1      19.987  13.393  59.638  1.00  0.00     0.062 A 
ATOM     17  C   UNL     1      20.556  12.133  59.859  1.00  0.00     0.158 A 
BRANCH  15  18
ATOM     18  O   UNL     1      21.987  10.684  61.176  1.00  0.00    -0.504 OA
ATOM     19  H   UNL     1      22.674  10.537  61.907  1.00  0.00     0.293 HD
ENDBRANCH  15  18
BRANCH  17  20
ATOM     20  O   UNL     1      20.253  11.091  58.983  1.00  0.00    -0.504 OA
ATOM     21  H   UNL     1      20.141  11.241  57.987  1.00  0.00     0.293 HD
ENDBRANCH  17  20
ENDBRANCH   1  12
BRANCH   2  22
ATOM     22  O   UNL     1      21.512  16.549  58.893  1.00  0.00    -0.502 OA
ATOM     23  H   UNL     1      21.779  15.634  58.549  1.00  0.00     0.293 HD
ENDBRANCH   2  22
BRANCH   6  24
ATOM     24  O   UNL     1      18.135  20.647  59.308  1.00  0.00    -0.507 OA
ATOM     25  H   UNL     1      19.114  20.831  59.146  1.00  0.00     0.293 HD
ENDBRANCH   6  24
BRANCH   8  26
ATOM     26  O   UNL     1      14.472  18.526  61.538  1.00  0.00    -0.508 OA
ATOM     27  H   UNL     1      14.201  19.294  62.141  1.00  0.00     0.293 HD
ENDBRANCH   8  26
TORSDOF 6
ENDMDL
MODEL 2
REMARK VINA RESULT:     0.000      8.705     11.928
REMARK INTER + INTRA:          -0.335
REMARK INTER:                   0.000
REMARK INTRA:                  -0.335
REMARK UNBOUND:                -0.335
REMARK SMILES O=c1c(O)c(-c2ccc(O)c(O)c2)oc2cc(O)cc(O)c12
REMARK SMILES IDX 5 1 3 2 2 3 1 4 22 5 20 6 19 7 17 8 16 9 15 10 14 11 6 12
REMARK SMILES IDX 7 13 8 14 9 15 13 16 11 17 10 18 12 20 4 22 21 24 18 26
REMARK H PARENT 10 19 12 21 4 23 21 25 18 27
REMARK Flexibility Score: inf
ROOT
ATOM      1  C   UNL     1      11.044  18.213  53.800  1.00  0.00     0.180 A 
ATOM      2  C   UNL     1      11.594  18.193  52.507  1.00  0.00     0.208 A 
ATOM      3  C   UNL     1      12.979  18.019  52.359  1.00  0.00     0.238 A 
ATOM      4  O   UNL     1      13.473  18.057  51.201  1.00  0.00    -0.285 OA
ATOM      5  C   UNL     1      13.795  17.850  53.504  1.00  0.00     0.111 A 
ATOM      6  C   UNL     1      15.204  17.625  53.468  1.00  0.00     0.134 A 
ATOM      7  C   UNL     1      15.929  17.603  54.665  1.00  0.00     0.093 A 
ATOM      8  C   UNL     1      15.290  17.731  55.898  1.00  0.00     0.123 A 
ATOM      9  C   UNL     1      13.905  17.890  55.946  1.00  0.00     0.094 A 
ATOM     10  C   UNL     1      13.159  17.953  54.767  1.00  0.00     0.146 A 
ATOM     11  O   UNL     1      11.844  18.117  54.856  1.00  0.00    -0.452 OA
ENDROOT
BRANCH   1  12
ATOM     12  C   UNL     1       9.591  18.367  54.037  1.00  0.00     0.025 A 
ATOM     13  C   UNL     1       8.735  17.252  54.088  1.00  0.00     0.016 A 
ATOM     14  C   UNL     1       7.370  17.420  54.336  1.00  0.00     0.051 A 
ATOM     15  C   UNL     1       6.843  18.700  54.550  1.00  0.00     0.157 A 
ATOM     16  C   UNL     1       9.060  19.646  54.273  1.00  0.00     0.062 A 
ATOM     17  C   UNL     1       7.693  19.817  54.521  1.00  0.00     0.158 A 
BRANCH  15  18
ATOM     18  O   UNL     1       5.480  18.864  54.795  1.00  0.00    -0.504 OA
ATOM     19  H   UNL     1       4.827  19.067  54.048  1.00  0.00     0.293 HD
ENDBRANCH  15  18
BRANCH  17  20
ATOM     20  O   UNL     1       7.201  21.104  54.737  1.00  0.00    -0.504 OA
ATOM     21  H   UNL     1       7.381  21.864  54.091  1.00  0.00     0.293 HD
ENDBRANCH  17  20
ENDBRANCH   1  12
BRANCH   2  22
ATOM     22  O   UNL     1      10.774  18.384  51.392  1.00  0.00    -0.502 OA
ATOM     23  H   UNL     1       9.764  18.435  51.463  1.00  0.00     0.293 HD
ENDBRANCH   2  22
BRANCH   6  24
ATOM     24  O   UNL     1      15.929  17.394  52.295  1.00  0.00    -0.507 OA
ATOM     25  H   UNL     1      16.891  17.660  52.153  1.00  0.00     0.293 HD
ENDBRANCH   6  24
BRANCH   8  26
ATOM     26  O   UNL     1      16.041  17.687  57.070  1.00  0.00    -0.508 OA
ATOM     27  H   UNL     1      16.598  16.876  57.313  1.00  0.00     0.293 HD
ENDBRANCH   8  26
TORSDOF 6
ENDMDL
MODEL 3
REMARK VINA RESULT:     0.000     13.244     16.929
REMARK INTER + INTRA:          -0.335
REMARK INTER:                   0.000
REMARK INTRA:                  -0.335
REMARK UNBOUND:                -0.335
REMARK SMILES O=c1c(O)c(-c2ccc(O)c(O)c2)oc2cc(O)cc(O)c12
REMARK SMILES IDX 5 1 3 2 2 3 1 4 22 5 20 6 19 7 17 8 16 9 15 10 14 11 6 12
REMARK SMILES IDX 7 13 8 14 9 15 13 16 11 17 10 18 12 20 4 22 21 24 18 26
REMARK H PARENT 10 19 12 21 4 23 21 25 18 27
REMARK Flexibility Score: inf
ROOT
ATOM      1  C   UNL     1       8.074  26.302  53.776  1.00  0.00     0.180 A 
ATOM      2  C   UNL     1       7.799  26.709  52.459  1.00  0.00     0.208 A 
ATOM      3  C   UNL     1       6.483  27.052  52.112  1.00  0.00     0.238 A 
ATOM      4  O   UNL     1       6.233  27.362  50.918  1.00  0.00    -0.285 OA
ATOM      5  C   UNL     1       5.460  27.000  53.090  1.00  0.00     0.111 A 
ATOM      6  C   UNL     1       4.100  27.364  52.860  1.00  0.00     0.134 A 
ATOM      7  C   UNL     1       3.149  27.148  53.864  1.00  0.00     0.093 A 
ATOM      8  C   UNL     1       3.517  26.645  55.111  1.00  0.00     0.123 A 
ATOM      9  C   UNL     1       4.856  26.342  55.367  1.00  0.00     0.094 A 
ATOM     10  C   UNL     1       5.822  26.512  54.373  1.00  0.00     0.146 A 
ATOM     11  O   UNL     1       7.082  26.202  54.653  1.00  0.00    -0.452 OA
ENDROOT
BRANCH   1  12
ATOM     12  C   UNL     1       9.441  25.950  54.224  1.00  0.00     0.025 A 
ATOM     13  C   UNL     1      10.318  26.923  54.732  1.00  0.00     0.016 A 
ATOM     14  C   UNL     1      11.595  26.564  55.171  1.00  0.00     0.051 A 
ATOM     15  C   UNL     1      12.009  25.226  55.121  1.00  0.00     0.157 A 
ATOM     16  C   UNL     1       9.853  24.607  54.196  1.00  0.00     0.062 A 
ATOM     17  C   UNL     1      11.131  24.244  54.634  1.00  0.00     0.158 A 
BRANCH  15  18
ATOM     18  O   UNL     1      13.285  24.871  55.558  1.00  0.00    -0.504 OA
ATOM     19  H   UNL     1      13.455  24.000  56.048  1.00  0.00     0.293 HD
ENDBRANCH  15  18
BRANCH  17  20
ATOM     20  O   UNL     1      11.510  22.903  54.578  1.00  0.00    -0.504 OA
ATOM     21  H   UNL     1      11.648  22.347  55.415  1.00  0.00     0.293 HD
ENDBRANCH  17  20
ENDBRANCH   1  12
BRANCH   2  22
ATOM     22  O   UNL     1       8.820  26.732  51.504  1.00  0.00    -0.502 OA
ATOM     23  H   UNL     1       9.724  27.150  51.685  1.00  0.00     0.293 HD
ENDBRANCH   2  22
BRANCH   6  24
ATOM     24  O   UNL     1       3.640  27.960  51.682  1.00  0.00    -0.507 OA
ATOM     25  H   UNL     1       3.037  27.511  51.009  1.00  0.00     0.293 HD
ENDBRANCH   6  24
BRANCH   8  26
ATOM     26  O   UNL     1       2.547  26.459  56.093  1.00  0.00    -0.508 OA
ATOM     27  H   UNL     1       2.546  25.640  56.688  1.00  0.00     0.293 HD
ENDBRANCH   8  26
TORSDOF 6
ENDMDL
MODEL 4
REMARK VINA RESULT:     0.000     14.046     15.327
REMARK INTER + INTRA:          -0.335
REMARK INTER:                   0.000
REMARK INTRA:                  -0.335
REMARK UNBOUND:                -0.335
REMARK SMILES O=c1c(O)c(-c2ccc(O)c(O)c2)oc2cc(O)cc(O)c12
REMARK SMILES IDX 5 1 3 2 2 3 1 4 22 5 20 6 19 7 17 8 16 9 15 10 14 11 6 12
REMARK SMILES IDX 7 13 8 14 9 15 13 16 11 17 10 18 12 20 4 22 21 24 18 26
REMARK H PARENT 10 19 12 21 4 23 21 25 18 27
REMARK Flexibility Score: inf
ROOT
ATOM      1  C   UNL     1       9.921  15.671  48.880  1.00  0.00     0.180 A 
ATOM      2  C   UNL     1      10.002  14.701  49.894  1.00  0.00     0.208 A 
ATOM      3  C   UNL     1       9.088  14.749  50.958  1.00  0.00     0.238 A 
ATOM      4  O   UNL     1       9.201  13.910  51.890  1.00  0.00    -0.285 OA
ATOM      5  C   UNL     1       8.093  15.755  50.988  1.00  0.00     0.111 A 
ATOM      6  C   UNL     1       7.090  15.874  51.996  1.00  0.00     0.134 A 
ATOM      7  C   UNL     1       6.240  16.985  51.996  1.00  0.00     0.093 A 
ATOM      8  C   UNL     1       6.309  17.947  50.989  1.00  0.00     0.123 A 
ATOM      9  C   UNL     1       7.246  17.809  49.963  1.00  0.00     0.094 A 
ATOM     10  C   UNL     1       8.134  16.730  49.957  1.00  0.00     0.146 A 
ATOM     11  O   UNL     1       9.018  16.641  48.970  1.00  0.00    -0.452 OA
ENDROOT
BRANCH   1  12
ATOM     12  C   UNL     1      10.832  15.672  47.713  1.00  0.00     0.025 A 
ATOM     13  C   UNL     1      10.525  14.955  46.543  1.00  0.00     0.016 A 
ATOM     14  C   UNL     1      11.389  14.990  45.446  1.00  0.00     0.051 A 
ATOM     15  C   UNL     1      12.564  15.751  45.495  1.00  0.00     0.157 A 
ATOM     16  C   UNL     1      12.001  16.450  47.750  1.00  0.00     0.062 A 
ATOM     17  C   UNL     1      12.869  16.486  46.652  1.00  0.00     0.158 A 
BRANCH  15  18
ATOM     18  O   UNL     1      13.425  15.781  44.399  1.00  0.00    -0.504 OA
ATOM     19  H   UNL     1      13.155  16.214  43.523  1.00  0.00     0.293 HD
ENDBRANCH  15  18
BRANCH  17  20
ATOM     20  O   UNL     1      14.027  17.259  46.731  1.00  0.00    -0.504 OA
ATOM     21  H   UNL     1      14.079  18.095  47.301  1.00  0.00     0.293 HD
ENDBRANCH  17  20
ENDBRANCH   1  12
BRANCH   2  22
ATOM     22  O   UNL     1      11.006  13.729  49.855  1.00  0.00    -0.502 OA
ATOM     23  H   UNL     1      11.718  13.654  50.572  1.00  0.00     0.293 HD
ENDBRANCH   2  22
BRANCH   6  24
ATOM     24  O   UNL     1       6.874  14.922  52.998  1.00  0.00    -0.507 OA
ATOM     25  H   UNL     1       6.005  14.433  53.147  1.00  0.00     0.293 HD
ENDBRANCH   6  24
BRANCH   8  26
ATOM     26  O   UNL     1       5.436  19.031  51.010  1.00  0.00    -0.508 OA
ATOM     27  H   UNL     1       5.775  19.984  51.070  1.00  0.00     0.293 HD
ENDBRANCH   8  26
TORSDOF 6
ENDMDL
MODEL 5
REMARK VINA RESULT:     0.000     11.189     12.936
REMARK INTER + INTRA:          -0.335
REMARK INTER:                   0.000
REMARK INTRA:                  -0.335
REMARK UNBOUND:                -0.335
REMARK SMILES O=c1c(O)c(-c2ccc(O)c(O)c2)oc2cc(O)cc(O)c12
REMARK SMILES IDX 5 1 3 2 2 3 1 4 22 5 20 6 19 7 17 8 16 9 15 10 14 11 6 12
REMARK SMILES IDX 7 13 8 14 9 15 13 16 11 17 10 18 12 20 4 22 21 24 18 26
REMARK H PARENT 10 19 12 21 4 23 21 25 18 27
REMARK Flexibility Score: inf
ROOT
ATOM      1  C   UNL     1      16.832  15.800  49.430  1.00  0.00     0.180 A 
ATOM      2  C   UNL     1      18.127  16.262  49.720  1.00  0.00     0.208 A 
ATOM      3  C   UNL     1      19.187  15.893  48.877  1.00  0.00     0.238 A 
ATOM      4  O   UNL     1      20.352  16.265  49.173  1.00  0.00    -0.285 OA
ATOM      5  C   UNL     1      18.936  15.081  47.744  1.00  0.00     0.111 A 
ATOM      6  C   UNL     1      19.928  14.680  46.800  1.00  0.00     0.134 A 
ATOM      7  C   UNL     1      19.592  13.768  45.792  1.00  0.00     0.093 A 
ATOM      8  C   UNL     1      18.288  13.294  45.653  1.00  0.00     0.123 A 
ATOM      9  C   UNL     1      17.296  13.727  46.536  1.00  0.00     0.094 A 
ATOM     10  C   UNL     1      17.609  14.608  47.574  1.00  0.00     0.146 A 
ATOM     11  O   UNL     1      16.640  14.987  48.398  1.00  0.00    -0.452 OA
ENDROOT
BRANCH   1  12
ATOM     12  C   UNL     1      15.660  16.167  50.258  1.00  0.00     0.025 A 
ATOM     13  C   UNL     1      14.909  17.325  49.990  1.00  0.00     0.016 A 
ATOM     14  C   UNL     1      13.792  17.639  50.770  1.00  0.00     0.051 A 
ATOM     15  C   UNL     1      13.402  16.795  51.818  1.00  0.00     0.157 A 
ATOM     16  C   UNL     1      15.252  15.313  51.296  1.00  0.00     0.062 A 
ATOM     17  C   UNL     1      14.134  15.625  52.079  1.00  0.00     0.158 A 
BRANCH  15  18
ATOM     18  O   UNL     1      12.288  17.112  52.595  1.00  0.00    -0.504 OA
ATOM     19  H   UNL     1      12.373  17.658  53.445  1.00  0.00     0.293 HD
ENDBRANCH  15  18
BRANCH  17  20
ATOM     20  O   UNL     1      13.768  14.760  53.110  1.00  0.00    -0.504 OA
ATOM     21  H   UNL     1      13.131  15.041  53.847  1.00  0.00     0.293 HD
ENDBRANCH  17  20
ENDBRANCH   1  12
BRANCH   2  22
ATOM     22  O   UNL     1      18.355  17.046  50.855  1.00  0.00    -0.502 OA
ATOM     23  H   UNL     1      18.769  17.969  50.804  1.00  0.00     0.293 HD
ENDBRANCH   2  22
BRANCH   6  24
ATOM     24  O   UNL     1      21.240  15.164  46.792  1.00  0.00    -0.507 OA
ATOM     25  H   UNL     1      21.511  16.092  47.079  1.00  0.00     0.293 HD
ENDBRANCH   6  24
BRANCH   8  26
ATOM     26  O   UNL     1      17.985  12.401  44.629  1.00  0.00    -0.508 OA
ATOM     27  H   UNL     1      18.707  11.862  44.166  1.00  0.00     0.293 HD
ENDBRANCH   8  26
TORSDOF 6
ENDMDL
MODEL 6
REMARK VINA RESULT:     0.000     13.163     15.702
REMARK INTER + INTRA:          -0.335
REMARK INTER:                   0.000
REMARK INTRA:                  -0.335
REMARK UNBOUND:                -0.335
REMARK SMILES O=c1c(O)c(-c2ccc(O)c(O)c2)oc2cc(O)cc(O)c12
REMARK SMILES IDX 5 1 3 2 2 3 1 4 22 5 20 6 19 7 17 8 16 9 15 10 14 11 6 12
REMARK SMILES IDX 7 13 8 14 9 15 13 16 11 17 10 18 12 20 4 22 21 24 18 26
REMARK H PARENT 10 19 12 21 4 23 21 25 18 27
REMARK Flexibility Score: inf
ROOT
ATOM      1  C   UNL     1       8.250  23.554  54.655  1.00  0.00     0.180 A 
ATOM      2  C   UNL     1       6.976  23.120  54.251  1.00  0.00     0.208 A 
ATOM      3  C   UNL     1       6.877  22.092  53.300  1.00  0.00     0.238 A 
ATOM      4  O   UNL     1       5.734  21.746  52.902  1.00  0.00    -0.285 OA
ATOM      5  C   UNL     1       8.052  21.499  52.777  1.00  0.00     0.111 A 
ATOM      6  C   UNL     1       8.068  20.424  51.839  1.00  0.00     0.134 A 
ATOM      7  C   UNL     1       9.286  20.005  51.292  1.00  0.00     0.093 A 
ATOM      8  C   UNL     1      10.493  20.575  51.695  1.00  0.00     0.123 A 
ATOM      9  C   UNL     1      10.493  21.587  52.657  1.00  0.00     0.094 A 
ATOM     10  C   UNL     1       9.290  22.051  53.195  1.00  0.00     0.146 A 
ATOM     11  O   UNL     1       9.333  23.023  54.099  1.00  0.00    -0.452 OA
ENDROOT
BRANCH   1  12
ATOM     12  C   UNL     1       8.436  24.615  55.672  1.00  0.00     0.025 A 
ATOM     13  C   UNL     1       8.509  24.310  57.043  1.00  0.00     0.016 A 
ATOM     14  C   UNL     1       8.709  25.325  57.982  1.00  0.00     0.051 A 
ATOM     15  C   UNL     1       8.853  26.655  57.566  1.00  0.00     0.157 A 
ATOM     16  C   UNL     1       8.602  25.947  55.259  1.00  0.00     0.062 A 
ATOM     17  C   UNL     1       8.801  26.965  56.198  1.00  0.00     0.158 A 
BRANCH  15  18
ATOM     18  O   UNL     1       9.050  27.665  58.507  1.00  0.00    -0.504 OA
ATOM     19  H   UNL     1       9.451  27.472  59.417  1.00  0.00     0.293 HD
ENDBRANCH  15  18
BRANCH  17  20
ATOM     20  O   UNL     1       8.948  28.278  55.751  1.00  0.00    -0.504 OA
ATOM     21  H   UNL     1       8.304  28.696  55.088  1.00  0.00     0.293 HD
ENDBRANCH  17  20
ENDBRANCH   1  12
BRANCH   2  22
ATOM     22  O   UNL     1       5.830  23.733  54.764  1.00  0.00    -0.502 OA
ATOM     23  H   UNL     1       5.506  23.575  55.711  1.00  0.00     0.293 HD
ENDBRANCH   2  22
BRANCH   6  24
ATOM     24  O   UNL     1       6.928  19.722  51.436  1.00  0.00    -0.507 OA
ATOM     25  H   UNL     1       6.637  18.833  51.812  1.00  0.00     0.293 HD
ENDBRANCH   6  24
BRANCH   8  26
ATOM     26  O   UNL     1      11.687  20.122  51.142  1.00  0.00    -0.508 OA
ATOM     27  H   UNL     1      11.794  19.995  50.142  1.00  0.00     0.293 HD
ENDBRANCH   8  26
TORSDOF 6
ENDMDL
MODEL 7
REMARK VINA RESULT:     0.000     15.100     17.288
REMARK INTER + INTRA:          -0.335
REMARK INTER:                   0.000
REMARK INTRA:                  -0.335
REMARK UNBOUND:                -0.335
REMARK SMILES O=c1c(O)c(-c2ccc(O)c(O)c2)oc2cc(O)cc(O)c12
REMARK SMILES IDX 5 1 3 2 2 3 1 4 22 5 20 6 19 7 17 8 16 9 15 10 14 11 6 12
REMARK SMILES IDX 7 13 8 14 9 15 13 16 11 17 10 18 12 20 4 22 21 24 18 26
REMARK H PARENT 10 19 12 21 4 23 21 25 18 27
REMARK Flexibility Score: inf
ROOT
ATOM      1  C   UNL     1      10.463  16.805  46.823  1.00  0.00     0.180 A 
ATOM      2  C   UNL     1       9.631  15.915  46.122  1.00  0.00     0.208 A 
ATOM      3  C   UNL     1      10.009  14.567  46.020  1.00  0.00     0.238 A 
ATOM      4  O   UNL     1       9.287  13.787  45.345  1.00  0.00    -0.285 OA
ATOM      5  C   UNL     1      11.205  14.122  46.633  1.00  0.00     0.111 A 
ATOM      6  C   UNL     1      11.664  12.770  46.627  1.00  0.00     0.134 A 
ATOM      7  C   UNL     1      12.926  12.468  47.152  1.00  0.00     0.093 A 
ATOM      8  C   UNL     1      13.717  13.454  47.741  1.00  0.00     0.123 A 
ATOM      9  C   UNL     1      13.251  14.768  47.806  1.00  0.00     0.094 A 
ATOM     10  C   UNL     1      12.012  15.107  47.258  1.00  0.00     0.146 A 
ATOM     11  O   UNL     1      11.610  16.371  47.331  1.00  0.00    -0.452 OA
ENDROOT
BRANCH   1  12
ATOM     12  C   UNL     1      10.120  18.235  46.996  1.00  0.00     0.025 A 
ATOM     13  C   UNL     1       9.349  18.677  48.086  1.00  0.00     0.016 A 
ATOM     14  C   UNL     1       9.058  20.034  48.241  1.00  0.00     0.051 A 
ATOM     15  C   UNL     1       9.542  20.972  47.319  1.00  0.00     0.157 A 
ATOM     16  C   UNL     1      10.621  19.181  46.086  1.00  0.00     0.062 A 
ATOM     17  C   UNL     1      10.330  20.542  46.239  1.00  0.00     0.158 A 
BRANCH  15  18
ATOM     18  O   UNL     1       9.247  22.326  47.476  1.00  0.00    -0.504 OA
ATOM     19  H   UNL     1       8.293  22.665  47.471  1.00  0.00     0.293 HD
ENDBRANCH  15  18
BRANCH  17  20
ATOM     20  O   UNL     1      10.833  21.450  45.308  1.00  0.00    -0.504 OA
ATOM     21  H   UNL     1      11.638  22.034  45.507  1.00  0.00     0.293 HD
ENDBRANCH  17  20
ENDBRANCH   1  12
BRANCH   2  22
ATOM     22  O   UNL     1       8.466  16.380  45.507  1.00  0.00    -0.502 OA
ATOM     23  H   UNL     1       7.848  15.772  44.983  1.00  0.00     0.293 HD
ENDBRANCH   2  22
BRANCH   6  24
ATOM     24  O   UNL     1      10.914  11.693  46.145  1.00  0.00    -0.507 OA
ATOM     25  H   UNL     1      11.288  10.780  45.938  1.00  0.00     0.293 HD
ENDBRANCH   6  24
BRANCH   8  26
ATOM     26  O   UNL     1      14.961  13.114  48.268  1.00  0.00    -0.508 OA
ATOM     27  H   UNL     1      15.516  12.364  47.875  1.00  0.00     0.293 HD
ENDBRANCH   8  26
TORSDOF 6
ENDMDL
MODEL 8
REMARK VINA RESULT:     0.000     12.405     13.202
REMARK INTER + INTRA:          -0.335
REMARK INTER:                   0.000
REMARK INTRA:                  -0.335
REMARK UNBOUND:                -0.335
REMARK SMILES O=c1c(O)c(-c2ccc(O)c(O)c2)oc2cc(O)cc(O)c12
REMARK SMILES IDX 5 1 3 2 2 3 1 4 22 5 20 6 19 7 17 8 16 9 15 10 14 11 6 12
REMARK SMILES IDX 7 13 8 14 9 15 13 16 11 17 10 18 12 20 4 22 21 24 18 26
REMARK H PARENT 10 19 12 21 4 23 21 25 18 27
REMARK Flexibility Score: inf
ROOT
ATOM      1  C   UNL     1      13.994  16.810  48.726  1.00  0.00     0.180 A 
ATOM      2  C   UNL     1      13.904  18.212  48.770  1.00  0.00     0.208 A 
ATOM      3  C   UNL     1      12.641  18.810  48.900  1.00  0.00     0.238 A 
ATOM      4  O   UNL     1      12.562  20.067  48.884  1.00  0.00    -0.285 OA
ATOM      5  C   UNL     1      11.484  17.999  49.001  1.00  0.00     0.111 A 
ATOM      6  C   UNL     1      10.158  18.498  49.176  1.00  0.00     0.134 A 
ATOM      7  C   UNL     1       9.077  17.610  49.131  1.00  0.00     0.093 A 
ATOM      8  C   UNL     1       9.275  16.238  48.984  1.00  0.00     0.123 A 
ATOM      9  C   UNL     1      10.571  15.734  48.873  1.00  0.00     0.094 A 
ATOM     10  C   UNL     1      11.669  16.598  48.877  1.00  0.00     0.146 A 
ATOM     11  O   UNL     1      12.886  16.079  48.758  1.00  0.00    -0.452 OA
ENDROOT
BRANCH   1  12
ATOM     12  C   UNL     1      15.292  16.106  48.617  1.00  0.00     0.025 A 
ATOM     13  C   UNL     1      16.030  15.750  49.759  1.00  0.00     0.016 A 
ATOM     14  C   UNL     1      17.241  15.064  49.632  1.00  0.00     0.051 A 
ATOM     15  C   UNL     1      17.725  14.713  48.365  1.00  0.00     0.157 A 
ATOM     16  C   UNL     1      15.771  15.733  47.350  1.00  0.00     0.062 A 
ATOM     17  C   UNL     1      16.984  15.047  47.220  1.00  0.00     0.158 A 
BRANCH  15  18
ATOM     18  O   UNL     1      18.936  14.031  48.242  1.00  0.00    -0.504 OA
ATOM     19  H   UNL     1      19.087  13.346  47.511  1.00  0.00     0.293 HD
ENDBRANCH  15  18
BRANCH  17  20
ATOM     20  O   UNL     1      17.435  14.705  45.945  1.00  0.00    -0.504 OA
ATOM     21  H   UNL     1      17.956  15.354  45.367  1.00  0.00     0.293 HD
ENDBRANCH  17  20
ENDBRANCH   1  12
BRANCH   2  22
ATOM     22  O   UNL     1      15.056  18.993  48.648  1.00  0.00    -0.502 OA
ATOM     23  H   UNL     1      15.869  18.859  49.237  1.00  0.00     0.293 HD
ENDBRANCH   2  22
BRANCH   6  24
ATOM     24  O   UNL     1       9.855  19.840  49.420  1.00  0.00    -0.507 OA
ATOM     25  H   UNL     1      10.201  20.374  50.203  1.00  0.00     0.293 HD
ENDBRANCH   6  24
BRANCH   8  26
ATOM     26  O   UNL     1       8.176  15.383  48.960  1.00  0.00    -0.508 OA
ATOM     27  H   UNL     1       7.229  15.735  49.039  1.00  0.00     0.293 HD
ENDBRANCH   8  26
TORSDOF 6
ENDMDL
MODEL 9
REMARK VINA RESULT:     0.000      7.391      9.900
REMARK INTER + INTRA:          -0.335
REMARK INTER:                   0.000
REMARK INTRA:                  -0.335
REMARK UNBOUND:                -0.335
REMARK SMILES O=c1c(O)c(-c2ccc(O)c(O)c2)oc2cc(O)cc(O)c12
REMARK SMILES IDX 5 1 3 2 2 3 1 4 22 5 20 6 19 7 17 8 16 9 15 10 14 11 6 12
REMARK SMILES IDX 7 13 8 14 9 15 13 16 11 17 10 18 12 20 4 22 21 24 18 26
REMARK H PARENT 10 19 12 21 4 23 21 25 18 27
REMARK Flexibility Score: inf
ROOT
ATOM      1  C   UNL     1      15.334  18.852  53.390  1.00  0.00     0.180 A 
ATOM      2  C   UNL     1      15.145  19.863  54.348  1.00  0.00     0.208 A 
ATOM      3  C   UNL     1      15.608  19.656  55.657  1.00  0.00     0.238 A 
ATOM      4  O   UNL     1      15.387  20.542  56.524  1.00  0.00    -0.285 OA
ATOM      5  C   UNL     1      16.268  18.448  55.989  1.00  0.00     0.111 A 
ATOM      6  C   UNL     1      16.814  18.149  57.273  1.00  0.00     0.134 A 
ATOM      7  C   UNL     1      17.328  16.872  57.524  1.00  0.00     0.093 A 
ATOM      8  C   UNL     1      17.379  15.905  56.520  1.00  0.00     0.123 A 
ATOM      9  C   UNL     1      16.904  16.207  55.243  1.00  0.00     0.094 A 
ATOM     10  C   UNL     1      16.350  17.461  54.973  1.00  0.00     0.146 A 
ATOM     11  O   UNL     1      15.899  17.705  53.748  1.00  0.00    -0.452 OA
ENDROOT
BRANCH   1  12
ATOM     12  C   UNL     1      14.897  19.006  51.984  1.00  0.00     0.025 A 
ATOM     13  C   UNL     1      15.741  19.575  51.013  1.00  0.00     0.016 A 
ATOM     14  C   UNL     1      15.316  19.688  49.687  1.00  0.00     0.051 A 
ATOM     15  C   UNL     1      14.049  19.225  49.308  1.00  0.00     0.157 A 
ATOM     16  C   UNL     1      13.637  18.524  51.595  1.00  0.00     0.062 A 
ATOM     17  C   UNL     1      13.208  18.638  50.267  1.00  0.00     0.158 A 
BRANCH  15  18
ATOM     18  O   UNL     1      13.628  19.342  47.984  1.00  0.00    -0.504 OA
ATOM     19  H   UNL     1      13.706  18.571  47.332  1.00  0.00     0.293 HD
ENDBRANCH  15  18
BRANCH  17  20
ATOM     20  O   UNL     1      11.944  18.160  49.921  1.00  0.00    -0.504 OA
ATOM     21  H   UNL     1      11.268  18.734  49.430  1.00  0.00     0.293 HD
ENDBRANCH  17  20
ENDBRANCH   1  12
BRANCH   2  22
ATOM     22  O   UNL     1      14.472  21.039  54.005  1.00  0.00    -0.502 OA
ATOM     23  H   UNL     1      14.743  21.609  53.213  1.00  0.00     0.293 HD
ENDBRANCH   2  22
BRANCH   6  24
ATOM     24  O   UNL     1      16.896  19.072  58.320  1.00  0.00    -0.507 OA
ATOM     25  H   UNL     1      17.756  19.451  58.686  1.00  0.00     0.293 HD
ENDBRANCH   6  24
BRANCH   8  26
ATOM     26  O   UNL     1      17.913  14.650  56.800  1.00  0.00    -0.508 OA
ATOM     27  H   UNL     1      18.172  14.007  56.061  1.00  0.00     0.293 HD
ENDBRANCH   8  26
TORSDOF 6
ENDMDL
