MODEL 1
REMARK VINA RESULT:    -4.030      0.000      0.000
REMARK INTER + INTRA:          -8.469
REMARK INTER:                  -7.092
REMARK INTRA:                  -1.376
REMARK UNBOUND:                -1.376
REMARK SMILES CCCCCCCCCCCCCCC(=O)[O-]
REMARK SMILES IDX 9 1 10 2 11 3 12 4 13 5 14 6 15 7 16 8 17 9 8 10 7 11 6 12
REMARK SMILES IDX 5 13 4 14 3 15 2 16 1 17
REMARK H PARENT
REMARK Flexibility Score: inf
ROOT
ATOM      1  C   UNL     1      16.882  43.524  19.743  1.00  0.00     0.000 C 
ENDROOT
BRANCH   1   2
ATOM      2  C   UNL     1      18.419  43.570  19.844  1.00  0.00     0.000 C 
BRANCH   2   3
ATOM      3  C   UNL     1      18.919  44.429  21.015  1.00  0.00     0.000 C 
BRANCH   3   4
ATOM      4  C   UNL     1      19.910  45.494  20.531  1.00  0.00     0.000 C 
BRANCH   4   5
ATOM      5  C   UNL     1      19.226  46.860  20.395  1.00  0.00     0.006 C 
BRANCH   5   6
ATOM      6  C   UNL     1      20.060  47.962  21.055  1.00  0.00     0.053 C 
BRANCH   6   7
ATOM      7  C   UNL     1      20.036  49.205  20.224  1.00  0.00     0.041 C 
ATOM      8  O   UNL     1      18.942  49.764  19.950  1.00  0.00    -0.550 OA
ATOM      9  O   UNL     1      21.227  49.777  19.796  1.00  0.00    -0.550 OA
ENDBRANCH   6   7
ENDBRANCH   5   6
ENDBRANCH   4   5
ENDBRANCH   3   4
ENDBRANCH   2   3
ENDBRANCH   1   2
BRANCH   1  10
ATOM     10  C   UNL     1      16.263  44.484  18.709  1.00  0.00     0.000 C 
BRANCH  10  11
ATOM     11  C   UNL     1      15.812  45.819  19.324  1.00  0.00    -0.000 C 
BRANCH  11  12
ATOM     12  C   UNL     1      14.814  45.639  20.483  1.00  0.00    -0.000 C 
BRANCH  12  13
ATOM     13  C   UNL     1      13.400  45.192  20.068  1.00  0.00    -0.000 C 
BRANCH  13  14
ATOM     14  C   UNL     1      12.442  46.372  19.829  1.00  0.00    -0.000 C 
BRANCH  14  15
ATOM     15  C   UNL     1      11.791  46.320  18.432  1.00  0.00    -0.000 C 
BRANCH  15  16
ATOM     16  C   UNL     1      12.758  45.881  17.320  1.00  0.00    -0.003 C 
ATOM     17  C   UNL     1      13.461  47.054  16.641  1.00  0.00     0.004 C 
ENDBRANCH  15  16
ENDBRANCH  14  15
ENDBRANCH  13  14
ENDBRANCH  12  13
ENDBRANCH  11  12
ENDBRANCH  10  11
ENDBRANCH   1  10
TORSDOF 13
ENDMDL
MODEL 2
REMARK VINA RESULT:    -4.006      3.532      6.480
REMARK INTER + INTRA:          -8.428
REMARK INTER:                  -6.722
REMARK INTRA:                  -1.705
REMARK UNBOUND:                -1.376
REMARK SMILES CCCCCCCCCCCCCCC(=O)[O-]
REMARK SMILES IDX 9 1 10 2 11 3 12 4 13 5 14 6 15 7 16 8 17 9 8 10 7 11 6 12
REMARK SMILES IDX 5 13 4 14 3 15 2 16 1 17
REMARK H PARENT
REMARK Flexibility Score: inf
ROOT
ATOM      1  C   UNL     1      16.676  43.555  19.663  1.00  0.00     0.000 C 
ENDROOT
BRANCH   1   2
ATOM      2  C   UNL     1      16.222  44.470  18.509  1.00  0.00     0.000 C 
BRANCH   2   3
ATOM      3  C   UNL     1      15.722  45.840  18.990  1.00  0.00     0.000 C 
BRANCH   3   4
ATOM      4  C   UNL     1      15.653  45.895  20.520  1.00  0.00     0.000 C 
BRANCH   4   5
ATOM      5  C   UNL     1      14.199  45.970  21.002  1.00  0.00     0.006 C 
BRANCH   5   6
ATOM      6  C   UNL     1      13.224  45.911  19.823  1.00  0.00     0.053 C 
BRANCH   6   7
ATOM      7  C   UNL     1      12.417  44.653  19.873  1.00  0.00     0.041 C 
ATOM      8  O   UNL     1      12.930  43.556  19.530  1.00  0.00    -0.550 OA
ATOM      9  O   UNL     1      11.113  44.683  20.349  1.00  0.00    -0.550 OA
ENDBRANCH   6   7
ENDBRANCH   5   6
ENDBRANCH   4   5
ENDBRANCH   3   4
ENDBRANCH   2   3
ENDBRANCH   1   2
BRANCH   1  10
ATOM     10  C   UNL     1      18.114  43.015  19.546  1.00  0.00     0.000 C 
BRANCH  10  11
ATOM     11  C   UNL     1      18.939  43.222  20.827  1.00  0.00    -0.000 C 
BRANCH  11  12
ATOM     12  C   UNL     1      19.066  44.703  21.226  1.00  0.00    -0.000 C 
BRANCH  12  13
ATOM     13  C   UNL     1      19.838  45.587  20.230  1.00  0.00    -0.000 C 
BRANCH  13  14
ATOM     14  C   UNL     1      19.926  47.058  20.673  1.00  0.00    -0.000 C 
BRANCH  14  15
ATOM     15  C   UNL     1      18.976  47.967  19.865  1.00  0.00    -0.000 C 
BRANCH  15  16
ATOM     16  C   UNL     1      18.451  49.171  20.665  1.00  0.00    -0.003 C 
ATOM     17  C   UNL     1      18.244  48.861  22.146  1.00  0.00     0.004 C 
ENDBRANCH  15  16
ENDBRANCH  14  15
ENDBRANCH  13  14
ENDBRANCH  12  13
ENDBRANCH  11  12
ENDBRANCH  10  11
ENDBRANCH   1  10
TORSDOF 13
ENDMDL
MODEL 3
REMARK VINA RESULT:    -3.932     11.274     12.866
REMARK INTER + INTRA:          -8.296
REMARK INTER:                  -6.231
REMARK INTRA:                  -2.065
REMARK UNBOUND:                -1.376
REMARK SMILES CCCCCCCCCCCCCCC(=O)[O-]
REMARK SMILES IDX 9 1 10 2 11 3 12 4 13 5 14 6 15 7 16 8 17 9 8 10 7 11 6 12
REMARK SMILES IDX 5 13 4 14 3 15 2 16 1 17
REMARK H PARENT
REMARK Flexibility Score: inf
ROOT
ATOM      1  C   UNL     1      15.549  41.418  29.342  1.00  0.00     0.000 C 
ENDROOT
BRANCH   1   2
ATOM      2  C   UNL     1      15.547  40.291  30.392  1.00  0.00     0.000 C 
BRANCH   2   3
ATOM      3  C   UNL     1      16.490  39.133  30.033  1.00  0.00     0.000 C 
BRANCH   3   4
ATOM      4  C   UNL     1      17.611  39.607  29.100  1.00  0.00     0.000 C 
BRANCH   4   5
ATOM      5  C   UNL     1      18.464  38.425  28.622  1.00  0.00     0.006 C 
BRANCH   5   6
ATOM      6  C   UNL     1      18.095  37.141  29.371  1.00  0.00     0.053 C 
BRANCH   6   7
ATOM      7  C   UNL     1      19.229  36.699  30.240  1.00  0.00     0.041 C 
ATOM      8  O   UNL     1      20.050  35.841  29.824  1.00  0.00    -0.550 OA
ATOM      9  O   UNL     1      19.408  37.272  31.493  1.00  0.00    -0.550 OA
ENDBRANCH   6   7
ENDBRANCH   5   6
ENDBRANCH   4   5
ENDBRANCH   3   4
ENDBRANCH   2   3
ENDBRANCH   1   2
BRANCH   1  10
ATOM     10  C   UNL     1      14.160  41.837  28.825  1.00  0.00     0.000 C 
BRANCH  10  11
ATOM     11  C   UNL     1      13.761  41.115  27.526  1.00  0.00    -0.000 C 
BRANCH  11  12
ATOM     12  C   UNL     1      12.738  39.986  27.758  1.00  0.00    -0.000 C 
BRANCH  12  13
ATOM     13  C   UNL     1      13.150  38.607  27.213  1.00  0.00    -0.000 C 
BRANCH  13  14
ATOM     14  C   UNL     1      14.668  38.471  27.002  1.00  0.00    -0.000 C 
BRANCH  14  15
ATOM     15  C   UNL     1      15.147  37.012  27.140  1.00  0.00    -0.000 C 
BRANCH  15  16
ATOM     16  C   UNL     1      14.199  36.130  27.970  1.00  0.00    -0.003 C 
ATOM     17  C   UNL     1      14.607  36.031  29.439  1.00  0.00     0.004 C 
ENDBRANCH  15  16
ENDBRANCH  14  15
ENDBRANCH  13  14
ENDBRANCH  12  13
ENDBRANCH  11  12
ENDBRANCH  10  11
ENDBRANCH   1  10
TORSDOF 13
ENDMDL
MODEL 4
REMARK VINA RESULT:    -3.906     11.491     13.520
REMARK INTER + INTRA:          -8.251
REMARK INTER:                  -6.264
REMARK INTRA:                  -1.987
REMARK UNBOUND:                -1.376
REMARK SMILES CCCCCCCCCCCCCCC(=O)[O-]
REMARK SMILES IDX 9 1 10 2 11 3 12 4 13 5 14 6 15 7 16 8 17 9 8 10 7 11 6 12
REMARK SMILES IDX 5 13 4 14 3 15 2 16 1 17
REMARK H PARENT
REMARK Flexibility Score: inf
ROOT
ATOM      1  C   UNL     1      12.844  39.898  27.757  1.00  0.00     0.000 C 
ENDROOT
BRANCH   1   2
ATOM      2  C   UNL     1      13.138  38.574  27.028  1.00  0.00     0.000 C 
BRANCH   2   3
ATOM      3  C   UNL     1      14.620  38.408  26.657  1.00  0.00     0.000 C 
BRANCH   3   4
ATOM      4  C   UNL     1      15.216  37.160  27.320  1.00  0.00     0.000 C 
BRANCH   4   5
ATOM      5  C   UNL     1      14.149  36.397  28.115  1.00  0.00     0.006 C 
BRANCH   5   6
ATOM      6  C   UNL     1      14.727  35.848  29.423  1.00  0.00     0.053 C 
BRANCH   6   7
ATOM      7  C   UNL     1      13.790  34.854  30.032  1.00  0.00     0.041 C 
ATOM      8  O   UNL     1      14.093  34.273  31.107  1.00  0.00    -0.550 OA
ATOM      9  O   UNL     1      12.557  34.609  29.441  1.00  0.00    -0.550 OA
ENDBRANCH   6   7
ENDBRANCH   5   6
ENDBRANCH   4   5
ENDBRANCH   3   4
ENDBRANCH   2   3
ENDBRANCH   1   2
BRANCH   1  10
ATOM     10  C   UNL     1      13.905  41.000  27.570  1.00  0.00     0.000 C 
BRANCH  10  11
ATOM     11  C   UNL     1      14.100  41.864  28.827  1.00  0.00    -0.000 C 
BRANCH  11  12
ATOM     12  C   UNL     1      15.465  41.637  29.504  1.00  0.00    -0.000 C 
BRANCH  12  13
ATOM     13  C   UNL     1      15.635  40.273  30.196  1.00  0.00    -0.000 C 
BRANCH  13  14
ATOM     14  C   UNL     1      16.821  39.462  29.646  1.00  0.00    -0.000 C 
BRANCH  14  15
ATOM     15  C   UNL     1      17.541  40.193  28.494  1.00  0.00    -0.000 C 
BRANCH  15  16
ATOM     16  C   UNL     1      18.346  39.254  27.579  1.00  0.00    -0.003 C 
ATOM     17  C   UNL     1      18.122  39.529  26.094  1.00  0.00     0.004 C 
ENDBRANCH  15  16
ENDBRANCH  14  15
ENDBRANCH  13  14
ENDBRANCH  12  13
ENDBRANCH  11  12
ENDBRANCH  10  11
ENDBRANCH   1  10
TORSDOF 13
ENDMDL
MODEL 5
REMARK VINA RESULT:    -3.905      1.422      2.678
REMARK INTER + INTRA:          -8.249
REMARK INTER:                  -7.107
REMARK INTRA:                  -1.142
REMARK UNBOUND:                -1.376
REMARK SMILES CCCCCCCCCCCCCCC(=O)[O-]
REMARK SMILES IDX 9 1 10 2 11 3 12 4 13 5 14 6 15 7 16 8 17 9 8 10 7 11 6 12
REMARK SMILES IDX 5 13 4 14 3 15 2 16 1 17
REMARK H PARENT
REMARK Flexibility Score: inf
ROOT
ATOM      1  C   UNL     1      17.080  45.191  19.978  1.00  0.00     0.000 C 
ENDROOT
BRANCH   1   2
ATOM      2  C   UNL     1      17.863  46.014  21.018  1.00  0.00     0.000 C 
BRANCH   2   3
ATOM      3  C   UNL     1      18.386  47.346  20.461  1.00  0.00     0.000 C 
BRANCH   3   4
ATOM      4  C   UNL     1      18.082  48.502  21.421  1.00  0.00     0.000 C 
BRANCH   4   5
ATOM      5  C   UNL     1      18.595  49.833  20.860  1.00  0.00     0.006 C 
BRANCH   5   6
ATOM      6  C   UNL     1      20.119  49.930  20.981  1.00  0.00     0.053 C 
BRANCH   6   7
ATOM      7  C   UNL     1      20.737  50.152  19.638  1.00  0.00     0.041 C 
ATOM      8  O   UNL     1      21.983  50.051  19.489  1.00  0.00    -0.550 OA
ATOM      9  O   UNL     1      19.932  50.419  18.538  1.00  0.00    -0.550 OA
ENDBRANCH   6   7
ENDBRANCH   5   6
ENDBRANCH   4   5
ENDBRANCH   3   4
ENDBRANCH   2   3
ENDBRANCH   1   2
BRANCH   1  10
ATOM     10  C   UNL     1      15.710  45.772  19.578  1.00  0.00     0.000 C 
BRANCH  10  11
ATOM     11  C   UNL     1      15.436  45.677  18.067  1.00  0.00    -0.000 C 
BRANCH  11  12
ATOM     12  C   UNL     1      14.913  46.997  17.468  1.00  0.00    -0.000 C 
BRANCH  12  13
ATOM     13  C   UNL     1      13.702  46.856  16.529  1.00  0.00    -0.000 C 
BRANCH  13  14
ATOM     14  C   UNL     1      12.593  45.960  17.107  1.00  0.00    -0.000 C 
BRANCH  14  15
ATOM     15  C   UNL     1      11.833  46.645  18.261  1.00  0.00    -0.000 C 
BRANCH  15  16
ATOM     16  C   UNL     1      11.448  45.684  19.398  1.00  0.00    -0.003 C 
ATOM     17  C   UNL     1      12.167  44.339  19.315  1.00  0.00     0.004 C 
ENDBRANCH  15  16
ENDBRANCH  14  15
ENDBRANCH  13  14
ENDBRANCH  12  13
ENDBRANCH  11  12
ENDBRANCH  10  11
ENDBRANCH   1  10
TORSDOF 13
ENDMDL
MODEL 6
REMARK VINA RESULT:    -3.900      1.430      2.778
REMARK INTER + INTRA:          -8.241
REMARK INTER:                  -7.187
REMARK INTRA:                  -1.054
REMARK UNBOUND:                -1.376
REMARK SMILES CCCCCCCCCCCCCCC(=O)[O-]
REMARK SMILES IDX 9 1 10 2 11 3 12 4 13 5 14 6 15 7 16 8 17 9 8 10 7 11 6 12
REMARK SMILES IDX 5 13 4 14 3 15 2 16 1 17
REMARK H PARENT
REMARK Flexibility Score: inf
ROOT
ATOM      1  C   UNL     1      19.349  45.177  20.245  1.00  0.00     0.000 C 
ENDROOT
BRANCH   1   2
ATOM      2  C   UNL     1      20.033  46.544  20.434  1.00  0.00     0.000 C 
BRANCH   2   3
ATOM      3  C   UNL     1      19.060  47.646  20.883  1.00  0.00     0.000 C 
BRANCH   3   4
ATOM      4  C   UNL     1      18.815  48.655  19.756  1.00  0.00     0.000 C 
BRANCH   4   5
ATOM      5  C   UNL     1      18.604  50.067  20.318  1.00  0.00     0.006 C 
BRANCH   5   6
ATOM      6  C   UNL     1      19.211  51.124  19.391  1.00  0.00     0.053 C 
BRANCH   6   7
ATOM      7  C   UNL     1      20.690  50.938  19.282  1.00  0.00     0.041 C 
ATOM      8  O   UNL     1      21.235  50.832  18.152  1.00  0.00    -0.550 OA
ATOM      9  O   UNL     1      21.476  50.935  20.427  1.00  0.00    -0.550 OA
ENDBRANCH   6   7
ENDBRANCH   5   6
ENDBRANCH   4   5
ENDBRANCH   3   4
ENDBRANCH   2   3
ENDBRANCH   1   2
BRANCH   1  10
ATOM     10  C   UNL     1      18.025  44.994  21.011  1.00  0.00     0.000 C 
BRANCH  10  11
ATOM     11  C   UNL     1      16.861  44.560  20.104  1.00  0.00    -0.000 C 
BRANCH  11  12
ATOM     12  C   UNL     1      15.981  45.740  19.651  1.00  0.00    -0.000 C 
BRANCH  12  13
ATOM     13  C   UNL     1      15.444  45.643  18.212  1.00  0.00    -0.000 C 
BRANCH  13  14
ATOM     14  C   UNL     1      15.199  47.018  17.567  1.00  0.00    -0.000 C 
BRANCH  14  15
ATOM     15  C   UNL     1      13.918  47.038  16.707  1.00  0.00    -0.000 C 
BRANCH  15  16
ATOM     16  C   UNL     1      12.871  46.000  17.142  1.00  0.00    -0.003 C 
ATOM     17  C   UNL     1      11.938  46.513  18.237  1.00  0.00     0.004 C 
ENDBRANCH  15  16
ENDBRANCH  14  15
ENDBRANCH  13  14
ENDBRANCH  12  13
ENDBRANCH  11  12
ENDBRANCH  10  11
ENDBRANCH   1  10
TORSDOF 13
ENDMDL
MODEL 7
REMARK VINA RESULT:    -3.875      2.386      4.796
REMARK INTER + INTRA:          -8.196
REMARK INTER:                  -6.636
REMARK INTRA:                  -1.560
REMARK UNBOUND:                -1.376
REMARK SMILES CCCCCCCCCCCCCCC(=O)[O-]
REMARK SMILES IDX 9 1 10 2 11 3 12 4 13 5 14 6 15 7 16 8 17 9 8 10 7 11 6 12
REMARK SMILES IDX 5 13 4 14 3 15 2 16 1 17
REMARK H PARENT
REMARK Flexibility Score: inf
ROOT
ATOM      1  C   UNL     1      16.108  45.411  19.753  1.00  0.00     0.000 C 
ENDROOT
BRANCH   1   2
ATOM      2  C   UNL     1      17.263  45.619  20.751  1.00  0.00     0.000 C 
BRANCH   2   3
ATOM      3  C   UNL     1      17.916  47.004  20.634  1.00  0.00     0.000 C 
BRANCH   3   4
ATOM      4  C   UNL     1      19.445  46.891  20.600  1.00  0.00     0.000 C 
BRANCH   4   5
ATOM      5  C   UNL     1      20.103  48.258  20.824  1.00  0.00     0.006 C 
BRANCH   5   6
ATOM      6  C   UNL     1      19.436  49.336  19.966  1.00  0.00     0.053 C 
BRANCH   6   7
ATOM      7  C   UNL     1      20.460  50.070  19.159  1.00  0.00     0.041 C 
ATOM      8  O   UNL     1      20.107  50.783  18.184  1.00  0.00    -0.550 OA
ATOM      9  O   UNL     1      21.801  50.007  19.515  1.00  0.00    -0.550 OA
ENDBRANCH   6   7
ENDBRANCH   5   6
ENDBRANCH   4   5
ENDBRANCH   3   4
ENDBRANCH   2   3
ENDBRANCH   1   2
BRANCH   1  10
ATOM     10  C   UNL     1      16.369  44.361  18.656  1.00  0.00     0.000 C 
BRANCH  10  11
ATOM     11  C   UNL     1      17.228  43.183  19.146  1.00  0.00    -0.000 C 
BRANCH  11  12
ATOM     12  C   UNL     1      16.406  42.100  19.868  1.00  0.00    -0.000 C 
BRANCH  12  13
ATOM     13  C   UNL     1      16.848  41.795  21.311  1.00  0.00    -0.000 C 
BRANCH  13  14
ATOM     14  C   UNL     1      18.368  41.598  21.446  1.00  0.00    -0.000 C 
BRANCH  14  15
ATOM     15  C   UNL     1      18.961  42.426  22.605  1.00  0.00    -0.000 C 
BRANCH  15  16
ATOM     16  C   UNL     1      19.900  43.550  22.138  1.00  0.00    -0.003 C 
ATOM     17  C   UNL     1      20.584  43.245  20.807  1.00  0.00     0.004 C 
ENDBRANCH  15  16
ENDBRANCH  14  15
ENDBRANCH  13  14
ENDBRANCH  12  13
ENDBRANCH  11  12
ENDBRANCH  10  11
ENDBRANCH   1  10
TORSDOF 13
ENDMDL
MODEL 8
REMARK VINA RESULT:    -3.859      3.091      6.322
REMARK INTER + INTRA:          -8.168
REMARK INTER:                  -6.617
REMARK INTRA:                  -1.551
REMARK UNBOUND:                -1.376
REMARK SMILES CCCCCCCCCCCCCCC(=O)[O-]
REMARK SMILES IDX 9 1 10 2 11 3 12 4 13 5 14 6 15 7 16 8 17 9 8 10 7 11 6 12
REMARK SMILES IDX 5 13 4 14 3 15 2 16 1 17
REMARK H PARENT
REMARK Flexibility Score: inf
ROOT
ATOM      1  C   UNL     1      18.862  41.315  19.425  1.00  0.00     0.000 C 
ENDROOT
BRANCH   1   2
ATOM      2  C   UNL     1      17.446  41.922  19.409  1.00  0.00     0.000 C 
BRANCH   2   3
ATOM      3  C   UNL     1      17.365  43.238  18.620  1.00  0.00     0.000 C 
BRANCH   3   4
ATOM      4  C   UNL     1      16.528  44.279  19.372  1.00  0.00     0.000 C 
BRANCH   4   5
ATOM      5  C   UNL     1      15.261  44.638  18.586  1.00  0.00     0.006 C 
BRANCH   5   6
ATOM      6  C   UNL     1      14.006  44.415  19.434  1.00  0.00     0.053 C 
BRANCH   6   7
ATOM      7  C   UNL     1      13.023  45.520  19.216  1.00  0.00     0.041 C 
ATOM      8  O   UNL     1      12.898  46.435  20.071  1.00  0.00    -0.550 OA
ATOM      9  O   UNL     1      12.282  45.569  18.042  1.00  0.00    -0.550 OA
ENDBRANCH   6   7
ENDBRANCH   5   6
ENDBRANCH   4   5
ENDBRANCH   3   4
ENDBRANCH   2   3
ENDBRANCH   1   2
BRANCH   1  10
ATOM     10  C   UNL     1      19.813  41.895  20.490  1.00  0.00     0.000 C 
BRANCH  10  11
ATOM     11  C   UNL     1      19.075  42.396  21.743  1.00  0.00    -0.000 C 
BRANCH  11  12
ATOM     12  C   UNL     1      19.164  43.923  21.921  1.00  0.00    -0.000 C 
BRANCH  12  13
ATOM     13  C   UNL     1      20.359  44.596  21.220  1.00  0.00    -0.000 C 
BRANCH  13  14
ATOM     14  C   UNL     1      19.933  45.574  20.111  1.00  0.00    -0.000 C 
BRANCH  14  15
ATOM     15  C   UNL     1      20.366  47.023  20.414  1.00  0.00    -0.000 C 
BRANCH  15  16
ATOM     16  C   UNL     1      19.266  47.866  21.081  1.00  0.00    -0.003 C 
ATOM     17  C   UNL     1      17.869  47.555  20.548  1.00  0.00     0.004 C 
ENDBRANCH  15  16
ENDBRANCH  14  15
ENDBRANCH  13  14
ENDBRANCH  12  13
ENDBRANCH  11  12
ENDBRANCH  10  11
ENDBRANCH   1  10
TORSDOF 13
ENDMDL
MODEL 9
REMARK VINA RESULT:    -3.797      3.932      7.383
REMARK INTER + INTRA:          -8.059
REMARK INTER:                  -7.030
REMARK INTRA:                  -1.029
REMARK UNBOUND:                -1.376
REMARK SMILES CCCCCCCCCCCCCCC(=O)[O-]
REMARK SMILES IDX 9 1 10 2 11 3 12 4 13 5 14 6 15 7 16 8 17 9 8 10 7 11 6 12
REMARK SMILES IDX 5 13 4 14 3 15 2 16 1 17
REMARK H PARENT
REMARK Flexibility Score: inf
ROOT
ATOM      1  C   UNL     1      15.902  45.854  19.726  1.00  0.00     0.000 C 
ENDROOT
BRANCH   1   2
ATOM      2  C   UNL     1      15.227  45.919  18.343  1.00  0.00     0.000 C 
BRANCH   2   3
ATOM      3  C   UNL     1      14.297  44.727  18.071  1.00  0.00     0.000 C 
BRANCH   3   4
ATOM      4  C   UNL     1      12.928  45.202  17.568  1.00  0.00     0.000 C 
BRANCH   4   5
ATOM      5  C   UNL     1      12.451  46.431  18.350  1.00  0.00     0.006 C 
BRANCH   5   6
ATOM      6  C   UNL     1      11.774  46.021  19.661  1.00  0.00     0.053 C 
BRANCH   6   7
ATOM      7  C   UNL     1      10.321  45.747  19.437  1.00  0.00     0.041 C 
ATOM      8  O   UNL     1       9.537  46.686  19.143  1.00  0.00    -0.550 OA
ATOM      9  O   UNL     1       9.842  44.445  19.501  1.00  0.00    -0.550 OA
ENDBRANCH   6   7
ENDBRANCH   5   6
ENDBRANCH   4   5
ENDBRANCH   3   4
ENDBRANCH   2   3
ENDBRANCH   1   2
BRANCH   1  10
ATOM     10  C   UNL     1      16.243  44.437  20.224  1.00  0.00     0.000 C 
BRANCH  10  11
ATOM     11  C   UNL     1      17.719  44.063  20.005  1.00  0.00    -0.000 C 
BRANCH  11  12
ATOM     12  C   UNL     1      18.672  44.792  20.970  1.00  0.00    -0.000 C 
BRANCH  12  13
ATOM     13  C   UNL     1      19.618  45.812  20.311  1.00  0.00    -0.000 C 
BRANCH  13  14
ATOM     14  C   UNL     1      19.474  47.229  20.892  1.00  0.00    -0.000 C 
BRANCH  14  15
ATOM     15  C   UNL     1      19.268  48.292  19.793  1.00  0.00    -0.000 C 
BRANCH  15  16
ATOM     16  C   UNL     1      19.848  49.670  20.155  1.00  0.00    -0.003 C 
ATOM     17  C   UNL     1      20.035  49.864  21.658  1.00  0.00     0.004 C 
ENDBRANCH  15  16
ENDBRANCH  14  15
ENDBRANCH  13  14
ENDBRANCH  12  13
ENDBRANCH  11  12
ENDBRANCH  10  11
ENDBRANCH   1  10
TORSDOF 13
ENDMDL
