MODEL 1
REMARK VINA RESULT:    -3.899      0.000      0.000
REMARK INTER + INTRA:          -6.301
REMARK INTER:                  -5.950
REMARK INTRA:                  -0.351
REMARK UNBOUND:                -0.351
REMARK SMILES O=C([O-])CCCCCCCCC(=O)[O-]
REMARK SMILES IDX 7 1 6 2 5 3 4 4 2 5 1 6 3 7 8 8 9 9 10 10 11 11 12 12 13 13
REMARK SMILES IDX 14 14
REMARK H PARENT
REMARK Flexibility Score: inf
ROOT
ATOM      1  C   UNL     1      40.961  51.355   8.877  1.00  0.00     0.000 C 
ENDROOT
BRANCH   1   2
ATOM      2  C   UNL     1      40.620  52.853   8.955  1.00  0.00     0.000 C 
BRANCH   2   3
ATOM      3  C   UNL     1      41.507  53.708   8.033  1.00  0.00     0.006 C 
BRANCH   3   4
ATOM      4  C   UNL     1      42.405  54.669   8.824  1.00  0.00     0.053 C 
BRANCH   4   5
ATOM      5  C   UNL     1      43.745  54.839   8.176  1.00  0.00     0.041 C 
ATOM      6  O   UNL     1      44.754  55.125   8.874  1.00  0.00    -0.550 OA
ATOM      7  O   UNL     1      43.875  54.712   6.799  1.00  0.00    -0.550 OA
ENDBRANCH   4   5
ENDBRANCH   3   4
ENDBRANCH   2   3
ENDBRANCH   1   2
BRANCH   1   8
ATOM      8  C   UNL     1      42.387  51.099   8.357  1.00  0.00     0.000 C 
BRANCH   8   9
ATOM      9  C   UNL     1      42.888  49.684   8.686  1.00  0.00     0.000 C 
BRANCH   9  10
ATOM     10  C   UNL     1      44.416  49.623   8.858  1.00  0.00     0.006 C 
BRANCH  10  11
ATOM     11  C   UNL     1      45.041  48.462   8.075  1.00  0.00     0.053 C 
BRANCH  11  12
ATOM     12  C   UNL     1      44.893  47.160   8.802  1.00  0.00     0.041 C 
ATOM     13  O   UNL     1      45.013  47.117  10.055  1.00  0.00    -0.550 OA
ATOM     14  O   UNL     1      44.655  45.990   8.094  1.00  0.00    -0.550 OA
ENDBRANCH  11  12
ENDBRANCH  10  11
ENDBRANCH   9  10
ENDBRANCH   8   9
ENDBRANCH   1   8
TORSDOF 9
ENDMDL
MODEL 2
REMARK VINA RESULT:    -3.769     11.781     13.505
REMARK INTER + INTRA:          -6.103
REMARK INTER:                  -5.092
REMARK INTRA:                  -1.012
REMARK UNBOUND:                -0.351
REMARK SMILES O=C([O-])CCCCCCCCC(=O)[O-]
REMARK SMILES IDX 7 1 6 2 5 3 4 4 2 5 1 6 3 7 8 8 9 9 10 10 11 11 12 12 13 13
REMARK SMILES IDX 14 14
REMARK H PARENT
REMARK Flexibility Score: inf
ROOT
ATOM      1  C   UNL     1      31.908  48.092   7.982  1.00  0.00     0.000 C 
ENDROOT
BRANCH   1   2
ATOM      2  C   UNL     1      31.660  48.360   6.488  1.00  0.00     0.000 C 
BRANCH   2   3
ATOM      3  C   UNL     1      31.594  49.863   6.162  1.00  0.00     0.006 C 
BRANCH   3   4
ATOM      4  C   UNL     1      32.252  50.721   7.251  1.00  0.00     0.053 C 
BRANCH   4   5
ATOM      5  C   UNL     1      32.218  52.178   6.909  1.00  0.00     0.041 C 
ATOM      6  O   UNL     1      33.275  52.862   6.945  1.00  0.00    -0.550 OA
ATOM      7  O   UNL     1      31.015  52.789   6.577  1.00  0.00    -0.550 OA
ENDBRANCH   4   5
ENDBRANCH   3   4
ENDBRANCH   2   3
ENDBRANCH   1   2
BRANCH   1   8
ATOM      8  C   UNL     1      31.322  46.747   8.447  1.00  0.00     0.000 C 
BRANCH   8   9
ATOM      9  C   UNL     1      29.788  46.766   8.517  1.00  0.00     0.000 C 
BRANCH   9  10
ATOM     10  C   UNL     1      29.248  47.965   9.319  1.00  0.00     0.006 C 
BRANCH  10  11
ATOM     11  C   UNL     1      28.228  48.785   8.518  1.00  0.00     0.053 C 
BRANCH  11  12
ATOM     12  C   UNL     1      28.672  50.205   8.348  1.00  0.00     0.041 C 
ATOM     13  O   UNL     1      28.351  50.850   7.315  1.00  0.00    -0.550 OA
ATOM     14  O   UNL     1      29.467  50.807   9.315  1.00  0.00    -0.550 OA
ENDBRANCH  11  12
ENDBRANCH  10  11
ENDBRANCH   9  10
ENDBRANCH   8   9
ENDBRANCH   1   8
TORSDOF 9
ENDMDL
MODEL 3
REMARK VINA RESULT:    -3.751     19.185     20.425
REMARK INTER + INTRA:          -6.076
REMARK INTER:                  -5.483
REMARK INTRA:                  -0.593
REMARK UNBOUND:                -0.351
REMARK SMILES O=C([O-])CCCCCCCCC(=O)[O-]
REMARK SMILES IDX 7 1 6 2 5 3 4 4 2 5 1 6 3 7 8 8 9 9 10 10 11 11 12 12 13 13
REMARK SMILES IDX 14 14
REMARK H PARENT
REMARK Flexibility Score: inf
ROOT
ATOM      1  C   UNL     1      32.321  53.799  25.903  1.00  0.00     0.000 C 
ENDROOT
BRANCH   1   2
ATOM      2  C   UNL     1      31.347  54.229  24.793  1.00  0.00     0.000 C 
BRANCH   2   3
ATOM      3  C   UNL     1      29.886  53.876  25.122  1.00  0.00     0.006 C 
BRANCH   3   4
ATOM      4  C   UNL     1      29.782  52.702  26.105  1.00  0.00     0.053 C 
BRANCH   4   5
ATOM      5  C   UNL     1      29.818  51.380  25.401  1.00  0.00     0.041 C 
ATOM      6  O   UNL     1      30.132  50.336  26.031  1.00  0.00    -0.550 OA
ATOM      7  O   UNL     1      29.534  51.305  24.044  1.00  0.00    -0.550 OA
ENDBRANCH   4   5
ENDBRANCH   3   4
ENDBRANCH   2   3
ENDBRANCH   1   2
BRANCH   1   8
ATOM      8  C   UNL     1      33.462  52.909  25.378  1.00  0.00     0.000 C 
BRANCH   8   9
ATOM      9  C   UNL     1      33.466  51.515  26.024  1.00  0.00     0.000 C 
BRANCH   9  10
ATOM     10  C   UNL     1      34.011  50.427  25.081  1.00  0.00     0.006 C 
BRANCH  10  11
ATOM     11  C   UNL     1      33.356  49.063  25.331  1.00  0.00     0.053 C 
BRANCH  11  12
ATOM     12  C   UNL     1      34.364  47.955  25.325  1.00  0.00     0.041 C 
ATOM     13  O   UNL     1      33.987  46.754  25.344  1.00  0.00    -0.550 OA
ATOM     14  O   UNL     1      35.722  48.250  25.332  1.00  0.00    -0.550 OA
ENDBRANCH  11  12
ENDBRANCH  10  11
ENDBRANCH   9  10
ENDBRANCH   8   9
ENDBRANCH   1   8
TORSDOF 9
ENDMDL
MODEL 4
REMARK VINA RESULT:    -3.723     18.958     20.519
REMARK INTER + INTRA:          -6.033
REMARK INTER:                  -5.689
REMARK INTRA:                  -0.344
REMARK UNBOUND:                -0.351
REMARK SMILES O=C([O-])CCCCCCCCC(=O)[O-]
REMARK SMILES IDX 7 1 6 2 5 3 4 4 2 5 1 6 3 7 8 8 9 9 10 10 11 11 12 12 13 13
REMARK SMILES IDX 14 14
REMARK H PARENT
REMARK Flexibility Score: inf
ROOT
ATOM      1  C   UNL     1      33.562  47.433  25.165  1.00  0.00     0.000 C 
ENDROOT
BRANCH   1   2
ATOM      2  C   UNL     1      33.600  46.231  26.125  1.00  0.00     0.000 C 
BRANCH   2   3
ATOM      3  C   UNL     1      34.255  44.991  25.492  1.00  0.00     0.006 C 
BRANCH   3   4
ATOM      4  C   UNL     1      35.693  44.781  25.985  1.00  0.00     0.053 C 
BRANCH   4   5
ATOM      5  C   UNL     1      36.452  43.839  25.102  1.00  0.00     0.041 C 
ATOM      6  O   UNL     1      35.841  43.128  24.261  1.00  0.00    -0.550 OA
ATOM      7  O   UNL     1      37.831  43.723  25.228  1.00  0.00    -0.550 OA
ENDBRANCH   4   5
ENDBRANCH   3   4
ENDBRANCH   2   3
ENDBRANCH   1   2
BRANCH   1   8
ATOM      8  C   UNL     1      34.780  48.360  25.329  1.00  0.00     0.000 C 
BRANCH   8   9
ATOM      9  C   UNL     1      34.425  49.840  25.118  1.00  0.00     0.000 C 
BRANCH   9  10
ATOM     10  C   UNL     1      32.984  50.036  24.615  1.00  0.00     0.006 C 
BRANCH  10  11
ATOM     11  C   UNL     1      32.306  51.251  25.260  1.00  0.00     0.053 C 
BRANCH  11  12
ATOM     12  C   UNL     1      31.320  51.893  24.332  1.00  0.00     0.041 C 
ATOM     13  O   UNL     1      31.275  53.147  24.223  1.00  0.00    -0.550 OA
ATOM     14  O   UNL     1      30.429  51.108  23.612  1.00  0.00    -0.550 OA
ENDBRANCH  11  12
ENDBRANCH  10  11
ENDBRANCH   9  10
ENDBRANCH   8   9
ENDBRANCH   1   8
TORSDOF 9
ENDMDL
MODEL 5
REMARK VINA RESULT:    -3.689     19.434     21.062
REMARK INTER + INTRA:          -5.981
REMARK INTER:                  -5.610
REMARK INTRA:                  -0.371
REMARK UNBOUND:                -0.351
REMARK SMILES O=C([O-])CCCCCCCCC(=O)[O-]
REMARK SMILES IDX 7 1 6 2 5 3 4 4 2 5 1 6 3 7 8 8 9 9 10 10 11 11 12 12 13 13
REMARK SMILES IDX 14 14
REMARK H PARENT
REMARK Flexibility Score: inf
ROOT
ATOM      1  C   UNL     1      34.211  49.839  24.897  1.00  0.00     0.000 C 
ENDROOT
BRANCH   1   2
ATOM      2  C   UNL     1      35.206  48.912  25.615  1.00  0.00     0.000 C 
BRANCH   2   3
ATOM      3  C   UNL     1      34.673  47.476  25.762  1.00  0.00     0.006 C 
BRANCH   3   4
ATOM      4  C   UNL     1      35.785  46.478  26.112  1.00  0.00     0.053 C 
BRANCH   4   5
ATOM      5  C   UNL     1      35.372  45.065  25.840  1.00  0.00     0.041 C 
ATOM      6  O   UNL     1      36.203  44.127  25.965  1.00  0.00    -0.550 OA
ATOM      7  O   UNL     1      34.078  44.785  25.420  1.00  0.00    -0.550 OA
ENDBRANCH   4   5
ENDBRANCH   3   4
ENDBRANCH   2   3
ENDBRANCH   1   2
BRANCH   1   8
ATOM      8  C   UNL     1      33.890  51.106  25.711  1.00  0.00     0.000 C 
BRANCH   8   9
ATOM      9  C   UNL     1      32.529  51.715  25.339  1.00  0.00     0.000 C 
BRANCH   9  10
ATOM     10  C   UNL     1      31.742  50.841  24.346  1.00  0.00     0.006 C 
BRANCH  10  11
ATOM     11  C   UNL     1      30.393  51.465  23.969  1.00  0.00     0.053 C 
BRANCH  11  12
ATOM     12  C   UNL     1      29.561  51.759  25.180  1.00  0.00     0.041 C 
ATOM     13  O   UNL     1      29.185  52.936  25.420  1.00  0.00    -0.550 OA
ATOM     14  O   UNL     1      29.231  50.738  26.062  1.00  0.00    -0.550 OA
ENDBRANCH  11  12
ENDBRANCH  10  11
ENDBRANCH   9  10
ENDBRANCH   8   9
ENDBRANCH   1   8
TORSDOF 9
ENDMDL
MODEL 6
REMARK VINA RESULT:    -3.677     19.321     20.229
REMARK INTER + INTRA:          -5.963
REMARK INTER:                  -5.462
REMARK INTRA:                  -0.501
REMARK UNBOUND:                -0.351
REMARK SMILES O=C([O-])CCCCCCCCC(=O)[O-]
REMARK SMILES IDX 7 1 6 2 5 3 4 4 2 5 1 6 3 7 8 8 9 9 10 10 11 11 12 12 13 13
REMARK SMILES IDX 14 14
REMARK H PARENT
REMARK Flexibility Score: inf
ROOT
ATOM      1  C   UNL     1      30.932  51.381  24.068  1.00  0.00     0.000 C 
ENDROOT
BRANCH   1   2
ATOM      2  C   UNL     1      29.517  51.709  24.575  1.00  0.00     0.000 C 
BRANCH   2   3
ATOM      3  C   UNL     1      29.532  52.449  25.924  1.00  0.00     0.006 C 
BRANCH   3   4
ATOM      4  C   UNL     1      29.433  53.971  25.750  1.00  0.00     0.053 C 
BRANCH   4   5
ATOM      5  C   UNL     1      30.739  54.569  25.326  1.00  0.00     0.041 C 
ATOM      6  O   UNL     1      31.713  54.594  26.124  1.00  0.00    -0.550 OA
ATOM      7  O   UNL     1      30.873  55.125  24.060  1.00  0.00    -0.550 OA
ENDBRANCH   4   5
ENDBRANCH   3   4
ENDBRANCH   2   3
ENDBRANCH   1   2
BRANCH   1   8
ATOM      8  C   UNL     1      31.795  50.682  25.134  1.00  0.00     0.000 C 
BRANCH   8   9
ATOM      9  C   UNL     1      33.194  51.305  25.259  1.00  0.00     0.000 C 
BRANCH   9  10
ATOM     10  C   UNL     1      34.300  50.246  25.417  1.00  0.00     0.006 C 
BRANCH  10  11
ATOM     11  C   UNL     1      33.738  48.876  25.814  1.00  0.00     0.053 C 
BRANCH  11  12
ATOM     12  C   UNL     1      34.769  47.796  25.685  1.00  0.00     0.041 C 
ATOM     13  O   UNL     1      35.979  48.093  25.502  1.00  0.00    -0.550 OA
ATOM     14  O   UNL     1      34.388  46.461  25.733  1.00  0.00    -0.550 OA
ENDBRANCH  11  12
ENDBRANCH  10  11
ENDBRANCH   9  10
ENDBRANCH   8   9
ENDBRANCH   1   8
TORSDOF 9
ENDMDL
MODEL 7
REMARK VINA RESULT:    -3.650     18.936     19.433
REMARK INTER + INTRA:          -5.921
REMARK INTER:                  -5.584
REMARK INTRA:                  -0.338
REMARK UNBOUND:                -0.351
REMARK SMILES O=C([O-])CCCCCCCCC(=O)[O-]
REMARK SMILES IDX 7 1 6 2 5 3 4 4 2 5 1 6 3 7 8 8 9 9 10 10 11 11 12 12 13 13
REMARK SMILES IDX 14 14
REMARK H PARENT
REMARK Flexibility Score: inf
ROOT
ATOM      1  C   UNL     1      33.448  48.781  25.229  1.00  0.00     0.000 C 
ENDROOT
BRANCH   1   2
ATOM      2  C   UNL     1      34.269  50.066  25.032  1.00  0.00     0.000 C 
BRANCH   2   3
ATOM      3  C   UNL     1      33.474  51.335  25.386  1.00  0.00     0.006 C 
BRANCH   3   4
ATOM      4  C   UNL     1      31.960  51.085  25.393  1.00  0.00     0.053 C 
BRANCH   4   5
ATOM      5  C   UNL     1      31.254  51.909  24.360  1.00  0.00     0.041 C 
ATOM      6  O   UNL     1      30.524  51.353  23.497  1.00  0.00    -0.550 OA
ATOM      7  O   UNL     1      31.424  53.287  24.331  1.00  0.00    -0.550 OA
ENDBRANCH   4   5
ENDBRANCH   3   4
ENDBRANCH   2   3
ENDBRANCH   1   2
BRANCH   1   8
ATOM      8  C   UNL     1      34.333  47.531  25.386  1.00  0.00     0.000 C 
BRANCH   8   9
ATOM      9  C   UNL     1      33.514  46.232  25.423  1.00  0.00     0.000 C 
BRANCH   9  10
ATOM     10  C   UNL     1      34.367  45.006  25.795  1.00  0.00     0.006 C 
BRANCH  10  11
ATOM     11  C   UNL     1      35.862  45.341  25.866  1.00  0.00     0.053 C 
BRANCH  11  12
ATOM     12  C   UNL     1      36.703  44.245  25.287  1.00  0.00     0.041 C 
ATOM     13  O   UNL     1      37.952  44.249  25.452  1.00  0.00    -0.550 OA
ATOM     14  O   UNL     1      36.112  43.236  24.536  1.00  0.00    -0.550 OA
ENDBRANCH  11  12
ENDBRANCH  10  11
ENDBRANCH   9  10
ENDBRANCH   8   9
ENDBRANCH   1   8
TORSDOF 9
ENDMDL
MODEL 8
REMARK VINA RESULT:    -3.636     13.766     15.779
REMARK INTER + INTRA:          -5.900
REMARK INTER:                  -5.327
REMARK INTRA:                  -0.573
REMARK UNBOUND:                -0.351
REMARK SMILES O=C([O-])CCCCCCCCC(=O)[O-]
REMARK SMILES IDX 7 1 6 2 5 3 4 4 2 5 1 6 3 7 8 8 9 9 10 10 11 11 12 12 13 13
REMARK SMILES IDX 14 14
REMARK H PARENT
REMARK Flexibility Score: inf
ROOT
ATOM      1  C   UNL     1      29.068  47.984   9.342  1.00  0.00     0.000 C 
ENDROOT
BRANCH   1   2
ATOM      2  C   UNL     1      27.827  48.463   8.570  1.00  0.00     0.000 C 
BRANCH   2   3
ATOM      3  C   UNL     1      26.512  48.030   9.240  1.00  0.00     0.006 C 
BRANCH   3   4
ATOM      4  C   UNL     1      25.934  46.755   8.610  1.00  0.00     0.053 C 
BRANCH   4   5
ATOM      5  C   UNL     1      25.892  45.621   9.587  1.00  0.00     0.041 C 
ATOM      6  O   UNL     1      25.443  45.803  10.750  1.00  0.00    -0.550 OA
ATOM      7  O   UNL     1      26.373  44.370   9.224  1.00  0.00    -0.550 OA
ENDBRANCH   4   5
ENDBRANCH   3   4
ENDBRANCH   2   3
ENDBRANCH   1   2
BRANCH   1   8
ATOM      8  C   UNL     1      29.860  46.906   8.580  1.00  0.00     0.000 C 
BRANCH   8   9
ATOM      9  C   UNL     1      31.359  47.229   8.493  1.00  0.00     0.000 C 
BRANCH   9  10
ATOM     10  C   UNL     1      31.690  48.197   7.343  1.00  0.00     0.006 C 
BRANCH  10  11
ATOM     11  C   UNL     1      32.319  49.502   7.846  1.00  0.00     0.053 C 
BRANCH  11  12
ATOM     12  C   UNL     1      31.434  50.681   7.581  1.00  0.00     0.041 C 
ATOM     13  O   UNL     1      30.467  50.933   8.348  1.00  0.00    -0.550 OA
ATOM     14  O   UNL     1      31.656  51.482   6.468  1.00  0.00    -0.550 OA
ENDBRANCH  11  12
ENDBRANCH  10  11
ENDBRANCH   9  10
ENDBRANCH   8   9
ENDBRANCH   1   8
TORSDOF 9
ENDMDL
MODEL 9
REMARK VINA RESULT:    -3.627     12.001     13.957
REMARK INTER + INTRA:          -5.887
REMARK INTER:                  -4.853
REMARK INTRA:                  -1.034
REMARK UNBOUND:                -0.351
REMARK SMILES O=C([O-])CCCCCCCCC(=O)[O-]
REMARK SMILES IDX 7 1 6 2 5 3 4 4 2 5 1 6 3 7 8 8 9 9 10 10 11 11 12 12 13 13
REMARK SMILES IDX 14 14
REMARK H PARENT
REMARK Flexibility Score: inf
ROOT
ATOM      1  C   UNL     1      31.226  46.802   8.789  1.00  0.00     0.000 C 
ENDROOT
BRANCH   1   2
ATOM      2  C   UNL     1      29.833  46.551   8.189  1.00  0.00     0.000 C 
BRANCH   2   3
ATOM      3  C   UNL     1      28.731  47.356   8.899  1.00  0.00     0.006 C 
BRANCH   3   4
ATOM      4  C   UNL     1      28.009  48.316   7.944  1.00  0.00     0.053 C 
BRANCH   4   5
ATOM      5  C   UNL     1      28.430  49.737   8.159  1.00  0.00     0.041 C 
ATOM      6  O   UNL     1      28.029  50.641   7.379  1.00  0.00    -0.550 OA
ATOM      7  O   UNL     1      29.287  50.061   9.203  1.00  0.00    -0.550 OA
ENDBRANCH   4   5
ENDBRANCH   3   4
ENDBRANCH   2   3
ENDBRANCH   1   2
BRANCH   1   8
ATOM      8  C   UNL     1      31.976  47.946   8.084  1.00  0.00     0.000 C 
BRANCH   8   9
ATOM      9  C   UNL     1      31.488  48.171   6.644  1.00  0.00     0.000 C 
BRANCH   9  10
ATOM     10  C   UNL     1      31.566  49.648   6.217  1.00  0.00     0.006 C 
BRANCH  10  11
ATOM     11  C   UNL     1      32.274  50.517   7.264  1.00  0.00     0.053 C 
BRANCH  11  12
ATOM     12  C   UNL     1      32.143  51.976   6.952  1.00  0.00     0.041 C 
ATOM     13  O   UNL     1      33.165  52.712   6.921  1.00  0.00    -0.550 OA
ATOM     14  O   UNL     1      30.890  52.531   6.728  1.00  0.00    -0.550 OA
ENDBRANCH  11  12
ENDBRANCH  10  11
ENDBRANCH   9  10
ENDBRANCH   8   9
ENDBRANCH   1   8
TORSDOF 9
ENDMDL
