MODEL 1
REMARK VINA RESULT:    -3.893      0.000      0.000
REMARK INTER + INTRA:          -4.926
REMARK INTER:                  -4.804
REMARK INTRA:                  -0.122
REMARK UNBOUND:                -0.122
REMARK SMILES CCCCCC(=O)[O-]
REMARK SMILES IDX 4 1 5 2 6 3 7 4 8 5 3 6 2 7 1 8
REMARK H PARENT
REMARK Flexibility Score: inf
ROOT
ATOM      1  C   UNL     1       2.277  24.067  45.271  1.00  0.00     0.006 C 
ENDROOT
BRANCH   1   2
ATOM      2  C   UNL     1       1.004  24.173  46.121  1.00  0.00     0.053 C 
BRANCH   2   3
ATOM      3  C   UNL     1       1.295  24.702  47.492  1.00  0.00     0.041 C 
ATOM      4  O   UNL     1       0.904  25.852  47.824  1.00  0.00    -0.550 OA
ATOM      5  O   UNL     1       1.970  23.912  48.413  1.00  0.00    -0.550 OA
ENDBRANCH   2   3
ENDBRANCH   1   2
BRANCH   1   6
ATOM      6  C   UNL     1       2.703  22.609  45.042  1.00  0.00     0.000 C 
BRANCH   6   7
ATOM      7  C   UNL     1       2.680  22.259  43.550  1.00  0.00    -0.003 C 
ATOM      8  C   UNL     1       1.508  21.339  43.219  1.00  0.00     0.004 C 
ENDBRANCH   6   7
ENDBRANCH   1   6
TORSDOF 4
ENDMDL
MODEL 2
REMARK VINA RESULT:    -3.867      1.660      2.564
REMARK INTER + INTRA:          -4.893
REMARK INTER:                  -4.786
REMARK INTRA:                  -0.107
REMARK UNBOUND:                -0.122
REMARK SMILES CCCCCC(=O)[O-]
REMARK SMILES IDX 4 1 5 2 6 3 7 4 8 5 3 6 2 7 1 8
REMARK H PARENT
REMARK Flexibility Score: inf
ROOT
ATOM      1  C   UNL     1       2.665  22.473  43.702  1.00  0.00     0.006 C 
ENDROOT
BRANCH   1   2
ATOM      2  C   UNL     1       2.711  22.561  45.233  1.00  0.00     0.053 C 
BRANCH   2   3
ATOM      3  C   UNL     1       1.980  23.765  45.742  1.00  0.00     0.041 C 
ATOM      4  O   UNL     1       1.667  23.850  46.959  1.00  0.00    -0.550 OA
ATOM      5  O   UNL     1       1.671  24.808  44.878  1.00  0.00    -0.550 OA
ENDBRANCH   2   3
ENDBRANCH   1   2
BRANCH   1   6
ATOM      6  C   UNL     1       1.647  21.433  43.210  1.00  0.00     0.000 C 
BRANCH   6   7
ATOM      7  C   UNL     1       1.893  21.078  41.739  1.00  0.00    -0.003 C 
ATOM      8  C   UNL     1       2.552  22.236  40.996  1.00  0.00     0.004 C 
ENDBRANCH   6   7
ENDBRANCH   1   6
TORSDOF 4
ENDMDL
MODEL 3
REMARK VINA RESULT:    -3.833      3.555      4.897
REMARK INTER + INTRA:          -4.851
REMARK INTER:                  -4.781
REMARK INTRA:                  -0.070
REMARK UNBOUND:                -0.122
REMARK SMILES CCCCCC(=O)[O-]
REMARK SMILES IDX 4 1 5 2 6 3 7 4 8 5 3 6 2 7 1 8
REMARK H PARENT
REMARK Flexibility Score: inf
ROOT
ATOM      1  C   UNL     1       3.566  22.719  44.069  1.00  0.00     0.006 C 
ENDROOT
BRANCH   1   2
ATOM      2  C   UNL     1       2.722  22.845  42.795  1.00  0.00     0.053 C 
BRANCH   2   3
ATOM      3  C   UNL     1       2.160  21.524  42.368  1.00  0.00     0.041 C 
ATOM      4  O   UNL     1       2.647  20.916  41.379  1.00  0.00    -0.550 OA
ATOM      5  O   UNL     1       1.117  20.949  43.083  1.00  0.00    -0.550 OA
ENDBRANCH   2   3
ENDBRANCH   1   2
BRANCH   1   6
ATOM      6  C   UNL     1       2.705  22.730  45.341  1.00  0.00     0.000 C 
BRANCH   6   7
ATOM      7  C   UNL     1       1.644  23.835  45.274  1.00  0.00    -0.003 C 
ATOM      8  C   UNL     1       1.199  24.256  46.672  1.00  0.00     0.004 C 
ENDBRANCH   6   7
ENDBRANCH   1   6
TORSDOF 4
ENDMDL
MODEL 4
REMARK VINA RESULT:    -3.711      1.929      2.350
REMARK INTER + INTRA:          -4.700
REMARK INTER:                  -4.566
REMARK INTRA:                  -0.134
REMARK UNBOUND:                -0.122
REMARK SMILES CCCCCC(=O)[O-]
REMARK SMILES IDX 4 1 5 2 6 3 7 4 8 5 3 6 2 7 1 8
REMARK H PARENT
REMARK Flexibility Score: inf
ROOT
ATOM      1  C   UNL     1       2.685  22.590  45.040  1.00  0.00     0.006 C 
ENDROOT
BRANCH   1   2
ATOM      2  C   UNL     1       1.825  23.688  45.680  1.00  0.00     0.053 C 
BRANCH   2   3
ATOM      3  C   UNL     1       2.292  25.056  45.289  1.00  0.00     0.041 C 
ATOM      4  O   UNL     1       2.604  25.897  46.174  1.00  0.00    -0.550 OA
ATOM      5  O   UNL     1       2.412  25.394  43.947  1.00  0.00    -0.550 OA
ENDBRANCH   2   3
ENDBRANCH   1   2
BRANCH   1   6
ATOM      6  C   UNL     1       1.943  21.852  43.915  1.00  0.00     0.000 C 
BRANCH   6   7
ATOM      7  C   UNL     1       2.611  22.106  42.559  1.00  0.00    -0.003 C 
ATOM      8  C   UNL     1       1.973  21.257  41.463  1.00  0.00     0.004 C 
ENDBRANCH   6   7
ENDBRANCH   1   6
TORSDOF 4
ENDMDL
MODEL 5
REMARK VINA RESULT:    -3.553      3.328      4.408
REMARK INTER + INTRA:          -4.505
REMARK INTER:                  -4.370
REMARK INTRA:                  -0.135
REMARK UNBOUND:                -0.122
REMARK SMILES CCCCCC(=O)[O-]
REMARK SMILES IDX 4 1 5 2 6 3 7 4 8 5 3 6 2 7 1 8
REMARK H PARENT
REMARK Flexibility Score: inf
ROOT
ATOM      1  C   UNL     1       2.707  22.400  42.914  1.00  0.00     0.006 C 
ENDROOT
BRANCH   1   2
ATOM      2  C   UNL     1       3.721  23.533  43.118  1.00  0.00     0.053 C 
BRANCH   2   3
ATOM      3  C   UNL     1       3.278  24.800  42.455  1.00  0.00     0.041 C 
ATOM      4  O   UNL     1       3.237  24.879  41.199  1.00  0.00    -0.550 OA
ATOM      5  O   UNL     1       2.880  25.886  43.224  1.00  0.00    -0.550 OA
ENDBRANCH   2   3
ENDBRANCH   1   2
BRANCH   1   6
ATOM      6  C   UNL     1       2.033  21.978  44.229  1.00  0.00     0.000 C 
BRANCH   6   7
ATOM      7  C   UNL     1       2.690  22.672  45.427  1.00  0.00    -0.003 C 
ATOM      8  C   UNL     1       1.759  23.718  46.035  1.00  0.00     0.004 C 
ENDBRANCH   6   7
ENDBRANCH   1   6
TORSDOF 4
ENDMDL
MODEL 6
REMARK VINA RESULT:    -3.356      3.114      4.722
REMARK INTER + INTRA:          -4.262
REMARK INTER:                  -4.174
REMARK INTRA:                  -0.088
REMARK UNBOUND:                -0.122
REMARK SMILES CCCCCC(=O)[O-]
REMARK SMILES IDX 4 1 5 2 6 3 7 4 8 5 3 6 2 7 1 8
REMARK H PARENT
REMARK Flexibility Score: inf
ROOT
ATOM      1  C   UNL     1       2.343  23.897  45.299  1.00  0.00     0.006 C 
ENDROOT
BRANCH   1   2
ATOM      2  C   UNL     1       2.511  22.459  44.789  1.00  0.00     0.053 C 
BRANCH   2   3
ATOM      3  C   UNL     1       2.713  22.417  43.305  1.00  0.00     0.041 C 
ATOM      4  O   UNL     1       3.428  23.284  42.737  1.00  0.00    -0.550 OA
ATOM      5  O   UNL     1       2.138  21.401  42.553  1.00  0.00    -0.550 OA
ENDBRANCH   2   3
ENDBRANCH   1   2
BRANCH   1   6
ATOM      6  C   UNL     1       0.956  24.137  45.914  1.00  0.00     0.000 C 
BRANCH   6   7
ATOM      7  C   UNL     1       1.076  24.634  47.359  1.00  0.00    -0.003 C 
ATOM      8  C   UNL     1       2.047  25.807  47.459  1.00  0.00     0.004 C 
ENDBRANCH   6   7
ENDBRANCH   1   6
TORSDOF 4
ENDMDL
MODEL 7
REMARK VINA RESULT:    -3.335      1.158      1.962
REMARK INTER + INTRA:          -4.237
REMARK INTER:                  -4.147
REMARK INTRA:                  -0.090
REMARK UNBOUND:                -0.122
REMARK SMILES CCCCCC(=O)[O-]
REMARK SMILES IDX 4 1 5 2 6 3 7 4 8 5 3 6 2 7 1 8
REMARK H PARENT
REMARK Flexibility Score: inf
ROOT
ATOM      1  C   UNL     1       1.165  24.128  46.455  1.00  0.00     0.006 C 
ENDROOT
BRANCH   1   2
ATOM      2  C   UNL     1       1.467  25.215  47.494  1.00  0.00     0.053 C 
BRANCH   2   3
ATOM      3  C   UNL     1       1.659  24.637  48.863  1.00  0.00     0.041 C 
ATOM      4  O   UNL     1       2.230  23.524  49.008  1.00  0.00    -0.550 OA
ATOM      5  O   UNL     1       1.234  25.342  49.982  1.00  0.00    -0.550 OA
ENDBRANCH   2   3
ENDBRANCH   1   2
BRANCH   1   6
ATOM      6  C   UNL     1       2.203  24.101  45.323  1.00  0.00     0.000 C 
BRANCH   6   7
ATOM      7  C   UNL     1       2.677  22.669  45.049  1.00  0.00    -0.003 C 
ATOM      8  C   UNL     1       3.182  22.521  43.616  1.00  0.00     0.004 C 
ENDBRANCH   6   7
ENDBRANCH   1   6
TORSDOF 4
ENDMDL
MODEL 8
REMARK VINA RESULT:    -3.263      5.675      6.727
REMARK INTER + INTRA:          -4.148
REMARK INTER:                  -4.072
REMARK INTRA:                  -0.075
REMARK UNBOUND:                -0.122
REMARK SMILES CCCCCC(=O)[O-]
REMARK SMILES IDX 4 1 5 2 6 3 7 4 8 5 3 6 2 7 1 8
REMARK H PARENT
REMARK Flexibility Score: inf
ROOT
ATOM      1  C   UNL     1       3.528  22.863  50.594  1.00  0.00     0.006 C 
ENDROOT
BRANCH   1   2
ATOM      2  C   UNL     1       2.463  21.804  50.909  1.00  0.00     0.053 C 
BRANCH   2   3
ATOM      3  C   UNL     1       1.511  22.272  51.966  1.00  0.00     0.041 C 
ATOM      4  O   UNL     1       0.447  22.864  51.645  1.00  0.00    -0.550 OA
ATOM      5  O   UNL     1       1.783  22.026  53.306  1.00  0.00    -0.550 OA
ENDBRANCH   2   3
ENDBRANCH   1   2
BRANCH   1   6
ATOM      6  C   UNL     1       4.777  22.711  51.475  1.00  0.00     0.000 C 
BRANCH   6   7
ATOM      7  C   UNL     1       5.981  23.422  50.847  1.00  0.00    -0.003 C 
ATOM      8  C   UNL     1       6.840  24.096  51.912  1.00  0.00     0.004 C 
ENDBRANCH   6   7
ENDBRANCH   1   6
TORSDOF 4
ENDMDL
MODEL 9
REMARK VINA RESULT:    -3.252      2.140      2.769
REMARK INTER + INTRA:          -4.135
REMARK INTER:                  -4.020
REMARK INTRA:                  -0.114
REMARK UNBOUND:                -0.122
REMARK SMILES CCCCCC(=O)[O-]
REMARK SMILES IDX 4 1 5 2 6 3 7 4 8 5 3 6 2 7 1 8
REMARK H PARENT
REMARK Flexibility Score: inf
ROOT
ATOM      1  C   UNL     1       3.605  22.886  44.262  1.00  0.00     0.006 C 
ENDROOT
BRANCH   1   2
ATOM      2  C   UNL     1       2.404  22.441  45.107  1.00  0.00     0.053 C 
BRANCH   2   3
ATOM      3  C   UNL     1       1.823  23.579  45.889  1.00  0.00     0.041 C 
ATOM      4  O   UNL     1       1.090  24.431  45.321  1.00  0.00    -0.550 OA
ATOM      5  O   UNL     1       2.067  23.681  47.253  1.00  0.00    -0.550 OA
ENDBRANCH   2   3
ENDBRANCH   1   2
BRANCH   1   6
ATOM      6  C   UNL     1       3.201  23.255  42.827  1.00  0.00     0.000 C 
BRANCH   6   7
ATOM      7  C   UNL     1       3.594  24.701  42.501  1.00  0.00    -0.003 C 
ATOM      8  C   UNL     1       4.263  24.795  41.133  1.00  0.00     0.004 C 
ENDBRANCH   6   7
ENDBRANCH   1   6
TORSDOF 4
ENDMDL
