MODEL 1
REMARK VINA RESULT:    -2.144      0.000      0.000
REMARK INTER + INTRA:          -2.144
REMARK INTER:                  -2.144
REMARK INTRA:                   0.000
REMARK UNBOUND:                 0.000
REMARK SMILES CC(=O)[O-]
REMARK SMILES IDX 1 1 2 2 3 3 4 4
REMARK H PARENT
REMARK Flexibility Score: inf
ROOT
ATOM      1  C   UNL     1     110.295  56.604  50.445  1.00  0.00     0.063 C 
ATOM      2  C   UNL     1     109.974  57.272  51.740  1.00  0.00     0.038 C 
ATOM      3  O   UNL     1     108.875  57.869  51.888  1.00  0.00    -0.550 OA
ATOM      4  O   UNL     1     110.863  57.192  52.804  1.00  0.00    -0.550 OA
ENDROOT
TORSDOF 0
ENDMDL
MODEL 2
REMARK VINA RESULT:    -1.906     14.310     14.889
REMARK INTER + INTRA:          -1.906
REMARK INTER:                  -1.906
REMARK INTRA:                   0.000
REMARK UNBOUND:                 0.000
REMARK SMILES CC(=O)[O-]
REMARK SMILES IDX 1 1 2 2 3 3 4 4
REMARK H PARENT
REMARK Flexibility Score: inf
ROOT
ATOM      1  C   UNL     1     124.597  56.471  52.341  1.00  0.00     0.063 C 
ATOM      2  C   UNL     1     124.778  57.906  51.977  1.00  0.00     0.038 C 
ATOM      3  O   UNL     1     125.935  58.399  51.906  1.00  0.00    -0.550 OA
ATOM      4  O   UNL     1     123.675  58.690  51.665  1.00  0.00    -0.550 OA
ENDROOT
TORSDOF 0
ENDMDL
MODEL 3
REMARK VINA RESULT:    -1.854      7.283      7.801
REMARK INTER + INTRA:          -1.854
REMARK INTER:                  -1.854
REMARK INTRA:                   0.000
REMARK UNBOUND:                 0.000
REMARK SMILES CC(=O)[O-]
REMARK SMILES IDX 1 1 2 2 3 3 4 4
REMARK H PARENT
REMARK Flexibility Score: inf
ROOT
ATOM      1  C   UNL     1     116.471  52.245  54.584  1.00  0.00     0.063 C 
ATOM      2  C   UNL     1     115.569  52.457  53.416  1.00  0.00     0.038 C 
ATOM      3  O   UNL     1     115.178  53.618  53.122  1.00  0.00    -0.550 OA
ATOM      4  O   UNL     1     115.198  51.383  52.617  1.00  0.00    -0.550 OA
ENDROOT
TORSDOF 0
ENDMDL
MODEL 4
REMARK VINA RESULT:    -1.835     14.515     15.022
REMARK INTER + INTRA:          -1.835
REMARK INTER:                  -1.835
REMARK INTRA:                   0.000
REMARK UNBOUND:                 0.000
REMARK SMILES CC(=O)[O-]
REMARK SMILES IDX 1 1 2 2 3 3 4 4
REMARK H PARENT
REMARK Flexibility Score: inf
ROOT
ATOM      1  C   UNL     1     123.590  58.039  51.549  1.00  0.00     0.063 C 
ATOM      2  C   UNL     1     124.971  57.614  51.920  1.00  0.00     0.038 C 
ATOM      3  O   UNL     1     125.911  58.452  51.923  1.00  0.00    -0.550 OA
ATOM      4  O   UNL     1     125.215  56.305  52.313  1.00  0.00    -0.550 OA
ENDROOT
TORSDOF 0
ENDMDL
MODEL 5
REMARK VINA RESULT:    -1.822     18.393     18.446
REMARK INTER + INTRA:          -1.822
REMARK INTER:                  -1.822
REMARK INTRA:                   0.000
REMARK UNBOUND:                 0.000
REMARK SMILES CC(=O)[O-]
REMARK SMILES IDX 1 1 2 2 3 3 4 4
REMARK H PARENT
REMARK Flexibility Score: inf
ROOT
ATOM      1  C   UNL     1     125.997  55.249  42.962  1.00  0.00     0.063 C 
ATOM      2  C   UNL     1     126.095  53.880  43.546  1.00  0.00     0.038 C 
ATOM      3  O   UNL     1     126.712  53.698  44.629  1.00  0.00    -0.550 OA
ATOM      4  O   UNL     1     125.463  52.811  42.926  1.00  0.00    -0.550 OA
ENDROOT
TORSDOF 0
ENDMDL
MODEL 6
REMARK VINA RESULT:    -1.816     18.377     18.402
REMARK INTER + INTRA:          -1.816
REMARK INTER:                  -1.816
REMARK INTRA:                   0.000
REMARK UNBOUND:                 0.000
REMARK SMILES CC(=O)[O-]
REMARK SMILES IDX 1 1 2 2 3 3 4 4
REMARK H PARENT
REMARK Flexibility Score: inf
ROOT
ATOM      1  C   UNL     1     126.091  55.088  42.997  1.00  0.00     0.063 C 
ATOM      2  C   UNL     1     126.047  53.716  43.579  1.00  0.00     0.038 C 
ATOM      3  O   UNL     1     125.533  52.769  42.927  1.00  0.00    -0.550 OA
ATOM      4  O   UNL     1     126.619  53.467  44.820  1.00  0.00    -0.550 OA
ENDROOT
TORSDOF 0
ENDMDL
MODEL 7
REMARK VINA RESULT:    -1.772      7.205      7.721
REMARK INTER + INTRA:          -1.772
REMARK INTER:                  -1.772
REMARK INTRA:                   0.000
REMARK UNBOUND:                 0.000
REMARK SMILES CC(=O)[O-]
REMARK SMILES IDX 1 1 2 2 3 3 4 4
REMARK H PARENT
REMARK Flexibility Score: inf
ROOT
ATOM      1  C   UNL     1     115.524  51.370  52.398  1.00  0.00     0.063 C 
ATOM      2  C   UNL     1     115.636  52.345  53.521  1.00  0.00     0.038 C 
ATOM      3  O   UNL     1     115.057  53.461  53.449  1.00  0.00    -0.550 OA
ATOM      4  O   UNL     1     116.336  52.006  54.671  1.00  0.00    -0.550 OA
ENDROOT
TORSDOF 0
ENDMDL
MODEL 8
REMARK VINA RESULT:    -1.747      7.197      7.866
REMARK INTER + INTRA:          -1.747
REMARK INTER:                  -1.747
REMARK INTRA:                   0.000
REMARK UNBOUND:                 0.000
REMARK SMILES CC(=O)[O-]
REMARK SMILES IDX 1 1 2 2 3 3 4 4
REMARK H PARENT
REMARK Flexibility Score: inf
ROOT
ATOM      1  C   UNL     1     115.574  51.322  52.396  1.00  0.00     0.063 C 
ATOM      2  C   UNL     1     115.640  52.287  53.531  1.00  0.00     0.038 C 
ATOM      3  O   UNL     1     116.283  51.995  54.573  1.00  0.00    -0.550 OA
ATOM      4  O   UNL     1     115.036  53.533  53.422  1.00  0.00    -0.550 OA
ENDROOT
TORSDOF 0
ENDMDL
MODEL 9
REMARK VINA RESULT:    -1.626     23.407     23.945
REMARK INTER + INTRA:          -1.626
REMARK INTER:                  -1.626
REMARK INTRA:                   0.000
REMARK UNBOUND:                 0.000
REMARK SMILES CC(=O)[O-]
REMARK SMILES IDX 1 1 2 2 3 3 4 4
REMARK H PARENT
REMARK Flexibility Score: inf
ROOT
ATOM      1  C   UNL     1     125.236  41.975  43.094  1.00  0.00     0.063 C 
ATOM      2  C   UNL     1     125.430  40.745  43.915  1.00  0.00     0.038 C 
ATOM      3  O   UNL     1     125.607  40.838  45.159  1.00  0.00    -0.550 OA
ATOM      4  O   UNL     1     125.365  39.492  43.321  1.00  0.00    -0.550 OA
ENDROOT
TORSDOF 0
ENDMDL
