MODEL 1
REMARK VINA RESULT:    -3.913      0.000      0.000
REMARK INTER + INTRA:          -4.976
REMARK INTER:                  -4.713
REMARK INTRA:                  -0.262
REMARK UNBOUND:                -0.262
REMARK SMILES NC(=O)C[C@@H]([NH3+])C(=O)[O-]
REMARK SMILES IDX 4 1 5 2 6 3 7 7 8 8 9 9 2 10 3 11 1 12
REMARK H PARENT 6 4 6 5 6 6 1 13 1 14
REMARK Flexibility Score: inf
ROOT
ATOM      1  C   UNL     1      29.063  47.606  25.570  1.00  0.00     0.171 C 
ENDROOT
BRANCH   1   2
ATOM      2  C   UNL     1      29.665  46.186  25.560  1.00  0.00     0.237 C 
BRANCH   2   3
ATOM      3  N   UNL     1      30.566  45.992  24.416  1.00  0.00    -0.350 N 
ATOM      4  H   UNL     1      31.022  46.900  24.165  1.00  0.00     0.345 HD
ATOM      5  H   UNL     1      30.041  45.631  23.586  1.00  0.00     0.345 HD
ATOM      6  H   UNL     1      31.322  45.314  24.665  1.00  0.00     0.345 HD
ENDBRANCH   2   3
BRANCH   2   7
ATOM      7  C   UNL     1      30.398  45.933  26.850  1.00  0.00     0.100 C 
ATOM      8  O   UNL     1      30.831  46.895  27.539  1.00  0.00    -0.544 OA
ATOM      9  O   UNL     1      30.586  44.631  27.298  1.00  0.00    -0.544 OA
ENDBRANCH   2   7
ENDBRANCH   1   2
BRANCH   1  10
ATOM     10  C   UNL     1      27.903  47.725  24.627  1.00  0.00     0.223 C 
ATOM     11  O   UNL     1      27.834  46.968  23.621  1.00  0.00    -0.275 OA
ATOM     12  N   UNL     1      26.892  48.711  24.840  1.00  0.00    -0.369 N 
ATOM     13  H   UNL     1      26.945  49.362  25.654  1.00  0.00     0.159 HD
ATOM     14  H   UNL     1      26.092  48.798  24.175  1.00  0.00     0.159 HD
ENDBRANCH   1  10
TORSDOF 4
ENDMDL
MODEL 2
REMARK VINA RESULT:    -3.858      2.327      3.815
REMARK INTER + INTRA:          -4.910
REMARK INTER:                  -4.624
REMARK INTRA:                  -0.285
REMARK UNBOUND:                -0.262
REMARK SMILES NC(=O)C[C@@H]([NH3+])C(=O)[O-]
REMARK SMILES IDX 4 1 5 2 6 3 7 7 8 8 9 9 2 10 3 11 1 12
REMARK H PARENT 6 4 6 5 6 6 1 13 1 14
REMARK Flexibility Score: inf
ROOT
ATOM      1  C   UNL     1      29.085  47.354  25.634  1.00  0.00     0.171 C 
ENDROOT
BRANCH   1   2
ATOM      2  C   UNL     1      29.534  48.243  26.810  1.00  0.00     0.237 C 
BRANCH   2   3
ATOM      3  N   UNL     1      30.951  48.027  27.137  1.00  0.00    -0.350 N 
ATOM      4  H   UNL     1      31.515  47.974  26.257  1.00  0.00     0.345 HD
ATOM      5  H   UNL     1      31.077  47.142  27.679  1.00  0.00     0.345 HD
ATOM      6  H   UNL     1      31.316  48.829  27.700  1.00  0.00     0.345 HD
ENDBRANCH   2   3
BRANCH   2   7
ATOM      7  C   UNL     1      29.292  49.691  26.479  1.00  0.00     0.100 C 
ATOM      8  O   UNL     1      29.678  50.600  27.262  1.00  0.00    -0.544 OA
ATOM      9  O   UNL     1      28.655  50.035  25.293  1.00  0.00    -0.544 OA
ENDBRANCH   2   7
ENDBRANCH   1   2
BRANCH   1  10
ATOM     10  C   UNL     1      29.920  46.113  25.524  1.00  0.00     0.223 C 
ATOM     11  O   UNL     1      30.019  45.336  26.511  1.00  0.00    -0.275 OA
ATOM     12  N   UNL     1      30.633  45.823  24.321  1.00  0.00    -0.369 N 
ATOM     13  H   UNL     1      30.583  46.467  23.502  1.00  0.00     0.159 HD
ATOM     14  H   UNL     1      31.223  44.963  24.253  1.00  0.00     0.159 HD
ENDBRANCH   1  10
TORSDOF 4
ENDMDL
MODEL 3
REMARK VINA RESULT:    -3.843      1.980      2.162
REMARK INTER + INTRA:          -4.892
REMARK INTER:                  -4.621
REMARK INTRA:                  -0.271
REMARK UNBOUND:                -0.262
REMARK SMILES NC(=O)C[C@@H]([NH3+])C(=O)[O-]
REMARK SMILES IDX 4 1 5 2 6 3 7 7 8 8 9 9 2 10 3 11 1 12
REMARK H PARENT 6 4 6 5 6 6 1 13 1 14
REMARK Flexibility Score: inf
ROOT
ATOM      1  C   UNL     1      28.723  47.101  24.870  1.00  0.00     0.171 C 
ENDROOT
BRANCH   1   2
ATOM      2  C   UNL     1      29.699  46.641  25.971  1.00  0.00     0.237 C 
BRANCH   2   3
ATOM      3  N   UNL     1      29.035  46.560  27.280  1.00  0.00    -0.350 N 
ATOM      4  H   UNL     1      29.619  47.039  28.004  1.00  0.00     0.345 HD
ATOM      5  H   UNL     1      28.889  45.564  27.561  1.00  0.00     0.345 HD
ATOM      6  H   UNL     1      28.110  47.046  27.244  1.00  0.00     0.345 HD
ENDBRANCH   2   3
BRANCH   2   7
ATOM      7  C   UNL     1      30.291  45.307  25.604  1.00  0.00     0.100 C 
ATOM      8  O   UNL     1      30.732  44.536  26.498  1.00  0.00    -0.544 OA
ATOM      9  O   UNL     1      30.338  44.909  24.273  1.00  0.00    -0.544 OA
ENDBRANCH   2   7
ENDBRANCH   1   2
BRANCH   1  10
ATOM     10  C   UNL     1      28.143  48.452  25.170  1.00  0.00     0.223 C 
ATOM     11  O   UNL     1      28.833  49.306  25.788  1.00  0.00    -0.275 OA
ATOM     12  N   UNL     1      26.802  48.766  24.791  1.00  0.00    -0.369 N 
ATOM     13  H   UNL     1      26.208  48.064  24.300  1.00  0.00     0.159 HD
ATOM     14  H   UNL     1      26.399  49.704  25.012  1.00  0.00     0.159 HD
ENDBRANCH   1  10
TORSDOF 4
ENDMDL
MODEL 4
REMARK VINA RESULT:    -3.830     10.818     11.572
REMARK INTER + INTRA:          -4.876
REMARK INTER:                  -4.599
REMARK INTRA:                  -0.277
REMARK UNBOUND:                -0.262
REMARK SMILES NC(=O)C[C@@H]([NH3+])C(=O)[O-]
REMARK SMILES IDX 4 1 5 2 6 3 7 7 8 8 9 9 2 10 3 11 1 12
REMARK H PARENT 6 4 6 5 6 6 1 13 1 14
REMARK Flexibility Score: inf
ROOT
ATOM      1  C   UNL     1      32.731  58.382  24.851  1.00  0.00     0.171 C 
ENDROOT
BRANCH   1   2
ATOM      2  C   UNL     1      32.302  57.475  26.021  1.00  0.00     0.237 C 
BRANCH   2   3
ATOM      3  N   UNL     1      30.877  57.644  26.339  1.00  0.00    -0.350 N 
ATOM      4  H   UNL     1      30.301  57.500  25.478  1.00  0.00     0.345 HD
ATOM      5  H   UNL     1      30.692  58.601  26.718  1.00  0.00     0.345 HD
ATOM      6  H   UNL     1      30.580  56.932  27.044  1.00  0.00     0.345 HD
ENDBRANCH   2   3
BRANCH   2   7
ATOM      7  C   UNL     1      32.593  56.037  25.686  1.00  0.00     0.100 C 
ATOM      8  O   UNL     1      32.176  55.110  26.430  1.00  0.00    -0.544 OA
ATOM      9  O   UNL     1      33.312  55.722  24.539  1.00  0.00    -0.544 OA
ENDBRANCH   2   7
ENDBRANCH   1   2
BRANCH   1  10
ATOM     10  C   UNL     1      31.732  59.472  24.598  1.00  0.00     0.223 C 
ATOM     11  O   UNL     1      31.536  60.358  25.474  1.00  0.00    -0.275 OA
ATOM     12  N   UNL     1      30.975  59.496  23.387  1.00  0.00    -0.369 N 
ATOM     13  H   UNL     1      31.106  58.759  22.661  1.00  0.00     0.159 HD
ATOM     14  H   UNL     1      30.272  60.251  23.220  1.00  0.00     0.159 HD
ENDBRANCH   1  10
TORSDOF 4
ENDMDL
MODEL 5
REMARK VINA RESULT:    -3.813     12.229     13.052
REMARK INTER + INTRA:          -4.855
REMARK INTER:                  -4.642
REMARK INTRA:                  -0.213
REMARK UNBOUND:                -0.262
REMARK SMILES NC(=O)C[C@@H]([NH3+])C(=O)[O-]
REMARK SMILES IDX 4 1 5 2 6 3 7 7 8 8 9 9 2 10 3 11 1 12
REMARK H PARENT 6 4 6 5 6 6 1 13 1 14
REMARK Flexibility Score: inf
ROOT
ATOM      1  C   UNL     1      32.852  57.846  24.630  1.00  0.00     0.171 C 
ENDROOT
BRANCH   1   2
ATOM      2  C   UNL     1      32.302  59.276  24.461  1.00  0.00     0.237 C 
BRANCH   2   3
ATOM      3  N   UNL     1      31.077  59.289  23.649  1.00  0.00    -0.350 N 
ATOM      4  H   UNL     1      30.258  59.549  24.246  1.00  0.00     0.345 HD
ATOM      5  H   UNL     1      30.905  58.351  23.221  1.00  0.00     0.345 HD
ATOM      6  H   UNL     1      31.157  60.004  22.890  1.00  0.00     0.345 HD
ENDBRANCH   2   3
BRANCH   2   7
ATOM      7  C   UNL     1      32.039  59.885  25.811  1.00  0.00     0.100 C 
ATOM      8  O   UNL     1      32.464  59.328  26.858  1.00  0.00    -0.544 OA
ATOM      9  O   UNL     1      31.337  61.081  25.909  1.00  0.00    -0.544 OA
ENDBRANCH   2   7
ENDBRANCH   1   2
BRANCH   1  10
ATOM     10  C   UNL     1      33.963  57.559  23.662  1.00  0.00     0.223 C 
ATOM     11  O   UNL     1      33.925  58.052  22.503  1.00  0.00    -0.275 OA
ATOM     12  N   UNL     1      35.045  56.705  24.033  1.00  0.00    -0.369 N 
ATOM     13  H   UNL     1      35.081  56.269  24.980  1.00  0.00     0.159 HD
ATOM     14  H   UNL     1      35.811  56.499  23.353  1.00  0.00     0.159 HD
ENDBRANCH   1  10
TORSDOF 4
ENDMDL
MODEL 6
REMARK VINA RESULT:    -3.810      8.857     10.619
REMARK INTER + INTRA:          -4.851
REMARK INTER:                  -4.720
REMARK INTRA:                  -0.131
REMARK UNBOUND:                -0.262
REMARK SMILES NC(=O)C[C@@H]([NH3+])C(=O)[O-]
REMARK SMILES IDX 4 1 5 2 6 3 7 7 8 8 9 9 2 10 3 11 1 12
REMARK H PARENT 6 4 6 5 6 6 1 13 1 14
REMARK Flexibility Score: inf
ROOT
ATOM      1  C   UNL     1      28.716  45.361  16.840  1.00  0.00     0.171 C 
ENDROOT
BRANCH   1   2
ATOM      2  C   UNL     1      28.557  44.894  15.380  1.00  0.00     0.237 C 
BRANCH   2   3
ATOM      3  N   UNL     1      27.646  43.745  15.278  1.00  0.00    -0.350 N 
ATOM      4  H   UNL     1      28.005  43.070  14.563  1.00  0.00     0.345 HD
ATOM      5  H   UNL     1      26.686  44.054  15.006  1.00  0.00     0.345 HD
ATOM      6  H   UNL     1      27.599  43.242  16.193  1.00  0.00     0.345 HD
ENDBRANCH   2   3
BRANCH   2   7
ATOM      7  C   UNL     1      28.056  46.031  14.531  1.00  0.00     0.100 C 
ATOM      8  O   UNL     1      27.194  45.829  13.634  1.00  0.00    -0.544 OA
ATOM      9  O   UNL     1      28.531  47.320  14.744  1.00  0.00    -0.544 OA
ENDBRANCH   2   7
ENDBRANCH   1   2
BRANCH   1  10
ATOM     10  C   UNL     1      30.130  45.218  17.319  1.00  0.00     0.223 C 
ATOM     11  O   UNL     1      31.070  45.741  16.661  1.00  0.00    -0.275 OA
ATOM     12  N   UNL     1      30.425  44.465  18.495  1.00  0.00    -0.369 N 
ATOM     13  H   UNL     1      29.663  44.005  19.040  1.00  0.00     0.159 HD
ATOM     14  H   UNL     1      31.413  44.358  18.819  1.00  0.00     0.159 HD
ENDBRANCH   1  10
TORSDOF 4
ENDMDL
MODEL 7
REMARK VINA RESULT:    -3.761     12.001     12.933
REMARK INTER + INTRA:          -4.793
REMARK INTER:                  -4.528
REMARK INTRA:                  -0.265
REMARK UNBOUND:                -0.262
REMARK SMILES NC(=O)C[C@@H]([NH3+])C(=O)[O-]
REMARK SMILES IDX 4 1 5 2 6 3 7 7 8 8 9 9 2 10 3 11 1 12
REMARK H PARENT 6 4 6 5 6 6 1 13 1 14
REMARK Flexibility Score: inf
ROOT
ATOM      1  C   UNL     1      33.016  58.208  24.067  1.00  0.00     0.171 C 
ENDROOT
BRANCH   1   2
ATOM      2  C   UNL     1      32.119  58.774  25.186  1.00  0.00     0.237 C 
BRANCH   2   3
ATOM      3  N   UNL     1      32.863  58.936  26.443  1.00  0.00    -0.350 N 
ATOM      4  H   UNL     1      32.595  59.837  26.901  1.00  0.00     0.345 HD
ATOM      5  H   UNL     1      33.894  58.934  26.267  1.00  0.00     0.345 HD
ATOM      6  H   UNL     1      32.626  58.161  27.103  1.00  0.00     0.345 HD
ENDBRANCH   2   3
BRANCH   2   7
ATOM      7  C   UNL     1      31.533  60.091  24.755  1.00  0.00     0.100 C 
ATOM      8  O   UNL     1      31.148  60.262  23.567  1.00  0.00    -0.544 OA
ATOM      9  O   UNL     1      31.396  61.125  25.674  1.00  0.00    -0.544 OA
ENDBRANCH   2   7
ENDBRANCH   1   2
BRANCH   1  10
ATOM     10  C   UNL     1      33.644  56.905  24.464  1.00  0.00     0.223 C 
ATOM     11  O   UNL     1      32.967  56.052  25.099  1.00  0.00    -0.275 OA
ATOM     12  N   UNL     1      35.012  56.636  24.158  1.00  0.00    -0.369 N 
ATOM     13  H   UNL     1      35.595  57.339  23.653  1.00  0.00     0.159 HD
ATOM     14  H   UNL     1      35.449  55.731  24.445  1.00  0.00     0.159 HD
ENDBRANCH   1  10
TORSDOF 4
ENDMDL
MODEL 8
REMARK VINA RESULT:    -3.691      8.946      9.806
REMARK INTER + INTRA:          -4.709
REMARK INTER:                  -4.430
REMARK INTRA:                  -0.278
REMARK UNBOUND:                -0.262
REMARK SMILES NC(=O)C[C@@H]([NH3+])C(=O)[O-]
REMARK SMILES IDX 4 1 5 2 6 3 7 7 8 8 9 9 2 10 3 11 1 12
REMARK H PARENT 6 4 6 5 6 6 1 13 1 14
REMARK Flexibility Score: inf
ROOT
ATOM      1  C   UNL     1      32.012  45.304  16.135  1.00  0.00     0.171 C 
ENDROOT
BRANCH   1   2
ATOM      2  C   UNL     1      30.766  44.888  16.942  1.00  0.00     0.237 C 
BRANCH   2   3
ATOM      3  N   UNL     1      31.014  44.960  18.389  1.00  0.00    -0.350 N 
ATOM      4  H   UNL     1      31.706  45.718  18.594  1.00  0.00     0.345 HD
ATOM      5  H   UNL     1      31.384  44.051  18.749  1.00  0.00     0.345 HD
ATOM      6  H   UNL     1      30.128  45.194  18.893  1.00  0.00     0.345 HD
ENDBRANCH   2   3
BRANCH   2   7
ATOM      7  C   UNL     1      29.599  45.763  16.569  1.00  0.00     0.100 C 
ATOM      8  O   UNL     1      29.770  46.787  15.856  1.00  0.00    -0.544 OA
ATOM      9  O   UNL     1      28.319  45.433  16.997  1.00  0.00    -0.544 OA
ENDBRANCH   2   7
ENDBRANCH   1   2
BRANCH   1  10
ATOM     10  C   UNL     1      33.274  45.116  16.924  1.00  0.00     0.223 C 
ATOM     11  O   UNL     1      33.647  43.954  17.239  1.00  0.00    -0.275 OA
ATOM     12  N   UNL     1      34.037  46.244  17.351  1.00  0.00    -0.369 N 
ATOM     13  H   UNL     1      33.731  47.215  17.120  1.00  0.00     0.159 HD
ATOM     14  H   UNL     1      34.910  46.109  17.910  1.00  0.00     0.159 HD
ENDBRANCH   1  10
TORSDOF 4
ENDMDL
MODEL 9
REMARK VINA RESULT:    -3.622      8.666      9.915
REMARK INTER + INTRA:          -4.626
REMARK INTER:                  -4.128
REMARK INTRA:                  -0.497
REMARK UNBOUND:                -0.262
REMARK SMILES NC(=O)C[C@@H]([NH3+])C(=O)[O-]
REMARK SMILES IDX 4 1 5 2 6 3 7 7 8 8 9 9 2 10 3 11 1 12
REMARK H PARENT 6 4 6 5 6 6 1 13 1 14
REMARK Flexibility Score: inf
ROOT
ATOM      1  C   UNL     1      31.236  45.477  16.576  1.00  0.00     0.171 C 
ENDROOT
BRANCH   1   2
ATOM      2  C   UNL     1      30.121  45.177  15.554  1.00  0.00     0.237 C 
BRANCH   2   3
ATOM      3  N   UNL     1      29.891  43.731  15.418  1.00  0.00    -0.350 N 
ATOM      4  H   UNL     1      30.496  43.210  16.094  1.00  0.00     0.345 HD
ATOM      5  H   UNL     1      30.108  43.411  14.447  1.00  0.00     0.345 HD
ATOM      6  H   UNL     1      28.895  43.504  15.640  1.00  0.00     0.345 HD
ENDBRANCH   2   3
BRANCH   2   7
ATOM      7  C   UNL     1      28.850  45.870  15.966  1.00  0.00     0.100 C 
ATOM      8  O   UNL     1      28.215  45.489  16.985  1.00  0.00    -0.544 OA
ATOM      9  O   UNL     1      28.378  46.950  15.230  1.00  0.00    -0.544 OA
ENDBRANCH   2   7
ENDBRANCH   1   2
BRANCH   1  10
ATOM     10  C   UNL     1      31.349  44.395  17.608  1.00  0.00     0.223 C 
ATOM     11  O   UNL     1      32.071  43.386  17.381  1.00  0.00    -0.275 OA
ATOM     12  N   UNL     1      30.619  44.480  18.833  1.00  0.00    -0.369 N 
ATOM     13  H   UNL     1      29.998  45.295  19.028  1.00  0.00     0.159 HD
ATOM     14  H   UNL     1      30.692  43.719  19.544  1.00  0.00     0.159 HD
ENDBRANCH   1  10
TORSDOF 4
ENDMDL
