MODEL 1
REMARK VINA RESULT:    -4.149      0.000      0.000
REMARK INTER + INTRA:          -6.611
REMARK INTER:                  -6.331
REMARK INTRA:                  -0.280
REMARK UNBOUND:                -0.280
REMARK SMILES CC1=CCC[C@@H](C)C(=O)C[C@H](C(C)C)C(=O)C1
REMARK SMILES IDX 8 1 9 2 6 3 7 4 5 5 4 6 3 7 2 8 1 9 10 11 11 12 15 13 16 14
REMARK SMILES IDX 17 15 12 17 13 18 14 19
REMARK H PARENT
REMARK Flexibility Score: 70.00
ROOT
ATOM      1  C   UNL     1      11.973 -18.031 -21.700  1.00  0.00     0.136 C 
ATOM      2  O   UNL     1      11.070 -17.538 -22.365  1.00  0.00    -0.299 OA
ENDROOT
BRANCH   1   3
ATOM      3  C   UNL     1      11.741 -18.338 -20.234  1.00  0.00     0.053 C 
ATOM      4  C   UNL     1      10.277 -18.074 -19.853  1.00  0.00     0.016 C 
BRANCH   3   5
ATOM      5  C   UNL     1      12.699 -17.504 -19.355  1.00  0.00     0.015 C 
BRANCH   5   6
ATOM      6  C   UNL     1      13.734 -18.385 -18.626  1.00  0.00     0.028 C 
BRANCH   6   7
ATOM      7  C   UNL     1      15.069 -17.692 -18.522  1.00  0.00    -0.028 C 
ATOM      8  C   UNL     1      16.012 -17.673 -19.492  1.00  0.00    -0.070 CG0
ATOM      9  C   UNL     1      17.268 -16.877 -19.239  1.00  0.00     0.039 C 
ATOM     10  G   UNL     1      15.862 -18.397 -20.819  1.00  0.00     0.000 G0
ENDBRANCH   6   7
ENDBRANCH   5   6
ENDBRANCH   3   5
ENDBRANCH   1   3
BRANCH   1  11
ATOM     11  C   UNL     1      13.298 -18.325 -22.361  1.00  0.00     0.087 C 
BRANCH  11  12
ATOM     12  C   UNL     1      14.219 -17.077 -22.423  1.00  0.00     0.066 C 
BRANCH  12  13
ATOM     13  C   UNL     1      15.635 -17.425 -21.980  1.00  0.00     0.140 C 
ATOM     14  O   UNL     1      16.577 -16.955 -22.602  1.00  0.00    -0.299 OA
BRANCH  13  15
ATOM     15  C   UNL     1      15.908 -18.389 -20.847  1.00  0.00     0.106 CG0
ATOM     16  G   UNL     1      15.994 -17.686 -19.501  1.00  0.00     0.000 G0
ENDBRANCH  13  15
ENDBRANCH  12  13
BRANCH  12  17
ATOM     17  C   UNL     1      14.210 -16.381 -23.823  1.00  0.00    -0.006 C 
ATOM     18  C   UNL     1      13.283 -15.151 -23.822  1.00  0.00     0.008 C 
ATOM     19  C   UNL     1      13.767 -17.332 -24.949  1.00  0.00     0.008 C 
ENDBRANCH  12  17
ENDBRANCH  11  12
ENDBRANCH   1  11
TORSDOF 1
ENDMDL
MODEL 2
REMARK VINA RESULT:    -3.661      2.417      5.339
REMARK INTER + INTRA:          -5.866
REMARK INTER:                  -5.642
REMARK INTRA:                  -0.225
REMARK UNBOUND:                -0.280
REMARK SMILES CC1=CCC[C@@H](C)C(=O)C[C@H](C(C)C)C(=O)C1
REMARK SMILES IDX 8 1 9 2 6 3 7 4 5 5 4 6 3 7 2 8 1 9 10 11 11 12 15 13 16 14
REMARK SMILES IDX 17 15 12 17 13 18 14 19
REMARK H PARENT
REMARK Flexibility Score: 70.00
ROOT
ATOM      1  C   UNL     1      15.555 -20.231 -21.706  1.00  0.00     0.136 C 
ATOM      2  O   UNL     1      16.762 -20.229 -21.499  1.00  0.00    -0.299 OA
ENDROOT
BRANCH   1   3
ATOM      3  C   UNL     1      15.030 -20.600 -23.080  1.00  0.00     0.053 C 
ATOM      4  C   UNL     1      15.269 -22.090 -23.365  1.00  0.00     0.016 C 
BRANCH   3   5
ATOM      5  C   UNL     1      15.694 -19.718 -24.160  1.00  0.00     0.015 C 
BRANCH   5   6
ATOM      6  C   UNL     1      15.063 -18.312 -24.231  1.00  0.00     0.028 C 
BRANCH   6   7
ATOM      7  C   UNL     1      13.561 -18.387 -24.323  1.00  0.00    -0.028 C 
ATOM      8  C   UNL     1      12.698 -17.796 -23.463  1.00  0.00    -0.070 CG0
ATOM      9  C   UNL     1      11.223 -17.927 -23.743  1.00  0.00     0.039 C 
ATOM     10  G   UNL     1      13.143 -17.001 -22.246  1.00  0.00     0.000 G0
ENDBRANCH   6   7
ENDBRANCH   5   6
ENDBRANCH   3   5
ENDBRANCH   1   3
BRANCH   1  11
ATOM     11  C   UNL     1      14.615 -19.865 -20.581  1.00  0.00     0.087 C 
BRANCH  11  12
ATOM     12  C   UNL     1      14.489 -18.331 -20.389  1.00  0.00     0.066 C 
BRANCH  12  13
ATOM     13  C   UNL     1      13.178 -17.817 -20.973  1.00  0.00     0.140 C 
ATOM     14  O   UNL     1      12.129 -18.137 -20.434  1.00  0.00    -0.299 OA
BRANCH  13  15
ATOM     15  C   UNL     1      13.134 -16.987 -22.237  1.00  0.00     0.106 CG0
ATOM     16  G   UNL     1      12.700 -17.801 -23.446  1.00  0.00     0.000 G0
ENDBRANCH  13  15
ENDBRANCH  12  13
BRANCH  12  17
ATOM     17  C   UNL     1      14.668 -17.885 -18.902  1.00  0.00    -0.006 C 
ATOM     18  C   UNL     1      16.105 -17.393 -18.642  1.00  0.00     0.008 C 
ATOM     19  C   UNL     1      14.346 -19.015 -17.907  1.00  0.00     0.008 C 
ENDBRANCH  12  17
ENDBRANCH  11  12
ENDBRANCH   1  11
TORSDOF 1
ENDMDL
MODEL 3
REMARK VINA RESULT:    -3.652      2.048      4.136
REMARK INTER + INTRA:          -5.853
REMARK INTER:                  -5.578
REMARK INTRA:                  -0.275
REMARK UNBOUND:                -0.280
REMARK SMILES CC1=CCC[C@@H](C)C(=O)C[C@H](C(C)C)C(=O)C1
REMARK SMILES IDX 8 1 9 2 6 3 7 4 5 5 4 6 3 7 2 8 1 9 10 11 11 12 15 13 16 14
REMARK SMILES IDX 17 15 12 17 13 18 14 19
REMARK H PARENT
REMARK Flexibility Score: 70.00
ROOT
ATOM      1  C   UNL     1      13.877 -14.991 -23.958  1.00  0.00     0.136 C 
ATOM      2  O   UNL     1      13.494 -14.581 -25.046  1.00  0.00    -0.299 OA
ENDROOT
BRANCH   1   3
ATOM      3  C   UNL     1      15.317 -14.770 -23.539  1.00  0.00     0.053 C 
ATOM      4  C   UNL     1      15.701 -13.291 -23.690  1.00  0.00     0.016 C 
BRANCH   3   5
ATOM      5  C   UNL     1      16.260 -15.673 -24.366  1.00  0.00     0.015 C 
BRANCH   5   6
ATOM      6  C   UNL     1      16.462 -17.055 -23.714  1.00  0.00     0.028 C 
BRANCH   6   7
ATOM      7  C   UNL     1      16.441 -16.962 -22.210  1.00  0.00    -0.028 C 
ATOM      8  C   UNL     1      15.633 -17.680 -21.396  1.00  0.00    -0.070 CG0
ATOM      9  C   UNL     1      15.790 -17.502 -19.908  1.00  0.00     0.039 C 
ATOM     10  G   UNL     1      14.590 -18.661 -21.908  1.00  0.00     0.000 G0
ENDBRANCH   6   7
ENDBRANCH   5   6
ENDBRANCH   3   5
ENDBRANCH   1   3
BRANCH   1  11
ATOM     11  C   UNL     1      12.901 -15.709 -23.056  1.00  0.00     0.087 C 
BRANCH  11  12
ATOM     12  C   UNL     1      12.851 -17.235 -23.331  1.00  0.00     0.066 C 
BRANCH  12  13
ATOM     13  C   UNL     1      13.220 -18.024 -22.080  1.00  0.00     0.140 C 
ATOM     14  O   UNL     1      12.409 -18.089 -21.166  1.00  0.00    -0.299 OA
BRANCH  13  15
ATOM     15  C   UNL     1      14.580 -18.662 -21.905  1.00  0.00     0.106 CG0
ATOM     16  G   UNL     1      15.618 -17.674 -21.398  1.00  0.00     0.000 G0
ENDBRANCH  13  15
ENDBRANCH  12  13
BRANCH  12  17
ATOM     17  C   UNL     1      11.483 -17.704 -23.923  1.00  0.00    -0.006 C 
ATOM     18  C   UNL     1      11.558 -17.829 -25.457  1.00  0.00     0.008 C 
ATOM     19  C   UNL     1      10.328 -16.752 -23.562  1.00  0.00     0.008 C 
ENDBRANCH  12  17
ENDBRANCH  11  12
ENDBRANCH   1  11
TORSDOF 1
ENDMDL
MODEL 4
REMARK VINA RESULT:    -3.613      2.611      4.976
REMARK INTER + INTRA:          -5.793
REMARK INTER:                  -5.844
REMARK INTRA:                   0.051
REMARK UNBOUND:                -0.280
REMARK SMILES CC1=CCC[C@@H](C)C(=O)C[C@H](C(C)C)C(=O)C1
REMARK SMILES IDX 8 1 9 2 6 3 7 4 5 5 4 6 3 7 2 8 1 9 10 11 11 12 15 13 16 14
REMARK SMILES IDX 17 15 12 17 13 18 14 19
REMARK H PARENT
REMARK Flexibility Score: 70.00
ROOT
ATOM      1  C   UNL     1      10.952 -17.844 -21.677  1.00  0.00     0.136 C 
ATOM      2  O   UNL     1      10.471 -18.483 -20.750  1.00  0.00    -0.299 OA
ENDROOT
BRANCH   1   3
ATOM      3  C   UNL     1      10.045 -17.312 -22.770  1.00  0.00     0.053 C 
ATOM      4  C   UNL     1       9.194 -18.444 -23.362  1.00  0.00     0.016 C 
BRANCH   3   5
ATOM      5  C   UNL     1      10.881 -16.618 -23.868  1.00  0.00     0.015 C 
BRANCH   5   6
ATOM      6  C   UNL     1      10.914 -17.433 -25.177  1.00  0.00     0.028 C 
BRANCH   6   7
ATOM      7  C   UNL     1      12.248 -17.309 -25.868  1.00  0.00    -0.028 C 
ATOM      8  C   UNL     1      13.318 -18.107 -25.643  1.00  0.00    -0.070 CG0
ATOM      9  C   UNL     1      14.556 -17.877 -26.471  1.00  0.00     0.039 C 
ATOM     10  G   UNL     1      13.326 -19.224 -24.611  1.00  0.00     0.000 G0
ENDBRANCH   6   7
ENDBRANCH   5   6
ENDBRANCH   3   5
ENDBRANCH   1   3
BRANCH   1  11
ATOM     11  C   UNL     1      12.442 -17.597 -21.708  1.00  0.00     0.087 C 
BRANCH  11  12
ATOM     12  C   UNL     1      13.252 -18.894 -21.973  1.00  0.00     0.066 C 
BRANCH  12  13
ATOM     13  C   UNL     1      13.976 -18.817 -23.312  1.00  0.00     0.140 C 
ATOM     14  O   UNL     1      15.107 -18.352 -23.342  1.00  0.00    -0.299 OA
BRANCH  13  15
ATOM     15  C   UNL     1      13.313 -19.227 -24.608  1.00  0.00     0.106 CG0
ATOM     16  G   UNL     1      13.319 -18.109 -25.637  1.00  0.00     0.000 G0
ENDBRANCH  13  15
ENDBRANCH  12  13
BRANCH  12  17
ATOM     17  C   UNL     1      14.233 -19.250 -20.809  1.00  0.00    -0.006 C 
ATOM     18  C   UNL     1      14.313 -20.774 -20.601  1.00  0.00     0.008 C 
ATOM     19  C   UNL     1      13.828 -18.591 -19.478  1.00  0.00     0.008 C 
ENDBRANCH  12  17
ENDBRANCH  11  12
ENDBRANCH   1  11
TORSDOF 1
ENDMDL
MODEL 5
REMARK VINA RESULT:    -3.612      2.479      3.640
REMARK INTER + INTRA:          -5.792
REMARK INTER:                  -5.963
REMARK INTRA:                   0.170
REMARK UNBOUND:                -0.280
REMARK SMILES CC1=CCC[C@@H](C)C(=O)C[C@H](C(C)C)C(=O)C1
REMARK SMILES IDX 8 1 9 2 6 3 7 4 5 5 4 6 3 7 2 8 1 9 10 11 11 12 15 13 16 14
REMARK SMILES IDX 17 15 12 17 13 18 14 19
REMARK H PARENT
REMARK Flexibility Score: 70.00
ROOT
ATOM      1  C   UNL     1      14.820 -17.661 -20.628  1.00  0.00     0.136 C 
ATOM      2  O   UNL     1      16.009 -17.372 -20.624  1.00  0.00    -0.299 OA
ENDROOT
BRANCH   1   3
ATOM      3  C   UNL     1      14.195 -18.277 -19.391  1.00  0.00     0.053 C 
ATOM      4  C   UNL     1      14.891 -17.763 -18.123  1.00  0.00     0.016 C 
BRANCH   3   5
ATOM      5  C   UNL     1      14.261 -19.819 -19.470  1.00  0.00     0.015 C 
BRANCH   5   6
ATOM      6  C   UNL     1      13.519 -20.370 -20.705  1.00  0.00     0.028 C 
BRANCH   6   7
ATOM      7  C   UNL     1      14.458 -21.104 -21.627  1.00  0.00    -0.028 C 
ATOM      8  C   UNL     1      14.683 -20.785 -22.923  1.00  0.00    -0.070 CG0
ATOM      9  C   UNL     1      15.704 -21.594 -23.682  1.00  0.00     0.039 C 
ATOM     10  G   UNL     1      13.970 -19.651 -23.641  1.00  0.00     0.000 G0
ENDBRANCH   6   7
ENDBRANCH   5   6
ENDBRANCH   3   5
ENDBRANCH   1   3
BRANCH   1  11
ATOM     11  C   UNL     1      14.000 -17.394 -21.868  1.00  0.00     0.087 C 
BRANCH  11  12
ATOM     12  C   UNL     1      14.880 -17.216 -23.133  1.00  0.00     0.066 C 
BRANCH  12  13
ATOM     13  C   UNL     1      14.883 -18.487 -23.976  1.00  0.00     0.140 C 
ATOM     14  O   UNL     1      15.605 -18.537 -24.961  1.00  0.00    -0.299 OA
BRANCH  13  15
ATOM     15  C   UNL     1      13.967 -19.652 -23.673  1.00  0.00     0.106 CG0
ATOM     16  G   UNL     1      14.681 -20.764 -22.920  1.00  0.00     0.000 G0
ENDBRANCH  13  15
ENDBRANCH  12  13
BRANCH  12  17
ATOM     17  C   UNL     1      14.484 -15.965 -23.982  1.00  0.00    -0.006 C 
ATOM     18  C   UNL     1      15.555 -14.863 -23.875  1.00  0.00     0.008 C 
ATOM     19  C   UNL     1      13.125 -15.376 -23.560  1.00  0.00     0.008 C 
ENDBRANCH  12  17
ENDBRANCH  11  12
ENDBRANCH   1  11
TORSDOF 1
ENDMDL
MODEL 6
REMARK VINA RESULT:    -3.478      5.533      6.749
REMARK INTER + INTRA:          -5.588
REMARK INTER:                  -5.381
REMARK INTRA:                  -0.207
REMARK UNBOUND:                -0.280
REMARK SMILES CC1=CCC[C@@H](C)C(=O)C[C@H](C(C)C)C(=O)C1
REMARK SMILES IDX 8 1 9 2 6 3 7 4 5 5 4 6 3 7 2 8 1 9 10 11 11 12 15 13 16 14
REMARK SMILES IDX 17 15 12 17 13 18 14 19
REMARK H PARENT
REMARK Flexibility Score: 70.00
ROOT
ATOM      1  C   UNL     1      15.597 -20.863 -25.715  1.00  0.00     0.136 C 
ATOM      2  O   UNL     1      15.208 -19.734 -25.986  1.00  0.00    -0.299 OA
ENDROOT
BRANCH   1   3
ATOM      3  C   UNL     1      14.733 -21.767 -24.857  1.00  0.00     0.053 C 
ATOM      4  C   UNL     1      13.364 -21.987 -25.517  1.00  0.00     0.016 C 
BRANCH   3   5
ATOM      5  C   UNL     1      14.574 -21.169 -23.442  1.00  0.00     0.015 C 
BRANCH   5   6
ATOM      6  C   UNL     1      15.675 -21.656 -22.478  1.00  0.00     0.028 C 
BRANCH   6   7
ATOM      7  C   UNL     1      15.799 -23.158 -22.499  1.00  0.00    -0.028 C 
ATOM      8  C   UNL     1      16.929 -23.841 -22.797  1.00  0.00    -0.070 CG0
ATOM      9  C   UNL     1      16.888 -25.345 -22.709  1.00  0.00     0.039 C 
ATOM     10  G   UNL     1      18.232 -23.168 -23.199  1.00  0.00     0.000 G0
ENDBRANCH   6   7
ENDBRANCH   5   6
ENDBRANCH   3   5
ENDBRANCH   1   3
BRANCH   1  11
ATOM     11  C   UNL     1      16.932 -21.329 -26.246  1.00  0.00     0.087 C 
BRANCH  11  12
ATOM     12  C   UNL     1      18.027 -21.364 -25.148  1.00  0.00     0.066 C 
BRANCH  12  13
ATOM     13  C   UNL     1      18.277 -22.792 -24.676  1.00  0.00     0.140 C 
ATOM     14  O   UNL     1      18.449 -23.665 -25.514  1.00  0.00    -0.299 OA
BRANCH  13  15
ATOM     15  C   UNL     1      18.246 -23.170 -23.212  1.00  0.00     0.106 CG0
ATOM     16  G   UNL     1      16.942 -23.847 -22.820  1.00  0.00     0.000 G0
ENDBRANCH  13  15
ENDBRANCH  12  13
BRANCH  12  17
ATOM     17  C   UNL     1      19.354 -20.663 -25.586  1.00  0.00    -0.006 C 
ATOM     18  C   UNL     1      20.125 -20.128 -24.365  1.00  0.00     0.008 C 
ATOM     19  C   UNL     1      19.108 -19.499 -26.563  1.00  0.00     0.008 C 
ENDBRANCH  12  17
ENDBRANCH  11  12
ENDBRANCH   1  11
TORSDOF 1
ENDMDL
MODEL 7
REMARK VINA RESULT:    -3.395      2.873      4.580
REMARK INTER + INTRA:          -5.461
REMARK INTER:                  -5.351
REMARK INTRA:                  -0.110
REMARK UNBOUND:                -0.280
REMARK SMILES CC1=CCC[C@@H](C)C(=O)C[C@H](C(C)C)C(=O)C1
REMARK SMILES IDX 8 1 9 2 6 3 7 4 5 5 4 6 3 7 2 8 1 9 10 11 11 12 15 13 16 14
REMARK SMILES IDX 17 15 12 17 13 18 14 19
REMARK H PARENT
REMARK Flexibility Score: 70.00
ROOT
ATOM      1  C   UNL     1      14.844 -19.546 -20.583  1.00  0.00     0.136 C 
ATOM      2  O   UNL     1      14.265 -20.494 -20.067  1.00  0.00    -0.299 OA
ENDROOT
BRANCH   1   3
ATOM      3  C   UNL     1      14.478 -18.132 -20.173  1.00  0.00     0.053 C 
ATOM      4  C   UNL     1      15.024 -17.820 -18.772  1.00  0.00     0.016 C 
BRANCH   3   5
ATOM      5  C   UNL     1      12.946 -17.940 -20.225  1.00  0.00     0.015 C 
BRANCH   5   6
ATOM      6  C   UNL     1      12.400 -18.009 -21.665  1.00  0.00     0.028 C 
BRANCH   6   7
ATOM      7  C   UNL     1      13.148 -17.076 -22.582  1.00  0.00    -0.028 C 
ATOM      8  C   UNL     1      13.756 -17.440 -23.736  1.00  0.00    -0.070 CG0
ATOM      9  C   UNL     1      14.408 -16.360 -24.561  1.00  0.00     0.039 C 
ATOM     10  G   UNL     1      13.800 -18.873 -24.241  1.00  0.00     0.000 G0
ENDBRANCH   6   7
ENDBRANCH   5   6
ENDBRANCH   3   5
ENDBRANCH   1   3
BRANCH   1  11
ATOM     11  C   UNL     1      15.913 -19.809 -21.617  1.00  0.00     0.087 C 
BRANCH  11  12
ATOM     12  C   UNL     1      15.360 -20.538 -22.870  1.00  0.00     0.066 C 
BRANCH  12  13
ATOM     13  C   UNL     1      15.128 -19.554 -24.011  1.00  0.00     0.140 C 
ATOM     14  O   UNL     1      16.073 -19.250 -24.725  1.00  0.00    -0.299 OA
BRANCH  13  15
ATOM     15  C   UNL     1      13.788 -18.890 -24.239  1.00  0.00     0.106 CG0
ATOM     16  G   UNL     1      13.764 -17.455 -23.738  1.00  0.00     0.000 G0
ENDBRANCH  13  15
ENDBRANCH  12  13
BRANCH  12  17
ATOM     17  C   UNL     1      16.250 -21.741 -23.320  1.00  0.00    -0.006 C 
ATOM     18  C   UNL     1      15.656 -23.078 -22.838  1.00  0.00     0.008 C 
ATOM     19  C   UNL     1      17.696 -21.627 -22.802  1.00  0.00     0.008 C 
ENDBRANCH  12  17
ENDBRANCH  11  12
ENDBRANCH   1  11
TORSDOF 1
ENDMDL
MODEL 8
REMARK VINA RESULT:    -3.391      5.938      8.178
REMARK INTER + INTRA:          -5.455
REMARK INTER:                  -5.175
REMARK INTRA:                  -0.280
REMARK UNBOUND:                -0.280
REMARK SMILES CC1=CCC[C@@H](C)C(=O)C[C@H](C(C)C)C(=O)C1
REMARK SMILES IDX 8 1 9 2 6 3 7 4 5 5 4 6 3 7 2 8 1 9 10 11 11 12 15 13 16 14
REMARK SMILES IDX 17 15 12 17 13 18 14 19
REMARK H PARENT
REMARK Flexibility Score: 70.00
ROOT
ATOM      1  C   UNL     1      19.080 -22.293 -25.942  1.00  0.00     0.136 C 
ATOM      2  O   UNL     1      20.274 -22.528 -26.070  1.00  0.00    -0.299 OA
ENDROOT
BRANCH   1   3
ATOM      3  C   UNL     1      18.551 -20.908 -26.262  1.00  0.00     0.053 C 
ATOM      4  C   UNL     1      18.761 -20.582 -27.748  1.00  0.00     0.016 C 
BRANCH   3   5
ATOM      5  C   UNL     1      19.233 -19.854 -25.363  1.00  0.00     0.015 C 
BRANCH   5   6
ATOM      6  C   UNL     1      18.443 -19.598 -24.063  1.00  0.00     0.028 C 
BRANCH   6   7
ATOM      7  C   UNL     1      16.958 -19.719 -24.290  1.00  0.00    -0.028 C 
ATOM      8  C   UNL     1      16.150 -20.624 -23.691  1.00  0.00    -0.070 CG0
ATOM      9  C   UNL     1      14.674 -20.561 -23.991  1.00  0.00     0.039 C 
ATOM     10  G   UNL     1      16.654 -21.685 -22.726  1.00  0.00     0.000 G0
ENDBRANCH   6   7
ENDBRANCH   5   6
ENDBRANCH   3   5
ENDBRANCH   1   3
BRANCH   1  11
ATOM     11  C   UNL     1      18.159 -23.392 -25.468  1.00  0.00     0.087 C 
BRANCH  11  12
ATOM     12  C   UNL     1      18.136 -23.521 -23.922  1.00  0.00     0.066 C 
BRANCH  12  13
ATOM     13  C   UNL     1      16.801 -23.049 -23.358  1.00  0.00     0.140 C 
ATOM     14  O   UNL     1      15.820 -23.768 -23.490  1.00  0.00    -0.299 OA
BRANCH  13  15
ATOM     15  C   UNL     1      16.638 -21.692 -22.709  1.00  0.00     0.106 CG0
ATOM     16  G   UNL     1      16.168 -20.635 -23.695  1.00  0.00     0.000 G0
ENDBRANCH  13  15
ENDBRANCH  12  13
BRANCH  12  17
ATOM     17  C   UNL     1      18.494 -24.959 -23.424  1.00  0.00    -0.006 C 
ATOM     18  C   UNL     1      18.881 -24.946 -21.932  1.00  0.00     0.008 C 
ATOM     19  C   UNL     1      19.645 -25.589 -24.227  1.00  0.00     0.008 C 
ENDBRANCH  12  17
ENDBRANCH  11  12
ENDBRANCH   1  11
TORSDOF 1
ENDMDL
MODEL 9
REMARK VINA RESULT:    -3.291      1.984      3.148
REMARK INTER + INTRA:          -5.303
REMARK INTER:                  -5.390
REMARK INTRA:                   0.087
REMARK UNBOUND:                -0.280
REMARK SMILES CC1=CCC[C@@H](C)C(=O)C[C@H](C(C)C)C(=O)C1
REMARK SMILES IDX 8 1 9 2 6 3 7 4 5 5 4 6 3 7 2 8 1 9 10 11 11 12 15 13 16 14
REMARK SMILES IDX 17 15 12 17 13 18 14 19
REMARK H PARENT
REMARK Flexibility Score: 70.00
ROOT
ATOM      1  C   UNL     1      13.304 -17.881 -20.426  1.00  0.00     0.136 C 
ATOM      2  O   UNL     1      12.625 -17.420 -19.517  1.00  0.00    -0.299 OA
ENDROOT
BRANCH   1   3
ATOM      3  C   UNL     1      14.590 -18.616 -20.102  1.00  0.00     0.053 C 
ATOM      4  C   UNL     1      14.375 -19.587 -18.932  1.00  0.00     0.016 C 
BRANCH   3   5
ATOM      5  C   UNL     1      15.717 -17.609 -19.783  1.00  0.00     0.015 C 
BRANCH   5   6
ATOM      6  C   UNL     1      16.816 -17.604 -20.865  1.00  0.00     0.028 C 
BRANCH   6   7
ATOM      7  C   UNL     1      16.834 -18.900 -21.635  1.00  0.00    -0.028 C 
ATOM      8  C   UNL     1      16.511 -19.032 -22.943  1.00  0.00    -0.070 CG0
ATOM      9  C   UNL     1      16.644 -20.397 -23.569  1.00  0.00     0.039 C 
ATOM     10  G   UNL     1      16.037 -17.875 -23.808  1.00  0.00     0.000 G0
ENDBRANCH   6   7
ENDBRANCH   5   6
ENDBRANCH   3   5
ENDBRANCH   1   3
BRANCH   1  11
ATOM     11  C   UNL     1      12.841 -17.706 -21.853  1.00  0.00     0.087 C 
BRANCH  11  12
ATOM     12  C   UNL     1      13.826 -16.855 -22.696  1.00  0.00     0.066 C 
BRANCH  12  13
ATOM     13  C   UNL     1      14.514 -17.711 -23.754  1.00  0.00     0.140 C 
ATOM     14  O   UNL     1      13.822 -18.333 -24.547  1.00  0.00    -0.299 OA
BRANCH  13  15
ATOM     15  C   UNL     1      16.017 -17.870 -23.804  1.00  0.00     0.106 CG0
ATOM     16  G   UNL     1      16.502 -19.033 -22.954  1.00  0.00     0.000 G0
ENDBRANCH  13  15
ENDBRANCH  12  13
BRANCH  12  17
ATOM     17  C   UNL     1      13.156 -15.592 -23.327  1.00  0.00    -0.006 C 
ATOM     18  C   UNL     1      11.768 -15.932 -23.904  1.00  0.00     0.008 C 
ATOM     19  C   UNL     1      14.014 -14.966 -24.441  1.00  0.00     0.008 C 
ENDBRANCH  12  17
ENDBRANCH  11  12
ENDBRANCH   1  11
TORSDOF 1
ENDMDL
