MODEL 1
REMARK VINA RESULT:    -5.124      0.000      0.000
REMARK INTER + INTRA:          -6.112
REMARK INTER:                  -5.873
REMARK INTRA:                  -0.239
REMARK UNBOUND:                -0.239
REMARK SMILES CC=Cc1ccc(O)c(OC)c1
REMARK SMILES IDX 4 1 12 2 9 3 7 4 6 5 5 6 3 7 1 8 2 9 10 10 11 11 8 12
REMARK H PARENT 8 13
REMARK Flexibility Score: inf
ROOT
ATOM      1  C   UNL     1       9.799 -28.655  29.431  1.00  0.00    -0.022 A 
ATOM      2  C   UNL     1       9.202 -29.497  28.482  1.00  0.00     0.058 A 
ATOM      3  C   UNL     1       8.431 -28.962  27.430  1.00  0.00     0.161 A 
ATOM      4  C   UNL     1       8.281 -27.567  27.331  1.00  0.00     0.157 A 
ATOM      5  C   UNL     1       8.900 -26.728  28.262  1.00  0.00     0.051 A 
ATOM      6  C   UNL     1       9.662 -27.265  29.301  1.00  0.00     0.012 A 
ENDROOT
BRANCH   1   7
ATOM      7  C   UNL     1      10.624 -29.249  30.504  1.00  0.00     0.003 C 
ATOM      8  C   UNL     1       8.689 -29.692  32.039  1.00  0.00     0.035 C 
ATOM      9  C   UNL     1      10.143 -29.692  31.673  1.00  0.00    -0.030 C 
ENDBRANCH   1   7
BRANCH   3  10
ATOM     10  O   UNL     1       7.806 -29.780  26.474  1.00  0.00    -0.493 OA
ATOM     11  C   UNL     1       8.452 -30.312  25.321  1.00  0.00     0.278 C 
ENDBRANCH   3  10
BRANCH   4  12
ATOM     12  O   UNL     1       7.524 -26.993  26.308  1.00  0.00    -0.504 OA
ATOM     13  H   UNL     1       7.700 -27.192  25.330  1.00  0.00     0.293 HD
ENDBRANCH   4  12
TORSDOF 3
ENDMDL
MODEL 2
REMARK VINA RESULT:    -4.955      8.039      8.829
REMARK INTER + INTRA:          -5.918
REMARK INTER:                  -5.698
REMARK INTRA:                  -0.220
REMARK UNBOUND:                -0.239
REMARK SMILES CC=Cc1ccc(O)c(OC)c1
REMARK SMILES IDX 4 1 12 2 9 3 7 4 6 5 5 6 3 7 1 8 2 9 10 10 11 11 8 12
REMARK H PARENT 8 13
REMARK Flexibility Score: inf
ROOT
ATOM      1  C   UNL     1      16.263 -24.139  30.258  1.00  0.00    -0.022 A 
ATOM      2  C   UNL     1      15.773 -25.295  29.633  1.00  0.00     0.058 A 
ATOM      3  C   UNL     1      16.570 -26.009  28.716  1.00  0.00     0.161 A 
ATOM      4  C   UNL     1      17.876 -25.558  28.446  1.00  0.00     0.157 A 
ATOM      5  C   UNL     1      18.372 -24.422  29.092  1.00  0.00     0.051 A 
ATOM      6  C   UNL     1      17.576 -23.720  29.998  1.00  0.00     0.012 A 
ENDROOT
BRANCH   1   7
ATOM      7  C   UNL     1      15.410 -23.432  31.236  1.00  0.00     0.003 C 
ATOM      8  C   UNL     1      16.284 -24.687  33.225  1.00  0.00     0.035 C 
ATOM      9  C   UNL     1      15.397 -23.683  32.552  1.00  0.00    -0.030 C 
ENDBRANCH   1   7
BRANCH   3  10
ATOM     10  O   UNL     1      16.102 -27.160  28.061  1.00  0.00    -0.493 OA
ATOM     11  C   UNL     1      14.775 -27.326  27.572  1.00  0.00     0.278 C 
ENDBRANCH   3  10
BRANCH   4  12
ATOM     12  O   UNL     1      18.699 -26.232  27.543  1.00  0.00    -0.504 OA
ATOM     13  H   UNL     1      19.048 -27.166  27.724  1.00  0.00     0.293 HD
ENDBRANCH   4  12
TORSDOF 3
ENDMDL
MODEL 3
REMARK VINA RESULT:    -4.935      1.453      3.089
REMARK INTER + INTRA:          -5.895
REMARK INTER:                  -5.712
REMARK INTRA:                  -0.183
REMARK UNBOUND:                -0.239
REMARK SMILES CC=Cc1ccc(O)c(OC)c1
REMARK SMILES IDX 4 1 12 2 9 3 7 4 6 5 5 6 3 7 1 8 2 9 10 10 11 11 8 12
REMARK H PARENT 8 13
REMARK Flexibility Score: inf
ROOT
ATOM      1  C   UNL     1       9.886 -28.685  29.962  1.00  0.00    -0.022 A 
ATOM      2  C   UNL     1       9.816 -27.285  29.976  1.00  0.00     0.058 A 
ATOM      3  C   UNL     1       9.192 -26.586  28.923  1.00  0.00     0.161 A 
ATOM      4  C   UNL     1       8.619 -27.312  27.862  1.00  0.00     0.157 A 
ATOM      5  C   UNL     1       8.665 -28.709  27.865  1.00  0.00     0.051 A 
ATOM      6  C   UNL     1       9.285 -29.394  28.910  1.00  0.00     0.012 A 
ENDROOT
BRANCH   1   7
ATOM      7  C   UNL     1      10.523 -29.387  31.096  1.00  0.00     0.003 C 
ATOM      8  C   UNL     1       8.361 -29.950  32.238  1.00  0.00     0.035 C 
ATOM      9  C   UNL     1       9.856 -29.933  32.121  1.00  0.00    -0.030 C 
ENDBRANCH   1   7
BRANCH   3  10
ATOM     10  O   UNL     1       9.121 -25.183  28.899  1.00  0.00    -0.493 OA
ATOM     11  C   UNL     1       9.308 -24.347  30.037  1.00  0.00     0.278 C 
ENDBRANCH   3  10
BRANCH   4  12
ATOM     12  O   UNL     1       7.993 -26.661  26.798  1.00  0.00    -0.504 OA
ATOM     13  H   UNL     1       7.988 -25.652  26.711  1.00  0.00     0.293 HD
ENDBRANCH   4  12
TORSDOF 3
ENDMDL
MODEL 4
REMARK VINA RESULT:    -4.841      8.918     10.345
REMARK INTER + INTRA:          -5.787
REMARK INTER:                  -5.550
REMARK INTRA:                  -0.237
REMARK UNBOUND:                -0.239
REMARK SMILES CC=Cc1ccc(O)c(OC)c1
REMARK SMILES IDX 4 1 12 2 9 3 7 4 6 5 5 6 3 7 1 8 2 9 10 10 11 11 8 12
REMARK H PARENT 8 13
REMARK Flexibility Score: inf
ROOT
ATOM      1  C   UNL     1      17.397 -24.485  30.268  1.00  0.00    -0.022 A 
ATOM      2  C   UNL     1      17.837 -25.067  31.465  1.00  0.00     0.058 A 
ATOM      3  C   UNL     1      17.106 -24.898  32.659  1.00  0.00     0.161 A 
ATOM      4  C   UNL     1      15.914 -24.150  32.632  1.00  0.00     0.157 A 
ATOM      5  C   UNL     1      15.462 -23.594  31.432  1.00  0.00     0.051 A 
ATOM      6  C   UNL     1      16.192 -23.766  30.254  1.00  0.00     0.012 A 
ENDROOT
BRANCH   1   7
ATOM      7  C   UNL     1      18.173 -24.707  29.030  1.00  0.00     0.003 C 
ATOM      8  C   UNL     1      16.905 -26.764  28.352  1.00  0.00     0.035 C 
ATOM      9  C   UNL     1      17.976 -25.728  28.185  1.00  0.00    -0.030 C 
ENDBRANCH   1   7
BRANCH   3  10
ATOM     10  O   UNL     1      17.530 -25.454  33.877  1.00  0.00    -0.493 OA
ATOM     11  C   UNL     1      18.602 -24.946  34.665  1.00  0.00     0.278 C 
ENDBRANCH   3  10
BRANCH   4  12
ATOM     12  O   UNL     1      15.160 -23.954  33.790  1.00  0.00    -0.504 OA
ATOM     13  H   UNL     1      14.191 -24.242  33.858  1.00  0.00     0.293 HD
ENDBRANCH   4  12
TORSDOF 3
ENDMDL
MODEL 5
REMARK VINA RESULT:    -4.630      7.326      9.181
REMARK INTER + INTRA:          -5.545
REMARK INTER:                  -5.296
REMARK INTRA:                  -0.249
REMARK UNBOUND:                -0.239
REMARK SMILES CC=Cc1ccc(O)c(OC)c1
REMARK SMILES IDX 4 1 12 2 9 3 7 4 6 5 5 6 3 7 1 8 2 9 10 10 11 11 8 12
REMARK H PARENT 8 13
REMARK Flexibility Score: inf
ROOT
ATOM      1  C   UNL     1      10.708 -22.992  32.305  1.00  0.00    -0.022 A 
ATOM      2  C   UNL     1      10.709 -22.004  33.300  1.00  0.00     0.058 A 
ATOM      3  C   UNL     1      10.531 -22.348  34.656  1.00  0.00     0.161 A 
ATOM      4  C   UNL     1      10.371 -23.702  35.004  1.00  0.00     0.157 A 
ATOM      5  C   UNL     1      10.399 -24.688  34.013  1.00  0.00     0.051 A 
ATOM      6  C   UNL     1      10.575 -24.339  32.673  1.00  0.00     0.012 A 
ENDROOT
BRANCH   1   7
ATOM      7  C   UNL     1      10.925 -22.597  30.898  1.00  0.00     0.003 C 
ATOM      8  C   UNL     1       8.499 -22.172  30.420  1.00  0.00     0.035 C 
ATOM      9  C   UNL     1       9.949 -22.252  30.047  1.00  0.00    -0.030 C 
ENDBRANCH   1   7
BRANCH   3  10
ATOM     10  O   UNL     1      10.510 -21.381  35.673  1.00  0.00    -0.493 OA
ATOM     11  C   UNL     1       9.365 -20.614  36.034  1.00  0.00     0.278 C 
ENDBRANCH   3  10
BRANCH   4  12
ATOM     12  O   UNL     1      10.190 -24.089  36.332  1.00  0.00    -0.504 OA
ATOM     13  H   UNL     1      10.801 -23.771  37.075  1.00  0.00     0.293 HD
ENDBRANCH   4  12
TORSDOF 3
ENDMDL
MODEL 6
REMARK VINA RESULT:    -4.535      1.125      2.319
REMARK INTER + INTRA:          -5.436
REMARK INTER:                  -5.579
REMARK INTRA:                   0.142
REMARK UNBOUND:                -0.239
REMARK SMILES CC=Cc1ccc(O)c(OC)c1
REMARK SMILES IDX 4 1 12 2 9 3 7 4 6 5 5 6 3 7 1 8 2 9 10 10 11 11 8 12
REMARK H PARENT 8 13
REMARK Flexibility Score: inf
ROOT
ATOM      1  C   UNL     1       9.682 -29.003  29.575  1.00  0.00    -0.022 A 
ATOM      2  C   UNL     1       9.770 -27.726  29.003  1.00  0.00     0.058 A 
ATOM      3  C   UNL     1       9.024 -27.401  27.852  1.00  0.00     0.161 A 
ATOM      4  C   UNL     1       8.171 -28.371  27.291  1.00  0.00     0.157 A 
ATOM      5  C   UNL     1       8.064 -29.634  27.880  1.00  0.00     0.051 A 
ATOM      6  C   UNL     1       8.806 -29.948  29.020  1.00  0.00     0.012 A 
ENDROOT
BRANCH   1   7
ATOM      7  C   UNL     1      10.456 -29.300  30.798  1.00  0.00     0.003 C 
ATOM      8  C   UNL     1       8.457 -29.972  32.157  1.00  0.00     0.035 C 
ATOM      9  C   UNL     1       9.919 -29.710  31.955  1.00  0.00    -0.030 C 
ENDBRANCH   1   7
BRANCH   3  10
ATOM     10  O   UNL     1       9.103 -26.138  27.245  1.00  0.00    -0.493 OA
ATOM     11  C   UNL     1       9.873 -25.848  26.082  1.00  0.00     0.278 C 
ENDBRANCH   3  10
BRANCH   4  12
ATOM     12  O   UNL     1       7.416 -28.094  26.151  1.00  0.00    -0.504 OA
ATOM     13  H   UNL     1       6.418 -28.262  26.110  1.00  0.00     0.293 HD
ENDBRANCH   4  12
TORSDOF 3
ENDMDL
MODEL 7
REMARK VINA RESULT:    -4.507      6.893      8.402
REMARK INTER + INTRA:          -5.404
REMARK INTER:                  -5.158
REMARK INTRA:                  -0.246
REMARK UNBOUND:                -0.239
REMARK SMILES CC=Cc1ccc(O)c(OC)c1
REMARK SMILES IDX 4 1 12 2 9 3 7 4 6 5 5 6 3 7 1 8 2 9 10 10 11 11 8 12
REMARK H PARENT 8 13
REMARK Flexibility Score: inf
ROOT
ATOM      1  C   UNL     1      10.787 -23.330  22.657  1.00  0.00    -0.022 A 
ATOM      2  C   UNL     1      10.205 -23.669  21.427  1.00  0.00     0.058 A 
ATOM      3  C   UNL     1       8.894 -23.258  21.114  1.00  0.00     0.161 A 
ATOM      4  C   UNL     1       8.177 -22.484  22.046  1.00  0.00     0.157 A 
ATOM      5  C   UNL     1       8.770 -22.124  23.259  1.00  0.00     0.051 A 
ATOM      6  C   UNL     1      10.068 -22.535  23.562  1.00  0.00     0.012 A 
ENDROOT
BRANCH   1   7
ATOM      7  C   UNL     1      12.174 -23.754  22.939  1.00  0.00     0.003 C 
ATOM      8  C   UNL     1      11.511 -25.829  24.186  1.00  0.00     0.035 C 
ATOM      9  C   UNL     1      12.505 -24.850  23.635  1.00  0.00    -0.030 C 
ENDBRANCH   1   7
BRANCH   3  10
ATOM     10  O   UNL     1       8.277 -23.596  19.898  1.00  0.00    -0.493 OA
ATOM     11  C   UNL     1       8.134 -24.926  19.409  1.00  0.00     0.278 C 
ENDBRANCH   3  10
BRANCH   4  12
ATOM     12  O   UNL     1       6.875 -22.058  21.779  1.00  0.00    -0.504 OA
ATOM     13  H   UNL     1       6.154 -22.050  22.491  1.00  0.00     0.293 HD
ENDBRANCH   4  12
TORSDOF 3
ENDMDL
MODEL 8
REMARK VINA RESULT:    -4.290      4.244      5.808
REMARK INTER + INTRA:          -5.155
REMARK INTER:                  -5.001
REMARK INTRA:                  -0.154
REMARK UNBOUND:                -0.239
REMARK SMILES CC=Cc1ccc(O)c(OC)c1
REMARK SMILES IDX 4 1 12 2 9 3 7 4 6 5 5 6 3 7 1 8 2 9 10 10 11 11 8 12
REMARK H PARENT 8 13
REMARK Flexibility Score: inf
ROOT
ATOM      1  C   UNL     1       9.191 -26.778  31.575  1.00  0.00    -0.022 A 
ATOM      2  C   UNL     1       9.702 -25.987  32.614  1.00  0.00     0.058 A 
ATOM      3  C   UNL     1      10.118 -24.662  32.371  1.00  0.00     0.161 A 
ATOM      4  C   UNL     1       9.998 -24.133  31.073  1.00  0.00     0.157 A 
ATOM      5  C   UNL     1       9.461 -24.914  30.045  1.00  0.00     0.051 A 
ATOM      6  C   UNL     1       9.052 -26.225  30.293  1.00  0.00     0.012 A 
ENDROOT
BRANCH   1   7
ATOM      7  C   UNL     1       8.737 -28.153  31.872  1.00  0.00     0.003 C 
ATOM      8  C   UNL     1      10.636 -29.266  30.668  1.00  0.00     0.035 C 
ATOM      9  C   UNL     1       9.360 -29.263  31.456  1.00  0.00    -0.030 C 
ENDBRANCH   1   7
BRANCH   3  10
ATOM     10  O   UNL     1      10.650 -23.851  33.386  1.00  0.00    -0.493 OA
ATOM     11  C   UNL     1      10.350 -23.991  34.772  1.00  0.00     0.278 C 
ENDBRANCH   3  10
BRANCH   4  12
ATOM     12  O   UNL     1      10.400 -22.828  30.786  1.00  0.00    -0.504 OA
ATOM     13  H   UNL     1      10.061 -22.031  31.312  1.00  0.00     0.293 HD
ENDBRANCH   4  12
TORSDOF 3
ENDMDL
MODEL 9
REMARK VINA RESULT:    -4.266      8.053      9.363
REMARK INTER + INTRA:          -5.129
REMARK INTER:                  -4.904
REMARK INTRA:                  -0.225
REMARK UNBOUND:                -0.239
REMARK SMILES CC=Cc1ccc(O)c(OC)c1
REMARK SMILES IDX 4 1 12 2 9 3 7 4 6 5 5 6 3 7 1 8 2 9 10 10 11 11 8 12
REMARK H PARENT 8 13
REMARK Flexibility Score: inf
ROOT
ATOM      1  C   UNL     1       9.370 -20.630  34.436  1.00  0.00    -0.022 A 
ATOM      2  C   UNL     1       9.813 -21.463  33.399  1.00  0.00     0.058 A 
ATOM      3  C   UNL     1       8.991 -21.718  32.282  1.00  0.00     0.161 A 
ATOM      4  C   UNL     1       7.724 -21.111  32.209  1.00  0.00     0.157 A 
ATOM      5  C   UNL     1       7.297 -20.258  33.231  1.00  0.00     0.051 A 
ATOM      6  C   UNL     1       8.116 -20.010  34.334  1.00  0.00     0.012 A 
ENDROOT
BRANCH   1   7
ATOM      7  C   UNL     1      10.269 -20.361  35.578  1.00  0.00     0.003 C 
ATOM      8  C   UNL     1      11.397 -18.395  34.501  1.00  0.00     0.035 C 
ATOM      9  C   UNL     1      11.187 -19.385  35.607  1.00  0.00    -0.030 C 
ENDBRANCH   1   7
BRANCH   3  10
ATOM     10  O   UNL     1       9.398 -22.562  31.236  1.00  0.00    -0.493 OA
ATOM     11  C   UNL     1       9.846 -23.903  31.408  1.00  0.00     0.278 C 
ENDBRANCH   3  10
BRANCH   4  12
ATOM     12  O   UNL     1       6.877 -21.338  31.124  1.00  0.00    -0.504 OA
ATOM     13  H   UNL     1       6.618 -22.271  30.827  1.00  0.00     0.293 HD
ENDBRANCH   4  12
TORSDOF 3
ENDMDL
