MODEL 1
REMARK VINA RESULT:    -4.907      0.000      0.000
REMARK INTER + INTRA:          -5.615
REMARK INTER:                  -5.481
REMARK INTRA:                  -0.134
REMARK UNBOUND:                -0.134
REMARK SMILES O=C([O-])C=Cc1ccccc1
REMARK SMILES IDX 4 1 5 2 2 3 1 4 3 5 6 6 7 7 11 8 8 9 10 10 9 11
REMARK H PARENT
REMARK Flexibility Score: inf
ROOT
ATOM      1  C   UNL     1      15.721  13.335  38.784  1.00  0.00     0.025 C 
ATOM      2  C   UNL     1      14.617  13.595  38.069  1.00  0.00     0.010 C 
ENDROOT
BRANCH   1   3
ATOM      3  C   UNL     1      15.864  13.759  40.188  1.00  0.00     0.064 C 
ATOM      4  O   UNL     1      14.866  14.125  40.865  1.00  0.00    -0.545 OA
ATOM      5  O   UNL     1      17.121  13.755  40.777  1.00  0.00    -0.545 OA
ENDBRANCH   1   3
BRANCH   2   6
ATOM      6  C   UNL     1      14.410  13.196  36.650  1.00  0.00    -0.026 A 
ATOM      7  C   UNL     1      14.308  14.122  35.589  1.00  0.00     0.008 A 
ATOM      8  C   UNL     1      14.313  11.823  36.355  1.00  0.00     0.008 A 
ATOM      9  C   UNL     1      14.114  13.678  34.276  1.00  0.00     0.001 A 
ATOM     10  C   UNL     1      14.119  11.387  35.041  1.00  0.00     0.001 A 
ATOM     11  C   UNL     1      14.020  12.313  34.003  1.00  0.00     0.000 A 
ENDBRANCH   2   6
TORSDOF 2
ENDMDL
MODEL 2
REMARK VINA RESULT:    -4.807      3.354      5.338
REMARK INTER + INTRA:          -5.503
REMARK INTER:                  -5.368
REMARK INTRA:                  -0.135
REMARK UNBOUND:                -0.134
REMARK SMILES O=C([O-])C=Cc1ccccc1
REMARK SMILES IDX 4 1 5 2 2 3 1 4 3 5 6 6 7 7 11 8 8 9 10 10 9 11
REMARK H PARENT
REMARK Flexibility Score: inf
ROOT
ATOM      1  C   UNL     1      13.991  11.988  36.054  1.00  0.00     0.025 C 
ATOM      2  C   UNL     1      14.175  13.173  36.657  1.00  0.00     0.010 C 
ENDROOT
BRANCH   1   3
ATOM      3  C   UNL     1      13.362  11.873  34.726  1.00  0.00     0.064 C 
ATOM      4  O   UNL     1      13.520  10.844  34.016  1.00  0.00    -0.545 OA
ATOM      5  O   UNL     1      12.582  12.918  34.248  1.00  0.00    -0.545 OA
ENDBRANCH   1   3
BRANCH   2   6
ATOM      6  C   UNL     1      14.801  13.356  37.994  1.00  0.00    -0.026 A 
ATOM      7  C   UNL     1      14.148  13.985  39.077  1.00  0.00     0.008 A 
ATOM      8  C   UNL     1      16.110  12.877  38.185  1.00  0.00     0.008 A 
ATOM      9  C   UNL     1      14.795  14.125  40.310  1.00  0.00     0.001 A 
ATOM     10  C   UNL     1      16.751  13.021  39.419  1.00  0.00     0.001 A 
ATOM     11  C   UNL     1      16.094  13.644  40.481  1.00  0.00     0.000 A 
ENDBRANCH   2   6
TORSDOF 2
ENDMDL
MODEL 3
REMARK VINA RESULT:    -4.723      0.195      1.465
REMARK INTER + INTRA:          -5.409
REMARK INTER:                  -5.279
REMARK INTRA:                  -0.129
REMARK UNBOUND:                -0.134
REMARK SMILES O=C([O-])C=Cc1ccccc1
REMARK SMILES IDX 4 1 5 2 2 3 1 4 3 5 6 6 7 7 11 8 8 9 10 10 9 11
REMARK H PARENT
REMARK Flexibility Score: inf
ROOT
ATOM      1  C   UNL     1      15.781  13.324  38.700  1.00  0.00     0.025 C 
ATOM      2  C   UNL     1      14.602  13.410  38.066  1.00  0.00     0.010 C 
ENDROOT
BRANCH   1   3
ATOM      3  C   UNL     1      15.934  13.676  40.122  1.00  0.00     0.064 C 
ATOM      4  O   UNL     1      14.966  14.125  40.792  1.00  0.00    -0.545 OA
ATOM      5  O   UNL     1      17.168  13.510  40.736  1.00  0.00    -0.545 OA
ENDBRANCH   1   3
BRANCH   2   6
ATOM      6  C   UNL     1      14.381  13.070  36.633  1.00  0.00    -0.026 A 
ATOM      7  C   UNL     1      14.216  11.748  36.166  1.00  0.00     0.008 A 
ATOM      8  C   UNL     1      14.335  14.124  35.702  1.00  0.00     0.008 A 
ATOM      9  C   UNL     1      14.011  11.499  34.804  1.00  0.00     0.001 A 
ATOM     10  C   UNL     1      14.130  13.868  34.343  1.00  0.00     0.001 A 
ATOM     11  C   UNL     1      13.968  12.557  33.894  1.00  0.00     0.000 A 
ENDBRANCH   2   6
TORSDOF 2
ENDMDL
MODEL 4
REMARK VINA RESULT:    -4.585      3.445      5.377
REMARK INTER + INTRA:          -5.256
REMARK INTER:                  -5.128
REMARK INTRA:                  -0.128
REMARK UNBOUND:                -0.134
REMARK SMILES O=C([O-])C=Cc1ccccc1
REMARK SMILES IDX 4 1 5 2 2 3 1 4 3 5 6 6 7 7 11 8 8 9 10 10 9 11
REMARK H PARENT
REMARK Flexibility Score: inf
ROOT
ATOM      1  C   UNL     1      13.823  12.013  35.918  1.00  0.00     0.025 C 
ATOM      2  C   UNL     1      14.532  13.071  36.340  1.00  0.00     0.010 C 
ENDROOT
BRANCH   1   3
ATOM      3  C   UNL     1      13.365  11.881  34.524  1.00  0.00     0.064 C 
ATOM      4  O   UNL     1      12.673  12.780  33.977  1.00  0.00    -0.545 OA
ATOM      5  O   UNL     1      13.704  10.746  33.800  1.00  0.00    -0.545 OA
ENDBRANCH   1   3
BRANCH   2   6
ATOM      6  C   UNL     1      15.023  13.264  37.732  1.00  0.00    -0.026 A 
ATOM      7  C   UNL     1      16.291  12.829  38.176  1.00  0.00     0.008 A 
ATOM      8  C   UNL     1      14.176  13.915  38.649  1.00  0.00     0.008 A 
ATOM      9  C   UNL     1      16.690  13.043  39.500  1.00  0.00     0.001 A 
ATOM     10  C   UNL     1      14.582  14.125  39.970  1.00  0.00     0.001 A 
ATOM     11  C   UNL     1      15.838  13.690  40.395  1.00  0.00     0.000 A 
ENDBRANCH   2   6
TORSDOF 2
ENDMDL
MODEL 5
REMARK VINA RESULT:    -4.545     20.349     22.223
REMARK INTER + INTRA:          -5.210
REMARK INTER:                  -5.066
REMARK INTRA:                  -0.144
REMARK UNBOUND:                -0.134
REMARK SMILES O=C([O-])C=Cc1ccccc1
REMARK SMILES IDX 4 1 5 2 2 3 1 4 3 5 6 6 7 7 11 8 8 9 10 10 9 11
REMARK H PARENT
REMARK Flexibility Score: inf
ROOT
ATOM      1  C   UNL     1       7.832  -1.164  24.091  1.00  0.00     0.025 C 
ATOM      2  C   UNL     1       7.567  -2.427  24.456  1.00  0.00     0.010 C 
ENDROOT
BRANCH   1   3
ATOM      3  C   UNL     1       9.147  -0.540  24.321  1.00  0.00     0.064 C 
ATOM      4  O   UNL     1      10.092  -1.185  24.849  1.00  0.00    -0.545 OA
ATOM      5  O   UNL     1       9.349   0.782  23.948  1.00  0.00    -0.545 OA
ENDBRANCH   1   3
BRANCH   2   6
ATOM      6  C   UNL     1       6.262  -3.114  24.252  1.00  0.00    -0.026 A 
ATOM      7  C   UNL     1       6.136  -4.511  24.093  1.00  0.00     0.008 A 
ATOM      8  C   UNL     1       5.096  -2.325  24.219  1.00  0.00     0.008 A 
ATOM      9  C   UNL     1       4.877  -5.093  23.905  1.00  0.00     0.001 A 
ATOM     10  C   UNL     1       3.842  -2.913  24.031  1.00  0.00     0.001 A 
ATOM     11  C   UNL     1       3.732  -4.295  23.875  1.00  0.00     0.000 A 
ENDBRANCH   2   6
TORSDOF 2
ENDMDL
MODEL 6
REMARK VINA RESULT:    -4.514     20.861     22.681
REMARK INTER + INTRA:          -5.175
REMARK INTER:                  -5.043
REMARK INTRA:                  -0.133
REMARK UNBOUND:                -0.134
REMARK SMILES O=C([O-])C=Cc1ccccc1
REMARK SMILES IDX 4 1 5 2 2 3 1 4 3 5 6 6 7 7 11 8 8 9 10 10 9 11
REMARK H PARENT
REMARK Flexibility Score: inf
ROOT
ATOM      1  C   UNL     1       5.218  -3.765  23.875  1.00  0.00     0.025 C 
ATOM      2  C   UNL     1       5.611  -2.590  24.391  1.00  0.00     0.010 C 
ENDROOT
BRANCH   1   3
ATOM      3  C   UNL     1       3.829  -4.244  23.985  1.00  0.00     0.064 C 
ATOM      4  O   UNL     1       2.875  -3.443  24.177  1.00  0.00    -0.545 OA
ATOM      5  O   UNL     1       3.566  -5.603  23.875  1.00  0.00    -0.545 OA
ENDBRANCH   1   3
BRANCH   2   6
ATOM      6  C   UNL     1       6.996  -2.051  24.315  1.00  0.00    -0.026 A 
ATOM      7  C   UNL     1       8.140  -2.865  24.172  1.00  0.00     0.008 A 
ATOM      8  C   UNL     1       7.168  -0.655  24.388  1.00  0.00     0.008 A 
ATOM      9  C   UNL     1       9.415  -2.292  24.107  1.00  0.00     0.001 A 
ATOM     10  C   UNL     1       8.445  -0.090  24.322  1.00  0.00     0.001 A 
ATOM     11  C   UNL     1       9.567  -0.906  24.181  1.00  0.00     0.000 A 
ENDBRANCH   2   6
TORSDOF 2
ENDMDL
MODEL 7
REMARK VINA RESULT:    -3.021      3.074      4.442
REMARK INTER + INTRA:          -3.508
REMARK INTER:                  -3.376
REMARK INTRA:                  -0.132
REMARK UNBOUND:                -0.134
REMARK SMILES O=C([O-])C=Cc1ccccc1
REMARK SMILES IDX 4 1 5 2 2 3 1 4 3 5 6 6 7 7 11 8 8 9 10 10 9 11
REMARK H PARENT
REMARK Flexibility Score: inf
ROOT
ATOM      1  C   UNL     1      18.320  13.318  41.713  1.00  0.00     0.025 C 
ATOM      2  C   UNL     1      17.034  13.685  41.606  1.00  0.00     0.010 C 
ENDROOT
BRANCH   1   3
ATOM      3  C   UNL     1      19.039  13.347  42.999  1.00  0.00     0.064 C 
ATOM      4  O   UNL     1      20.037  14.095  43.172  1.00  0.00    -0.545 OA
ATOM      5  O   UNL     1      18.607  12.536  44.040  1.00  0.00    -0.545 OA
ENDBRANCH   1   3
BRANCH   2   6
ATOM      6  C   UNL     1      16.252  13.680  40.339  1.00  0.00    -0.026 A 
ATOM      7  C   UNL     1      16.788  13.272  39.098  1.00  0.00     0.008 A 
ATOM      8  C   UNL     1      14.910  14.103  40.387  1.00  0.00     0.008 A 
ATOM      9  C   UNL     1      15.996  13.291  37.944  1.00  0.00     0.001 A 
ATOM     10  C   UNL     1      14.126  14.120  39.230  1.00  0.00     0.001 A 
ATOM     11  C   UNL     1      14.668  13.714  38.010  1.00  0.00     0.000 A 
ENDBRANCH   2   6
TORSDOF 2
ENDMDL
MODEL 8
REMARK VINA RESULT:    -2.920      1.755      2.487
REMARK INTER + INTRA:          -3.396
REMARK INTER:                  -3.265
REMARK INTRA:                  -0.131
REMARK UNBOUND:                -0.134
REMARK SMILES O=C([O-])C=Cc1ccccc1
REMARK SMILES IDX 4 1 5 2 2 3 1 4 3 5 6 6 7 7 11 8 8 9 10 10 9 11
REMARK H PARENT
REMARK Flexibility Score: inf
ROOT
ATOM      1  C   UNL     1      16.822  13.355  40.389  1.00  0.00     0.025 C 
ATOM      2  C   UNL     1      16.811  12.781  39.177  1.00  0.00     0.010 C 
ENDROOT
BRANCH   1   3
ATOM      3  C   UNL     1      17.908  13.123  41.358  1.00  0.00     0.064 C 
ATOM      4  O   UNL     1      18.703  14.046  41.680  1.00  0.00    -0.545 OA
ATOM      5  O   UNL     1      18.056  11.866  41.927  1.00  0.00    -0.545 OA
ENDBRANCH   1   3
BRANCH   2   6
ATOM      6  C   UNL     1      15.746  12.973  38.155  1.00  0.00    -0.026 A 
ATOM      7  C   UNL     1      14.781  14.001  38.224  1.00  0.00     0.008 A 
ATOM      8  C   UNL     1      15.704  12.082  37.066  1.00  0.00     0.008 A 
ATOM      9  C   UNL     1      13.806  14.125  37.228  1.00  0.00     0.001 A 
ATOM     10  C   UNL     1      14.727  12.212  36.075  1.00  0.00     0.001 A 
ATOM     11  C   UNL     1      13.779  13.232  36.155  1.00  0.00     0.000 A 
ENDBRANCH   2   6
TORSDOF 2
ENDMDL
