MODEL 1
REMARK VINA RESULT:    -3.542      0.000      0.000
REMARK INTER + INTRA:          -3.542
REMARK INTER:                  -3.542
REMARK INTRA:                   0.000
REMARK UNBOUND:                 0.000
REMARK SMILES c1cc[nH]c1
REMARK SMILES IDX 1 1 5 2 4 3 3 4 2 5
REMARK H PARENT 4 6
REMARK Flexibility Score: inf
ROOT
ATOM      1  C   UNL     1    -104.302  82.338 -41.435  1.00  0.00     0.019 A 
ATOM      2  C   UNL     1    -103.954  81.997 -40.145  1.00  0.00     0.082 A 
ATOM      3  N   UNL     1    -102.644  82.223 -39.948  1.00  0.00    -0.368 N 
ATOM      4  C   UNL     1    -102.148  82.708 -41.100  1.00  0.00     0.082 A 
ATOM      5  C   UNL     1    -103.151  82.792 -42.045  1.00  0.00     0.019 A 
ATOM      6  H   UNL     1    -102.111  82.055 -39.065  1.00  0.00     0.165 HD
ENDROOT
TORSDOF 0
ENDMDL
MODEL 2
REMARK VINA RESULT:    -3.392      6.258      6.982
REMARK INTER + INTRA:          -3.392
REMARK INTER:                  -3.392
REMARK INTRA:                   0.000
REMARK UNBOUND:                 0.000
REMARK SMILES c1cc[nH]c1
REMARK SMILES IDX 1 1 5 2 4 3 3 4 2 5
REMARK H PARENT 4 6
REMARK Flexibility Score: inf
ROOT
ATOM      1  C   UNL     1    -103.751  82.058 -33.531  1.00  0.00     0.019 A 
ATOM      2  C   UNL     1    -103.517  82.747 -34.703  1.00  0.00     0.082 A 
ATOM      3  N   UNL     1    -104.592  82.665 -35.506  1.00  0.00    -0.368 N 
ATOM      4  C   UNL     1    -105.515  81.930 -34.859  1.00  0.00     0.082 A 
ATOM      5  C   UNL     1    -105.025  81.537 -33.630  1.00  0.00     0.019 A 
ATOM      6  H   UNL     1    -104.693  83.093 -36.453  1.00  0.00     0.165 HD
ENDROOT
TORSDOF 0
ENDMDL
MODEL 3
REMARK VINA RESULT:    -3.376      6.221      6.784
REMARK INTER + INTRA:          -3.376
REMARK INTER:                  -3.376
REMARK INTRA:                   0.000
REMARK UNBOUND:                 0.000
REMARK SMILES c1cc[nH]c1
REMARK SMILES IDX 1 1 5 2 4 3 3 4 2 5
REMARK H PARENT 4 6
REMARK Flexibility Score: inf
ROOT
ATOM      1  C   UNL     1    -105.046  81.492 -33.673  1.00  0.00     0.019 A 
ATOM      2  C   UNL     1    -105.588  81.940 -34.860  1.00  0.00     0.082 A 
ATOM      3  N   UNL     1    -104.686  82.682 -35.525  1.00  0.00    -0.368 N 
ATOM      4  C   UNL     1    -103.569  82.714 -34.776  1.00  0.00     0.082 A 
ATOM      5  C   UNL     1    -103.758  81.985 -33.619  1.00  0.00     0.019 A 
ATOM      6  H   UNL     1    -104.826  83.146 -36.450  1.00  0.00     0.165 HD
ENDROOT
TORSDOF 0
ENDMDL
MODEL 4
REMARK VINA RESULT:    -3.289     14.325     15.191
REMARK INTER + INTRA:          -3.289
REMARK INTER:                  -3.289
REMARK INTRA:                   0.000
REMARK UNBOUND:                 0.000
REMARK SMILES c1cc[nH]c1
REMARK SMILES IDX 1 1 5 2 4 3 3 4 2 5
REMARK H PARENT 4 6
REMARK Flexibility Score: inf
ROOT
ATOM      1  C   UNL     1    -116.014  75.829 -33.797  1.00  0.00     0.019 A 
ATOM      2  C   UNL     1    -116.437  77.071 -33.369  1.00  0.00     0.082 A 
ATOM      3  N   UNL     1    -115.614  78.024 -33.841  1.00  0.00    -0.368 N 
ATOM      4  C   UNL     1    -114.667  77.405 -34.568  1.00  0.00     0.082 A 
ATOM      5  C   UNL     1    -114.885  76.042 -34.561  1.00  0.00     0.019 A 
ATOM      6  H   UNL     1    -115.696  79.051 -33.674  1.00  0.00     0.165 HD
ENDROOT
TORSDOF 0
ENDMDL
MODEL 5
REMARK VINA RESULT:    -3.252     13.996     14.576
REMARK INTER + INTRA:          -3.252
REMARK INTER:                  -3.252
REMARK INTRA:                   0.000
REMARK UNBOUND:                 0.000
REMARK SMILES c1cc[nH]c1
REMARK SMILES IDX 1 1 5 2 4 3 3 4 2 5
REMARK H PARENT 4 6
REMARK Flexibility Score: inf
ROOT
ATOM      1  C   UNL     1    -116.417  85.118 -39.391  1.00  0.00     0.019 A 
ATOM      2  C   UNL     1    -117.645  84.625 -39.780  1.00  0.00     0.082 A 
ATOM      3  N   UNL     1    -118.397  84.359 -38.698  1.00  0.00    -0.368 N 
ATOM      4  C   UNL     1    -117.664  84.680 -37.617  1.00  0.00     0.082 A 
ATOM      5  C   UNL     1    -116.428  85.154 -38.011  1.00  0.00     0.019 A 
ATOM      6  H   UNL     1    -119.369  83.977 -38.697  1.00  0.00     0.165 HD
ENDROOT
TORSDOF 0
ENDMDL
MODEL 6
REMARK VINA RESULT:    -3.215     14.427     14.994
REMARK INTER + INTRA:          -3.215
REMARK INTER:                  -3.215
REMARK INTRA:                   0.000
REMARK UNBOUND:                 0.000
REMARK SMILES c1cc[nH]c1
REMARK SMILES IDX 1 1 5 2 4 3 3 4 2 5
REMARK H PARENT 4 6
REMARK Flexibility Score: inf
ROOT
ATOM      1  C   UNL     1    -117.507  76.992 -36.793  1.00  0.00     0.019 A 
ATOM      2  C   UNL     1    -116.140  77.140 -36.903  1.00  0.00     0.082 A 
ATOM      3  N   UNL     1    -115.820  77.537 -38.147  1.00  0.00    -0.368 N 
ATOM      4  C   UNL     1    -116.970  77.646 -38.837  1.00  0.00     0.082 A 
ATOM      5  C   UNL     1    -118.037  77.314 -38.026  1.00  0.00     0.019 A 
ATOM      6  H   UNL     1    -114.859  77.727 -38.509  1.00  0.00     0.165 HD
ENDROOT
TORSDOF 0
ENDMDL
MODEL 7
REMARK VINA RESULT:    -3.170     17.157     17.802
REMARK INTER + INTRA:          -3.170
REMARK INTER:                  -3.170
REMARK INTRA:                   0.000
REMARK UNBOUND:                 0.000
REMARK SMILES c1cc[nH]c1
REMARK SMILES IDX 1 1 5 2 4 3 3 4 2 5
REMARK H PARENT 4 6
REMARK Flexibility Score: inf
ROOT
ATOM      1  C   UNL     1    -117.735  76.503 -35.056  1.00  0.00     0.019 A 
ATOM      2  C   UNL     1    -118.434  75.356 -35.371  1.00  0.00     0.082 A 
ATOM      3  N   UNL     1    -118.868  74.759 -34.247  1.00  0.00    -0.368 N 
ATOM      4  C   UNL     1    -118.455  75.514 -33.213  1.00  0.00     0.082 A 
ATOM      5  C   UNL     1    -117.749  76.605 -33.679  1.00  0.00     0.019 A 
ATOM      6  H   UNL     1    -119.422  73.876 -34.188  1.00  0.00     0.165 HD
ENDROOT
TORSDOF 0
ENDMDL
MODEL 8
REMARK VINA RESULT:    -3.165     14.083     14.295
REMARK INTER + INTRA:          -3.165
REMARK INTER:                  -3.165
REMARK INTRA:                   0.000
REMARK UNBOUND:                 0.000
REMARK SMILES c1cc[nH]c1
REMARK SMILES IDX 1 1 5 2 4 3 3 4 2 5
REMARK H PARENT 4 6
REMARK Flexibility Score: inf
ROOT
ATOM      1  C   UNL     1    -115.719  78.781 -35.239  1.00  0.00     0.019 A 
ATOM      2  C   UNL     1    -116.139  79.297 -36.447  1.00  0.00     0.082 A 
ATOM      3  N   UNL     1    -116.231  78.315 -37.359  1.00  0.00    -0.368 N 
ATOM      4  C   UNL     1    -115.875  77.171 -36.747  1.00  0.00     0.082 A 
ATOM      5  C   UNL     1    -115.550  77.425 -35.429  1.00  0.00     0.019 A 
ATOM      6  H   UNL     1    -116.525  78.419 -38.356  1.00  0.00     0.165 HD
ENDROOT
TORSDOF 0
ENDMDL
MODEL 9
REMARK VINA RESULT:    -3.161     14.462     15.189
REMARK INTER + INTRA:          -3.161
REMARK INTER:                  -3.161
REMARK INTRA:                   0.000
REMARK UNBOUND:                 0.000
REMARK SMILES c1cc[nH]c1
REMARK SMILES IDX 1 1 5 2 4 3 3 4 2 5
REMARK H PARENT 4 6
REMARK Flexibility Score: inf
ROOT
ATOM      1  C   UNL     1    -115.626  77.906 -34.153  1.00  0.00     0.019 A 
ATOM      2  C   UNL     1    -116.406  77.016 -33.445  1.00  0.00     0.082 A 
ATOM      3  N   UNL     1    -115.908  75.773 -33.563  1.00  0.00    -0.368 N 
ATOM      4  C   UNL     1    -114.813  75.857 -34.340  1.00  0.00     0.082 A 
ATOM      5  C   UNL     1    -114.609  77.167 -34.725  1.00  0.00     0.019 A 
ATOM      6  H   UNL     1    -116.298  74.905 -33.132  1.00  0.00     0.165 HD
ENDROOT
TORSDOF 0
ENDMDL
