MODEL 1
REMARK VINA RESULT:    -4.276      0.000      0.000
REMARK INTER + INTRA:          -5.919
REMARK INTER:                  -5.401
REMARK INTRA:                  -0.519
REMARK UNBOUND:                -0.519
REMARK SMILES Oc1cc(O)cc(CCc2ccccc2O)c1
REMARK SMILES IDX 9 1 10 2 12 3 13 4 11 5 14 6 15 7 16 8 8 10 7 11 6 12 17 13
REMARK SMILES IDX 4 14 2 15 3 16 5 17 1 19
REMARK H PARENT 16 9 5 18 1 20
REMARK Flexibility Score: inf
ROOT
ATOM      1  C   UNL     1      10.212   7.612  -1.805  1.00  0.00     0.044 C 
ENDROOT
BRANCH   1   2
ATOM      2  C   UNL     1      10.732   9.026  -1.829  1.00  0.00    -0.006 A 
ATOM      3  C   UNL     1      12.605  10.565  -2.043  1.00  0.00     0.001 A 
ATOM      4  C   UNL     1      11.731  11.649  -1.949  1.00  0.00     0.004 A 
ATOM      5  C   UNL     1      12.109   9.259  -1.989  1.00  0.00     0.007 A 
ATOM      6  C   UNL     1      10.359  11.432  -1.806  1.00  0.00     0.046 A 
ATOM      7  C   UNL     1       9.852  10.125  -1.750  1.00  0.00     0.118 A 
BRANCH   7   8
ATOM      8  O   UNL     1       8.478   9.916  -1.622  1.00  0.00    -0.508 OA
ATOM      9  H   UNL     1       7.966   9.333  -2.273  1.00  0.00     0.293 HD
ENDBRANCH   7   8
ENDBRANCH   1   2
BRANCH   1  10
ATOM     10  C   UNL     1      11.047   6.746  -0.857  1.00  0.00     0.040 C 
BRANCH  10  11
ATOM     11  C   UNL     1      11.511   5.495  -1.554  1.00  0.00    -0.040 A 
ATOM     12  C   UNL     1      10.576   4.563  -2.032  1.00  0.00     0.050 A 
ATOM     13  C   UNL     1      12.882   5.224  -1.682  1.00  0.00     0.050 A 
ATOM     14  C   UNL     1      11.005   3.385  -2.651  1.00  0.00     0.119 A 
ATOM     15  C   UNL     1      13.315   4.043  -2.301  1.00  0.00     0.119 A 
ATOM     16  C   UNL     1      12.375   3.127  -2.788  1.00  0.00     0.092 A 
BRANCH  14  17
ATOM     17  O   UNL     1      10.062   2.475  -3.125  1.00  0.00    -0.508 OA
ATOM     18  H   UNL     1       9.245   2.226  -2.579  1.00  0.00     0.293 HD
ENDBRANCH  14  17
BRANCH  15  19
ATOM     19  O   UNL     1      14.674   3.769  -2.437  1.00  0.00    -0.508 OA
ATOM     20  H   UNL     1      15.288   3.724  -1.633  1.00  0.00     0.293 HD
ENDBRANCH  15  19
ENDBRANCH  10  11
ENDBRANCH   1  10
TORSDOF 6
ENDMDL
MODEL 2
REMARK VINA RESULT:    -4.140      2.270      6.578
REMARK INTER + INTRA:          -5.748
REMARK INTER:                  -5.354
REMARK INTRA:                  -0.393
REMARK UNBOUND:                -0.519
REMARK SMILES Oc1cc(O)cc(CCc2ccccc2O)c1
REMARK SMILES IDX 9 1 10 2 12 3 13 4 11 5 14 6 15 7 16 8 8 10 7 11 6 12 17 13
REMARK SMILES IDX 4 14 2 15 3 16 5 17 1 19
REMARK H PARENT 16 9 5 18 1 20
REMARK Flexibility Score: inf
ROOT
ATOM      1  C   UNL     1      12.888   4.404  -0.974  1.00  0.00     0.044 C 
ENDROOT
BRANCH   1   2
ATOM      2  C   UNL     1      13.974   3.503  -1.506  1.00  0.00    -0.006 A 
ATOM      3  C   UNL     1      16.259   2.679  -1.381  1.00  0.00     0.001 A 
ATOM      4  C   UNL     1      16.001   1.789  -2.424  1.00  0.00     0.004 A 
ATOM      5  C   UNL     1      15.250   3.529  -0.919  1.00  0.00     0.007 A 
ATOM      6  C   UNL     1      14.732   1.740  -3.005  1.00  0.00     0.046 A 
ATOM      7  C   UNL     1      13.712   2.590  -2.549  1.00  0.00     0.118 A 
BRANCH   7   8
ATOM      8  O   UNL     1      12.443   2.526  -3.125  1.00  0.00    -0.508 OA
ATOM      9  H   UNL     1      11.712   1.942  -2.737  1.00  0.00     0.293 HD
ENDBRANCH   7   8
ENDBRANCH   1   2
BRANCH   1  10
ATOM     10  C   UNL     1      12.701   5.619  -1.888  1.00  0.00     0.040 C 
BRANCH  10  11
ATOM     11  C   UNL     1      11.246   5.990  -1.982  1.00  0.00    -0.040 A 
ATOM     12  C   UNL     1      10.826   7.293  -1.667  1.00  0.00     0.050 A 
ATOM     13  C   UNL     1      10.290   5.023  -2.331  1.00  0.00     0.050 A 
ATOM     14  C   UNL     1       9.470   7.631  -1.723  1.00  0.00     0.119 A 
ATOM     15  C   UNL     1       8.930   5.359  -2.386  1.00  0.00     0.119 A 
ATOM     16  C   UNL     1       8.523   6.664  -2.085  1.00  0.00     0.092 A 
BRANCH  14  17
ATOM     17  O   UNL     1       9.073   8.930  -1.413  1.00  0.00    -0.508 OA
ATOM     18  H   UNL     1       9.533   9.466  -0.686  1.00  0.00     0.293 HD
ENDBRANCH  14  17
BRANCH  15  19
ATOM     19  O   UNL     1       7.977   4.407  -2.738  1.00  0.00    -0.508 OA
ATOM     20  H   UNL     1       8.128   3.766  -3.507  1.00  0.00     0.293 HD
ENDBRANCH  15  19
ENDBRANCH  10  11
ENDBRANCH   1  10
TORSDOF 6
ENDMDL
MODEL 3
REMARK VINA RESULT:    -4.139      2.195      6.390
REMARK INTER + INTRA:          -5.746
REMARK INTER:                  -5.307
REMARK INTRA:                  -0.440
REMARK UNBOUND:                -0.519
REMARK SMILES Oc1cc(O)cc(CCc2ccccc2O)c1
REMARK SMILES IDX 9 1 10 2 12 3 13 4 11 5 14 6 15 7 16 8 8 10 7 11 6 12 17 13
REMARK SMILES IDX 4 14 2 15 3 16 5 17 1 19
REMARK H PARENT 16 9 5 18 1 20
REMARK Flexibility Score: inf
ROOT
ATOM      1  C   UNL     1      12.787   4.365  -0.875  1.00  0.00     0.044 C 
ENDROOT
BRANCH   1   2
ATOM      2  C   UNL     1      13.870   3.503  -1.473  1.00  0.00    -0.006 A 
ATOM      3  C   UNL     1      16.162   2.689  -1.429  1.00  0.00     0.001 A 
ATOM      4  C   UNL     1      15.893   1.858  -2.518  1.00  0.00     0.004 A 
ATOM      5  C   UNL     1      15.155   3.504  -0.904  1.00  0.00     0.007 A 
ATOM      6  C   UNL     1      14.617   1.835  -3.083  1.00  0.00     0.046 A 
ATOM      7  C   UNL     1      13.599   2.651  -2.564  1.00  0.00     0.118 A 
BRANCH   7   8
ATOM      8  O   UNL     1      12.322   2.612  -3.125  1.00  0.00    -0.508 OA
ATOM      9  H   UNL     1      11.491   2.548  -2.550  1.00  0.00     0.293 HD
ENDBRANCH   7   8
ENDBRANCH   1   2
BRANCH   1  10
ATOM     10  C   UNL     1      12.674   5.691  -1.633  1.00  0.00     0.040 C 
BRANCH  10  11
ATOM     11  C   UNL     1      11.232   6.095  -1.778  1.00  0.00    -0.040 A 
ATOM     12  C   UNL     1      10.267   5.149  -2.159  1.00  0.00     0.050 A 
ATOM     13  C   UNL     1      10.849   7.433  -1.589  1.00  0.00     0.050 A 
ATOM     14  C   UNL     1       8.931   5.529  -2.327  1.00  0.00     0.119 A 
ATOM     15  C   UNL     1       9.511   7.817  -1.757  1.00  0.00     0.119 A 
ATOM     16  C   UNL     1       8.554   6.863  -2.123  1.00  0.00     0.092 A 
BRANCH  14  17
ATOM     17  O   UNL     1       7.987   4.575  -2.699  1.00  0.00    -0.508 OA
ATOM     18  H   UNL     1       7.033   4.833  -2.926  1.00  0.00     0.293 HD
ENDBRANCH  14  17
BRANCH  15  19
ATOM     19  O   UNL     1       9.123   9.140  -1.565  1.00  0.00    -0.508 OA
ATOM     20  H   UNL     1       8.147   9.413  -1.582  1.00  0.00     0.293 HD
ENDBRANCH  15  19
ENDBRANCH  10  11
ENDBRANCH   1  10
TORSDOF 6
ENDMDL
MODEL 4
REMARK VINA RESULT:    -4.022      0.474      2.092
REMARK INTER + INTRA:          -5.600
REMARK INTER:                  -5.123
REMARK INTRA:                  -0.477
REMARK UNBOUND:                -0.519
REMARK SMILES Oc1cc(O)cc(CCc2ccccc2O)c1
REMARK SMILES IDX 9 1 10 2 12 3 13 4 11 5 14 6 15 7 16 8 8 10 7 11 6 12 17 13
REMARK SMILES IDX 4 14 2 15 3 16 5 17 1 19
REMARK H PARENT 16 9 5 18 1 20
REMARK Flexibility Score: inf
ROOT
ATOM      1  C   UNL     1      10.294   7.279  -1.629  1.00  0.00     0.044 C 
ENDROOT
BRANCH   1   2
ATOM      2  C   UNL     1      10.524   8.769  -1.642  1.00  0.00    -0.006 A 
ATOM      3  C   UNL     1      12.066  10.649  -1.718  1.00  0.00     0.001 A 
ATOM      4  C   UNL     1      10.989  11.538  -1.737  1.00  0.00     0.004 A 
ATOM      5  C   UNL     1      11.836   9.271  -1.676  1.00  0.00     0.007 A 
ATOM      6  C   UNL     1       9.680  11.052  -1.720  1.00  0.00     0.046 A 
ATOM      7  C   UNL     1       9.439   9.670  -1.678  1.00  0.00     0.118 A 
BRANCH   7   8
ATOM      8  O   UNL     1       8.129   9.192  -1.675  1.00  0.00    -0.508 OA
ATOM      9  H   UNL     1       7.334   9.819  -1.681  1.00  0.00     0.293 HD
ENDBRANCH   7   8
ENDBRANCH   1   2
BRANCH   1  10
ATOM     10  C   UNL     1      11.379   6.574  -0.808  1.00  0.00     0.040 C 
BRANCH  10  11
ATOM     11  C   UNL     1      11.793   5.289  -1.473  1.00  0.00    -0.040 A 
ATOM     12  C   UNL     1      13.153   4.988  -1.644  1.00  0.00     0.050 A 
ATOM     13  C   UNL     1      10.822   4.409  -1.977  1.00  0.00     0.050 A 
ATOM     14  C   UNL     1      13.541   3.810  -2.292  1.00  0.00     0.119 A 
ATOM     15  C   UNL     1      11.208   3.228  -2.627  1.00  0.00     0.119 A 
ATOM     16  C   UNL     1      12.567   2.929  -2.780  1.00  0.00     0.092 A 
BRANCH  14  17
ATOM     17  O   UNL     1      14.895   3.524  -2.447  1.00  0.00    -0.508 OA
ATOM     18  H   UNL     1      15.570   4.252  -2.653  1.00  0.00     0.293 HD
ENDBRANCH  14  17
BRANCH  15  19
ATOM     19  O   UNL     1      10.251   2.346  -3.124  1.00  0.00    -0.508 OA
ATOM     20  H   UNL     1       9.275   2.422  -2.863  1.00  0.00     0.293 HD
ENDBRANCH  15  19
ENDBRANCH  10  11
ENDBRANCH   1  10
TORSDOF 6
ENDMDL
MODEL 5
REMARK VINA RESULT:    -4.016      1.807      6.077
REMARK INTER + INTRA:          -5.592
REMARK INTER:                  -5.320
REMARK INTRA:                  -0.272
REMARK UNBOUND:                -0.519
REMARK SMILES Oc1cc(O)cc(CCc2ccccc2O)c1
REMARK SMILES IDX 9 1 10 2 12 3 13 4 11 5 14 6 15 7 16 8 8 10 7 11 6 12 17 13
REMARK SMILES IDX 4 14 2 15 3 16 5 17 1 19
REMARK H PARENT 16 9 5 18 1 20
REMARK Flexibility Score: inf
ROOT
ATOM      1  C   UNL     1      11.000   5.798  -1.120  1.00  0.00     0.044 C 
ENDROOT
BRANCH   1   2
ATOM      2  C   UNL     1      11.806   4.686  -1.742  1.00  0.00    -0.006 A 
ATOM      3  C   UNL     1      13.927   3.519  -1.980  1.00  0.00     0.001 A 
ATOM      4  C   UNL     1      13.325   2.586  -2.825  1.00  0.00     0.004 A 
ATOM      5  C   UNL     1      13.172   4.561  -1.435  1.00  0.00     0.007 A 
ATOM      6  C   UNL     1      11.965   2.689  -3.125  1.00  0.00     0.046 A 
ATOM      7  C   UNL     1      11.198   3.732  -2.584  1.00  0.00     0.118 A 
BRANCH   7   8
ATOM      8  O   UNL     1       9.837   3.820  -2.877  1.00  0.00    -0.508 OA
ATOM      9  H   UNL     1       9.166   4.151  -2.193  1.00  0.00     0.293 HD
ENDBRANCH   7   8
ENDBRANCH   1   2
BRANCH   1  10
ATOM     10  C   UNL     1      10.619   6.841  -2.175  1.00  0.00     0.040 C 
BRANCH  10  11
ATOM     11  C   UNL     1      11.587   7.993  -2.152  1.00  0.00    -0.040 A 
ATOM     12  C   UNL     1      11.174   9.256  -1.697  1.00  0.00     0.050 A 
ATOM     13  C   UNL     1      12.894   7.828  -2.638  1.00  0.00     0.050 A 
ATOM     14  C   UNL     1      12.063  10.336  -1.706  1.00  0.00     0.119 A 
ATOM     15  C   UNL     1      13.787   8.909  -2.649  1.00  0.00     0.119 A 
ATOM     16  C   UNL     1      13.370  10.160  -2.179  1.00  0.00     0.092 A 
BRANCH  14  17
ATOM     17  O   UNL     1      11.638  11.580  -1.245  1.00  0.00    -0.508 OA
ATOM     18  H   UNL     1      11.930  12.440  -1.694  1.00  0.00     0.293 HD
ENDBRANCH  14  17
BRANCH  15  19
ATOM     19  O   UNL     1      15.086   8.752  -3.123  1.00  0.00    -0.508 OA
ATOM     20  H   UNL     1      15.274   8.317  -4.019  1.00  0.00     0.293 HD
ENDBRANCH  15  19
ENDBRANCH  10  11
ENDBRANCH   1  10
TORSDOF 6
ENDMDL
MODEL 6
REMARK VINA RESULT:    -4.007      1.821      6.234
REMARK INTER + INTRA:          -5.580
REMARK INTER:                  -5.285
REMARK INTRA:                  -0.295
REMARK UNBOUND:                -0.519
REMARK SMILES Oc1cc(O)cc(CCc2ccccc2O)c1
REMARK SMILES IDX 9 1 10 2 12 3 13 4 11 5 14 6 15 7 16 8 8 10 7 11 6 12 17 13
REMARK SMILES IDX 4 14 2 15 3 16 5 17 1 19
REMARK H PARENT 16 9 5 18 1 20
REMARK Flexibility Score: inf
ROOT
ATOM      1  C   UNL     1      11.041   5.894  -1.123  1.00  0.00     0.044 C 
ENDROOT
BRANCH   1   2
ATOM      2  C   UNL     1      11.762   4.745  -1.781  1.00  0.00    -0.006 A 
ATOM      3  C   UNL     1      13.823   3.511  -2.168  1.00  0.00     0.001 A 
ATOM      4  C   UNL     1      13.125   2.577  -2.935  1.00  0.00     0.004 A 
ATOM      5  C   UNL     1      13.145   4.588  -1.589  1.00  0.00     0.007 A 
ATOM      6  C   UNL     1      11.748   2.711  -3.121  1.00  0.00     0.046 A 
ATOM      7  C   UNL     1      11.059   3.789  -2.544  1.00  0.00     0.118 A 
BRANCH   7   8
ATOM      8  O   UNL     1       9.680   3.909  -2.722  1.00  0.00    -0.508 OA
ATOM      9  H   UNL     1       9.280   4.158  -3.619  1.00  0.00     0.293 HD
ENDBRANCH   7   8
ENDBRANCH   1   2
BRANCH   1  10
ATOM     10  C   UNL     1      10.621   6.934  -2.166  1.00  0.00     0.040 C 
BRANCH  10  11
ATOM     11  C   UNL     1      11.583   8.091  -2.176  1.00  0.00    -0.040 A 
ATOM     12  C   UNL     1      12.893   7.917  -2.651  1.00  0.00     0.050 A 
ATOM     13  C   UNL     1      11.196   9.338  -1.659  1.00  0.00     0.050 A 
ATOM     14  C   UNL     1      13.799   8.982  -2.631  1.00  0.00     0.119 A 
ATOM     15  C   UNL     1      12.103  10.407  -1.638  1.00  0.00     0.119 A 
ATOM     16  C   UNL     1      13.402  10.228  -2.127  1.00  0.00     0.092 A 
BRANCH  14  17
ATOM     17  O   UNL     1      15.093   8.793  -3.112  1.00  0.00    -0.508 OA
ATOM     18  H   UNL     1      15.342   7.973  -3.654  1.00  0.00     0.293 HD
ENDBRANCH  14  17
BRANCH  15  19
ATOM     19  O   UNL     1      11.725  11.648  -1.133  1.00  0.00    -0.508 OA
ATOM     20  H   UNL     1      11.159  12.291  -1.675  1.00  0.00     0.293 HD
ENDBRANCH  15  19
ENDBRANCH  10  11
ENDBRANCH   1  10
TORSDOF 6
ENDMDL
MODEL 7
REMARK VINA RESULT:    -3.927      1.249      2.655
REMARK INTER + INTRA:          -5.478
REMARK INTER:                  -5.046
REMARK INTRA:                  -0.432
REMARK UNBOUND:                -0.519
REMARK SMILES Oc1cc(O)cc(CCc2ccccc2O)c1
REMARK SMILES IDX 9 1 10 2 12 3 13 4 11 5 14 6 15 7 16 8 8 10 7 11 6 12 17 13
REMARK SMILES IDX 4 14 2 15 3 16 5 17 1 19
REMARK H PARENT 16 9 5 18 1 20
REMARK Flexibility Score: inf
ROOT
ATOM      1  C   UNL     1      11.125   7.819  -2.276  1.00  0.00     0.044 C 
ENDROOT
BRANCH   1   2
ATOM      2  C   UNL     1      12.333   8.714  -2.383  1.00  0.00    -0.006 A 
ATOM      3  C   UNL     1      14.624   9.059  -3.125  1.00  0.00     0.001 A 
ATOM      4  C   UNL     1      14.581  10.375  -2.662  1.00  0.00     0.004 A 
ATOM      5  C   UNL     1      13.505   8.232  -2.992  1.00  0.00     0.007 A 
ATOM      6  C   UNL     1      13.418  10.871  -2.070  1.00  0.00     0.046 A 
ATOM      7  C   UNL     1      12.289  10.049  -1.932  1.00  0.00     0.118 A 
BRANCH   7   8
ATOM      8  O   UNL     1      11.126  10.556  -1.352  1.00  0.00    -0.508 OA
ATOM      9  H   UNL     1      10.581  10.015  -0.691  1.00  0.00     0.293 HD
ENDBRANCH   7   8
ENDBRANCH   1   2
BRANCH   1  10
ATOM     10  C   UNL     1      11.295   6.817  -1.130  1.00  0.00     0.040 C 
BRANCH  10  11
ATOM     11  C   UNL     1      11.698   5.469  -1.662  1.00  0.00    -0.040 A 
ATOM     12  C   UNL     1      13.055   5.116  -1.742  1.00  0.00     0.050 A 
ATOM     13  C   UNL     1      10.724   4.575  -2.134  1.00  0.00     0.050 A 
ATOM     14  C   UNL     1      13.433   3.876  -2.267  1.00  0.00     0.119 A 
ATOM     15  C   UNL     1      11.100   3.331  -2.661  1.00  0.00     0.119 A 
ATOM     16  C   UNL     1      12.455   2.983  -2.723  1.00  0.00     0.092 A 
BRANCH  14  17
ATOM     17  O   UNL     1      14.784   3.541  -2.333  1.00  0.00    -0.508 OA
ATOM     18  H   UNL     1      15.289   3.213  -1.517  1.00  0.00     0.293 HD
ENDBRANCH  14  17
BRANCH  15  19
ATOM     19  O   UNL     1      10.140   2.436  -3.125  1.00  0.00    -0.508 OA
ATOM     20  H   UNL     1      10.116   2.139  -4.093  1.00  0.00     0.293 HD
ENDBRANCH  15  19
ENDBRANCH  10  11
ENDBRANCH   1  10
TORSDOF 6
ENDMDL
MODEL 8
REMARK VINA RESULT:    -3.845      2.576      6.785
REMARK INTER + INTRA:          -5.376
REMARK INTER:                  -4.858
REMARK INTRA:                  -0.517
REMARK UNBOUND:                -0.519
REMARK SMILES Oc1cc(O)cc(CCc2ccccc2O)c1
REMARK SMILES IDX 9 1 10 2 12 3 13 4 11 5 14 6 15 7 16 8 8 10 7 11 6 12 17 13
REMARK SMILES IDX 4 14 2 15 3 16 5 17 1 19
REMARK H PARENT 16 9 5 18 1 20
REMARK Flexibility Score: inf
ROOT
ATOM      1  C   UNL     1      11.296   8.701  -2.804  1.00  0.00     0.044 C 
ENDROOT
BRANCH   1   2
ATOM      2  C   UNL     1      11.487   7.388  -2.089  1.00  0.00    -0.006 A 
ATOM      3  C   UNL     1      12.877   5.451  -1.604  1.00  0.00     0.001 A 
ATOM      4  C   UNL     1      11.908   4.970  -0.722  1.00  0.00     0.004 A 
ATOM      5  C   UNL     1      12.672   6.657  -2.281  1.00  0.00     0.007 A 
ATOM      6  C   UNL     1      10.733   5.695  -0.510  1.00  0.00     0.046 A 
ATOM      7  C   UNL     1      10.517   6.906  -1.186  1.00  0.00     0.118 A 
BRANCH   7   8
ATOM      8  O   UNL     1       9.347   7.631  -0.958  1.00  0.00    -0.508 OA
ATOM      9  H   UNL     1       8.582   7.249  -0.415  1.00  0.00     0.293 HD
ENDBRANCH   7   8
ENDBRANCH   1   2
BRANCH   1  10
ATOM     10  C   UNL     1      12.526   9.596  -2.625  1.00  0.00     0.040 C 
BRANCH  10  11
ATOM     11  C   UNL     1      12.124  10.952  -2.111  1.00  0.00    -0.040 A 
ATOM     12  C   UNL     1      10.955  11.101  -1.347  1.00  0.00     0.050 A 
ATOM     13  C   UNL     1      12.882  12.087  -2.439  1.00  0.00     0.050 A 
ATOM     14  C   UNL     1      10.561  12.365  -0.896  1.00  0.00     0.119 A 
ATOM     15  C   UNL     1      12.489  13.355  -1.989  1.00  0.00     0.119 A 
ATOM     16  C   UNL     1      11.331  13.491  -1.215  1.00  0.00     0.092 A 
BRANCH  14  17
ATOM     17  O   UNL     1       9.402  12.492  -0.133  1.00  0.00    -0.508 OA
ATOM     18  H   UNL     1       8.932  13.384  -0.030  1.00  0.00     0.293 HD
ENDBRANCH  14  17
BRANCH  15  19
ATOM     19  O   UNL     1      13.241  14.484  -2.305  1.00  0.00    -0.508 OA
ATOM     20  H   UNL     1      14.239  14.520  -2.138  1.00  0.00     0.293 HD
ENDBRANCH  15  19
ENDBRANCH  10  11
ENDBRANCH   1  10
TORSDOF 6
ENDMDL
MODEL 9
REMARK VINA RESULT:    -3.802      2.598      7.060
REMARK INTER + INTRA:          -5.321
REMARK INTER:                  -4.802
REMARK INTRA:                  -0.519
REMARK UNBOUND:                -0.519
REMARK SMILES Oc1cc(O)cc(CCc2ccccc2O)c1
REMARK SMILES IDX 9 1 10 2 12 3 13 4 11 5 14 6 15 7 16 8 8 10 7 11 6 12 17 13
REMARK SMILES IDX 4 14 2 15 3 16 5 17 1 19
REMARK H PARENT 16 9 5 18 1 20
REMARK Flexibility Score: inf
ROOT
ATOM      1  C   UNL     1      11.694   8.797  -2.905  1.00  0.00     0.044 C 
ENDROOT
BRANCH   1   2
ATOM      2  C   UNL     1      11.681   7.482  -2.168  1.00  0.00    -0.006 A 
ATOM      3  C   UNL     1      12.809   5.417  -1.549  1.00  0.00     0.001 A 
ATOM      4  C   UNL     1      11.722   5.057  -0.751  1.00  0.00     0.004 A 
ATOM      5  C   UNL     1      12.793   6.626  -2.250  1.00  0.00     0.007 A 
ATOM      6  C   UNL     1      10.618   5.906  -0.647  1.00  0.00     0.046 A 
ATOM      7  C   UNL     1      10.592   7.121  -1.348  1.00  0.00     0.118 A 
BRANCH   7   8
ATOM      8  O   UNL     1       9.492   7.970  -1.228  1.00  0.00    -0.508 OA
ATOM      9  H   UNL     1       9.590   8.925  -0.904  1.00  0.00     0.293 HD
ENDBRANCH   7   8
ENDBRANCH   1   2
BRANCH   1  10
ATOM     10  C   UNL     1      12.816   9.698  -2.381  1.00  0.00     0.040 C 
BRANCH  10  11
ATOM     11  C   UNL     1      12.276  11.054  -2.015  1.00  0.00    -0.040 A 
ATOM     12  C   UNL     1      12.975  12.216  -2.380  1.00  0.00     0.050 A 
ATOM     13  C   UNL     1      11.101  11.166  -1.256  1.00  0.00     0.050 A 
ATOM     14  C   UNL     1      12.493  13.477  -2.012  1.00  0.00     0.119 A 
ATOM     15  C   UNL     1      10.615  12.429  -0.885  1.00  0.00     0.119 A 
ATOM     16  C   UNL     1      11.311  13.581  -1.268  1.00  0.00     0.092 A 
BRANCH  14  17
ATOM     17  O   UNL     1      13.196  14.618  -2.390  1.00  0.00    -0.508 OA
ATOM     18  H   UNL     1      13.534  15.284  -1.704  1.00  0.00     0.293 HD
ENDBRANCH  14  17
BRANCH  15  19
ATOM     19  O   UNL     1       9.446  12.548  -0.138  1.00  0.00    -0.508 OA
ATOM     20  H   UNL     1       8.659  13.093  -0.471  1.00  0.00     0.293 HD
ENDBRANCH  15  19
ENDBRANCH  10  11
ENDBRANCH   1  10
TORSDOF 6
ENDMDL
