MODEL 1
REMARK VINA RESULT:    -4.981      0.000      0.000
REMARK INTER + INTRA:          -5.438
REMARK INTER:                  -5.272
REMARK INTRA:                  -0.166
REMARK UNBOUND:                -0.166
REMARK SMILES C=C(C)[C@H]1CC=C(C)CC1
REMARK SMILES IDX 8 1 7 2 6 3 5 4 4 5 10 6 9 7 2 8 1 9 3 10
REMARK H PARENT
REMARK Flexibility Score: inf
ROOT
ATOM      1  C   UNL     1      13.604  50.590  25.110  1.00  0.00     0.039 C 
ATOM      2  C   UNL     1      12.197  50.812  24.628  1.00  0.00    -0.077 C 
ATOM      3  C   UNL     1      11.325  49.791  24.593  1.00  0.00    -0.027 C 
ATOM      4  C   UNL     1       9.909  50.045  24.158  1.00  0.00     0.035 C 
ATOM      5  C   UNL     1       9.352  51.310  24.855  1.00  0.00     0.018 C 
ATOM      6  C   UNL     1      10.361  52.505  24.879  1.00  0.00     0.013 C 
ATOM      7  C   UNL     1      11.716  52.185  24.218  1.00  0.00     0.031 C 
ENDROOT
BRANCH   5   8
ATOM      8  C   UNL     1       8.011  51.711  24.256  1.00  0.00    -0.077 C 
ATOM      9  C   UNL     1       7.898  51.993  22.947  1.00  0.00     0.008 C 
ATOM     10  C   UNL     1       6.783  51.798  25.125  1.00  0.00     0.039 C 
ENDBRANCH   5   8
TORSDOF 1
ENDMDL
MODEL 2
REMARK VINA RESULT:    -4.832      1.211      4.361
REMARK INTER + INTRA:          -5.280
REMARK INTER:                  -5.127
REMARK INTRA:                  -0.154
REMARK UNBOUND:                -0.166
REMARK SMILES C=C(C)[C@H]1CC=C(C)CC1
REMARK SMILES IDX 8 1 7 2 6 3 5 4 4 5 10 6 9 7 2 8 1 9 3 10
REMARK H PARENT
REMARK Flexibility Score: inf
ROOT
ATOM      1  C   UNL     1       6.390  52.057  25.051  1.00  0.00     0.039 C 
ATOM      2  C   UNL     1       7.719  51.730  24.429  1.00  0.00    -0.077 C 
ATOM      3  C   UNL     1       8.066  52.276  23.250  1.00  0.00    -0.027 C 
ATOM      4  C   UNL     1       9.420  51.978  22.670  1.00  0.00     0.035 C 
ATOM      5  C   UNL     1      10.511  52.113  23.759  1.00  0.00     0.018 C 
ATOM      6  C   UNL     1      10.115  51.462  25.125  1.00  0.00     0.013 C 
ATOM      7  C   UNL     1       8.711  50.827  25.124  1.00  0.00     0.031 C 
ENDROOT
BRANCH   5   8
ATOM      8  C   UNL     1      11.850  51.594  23.250  1.00  0.00    -0.077 C 
ATOM      9  C   UNL     1      11.999  51.209  21.972  1.00  0.00     0.008 C 
ATOM     10  C   UNL     1      13.034  51.506  24.177  1.00  0.00     0.039 C 
ENDBRANCH   5   8
TORSDOF 1
ENDMDL
MODEL 3
REMARK VINA RESULT:    -4.779      1.316      4.656
REMARK INTER + INTRA:          -5.225
REMARK INTER:                  -5.063
REMARK INTRA:                  -0.161
REMARK UNBOUND:                -0.166
REMARK SMILES C=C(C)[C@H]1CC=C(C)CC1
REMARK SMILES IDX 8 1 7 2 6 3 5 4 4 5 10 6 9 7 2 8 1 9 3 10
REMARK H PARENT
REMARK Flexibility Score: inf
ROOT
ATOM      1  C   UNL     1       8.062  50.284  25.123  1.00  0.00     0.039 C 
ATOM      2  C   UNL     1       9.444  50.726  24.732  1.00  0.00    -0.077 C 
ATOM      3  C   UNL     1       9.907  51.925  25.125  1.00  0.00    -0.027 C 
ATOM      4  C   UNL     1      11.310  52.328  24.768  1.00  0.00     0.035 C 
ATOM      5  C   UNL     1      12.290  51.164  25.052  1.00  0.00     0.018 C 
ATOM      6  C   UNL     1      11.760  49.771  24.576  1.00  0.00     0.013 C 
ATOM      7  C   UNL     1      10.360  49.827  23.934  1.00  0.00     0.031 C 
ENDROOT
BRANCH   5   8
ATOM      8  C   UNL     1      13.670  51.469  24.484  1.00  0.00    -0.077 C 
ATOM      9  C   UNL     1      14.779  50.996  25.076  1.00  0.00     0.008 C 
ATOM     10  C   UNL     1      13.814  52.309  23.241  1.00  0.00     0.039 C 
ENDBRANCH   5   8
TORSDOF 1
ENDMDL
MODEL 4
REMARK VINA RESULT:    -4.722      1.273      1.890
REMARK INTER + INTRA:          -5.164
REMARK INTER:                  -5.011
REMARK INTRA:                  -0.153
REMARK UNBOUND:                -0.166
REMARK SMILES C=C(C)[C@H]1CC=C(C)CC1
REMARK SMILES IDX 8 1 7 2 6 3 5 4 4 5 10 6 9 7 2 8 1 9 3 10
REMARK H PARENT
REMARK Flexibility Score: inf
ROOT
ATOM      1  C   UNL     1      13.808  51.449  24.034  1.00  0.00     0.039 C 
ATOM      2  C   UNL     1      12.308  51.355  24.070  1.00  0.00    -0.077 C 
ATOM      3  C   UNL     1      11.624  51.849  25.117  1.00  0.00    -0.027 C 
ATOM      4  C   UNL     1      10.123  51.793  25.110  1.00  0.00     0.035 C 
ATOM      5  C   UNL     1       9.575  52.258  23.739  1.00  0.00     0.018 C 
ATOM      6  C   UNL     1      10.359  51.668  22.520  1.00  0.00     0.013 C 
ATOM      7  C   UNL     1      11.531  50.752  22.922  1.00  0.00     0.031 C 
ENDROOT
BRANCH   5   8
ATOM      8  C   UNL     1       8.080  51.990  23.635  1.00  0.00    -0.077 C 
ATOM      9  C   UNL     1       7.377  51.577  24.703  1.00  0.00     0.008 C 
ATOM     10  C   UNL     1       7.360  52.186  22.326  1.00  0.00     0.039 C 
ENDBRANCH   5   8
TORSDOF 1
ENDMDL
MODEL 5
REMARK VINA RESULT:    -4.602      1.476      4.438
REMARK INTER + INTRA:          -5.037
REMARK INTER:                  -4.881
REMARK INTRA:                  -0.156
REMARK UNBOUND:                -0.166
REMARK SMILES C=C(C)[C@H]1CC=C(C)CC1
REMARK SMILES IDX 8 1 7 2 6 3 5 4 4 5 10 6 9 7 2 8 1 9 3 10
REMARK H PARENT
REMARK Flexibility Score: inf
ROOT
ATOM      1  C   UNL     1       7.330  51.762  24.042  1.00  0.00     0.039 C 
ATOM      2  C   UNL     1       8.822  51.953  24.049  1.00  0.00    -0.077 C 
ATOM      3  C   UNL     1       9.544  51.598  25.125  1.00  0.00    -0.027 C 
ATOM      4  C   UNL     1      11.039  51.747  25.092  1.00  0.00     0.035 C 
ATOM      5  C   UNL     1      11.603  51.197  23.760  1.00  0.00     0.018 C 
ATOM      6  C   UNL     1      10.773  51.626  22.505  1.00  0.00     0.013 C 
ATOM      7  C   UNL     1       9.548  52.498  22.841  1.00  0.00     0.031 C 
ENDROOT
BRANCH   5   8
ATOM      8  C   UNL     1      13.078  51.548  23.611  1.00  0.00    -0.077 C 
ATOM      9  C   UNL     1      13.623  51.734  22.398  1.00  0.00     0.008 C 
ATOM     10  C   UNL     1      13.952  51.694  24.830  1.00  0.00     0.039 C 
ENDBRANCH   5   8
TORSDOF 1
ENDMDL
MODEL 6
REMARK VINA RESULT:    -4.471      2.276      4.418
REMARK INTER + INTRA:          -4.899
REMARK INTER:                  -4.743
REMARK INTRA:                  -0.156
REMARK UNBOUND:                -0.166
REMARK SMILES C=C(C)[C@H]1CC=C(C)CC1
REMARK SMILES IDX 8 1 7 2 6 3 5 4 4 5 10 6 9 7 2 8 1 9 3 10
REMARK H PARENT
REMARK Flexibility Score: inf
ROOT
ATOM      1  C   UNL     1       8.840  52.852  18.723  1.00  0.00     0.039 C 
ATOM      2  C   UNL     1       8.572  52.836  20.203  1.00  0.00    -0.077 C 
ATOM      3  C   UNL     1       7.353  52.512  20.666  1.00  0.00    -0.027 C 
ATOM      4  C   UNL     1       7.120  52.451  22.150  1.00  0.00     0.035 C 
ATOM      5  C   UNL     1       8.269  51.678  22.841  1.00  0.00     0.018 C 
ATOM      6  C   UNL     1       9.690  52.069  22.315  1.00  0.00     0.013 C 
ATOM      7  C   UNL     1       9.667  53.134  21.201  1.00  0.00     0.031 C 
ENDROOT
BRANCH   5   8
ATOM      8  C   UNL     1       8.171  51.805  24.356  1.00  0.00    -0.077 C 
ATOM      9  C   UNL     1       9.271  51.748  25.125  1.00  0.00     0.008 C 
ATOM     10  C   UNL     1       6.832  51.998  25.018  1.00  0.00     0.039 C 
ENDBRANCH   5   8
TORSDOF 1
ENDMDL
MODEL 7
REMARK VINA RESULT:    -4.424      2.077      3.447
REMARK INTER + INTRA:          -4.849
REMARK INTER:                  -4.688
REMARK INTRA:                  -0.161
REMARK UNBOUND:                -0.166
REMARK SMILES C=C(C)[C@H]1CC=C(C)CC1
REMARK SMILES IDX 8 1 7 2 6 3 5 4 4 5 10 6 9 7 2 8 1 9 3 10
REMARK H PARENT
REMARK Flexibility Score: inf
ROOT
ATOM      1  C   UNL     1      10.698  51.748  25.118  1.00  0.00     0.039 C 
ATOM      2  C   UNL     1       9.722  51.770  23.975  1.00  0.00    -0.077 C 
ATOM      3  C   UNL     1       8.400  51.803  24.214  1.00  0.00    -0.027 C 
ATOM      4  C   UNL     1       7.443  51.878  23.058  1.00  0.00     0.035 C 
ATOM      5  C   UNL     1       7.913  52.944  22.040  1.00  0.00     0.018 C 
ATOM      6  C   UNL     1       9.449  52.893  21.747  1.00  0.00     0.013 C 
ATOM      7  C   UNL     1      10.196  51.803  22.540  1.00  0.00     0.031 C 
ENDROOT
BRANCH   5   8
ATOM      8  C   UNL     1       7.089  52.872  20.762  1.00  0.00    -0.077 C 
ATOM      9  C   UNL     1       7.492  52.121  19.724  1.00  0.00     0.008 C 
ATOM     10  C   UNL     1       5.801  53.644  20.641  1.00  0.00     0.039 C 
ENDBRANCH   5   8
TORSDOF 1
ENDMDL
MODEL 8
REMARK VINA RESULT:    -4.257      2.730      4.289
REMARK INTER + INTRA:          -4.672
REMARK INTER:                  -4.512
REMARK INTRA:                  -0.160
REMARK UNBOUND:                -0.166
REMARK SMILES C=C(C)[C@H]1CC=C(C)CC1
REMARK SMILES IDX 8 1 7 2 6 3 5 4 4 5 10 6 9 7 2 8 1 9 3 10
REMARK H PARENT
REMARK Flexibility Score: inf
ROOT
ATOM      1  C   UNL     1      10.466  52.468  18.556  1.00  0.00     0.039 C 
ATOM      2  C   UNL     1      10.417  52.568  20.055  1.00  0.00    -0.077 C 
ATOM      3  C   UNL     1       9.258  52.842  20.677  1.00  0.00    -0.027 C 
ATOM      4  C   UNL     1       9.219  52.886  22.179  1.00  0.00     0.035 C 
ATOM      5  C   UNL     1       9.964  51.665  22.770  1.00  0.00     0.018 C 
ATOM      6  C   UNL     1      11.323  51.357  22.058  1.00  0.00     0.013 C 
ATOM      7  C   UNL     1      11.646  52.319  20.898  1.00  0.00     0.031 C 
ENDROOT
BRANCH   5   8
ATOM      8  C   UNL     1      10.133  51.812  24.276  1.00  0.00    -0.077 C 
ATOM      9  C   UNL     1       9.098  51.615  25.109  1.00  0.00     0.008 C 
ATOM     10  C   UNL     1      11.472  52.183  24.859  1.00  0.00     0.039 C 
ENDBRANCH   5   8
TORSDOF 1
ENDMDL
