MODEL 1
REMARK VINA RESULT:    -6.621      0.000      0.000
REMARK INTER + INTRA:         -10.887
REMARK INTER:                  -9.911
REMARK INTRA:                  -0.977
REMARK UNBOUND:                -0.977
REMARK SMILES O=c1c(O[C@H]2O[C@@H](CO)[C@H](O)[C@@H](O)[C@H]2O)c(-c2cc(O)c(O)c(O)c2)oc2cc(O)cc(O)c12
REMARK SMILES IDX 4 1 3 2 16 3 26 4 2 5 27 6 1 7 34 8 28 9 32 10 29 11 31 12
REMARK SMILES IDX 17 13 18 14 19 15 25 16 21 17 23 18 20 19 22 21 24 23 33 25
REMARK SMILES IDX 30 27 5 29 14 30 6 31 12 32 7 33 10 34 15 35 13 37 8 39 9 40
REMARK SMILES IDX 11 42
REMARK H PARENT 20 20 22 22 24 24 33 26 30 28 15 36 13 38 9 41 11 43
REMARK Flexibility Score: inf
ROOT
ATOM      1  O   UNL     1      11.238   1.286   1.180  1.00  0.00    -0.454 OA
ENDROOT
BRANCH   1   2
ATOM      2  C   UNL     1      12.240   1.135   2.149  1.00  0.00     0.214 A 
ATOM      3  C   UNL     1      13.508   1.729   2.007  1.00  0.00     0.181 A 
ATOM      4  O   UNL     1      14.389   1.641   2.995  1.00  0.00    -0.452 OA
ATOM      5  C   UNL     1      11.970   0.379   3.295  1.00  0.00     0.239 A 
ATOM      6  C   UNL     1      14.161   0.976   4.121  1.00  0.00     0.146 A 
ATOM      7  O   UNL     1      10.858  -0.202   3.372  1.00  0.00    -0.285 OA
ATOM      8  C   UNL     1      12.933   0.293   4.333  1.00  0.00     0.111 A 
ATOM      9  C   UNL     1      15.166   0.952   5.089  1.00  0.00     0.094 A 
ATOM     10  C   UNL     1      12.755  -0.417   5.562  1.00  0.00     0.134 A 
ATOM     11  C   UNL     1      14.986   0.251   6.277  1.00  0.00     0.123 A 
ATOM     12  C   UNL     1      13.790  -0.429   6.507  1.00  0.00     0.093 A 
BRANCH   3  13
ATOM     13  C   UNL     1      13.916   2.437   0.774  1.00  0.00     0.029 A 
ATOM     14  C   UNL     1      13.157   2.293  -0.394  1.00  0.00     0.062 A 
ATOM     15  C   UNL     1      13.527   2.962  -1.568  1.00  0.00     0.162 A 
ATOM     16  C   UNL     1      15.026   3.295   0.770  1.00  0.00     0.062 A 
ATOM     17  C   UNL     1      14.653   3.798  -1.581  1.00  0.00     0.200 A 
ATOM     18  C   UNL     1      15.405   3.972  -0.394  1.00  0.00     0.162 A 
BRANCH  15  19
ATOM     19  O   UNL     1      12.778   2.798  -2.732  1.00  0.00    -0.504 OA
ATOM     20  H   UNL     1      12.150   3.520  -3.065  1.00  0.00     0.293 HD
ENDBRANCH  15  19
BRANCH  17  21
ATOM     21  O   UNL     1      14.988   4.430  -2.780  1.00  0.00    -0.502 OA
ATOM     22  H   UNL     1      15.496   5.300  -2.838  1.00  0.00     0.293 HD
ENDBRANCH  17  21
BRANCH  18  23
ATOM     23  O   UNL     1      16.523   4.807  -0.325  1.00  0.00    -0.504 OA
ATOM     24  H   UNL     1      16.814   5.426  -1.069  1.00  0.00     0.293 HD
ENDBRANCH  18  23
ENDBRANCH   3  13
BRANCH  10  25
ATOM     25  O   UNL     1      11.598  -1.120   5.917  1.00  0.00    -0.507 OA
ATOM     26  H   UNL     1      11.454  -2.113   5.837  1.00  0.00     0.293 HD
ENDBRANCH  10  25
BRANCH  11  27
ATOM     27  O   UNL     1      16.005   0.238   7.229  1.00  0.00    -0.508 OA
ATOM     28  H   UNL     1      16.012  -0.433   7.988  1.00  0.00     0.293 HD
ENDBRANCH  11  27
ENDBRANCH   1   2
BRANCH   1  29
ATOM     29  C   UNL     1      10.011   1.980   1.421  1.00  0.00     0.339 C 
ATOM     30  C   UNL     1       8.966   1.590   0.341  1.00  0.00     0.214 C 
ATOM     31  O   UNL     1      10.299   3.372   1.532  1.00  0.00    -0.332 OA
ATOM     32  C   UNL     1       9.267   2.268  -1.015  1.00  0.00     0.180 C 
ATOM     33  C   UNL     1       9.625   4.201   0.601  1.00  0.00     0.179 C 
ATOM     34  C   UNL     1       9.847   3.697  -0.842  1.00  0.00     0.177 C 
BRANCH  30  35
ATOM     35  O   UNL     1       8.898   0.196   0.184  1.00  0.00    -0.384 OA
ATOM     36  H   UNL     1       8.305  -0.146   0.903  1.00  0.00     0.211 HD
ENDBRANCH  30  35
BRANCH  32  37
ATOM     37  O   UNL     1      10.111   1.479  -1.817  1.00  0.00    -0.387 OA
ATOM     38  H   UNL     1      10.850   2.056  -2.141  1.00  0.00     0.211 HD
ENDBRANCH  32  37
BRANCH  33  39
ATOM     39  C   UNL     1      10.148   5.636   0.769  1.00  0.00     0.191 C 
BRANCH  39  40
ATOM     40  O   UNL     1       9.308   6.543   0.104  1.00  0.00    -0.394 OA
ATOM     41  H   UNL     1       9.731   7.437   0.180  1.00  0.00     0.210 HD
ENDBRANCH  39  40
ENDBRANCH  33  39
BRANCH  34  42
ATOM     42  O   UNL     1       9.236   4.571  -1.757  1.00  0.00    -0.387 OA
ATOM     43  H   UNL     1       9.482   4.251  -2.663  1.00  0.00     0.211 HD
ENDBRANCH  34  42
ENDBRANCH   1  29
TORSDOF 13
ENDMDL
MODEL 2
REMARK VINA RESULT:    -5.941      1.956      5.050
REMARK INTER + INTRA:          -9.870
REMARK INTER:                  -8.496
REMARK INTRA:                  -1.374
REMARK UNBOUND:                -0.977
REMARK SMILES O=c1c(O[C@H]2O[C@@H](CO)[C@H](O)[C@@H](O)[C@H]2O)c(-c2cc(O)c(O)c(O)c2)oc2cc(O)cc(O)c12
REMARK SMILES IDX 4 1 3 2 16 3 26 4 2 5 27 6 1 7 34 8 28 9 32 10 29 11 31 12
REMARK SMILES IDX 17 13 18 14 19 15 25 16 21 17 23 18 20 19 22 21 24 23 33 25
REMARK SMILES IDX 30 27 5 29 14 30 6 31 12 32 7 33 10 34 15 35 13 37 8 39 9 40
REMARK SMILES IDX 11 42
REMARK H PARENT 20 20 22 22 24 24 33 26 30 28 15 36 13 38 9 41 11 43
REMARK Flexibility Score: inf
ROOT
ATOM      1  O   UNL     1      13.802   2.746   0.960  1.00  0.00    -0.454 OA
ENDROOT
BRANCH   1   2
ATOM      2  C   UNL     1      13.710   2.017   2.154  1.00  0.00     0.214 A 
ATOM      3  C   UNL     1      12.666   1.103   2.390  1.00  0.00     0.181 A 
ATOM      4  O   UNL     1      12.676   0.364   3.491  1.00  0.00    -0.452 OA
ATOM      5  C   UNL     1      14.689   2.196   3.138  1.00  0.00     0.239 A 
ATOM      6  C   UNL     1      13.608   0.463   4.430  1.00  0.00     0.146 A 
ATOM      7  O   UNL     1      15.573   3.068   2.941  1.00  0.00    -0.285 OA
ATOM      8  C   UNL     1      14.671   1.400   4.312  1.00  0.00     0.111 A 
ATOM      9  C   UNL     1      13.513  -0.367   5.548  1.00  0.00     0.094 A 
ATOM     10  C   UNL     1      15.636   1.467   5.365  1.00  0.00     0.134 A 
ATOM     11  C   UNL     1      14.452  -0.287   6.571  1.00  0.00     0.123 A 
ATOM     12  C   UNL     1      15.502   0.626   6.478  1.00  0.00     0.093 A 
BRANCH   3  13
ATOM     13  C   UNL     1      11.528   0.946   1.459  1.00  0.00     0.029 A 
ATOM     14  C   UNL     1      11.597   0.001   0.429  1.00  0.00     0.062 A 
ATOM     15  C   UNL     1      10.525  -0.164  -0.458  1.00  0.00     0.162 A 
ATOM     16  C   UNL     1      10.353   1.697   1.623  1.00  0.00     0.062 A 
ATOM     17  C   UNL     1       9.361   0.606  -0.311  1.00  0.00     0.200 A 
ATOM     18  C   UNL     1       9.273   1.540   0.748  1.00  0.00     0.162 A 
BRANCH  15  19
ATOM     19  O   UNL     1      10.609  -1.094  -1.493  1.00  0.00    -0.504 OA
ATOM     20  H   UNL     1      11.153  -0.912  -2.327  1.00  0.00     0.293 HD
ENDBRANCH  15  19
BRANCH  17  21
ATOM     21  O   UNL     1       8.327   0.413  -1.230  1.00  0.00    -0.502 OA
ATOM     22  H   UNL     1       8.328  -0.303  -1.941  1.00  0.00     0.293 HD
ENDBRANCH  17  21
BRANCH  18  23
ATOM     23  O   UNL     1       8.138   2.324   0.971  1.00  0.00    -0.504 OA
ATOM     24  H   UNL     1       7.874   3.112   0.398  1.00  0.00     0.293 HD
ENDBRANCH  18  23
ENDBRANCH   3  13
BRANCH  10  25
ATOM     25  O   UNL     1      16.742   2.326   5.380  1.00  0.00    -0.507 OA
ATOM     26  H   UNL     1      17.616   2.166   5.853  1.00  0.00     0.293 HD
ENDBRANCH  10  25
BRANCH  11  27
ATOM     27  O   UNL     1      14.334  -1.124   7.680  1.00  0.00    -0.508 OA
ATOM     28  H   UNL     1      14.063  -2.095   7.583  1.00  0.00     0.293 HD
ENDBRANCH  11  27
ENDBRANCH   1   2
BRANCH   1  29
ATOM     29  C   UNL     1      14.793   2.494  -0.040  1.00  0.00     0.339 C 
ATOM     30  C   UNL     1      14.672   3.543  -1.177  1.00  0.00     0.214 C 
ATOM     31  O   UNL     1      14.687   1.129  -0.440  1.00  0.00    -0.332 OA
ATOM     32  C   UNL     1      13.455   3.260  -2.086  1.00  0.00     0.180 C 
ATOM     33  C   UNL     1      14.433   0.926  -1.819  1.00  0.00     0.179 C 
ATOM     34  C   UNL     1      13.202   1.741  -2.275  1.00  0.00     0.177 C 
BRANCH  30  35
ATOM     35  O   UNL     1      14.598   4.846  -0.656  1.00  0.00    -0.384 OA
ATOM     36  H   UNL     1      15.149   4.858   0.169  1.00  0.00     0.211 HD
ENDBRANCH  30  35
BRANCH  32  37
ATOM     37  O   UNL     1      12.295   3.907  -1.622  1.00  0.00    -0.387 OA
ATOM     38  H   UNL     1      11.783   3.257  -1.074  1.00  0.00     0.211 HD
ENDBRANCH  32  37
BRANCH  33  39
ATOM     39  C   UNL     1      14.215  -0.577  -2.051  1.00  0.00     0.191 C 
BRANCH  39  40
ATOM     40  O   UNL     1      15.300  -1.125  -2.753  1.00  0.00    -0.394 OA
ATOM     41  H   UNL     1      15.479  -0.524  -3.521  1.00  0.00     0.210 HD
ENDBRANCH  39  40
ENDBRANCH  33  39
BRANCH  34  42
ATOM     42  O   UNL     1      12.919   1.471  -3.624  1.00  0.00    -0.387 OA
ATOM     43  H   UNL     1      13.594   0.810  -3.929  1.00  0.00     0.211 HD
ENDBRANCH  34  42
ENDBRANCH   1  29
TORSDOF 13
ENDMDL
MODEL 3
REMARK VINA RESULT:    -5.849      1.919      2.348
REMARK INTER + INTRA:          -9.733
REMARK INTER:                  -8.059
REMARK INTRA:                  -1.674
REMARK UNBOUND:                -0.977
REMARK SMILES O=c1c(O[C@H]2O[C@@H](CO)[C@H](O)[C@@H](O)[C@H]2O)c(-c2cc(O)c(O)c(O)c2)oc2cc(O)cc(O)c12
REMARK SMILES IDX 4 1 3 2 16 3 26 4 2 5 27 6 1 7 34 8 28 9 32 10 29 11 31 12
REMARK SMILES IDX 17 13 18 14 19 15 25 16 21 17 23 18 20 19 22 21 24 23 33 25
REMARK SMILES IDX 30 27 5 29 14 30 6 31 12 32 7 33 10 34 15 35 13 37 8 39 9 40
REMARK SMILES IDX 11 42
REMARK H PARENT 20 20 22 22 24 24 33 26 30 28 15 36 13 38 9 41 11 43
REMARK Flexibility Score: inf
ROOT
ATOM      1  O   UNL     1      10.112   0.510   1.128  1.00  0.00    -0.454 OA
ENDROOT
BRANCH   1   2
ATOM      2  C   UNL     1      10.755   0.201   2.335  1.00  0.00     0.214 A 
ATOM      3  C   UNL     1      12.148   0.334   2.491  1.00  0.00     0.181 A 
ATOM      4  O   UNL     1      12.698   0.126   3.680  1.00  0.00    -0.452 OA
ATOM      5  C   UNL     1       9.991  -0.244   3.420  1.00  0.00     0.239 A 
ATOM      6  C   UNL     1      12.009  -0.250   4.749  1.00  0.00     0.146 A 
ATOM      7  O   UNL     1       8.760  -0.425   3.241  1.00  0.00    -0.285 OA
ATOM      8  C   UNL     1      10.606  -0.469   4.677  1.00  0.00     0.111 A 
ATOM      9  C   UNL     1      12.699  -0.441   5.948  1.00  0.00     0.094 A 
ATOM     10  C   UNL     1       9.924  -0.887   5.863  1.00  0.00     0.134 A 
ATOM     11  C   UNL     1      12.027  -0.856   7.092  1.00  0.00     0.123 A 
ATOM     12  C   UNL     1      10.651  -1.079   7.045  1.00  0.00     0.093 A 
BRANCH   3  13
ATOM     13  C   UNL     1      13.041   0.678   1.363  1.00  0.00     0.029 A 
ATOM     14  C   UNL     1      13.428  -0.315   0.455  1.00  0.00     0.062 A 
ATOM     15  C   UNL     1      14.268  -0.005  -0.622  1.00  0.00     0.162 A 
ATOM     16  C   UNL     1      13.465   2.000   1.156  1.00  0.00     0.062 A 
ATOM     17  C   UNL     1      14.716   1.311  -0.813  1.00  0.00     0.200 A 
ATOM     18  C   UNL     1      14.301   2.325   0.083  1.00  0.00     0.162 A 
BRANCH  15  19
ATOM     19  O   UNL     1      14.666  -1.002  -1.510  1.00  0.00    -0.504 OA
ATOM     20  H   UNL     1      14.681  -0.847  -2.511  1.00  0.00     0.293 HD
ENDBRANCH  15  19
BRANCH  17  21
ATOM     21  O   UNL     1      15.564   1.565  -1.893  1.00  0.00    -0.502 OA
ATOM     22  H   UNL     1      16.524   1.256  -1.944  1.00  0.00     0.293 HD
ENDBRANCH  17  21
BRANCH  18  23
ATOM     23  O   UNL     1      14.687   3.660  -0.058  1.00  0.00    -0.504 OA
ATOM     24  H   UNL     1      14.367   4.408   0.542  1.00  0.00     0.293 HD
ENDBRANCH  18  23
ENDBRANCH   3  13
BRANCH  10  25
ATOM     25  O   UNL     1       8.547  -1.125   5.949  1.00  0.00    -0.507 OA
ATOM     26  H   UNL     1       7.862  -0.520   6.368  1.00  0.00     0.293 HD
ENDBRANCH  10  25
BRANCH  11  27
ATOM     27  O   UNL     1      12.737  -1.043   8.277  1.00  0.00    -0.508 OA
ATOM     28  H   UNL     1      13.195  -1.922   8.487  1.00  0.00     0.293 HD
ENDBRANCH  11  27
ENDBRANCH   1   2
BRANCH   1  29
ATOM     29  C   UNL     1       9.174   1.581   0.990  1.00  0.00     0.339 C 
ATOM     30  C   UNL     1       8.710   1.685  -0.488  1.00  0.00     0.214 C 
ATOM     31  O   UNL     1       9.757   2.759   1.542  1.00  0.00    -0.332 OA
ATOM     32  C   UNL     1       9.800   2.313  -1.385  1.00  0.00     0.180 C 
ATOM     33  C   UNL     1       9.877   3.848   0.643  1.00  0.00     0.179 C 
ATOM     34  C   UNL     1      10.606   3.414  -0.647  1.00  0.00     0.177 C 
BRANCH  30  35
ATOM     35  O   UNL     1       8.331   0.428  -0.989  1.00  0.00    -0.384 OA
ATOM     36  H   UNL     1       8.629   0.394  -1.935  1.00  0.00     0.211 HD
ENDBRANCH  30  35
BRANCH  32  37
ATOM     37  O   UNL     1      10.660   1.337  -1.922  1.00  0.00    -0.387 OA
ATOM     38  H   UNL     1      10.453   0.473  -1.481  1.00  0.00     0.211 HD
ENDBRANCH  32  37
BRANCH  33  39
ATOM     39  C   UNL     1      10.639   4.976   1.354  1.00  0.00     0.191 C 
BRANCH  39  40
ATOM     40  O   UNL     1      11.978   5.001   0.933  1.00  0.00    -0.394 OA
ATOM     41  H   UNL     1      12.184   5.939   0.683  1.00  0.00     0.210 HD
ENDBRANCH  39  40
ENDBRANCH  33  39
BRANCH  34  42
ATOM     42  O   UNL     1      10.783   4.521  -1.495  1.00  0.00    -0.387 OA
ATOM     43  H   UNL     1      10.844   5.320  -0.910  1.00  0.00     0.211 HD
ENDBRANCH  34  42
ENDBRANCH   1  29
TORSDOF 13
ENDMDL
MODEL 4
REMARK VINA RESULT:    -5.778      1.607      4.839
REMARK INTER + INTRA:          -9.625
REMARK INTER:                  -8.062
REMARK INTRA:                  -1.563
REMARK UNBOUND:                -0.977
REMARK SMILES O=c1c(O[C@H]2O[C@@H](CO)[C@H](O)[C@@H](O)[C@H]2O)c(-c2cc(O)c(O)c(O)c2)oc2cc(O)cc(O)c12
REMARK SMILES IDX 4 1 3 2 16 3 26 4 2 5 27 6 1 7 34 8 28 9 32 10 29 11 31 12
REMARK SMILES IDX 17 13 18 14 19 15 25 16 21 17 23 18 20 19 22 21 24 23 33 25
REMARK SMILES IDX 30 27 5 29 14 30 6 31 12 32 7 33 10 34 15 35 13 37 8 39 9 40
REMARK SMILES IDX 11 42
REMARK H PARENT 20 20 22 22 24 24 33 26 30 28 15 36 13 38 9 41 11 43
REMARK Flexibility Score: inf
ROOT
ATOM      1  O   UNL     1      14.663   2.919   1.205  1.00  0.00    -0.454 OA
ENDROOT
BRANCH   1   2
ATOM      2  C   UNL     1      14.069   2.252   2.286  1.00  0.00     0.214 A 
ATOM      3  C   UNL     1      12.699   1.927   2.297  1.00  0.00     0.181 A 
ATOM      4  O   UNL     1      12.203   1.208   3.296  1.00  0.00    -0.452 OA
ATOM      5  C   UNL     1      14.860   1.891   3.383  1.00  0.00     0.239 A 
ATOM      6  C   UNL     1      12.924   0.802   4.333  1.00  0.00     0.146 A 
ATOM      7  O   UNL     1      16.064   2.253   3.387  1.00  0.00    -0.285 OA
ATOM      8  C   UNL     1      14.302   1.132   4.442  1.00  0.00     0.111 A 
ATOM      9  C   UNL     1      12.291   0.052   5.326  1.00  0.00     0.094 A 
ATOM     10  C   UNL     1      15.020   0.674   5.592  1.00  0.00     0.134 A 
ATOM     11  C   UNL     1      12.996  -0.380   6.444  1.00  0.00     0.123 A 
ATOM     12  C   UNL     1      14.349  -0.066   6.574  1.00  0.00     0.093 A 
BRANCH   3  13
ATOM     13  C   UNL     1      11.771   2.379   1.239  1.00  0.00     0.029 A 
ATOM     14  C   UNL     1      11.393   3.726   1.174  1.00  0.00     0.062 A 
ATOM     15  C   UNL     1      10.519   4.171   0.175  1.00  0.00     0.162 A 
ATOM     16  C   UNL     1      11.301   1.487   0.262  1.00  0.00     0.062 A 
ATOM     17  C   UNL     1      10.026   3.274  -0.785  1.00  0.00     0.200 A 
ATOM     18  C   UNL     1      10.430   1.918  -0.744  1.00  0.00     0.162 A 
BRANCH  15  19
ATOM     19  O   UNL     1      10.131   5.509   0.128  1.00  0.00    -0.504 OA
ATOM     20  H   UNL     1      10.562   6.207   0.723  1.00  0.00     0.293 HD
ENDBRANCH  15  19
BRANCH  17  21
ATOM     21  O   UNL     1       9.146   3.766  -1.752  1.00  0.00    -0.502 OA
ATOM     22  H   UNL     1       8.537   4.558  -1.611  1.00  0.00     0.293 HD
ENDBRANCH  17  21
BRANCH  18  23
ATOM     23  O   UNL     1      10.001   0.974  -1.680  1.00  0.00    -0.504 OA
ATOM     24  H   UNL     1       9.098   0.522  -1.653  1.00  0.00     0.293 HD
ENDBRANCH  18  23
ENDBRANCH   3  13
BRANCH  10  25
ATOM     25  O   UNL     1      16.380   0.907   5.828  1.00  0.00    -0.507 OA
ATOM     26  H   UNL     1      17.073   0.216   6.061  1.00  0.00     0.293 HD
ENDBRANCH  10  25
BRANCH  11  27
ATOM     27  O   UNL     1      12.342  -1.125   7.424  1.00  0.00    -0.508 OA
ATOM     28  H   UNL     1      11.919  -0.682   8.232  1.00  0.00     0.293 HD
ENDBRANCH  11  27
ENDBRANCH   1   2
BRANCH   1  29
ATOM     29  C   UNL     1      15.540   2.279   0.274  1.00  0.00     0.339 C 
ATOM     30  C   UNL     1      15.715   3.174  -0.982  1.00  0.00     0.214 C 
ATOM     31  O   UNL     1      15.052   0.961   0.034  1.00  0.00    -0.332 OA
ATOM     32  C   UNL     1      14.465   3.135  -1.890  1.00  0.00     0.180 C 
ATOM     33  C   UNL     1      14.746   0.671  -1.319  1.00  0.00     0.179 C 
ATOM     34  C   UNL     1      13.793   1.736  -1.905  1.00  0.00     0.177 C 
BRANCH  30  35
ATOM     35  O   UNL     1      16.014   4.499  -0.621  1.00  0.00    -0.384 OA
ATOM     36  H   UNL     1      16.207   4.495   0.352  1.00  0.00     0.211 HD
ENDBRANCH  30  35
BRANCH  32  37
ATOM     37  O   UNL     1      13.536   4.133  -1.541  1.00  0.00    -0.387 OA
ATOM     38  H   UNL     1      13.084   3.849  -0.704  1.00  0.00     0.211 HD
ENDBRANCH  32  37
BRANCH  33  39
ATOM     39  C   UNL     1      14.111  -0.727  -1.379  1.00  0.00     0.191 C 
BRANCH  39  40
ATOM     40  O   UNL     1      12.713  -0.626  -1.445  1.00  0.00    -0.394 OA
ATOM     41  H   UNL     1      12.507   0.105  -2.082  1.00  0.00     0.210 HD
ENDBRANCH  39  40
ENDBRANCH  33  39
BRANCH  34  42
ATOM     42  O   UNL     1      13.441   1.394  -3.222  1.00  0.00    -0.387 OA
ATOM     43  H   UNL     1      13.245   0.421  -3.219  1.00  0.00     0.211 HD
ENDBRANCH  34  42
ENDBRANCH   1  29
TORSDOF 13
ENDMDL
MODEL 5
REMARK VINA RESULT:    -5.567      2.275      6.504
REMARK INTER + INTRA:          -9.310
REMARK INTER:                  -8.145
REMARK INTRA:                  -1.165
REMARK UNBOUND:                -0.977
REMARK SMILES O=c1c(O[C@H]2O[C@@H](CO)[C@H](O)[C@@H](O)[C@H]2O)c(-c2cc(O)c(O)c(O)c2)oc2cc(O)cc(O)c12
REMARK SMILES IDX 4 1 3 2 16 3 26 4 2 5 27 6 1 7 34 8 28 9 32 10 29 11 31 12
REMARK SMILES IDX 17 13 18 14 19 15 25 16 21 17 23 18 20 19 22 21 24 23 33 25
REMARK SMILES IDX 30 27 5 29 14 30 6 31 12 32 7 33 10 34 15 35 13 37 8 39 9 40
REMARK SMILES IDX 11 42
REMARK H PARENT 20 20 22 22 24 24 33 26 30 28 15 36 13 38 9 41 11 43
REMARK Flexibility Score: inf
ROOT
ATOM      1  O   UNL     1      12.378   3.191   1.822  1.00  0.00    -0.454 OA
ENDROOT
BRANCH   1   2
ATOM      2  C   UNL     1      11.716   3.866   0.787  1.00  0.00     0.214 A 
ATOM      3  C   UNL     1      12.118   3.746  -0.556  1.00  0.00     0.181 A 
ATOM      4  O   UNL     1      11.400   4.324  -1.511  1.00  0.00    -0.452 OA
ATOM      5  C   UNL     1      10.617   4.677   1.096  1.00  0.00     0.239 A 
ATOM      6  C   UNL     1      10.324   5.062  -1.272  1.00  0.00     0.146 A 
ATOM      7  O   UNL     1      10.317   4.828   2.307  1.00  0.00    -0.285 OA
ATOM      8  C   UNL     1       9.873   5.291   0.057  1.00  0.00     0.111 A 
ATOM      9  C   UNL     1       9.651   5.622  -2.358  1.00  0.00     0.094 A 
ATOM     10  C   UNL     1       8.714   6.107   0.248  1.00  0.00     0.134 A 
ATOM     11  C   UNL     1       8.530   6.421  -2.161  1.00  0.00     0.123 A 
ATOM     12  C   UNL     1       8.070   6.662  -0.865  1.00  0.00     0.093 A 
BRANCH   3  13
ATOM     13  C   UNL     1      13.339   3.013  -0.953  1.00  0.00     0.029 A 
ATOM     14  C   UNL     1      13.232   1.850  -1.726  1.00  0.00     0.062 A 
ATOM     15  C   UNL     1      14.380   1.148  -2.115  1.00  0.00     0.162 A 
ATOM     16  C   UNL     1      14.613   3.494  -0.611  1.00  0.00     0.062 A 
ATOM     17  C   UNL     1      15.652   1.612  -1.749  1.00  0.00     0.200 A 
ATOM     18  C   UNL     1      15.768   2.805  -0.995  1.00  0.00     0.162 A 
BRANCH  15  19
ATOM     19  O   UNL     1      14.264  -0.020  -2.868  1.00  0.00    -0.504 OA
ATOM     20  H   UNL     1      14.367  -0.935  -2.447  1.00  0.00     0.293 HD
ENDBRANCH  15  19
BRANCH  17  21
ATOM     21  O   UNL     1      16.763   0.867  -2.149  1.00  0.00    -0.502 OA
ATOM     22  H   UNL     1      16.811   0.342  -3.010  1.00  0.00     0.293 HD
ENDBRANCH  17  21
BRANCH  18  23
ATOM     23  O   UNL     1      17.001   3.340  -0.615  1.00  0.00    -0.504 OA
ATOM     24  H   UNL     1      17.567   2.978   0.139  1.00  0.00     0.293 HD
ENDBRANCH  18  23
ENDBRANCH   3  13
BRANCH  10  25
ATOM     25  O   UNL     1       8.146   6.407   1.492  1.00  0.00    -0.507 OA
ATOM     26  H   UNL     1       7.480   5.845   1.996  1.00  0.00     0.293 HD
ENDBRANCH  10  25
BRANCH  11  27
ATOM     27  O   UNL     1       7.875   6.973  -3.261  1.00  0.00    -0.508 OA
ATOM     28  H   UNL     1       8.040   6.632  -4.200  1.00  0.00     0.293 HD
ENDBRANCH  11  27
ENDBRANCH   1   2
BRANCH   1  29
ATOM     29  C   UNL     1      11.938   1.935   2.348  1.00  0.00     0.339 C 
ATOM     30  C   UNL     1      13.060   1.308   3.219  1.00  0.00     0.214 C 
ATOM     31  O   UNL     1      11.473   1.135   1.263  1.00  0.00    -0.332 OA
ATOM     32  C   UNL     1      14.198   0.726   2.350  1.00  0.00     0.180 C 
ATOM     33  C   UNL     1      12.141  -0.105   1.102  1.00  0.00     0.179 C 
ATOM     34  C   UNL     1      13.670   0.103   1.031  1.00  0.00     0.177 C 
BRANCH  30  35
ATOM     35  O   UNL     1      13.575   2.245   4.131  1.00  0.00    -0.384 OA
ATOM     36  H   UNL     1      14.525   2.005   4.284  1.00  0.00     0.211 HD
ENDBRANCH  30  35
BRANCH  32  37
ATOM     37  O   UNL     1      15.196   1.683   2.088  1.00  0.00    -0.387 OA
ATOM     38  H   UNL     1      16.071   1.215   2.082  1.00  0.00     0.211 HD
ENDBRANCH  32  37
BRANCH  33  39
ATOM     39  C   UNL     1      11.615  -0.771  -0.178  1.00  0.00     0.191 C 
BRANCH  39  40
ATOM     40  O   UNL     1      10.469  -0.105  -0.639  1.00  0.00    -0.394 OA
ATOM     41  H   UNL     1       9.686  -0.626  -0.321  1.00  0.00     0.210 HD
ENDBRANCH  39  40
ENDBRANCH  33  39
BRANCH  34  42
ATOM     42  O   UNL     1      14.312  -1.125   0.796  1.00  0.00    -0.387 OA
ATOM     43  H   UNL     1      14.804  -1.351   1.628  1.00  0.00     0.211 HD
ENDBRANCH  34  42
ENDBRANCH   1  29
TORSDOF 13
ENDMDL
MODEL 6
REMARK VINA RESULT:    -5.510      1.943      6.612
REMARK INTER + INTRA:          -9.224
REMARK INTER:                  -9.075
REMARK INTRA:                  -0.149
REMARK UNBOUND:                -0.977
REMARK SMILES O=c1c(O[C@H]2O[C@@H](CO)[C@H](O)[C@@H](O)[C@H]2O)c(-c2cc(O)c(O)c(O)c2)oc2cc(O)cc(O)c12
REMARK SMILES IDX 4 1 3 2 16 3 26 4 2 5 27 6 1 7 34 8 28 9 32 10 29 11 31 12
REMARK SMILES IDX 17 13 18 14 19 15 25 16 21 17 23 18 20 19 22 21 24 23 33 25
REMARK SMILES IDX 30 27 5 29 14 30 6 31 12 32 7 33 10 34 15 35 13 37 8 39 9 40
REMARK SMILES IDX 11 42
REMARK H PARENT 20 20 22 22 24 24 33 26 30 28 15 36 13 38 9 41 11 43
REMARK Flexibility Score: inf
ROOT
ATOM      1  O   UNL     1      12.129   2.572   1.687  1.00  0.00    -0.454 OA
ENDROOT
BRANCH   1   2
ATOM      2  C   UNL     1      11.545   3.369   0.692  1.00  0.00     0.214 A 
ATOM      3  C   UNL     1      12.064   3.427  -0.615  1.00  0.00     0.181 A 
ATOM      4  O   UNL     1      11.420   4.115  -1.547  1.00  0.00    -0.452 OA
ATOM      5  C   UNL     1      10.407   4.122   1.003  1.00  0.00     0.239 A 
ATOM      6  C   UNL     1      10.312   4.806  -1.313  1.00  0.00     0.146 A 
ATOM      7  O   UNL     1       9.999   4.114   2.192  1.00  0.00    -0.285 OA
ATOM      8  C   UNL     1       9.743   4.858  -0.011  1.00  0.00     0.111 A 
ATOM      9  C   UNL     1       9.724   5.495  -2.375  1.00  0.00     0.094 A 
ATOM     10  C   UNL     1       8.555   5.632   0.179  1.00  0.00     0.134 A 
ATOM     11  C   UNL     1       8.574   6.251  -2.177  1.00  0.00     0.123 A 
ATOM     12  C   UNL     1       7.998   6.319  -0.907  1.00  0.00     0.093 A 
BRANCH   3  13
ATOM     13  C   UNL     1      13.330   2.762  -0.992  1.00  0.00     0.029 A 
ATOM     14  C   UNL     1      13.299   1.578  -1.739  1.00  0.00     0.062 A 
ATOM     15  C   UNL     1      14.489   0.940  -2.109  1.00  0.00     0.162 A 
ATOM     16  C   UNL     1      14.570   3.328  -0.657  1.00  0.00     0.062 A 
ATOM     17  C   UNL     1      15.728   1.490  -1.750  1.00  0.00     0.200 A 
ATOM     18  C   UNL     1      15.767   2.704  -1.023  1.00  0.00     0.162 A 
BRANCH  15  19
ATOM     19  O   UNL     1      14.449  -0.249  -2.836  1.00  0.00    -0.504 OA
ATOM     20  H   UNL     1      14.438  -0.251  -3.849  1.00  0.00     0.293 HD
ENDBRANCH  15  19
BRANCH  17  21
ATOM     21  O   UNL     1      16.885   0.807  -2.131  1.00  0.00    -0.502 OA
ATOM     22  H   UNL     1      17.657   0.612  -1.510  1.00  0.00     0.293 HD
ENDBRANCH  17  21
BRANCH  18  23
ATOM     23  O   UNL     1      16.963   3.323  -0.651  1.00  0.00    -0.504 OA
ATOM     24  H   UNL     1      17.066   4.319  -0.518  1.00  0.00     0.293 HD
ENDBRANCH  18  23
ENDBRANCH   3  13
BRANCH  10  25
ATOM     25  O   UNL     1       7.875   5.764   1.396  1.00  0.00    -0.507 OA
ATOM     26  H   UNL     1       6.959   5.408   1.609  1.00  0.00     0.293 HD
ENDBRANCH  10  25
BRANCH  11  27
ATOM     27  O   UNL     1       8.006   6.933  -3.252  1.00  0.00    -0.508 OA
ATOM     28  H   UNL     1       8.579   7.375  -3.961  1.00  0.00     0.293 HD
ENDBRANCH  11  27
ENDBRANCH   1   2
BRANCH   1  29
ATOM     29  C   UNL     1      12.910   1.408   1.404  1.00  0.00     0.339 C 
ATOM     30  C   UNL     1      11.999   0.151   1.409  1.00  0.00     0.214 C 
ATOM     31  O   UNL     1      14.013   1.379   2.306  1.00  0.00    -0.332 OA
ATOM     32  C   UNL     1      11.610  -0.266   2.845  1.00  0.00     0.180 C 
ATOM     33  C   UNL     1      14.093   0.222   3.121  1.00  0.00     0.179 C 
ATOM     34  C   UNL     1      12.758  -0.019   3.860  1.00  0.00     0.177 C 
BRANCH  30  35
ATOM     35  O   UNL     1      10.846   0.359   0.633  1.00  0.00    -0.384 OA
ATOM     36  H   UNL     1      11.113   0.934  -0.130  1.00  0.00     0.211 HD
ENDBRANCH  30  35
BRANCH  32  37
ATOM     37  O   UNL     1      10.425   0.362   3.268  1.00  0.00    -0.387 OA
ATOM     38  H   UNL     1       9.979  -0.237   3.920  1.00  0.00     0.211 HD
ENDBRANCH  32  37
BRANCH  33  39
ATOM     39  C   UNL     1      15.247   0.414   4.117  1.00  0.00     0.191 C 
BRANCH  39  40
ATOM     40  O   UNL     1      15.734  -0.830   4.545  1.00  0.00    -0.394 OA
ATOM     41  H   UNL     1      16.540  -0.651   5.095  1.00  0.00     0.210 HD
ENDBRANCH  39  40
ENDBRANCH  33  39
BRANCH  34  42
ATOM     42  O   UNL     1      12.877  -1.125   4.719  1.00  0.00    -0.387 OA
ATOM     43  H   UNL     1      13.580  -0.896   5.381  1.00  0.00     0.211 HD
ENDBRANCH  34  42
ENDBRANCH   1  29
TORSDOF 13
ENDMDL
MODEL 7
REMARK VINA RESULT:    -5.427      2.125      6.924
REMARK INTER + INTRA:          -9.101
REMARK INTER:                  -7.768
REMARK INTRA:                  -1.333
REMARK UNBOUND:                -0.977
REMARK SMILES O=c1c(O[C@H]2O[C@@H](CO)[C@H](O)[C@@H](O)[C@H]2O)c(-c2cc(O)c(O)c(O)c2)oc2cc(O)cc(O)c12
REMARK SMILES IDX 4 1 3 2 16 3 26 4 2 5 27 6 1 7 34 8 28 9 32 10 29 11 31 12
REMARK SMILES IDX 17 13 18 14 19 15 25 16 21 17 23 18 20 19 22 21 24 23 33 25
REMARK SMILES IDX 30 27 5 29 14 30 6 31 12 32 7 33 10 34 15 35 13 37 8 39 9 40
REMARK SMILES IDX 11 42
REMARK H PARENT 20 20 22 22 24 24 33 26 30 28 15 36 13 38 9 41 11 43
REMARK Flexibility Score: inf
ROOT
ATOM      1  O   UNL     1      12.546   2.186  -0.747  1.00  0.00    -0.454 OA
ENDROOT
BRANCH   1   2
ATOM      2  C   UNL     1      11.710   3.109  -0.103  1.00  0.00     0.214 A 
ATOM      3  C   UNL     1      11.721   3.273   1.295  1.00  0.00     0.181 A 
ATOM      4  O   UNL     1      10.986   4.228   1.850  1.00  0.00    -0.452 OA
ATOM      5  C   UNL     1      10.846   3.898  -0.871  1.00  0.00     0.239 A 
ATOM      6  C   UNL     1      10.188   5.032   1.159  1.00  0.00     0.146 A 
ATOM      7  O   UNL     1      10.798   3.688  -2.109  1.00  0.00    -0.285 OA
ATOM      8  C   UNL     1      10.063   4.905  -0.251  1.00  0.00     0.111 A 
ATOM      9  C   UNL     1       9.460   6.000   1.854  1.00  0.00     0.094 A 
ATOM     10  C   UNL     1       9.176   5.794  -0.936  1.00  0.00     0.134 A 
ATOM     11  C   UNL     1       8.594   6.853   1.180  1.00  0.00     0.123 A 
ATOM     12  C   UNL     1       8.453   6.746  -0.205  1.00  0.00     0.093 A 
BRANCH   3  13
ATOM     13  C   UNL     1      12.510   2.397   2.188  1.00  0.00     0.029 A 
ATOM     14  C   UNL     1      12.024   1.128   2.524  1.00  0.00     0.062 A 
ATOM     15  C   UNL     1      12.763   0.284   3.364  1.00  0.00     0.162 A 
ATOM     16  C   UNL     1      13.768   2.798   2.663  1.00  0.00     0.062 A 
ATOM     17  C   UNL     1      14.008   0.696   3.863  1.00  0.00     0.200 A 
ATOM     18  C   UNL     1      14.519   1.965   3.499  1.00  0.00     0.162 A 
BRANCH  15  19
ATOM     19  O   UNL     1      12.264  -0.970   3.710  1.00  0.00    -0.504 OA
ATOM     20  H   UNL     1      11.903  -1.161   4.637  1.00  0.00     0.293 HD
ENDBRANCH  15  19
BRANCH  17  21
ATOM     21  O   UNL     1      14.697  -0.177   4.707  1.00  0.00    -0.502 OA
ATOM     22  H   UNL     1      15.673  -0.079   4.946  1.00  0.00     0.293 HD
ENDBRANCH  17  21
BRANCH  18  23
ATOM     23  O   UNL     1      15.760   2.432   3.937  1.00  0.00    -0.504 OA
ATOM     24  H   UNL     1      16.224   2.106   4.773  1.00  0.00     0.293 HD
ENDBRANCH  18  23
ENDBRANCH   3  13
BRANCH  10  25
ATOM     25  O   UNL     1       8.962   5.799  -2.320  1.00  0.00    -0.507 OA
ATOM     26  H   UNL     1       8.714   6.594  -2.883  1.00  0.00     0.293 HD
ENDBRANCH  10  25
BRANCH  11  27
ATOM     27  O   UNL     1       7.875   7.809   1.895  1.00  0.00    -0.508 OA
ATOM     28  H   UNL     1       8.218   8.182   2.772  1.00  0.00     0.293 HD
ENDBRANCH  11  27
ENDBRANCH   1   2
BRANCH   1  29
ATOM     29  C   UNL     1      13.420   2.536  -1.823  1.00  0.00     0.339 C 
ATOM     30  C   UNL     1      13.349   1.452  -2.932  1.00  0.00     0.214 C 
ATOM     31  O   UNL     1      14.715   2.787  -1.283  1.00  0.00    -0.332 OA
ATOM     32  C   UNL     1      14.106   0.168  -2.524  1.00  0.00     0.180 C 
ATOM     33  C   UNL     1      15.751   1.970  -1.801  1.00  0.00     0.179 C 
ATOM     34  C   UNL     1      15.377   0.476  -1.689  1.00  0.00     0.177 C 
BRANCH  30  35
ATOM     35  O   UNL     1      12.016   1.148  -3.257  1.00  0.00    -0.384 OA
ATOM     36  H   UNL     1      11.580   0.838  -2.422  1.00  0.00     0.211 HD
ENDBRANCH  30  35
BRANCH  32  37
ATOM     37  O   UNL     1      13.270  -0.738  -1.847  1.00  0.00    -0.387 OA
ATOM     38  H   UNL     1      13.739  -1.027  -1.022  1.00  0.00     0.211 HD
ENDBRANCH  32  37
BRANCH  33  39
ATOM     39  C   UNL     1      17.039   2.276  -1.021  1.00  0.00     0.191 C 
BRANCH  39  40
ATOM     40  O   UNL     1      18.164   1.898  -1.771  1.00  0.00    -0.394 OA
ATOM     41  H   UNL     1      18.781   1.432  -1.150  1.00  0.00     0.210 HD
ENDBRANCH  39  40
ENDBRANCH  33  39
BRANCH  34  42
ATOM     42  O   UNL     1      16.444  -0.322  -2.137  1.00  0.00    -0.387 OA
ATOM     43  H   UNL     1      17.113   0.295  -2.533  1.00  0.00     0.211 HD
ENDBRANCH  34  42
ENDBRANCH   1  29
TORSDOF 13
ENDMDL
MODEL 8
REMARK VINA RESULT:    -5.159      1.901      3.354
REMARK INTER + INTRA:          -8.699
REMARK INTER:                  -8.421
REMARK INTRA:                  -0.278
REMARK UNBOUND:                -0.977
REMARK SMILES O=c1c(O[C@H]2O[C@@H](CO)[C@H](O)[C@@H](O)[C@H]2O)c(-c2cc(O)c(O)c(O)c2)oc2cc(O)cc(O)c12
REMARK SMILES IDX 4 1 3 2 16 3 26 4 2 5 27 6 1 7 34 8 28 9 32 10 29 11 31 12
REMARK SMILES IDX 17 13 18 14 19 15 25 16 21 17 23 18 20 19 22 21 24 23 33 25
REMARK SMILES IDX 30 27 5 29 14 30 6 31 12 32 7 33 10 34 15 35 13 37 8 39 9 40
REMARK SMILES IDX 11 42
REMARK H PARENT 20 20 22 22 24 24 33 26 30 28 15 36 13 38 9 41 11 43
REMARK Flexibility Score: inf
ROOT
ATOM      1  O   UNL     1      12.081   0.650   2.490  1.00  0.00    -0.454 OA
ENDROOT
BRANCH   1   2
ATOM      2  C   UNL     1      13.251   0.866   3.231  1.00  0.00     0.214 A 
ATOM      3  C   UNL     1      14.260   1.742   2.790  1.00  0.00     0.181 A 
ATOM      4  O   UNL     1      15.302   1.990   3.572  1.00  0.00    -0.452 OA
ATOM      5  C   UNL     1      13.418   0.199   4.450  1.00  0.00     0.239 A 
ATOM      6  C   UNL     1      15.481   1.419   4.756  1.00  0.00     0.146 A 
ATOM      7  O   UNL     1      12.540  -0.633   4.794  1.00  0.00    -0.285 OA
ATOM      8  C   UNL     1      14.547   0.475   5.263  1.00  0.00     0.111 A 
ATOM      9  C   UNL     1      16.620   1.758   5.490  1.00  0.00     0.094 A 
ATOM     10  C   UNL     1      14.804  -0.115   6.541  1.00  0.00     0.134 A 
ATOM     11  C   UNL     1      16.864   1.172   6.727  1.00  0.00     0.123 A 
ATOM     12  C   UNL     1      15.962   0.240   7.243  1.00  0.00     0.093 A 
BRANCH   3  13
ATOM     13  C   UNL     1      14.220   2.388   1.460  1.00  0.00     0.029 A 
ATOM     14  C   UNL     1      15.363   2.387   0.651  1.00  0.00     0.062 A 
ATOM     15  C   UNL     1      15.339   2.990  -0.613  1.00  0.00     0.162 A 
ATOM     16  C   UNL     1      13.035   2.961   0.973  1.00  0.00     0.062 A 
ATOM     17  C   UNL     1      14.162   3.587  -1.089  1.00  0.00     0.200 A 
ATOM     18  C   UNL     1      12.995   3.563  -0.289  1.00  0.00     0.162 A 
BRANCH  15  19
ATOM     19  O   UNL     1      16.486   3.001  -1.405  1.00  0.00    -0.504 OA
ATOM     20  H   UNL     1      17.240   3.656  -1.237  1.00  0.00     0.293 HD
ENDBRANCH  15  19
BRANCH  17  21
ATOM     21  O   UNL     1      14.195   4.187  -2.350  1.00  0.00    -0.502 OA
ATOM     22  H   UNL     1      14.806   3.896  -3.099  1.00  0.00     0.293 HD
ENDBRANCH  17  21
BRANCH  18  23
ATOM     23  O   UNL     1      11.782   4.116  -0.707  1.00  0.00    -0.504 OA
ATOM     24  H   UNL     1      11.619   5.106  -0.815  1.00  0.00     0.293 HD
ENDBRANCH  18  23
ENDBRANCH   3  13
BRANCH  10  25
ATOM     25  O   UNL     1      13.969  -1.044   7.172  1.00  0.00    -0.507 OA
ATOM     26  H   UNL     1      14.256  -1.902   7.614  1.00  0.00     0.293 HD
ENDBRANCH  10  25
BRANCH  11  27
ATOM     27  O   UNL     1      18.009   1.523   7.440  1.00  0.00    -0.508 OA
ATOM     28  H   UNL     1      18.416   0.900   8.128  1.00  0.00     0.293 HD
ENDBRANCH  11  27
ENDBRANCH   1   2
BRANCH   1  29
ATOM     29  C   UNL     1      11.570  -0.652   2.190  1.00  0.00     0.339 C 
ATOM     30  C   UNL     1      11.495  -0.845   0.651  1.00  0.00     0.214 C 
ATOM     31  O   UNL     1      10.346  -0.826   2.898  1.00  0.00    -0.332 OA
ATOM     32  C   UNL     1      10.311  -0.065   0.036  1.00  0.00     0.180 C 
ATOM     33  C   UNL     1       9.216  -1.101   2.087  1.00  0.00     0.179 C 
ATOM     34  C   UNL     1       9.073  -0.042   0.971  1.00  0.00     0.177 C 
BRANCH  30  35
ATOM     35  O   UNL     1      12.700  -0.466   0.035  1.00  0.00    -0.384 OA
ATOM     36  H   UNL     1      12.764  -0.982  -0.811  1.00  0.00     0.211 HD
ENDBRANCH  30  35
BRANCH  32  37
ATOM     37  O   UNL     1      10.682   1.240  -0.335  1.00  0.00    -0.387 OA
ATOM     38  H   UNL     1      10.092   1.874   0.150  1.00  0.00     0.211 HD
ENDBRANCH  32  37
BRANCH  33  39
ATOM     39  C   UNL     1       7.972  -1.124   2.988  1.00  0.00     0.191 C 
BRANCH  39  40
ATOM     40  O   UNL     1       8.259  -0.539   4.231  1.00  0.00    -0.394 OA
ATOM     41  H   UNL     1       7.937   0.399   4.189  1.00  0.00     0.210 HD
ENDBRANCH  39  40
ENDBRANCH  33  39
BRANCH  34  42
ATOM     42  O   UNL     1       7.909  -0.286   0.223  1.00  0.00    -0.387 OA
ATOM     43  H   UNL     1       8.182  -0.300  -0.731  1.00  0.00     0.211 HD
ENDBRANCH  34  42
ENDBRANCH   1  29
TORSDOF 13
ENDMDL
MODEL 9
REMARK VINA RESULT:    -4.855      2.373      6.242
REMARK INTER + INTRA:          -8.244
REMARK INTER:                  -7.297
REMARK INTRA:                  -0.948
REMARK UNBOUND:                -0.977
REMARK SMILES O=c1c(O[C@H]2O[C@@H](CO)[C@H](O)[C@@H](O)[C@H]2O)c(-c2cc(O)c(O)c(O)c2)oc2cc(O)cc(O)c12
REMARK SMILES IDX 4 1 3 2 16 3 26 4 2 5 27 6 1 7 34 8 28 9 32 10 29 11 31 12
REMARK SMILES IDX 17 13 18 14 19 15 25 16 21 17 23 18 20 19 22 21 24 23 33 25
REMARK SMILES IDX 30 27 5 29 14 30 6 31 12 32 7 33 10 34 15 35 13 37 8 39 9 40
REMARK SMILES IDX 11 42
REMARK H PARENT 20 20 22 22 24 24 33 26 30 28 15 36 13 38 9 41 11 43
REMARK Flexibility Score: inf
ROOT
ATOM      1  O   UNL     1      12.979   1.559   2.426  1.00  0.00    -0.454 OA
ENDROOT
BRANCH   1   2
ATOM      2  C   UNL     1      12.167   1.195   1.342  1.00  0.00     0.214 A 
ATOM      3  C   UNL     1      12.661   1.153   0.024  1.00  0.00     0.181 A 
ATOM      4  O   UNL     1      11.884   0.706  -0.954  1.00  0.00    -0.452 OA
ATOM      5  C   UNL     1      10.830   0.854   1.576  1.00  0.00     0.239 A 
ATOM      6  C   UNL     1      10.626   0.327  -0.774  1.00  0.00     0.146 A 
ATOM      7  O   UNL     1      10.388   0.966   2.747  1.00  0.00    -0.285 OA
ATOM      8  C   UNL     1      10.018   0.390   0.510  1.00  0.00     0.111 A 
ATOM      9  C   UNL     1       9.905  -0.123  -1.881  1.00  0.00     0.094 A 
ATOM     10  C   UNL     1       8.654  -0.021   0.635  1.00  0.00     0.134 A 
ATOM     11  C   UNL     1       8.576  -0.512  -1.750  1.00  0.00     0.123 A 
ATOM     12  C   UNL     1       7.958  -0.457  -0.500  1.00  0.00     0.093 A 
BRANCH   3  13
ATOM     13  C   UNL     1      14.022   1.615  -0.325  1.00  0.00     0.029 A 
ATOM     14  C   UNL     1      14.867   0.786  -1.073  1.00  0.00     0.062 A 
ATOM     15  C   UNL     1      16.156   1.212  -1.416  1.00  0.00     0.162 A 
ATOM     16  C   UNL     1      14.463   2.897   0.037  1.00  0.00     0.062 A 
ATOM     17  C   UNL     1      16.609   2.483  -1.030  1.00  0.00     0.200 A 
ATOM     18  C   UNL     1      15.746   3.337  -0.302  1.00  0.00     0.162 A 
BRANCH  15  19
ATOM     19  O   UNL     1      16.999   0.374  -2.144  1.00  0.00    -0.504 OA
ATOM     20  H   UNL     1      17.649  -0.253  -1.686  1.00  0.00     0.293 HD
ENDBRANCH  15  19
BRANCH  17  21
ATOM     21  O   UNL     1      17.907   2.853  -1.385  1.00  0.00    -0.502 OA
ATOM     22  H   UNL     1      18.146   3.320  -2.248  1.00  0.00     0.293 HD
ENDBRANCH  17  21
BRANCH  18  23
ATOM     23  O   UNL     1      16.118   4.624   0.095  1.00  0.00    -0.504 OA
ATOM     24  H   UNL     1      15.832   5.468  -0.380  1.00  0.00     0.293 HD
ENDBRANCH  18  23
ENDBRANCH   3  13
BRANCH  10  25
ATOM     25  O   UNL     1       7.930  -0.030   1.833  1.00  0.00    -0.507 OA
ATOM     26  H   UNL     1       6.928  -0.013   1.926  1.00  0.00     0.293 HD
ENDBRANCH  10  25
BRANCH  11  27
ATOM     27  O   UNL     1       7.875  -0.955  -2.870  1.00  0.00    -0.508 OA
ATOM     28  H   UNL     1       8.356  -1.290  -3.697  1.00  0.00     0.293 HD
ENDBRANCH  11  27
ENDBRANCH   1   2
BRANCH   1  29
ATOM     29  C   UNL     1      14.158   0.841   2.800  1.00  0.00     0.339 C 
ATOM     30  C   UNL     1      13.772  -0.391   3.661  1.00  0.00     0.214 C 
ATOM     31  O   UNL     1      15.067   1.760   3.402  1.00  0.00    -0.332 OA
ATOM     32  C   UNL     1      13.374   0.018   5.097  1.00  0.00     0.180 C 
ATOM     33  C   UNL     1      15.452   1.442   4.729  1.00  0.00     0.179 C 
ATOM     34  C   UNL     1      14.210   1.217   5.619  1.00  0.00     0.177 C 
BRANCH  30  35
ATOM     35  O   UNL     1      12.736  -1.124   3.059  1.00  0.00    -0.384 OA
ATOM     36  H   UNL     1      12.121  -1.403   3.786  1.00  0.00     0.211 HD
ENDBRANCH  30  35
BRANCH  32  37
ATOM     37  O   UNL     1      11.997   0.286   5.201  1.00  0.00    -0.387 OA
ATOM     38  H   UNL     1      11.507  -0.484   4.809  1.00  0.00     0.211 HD
ENDBRANCH  32  37
BRANCH  33  39
ATOM     39  C   UNL     1      16.316   2.593   5.268  1.00  0.00     0.191 C 
BRANCH  39  40
ATOM     40  O   UNL     1      16.984   2.195   6.436  1.00  0.00    -0.394 OA
ATOM     41  H   UNL     1      16.312   1.752   7.016  1.00  0.00     0.210 HD
ENDBRANCH  39  40
ENDBRANCH  33  39
BRANCH  34  42
ATOM     42  O   UNL     1      14.606   0.977   6.946  1.00  0.00    -0.387 OA
ATOM     43  H   UNL     1      15.355   1.600   7.136  1.00  0.00     0.211 HD
ENDBRANCH  34  42
ENDBRANCH   1  29
TORSDOF 13
ENDMDL
