MODEL 1
REMARK VINA RESULT:    -3.555      0.000      0.000
REMARK INTER + INTRA:          -4.713
REMARK INTER:                  -5.009
REMARK INTRA:                   0.296
REMARK UNBOUND:                 0.296
REMARK SMILES CC1=CCC(=C(C)C)C(=O)CC(C)=CCC1
REMARK SMILES IDX 12 1 14 2 13 3 15 4 16 5 2 6 1 7 3 8 11 10 9 11 10 12 5 13
REMARK SMILES IDX 6 14 7 15 8 16 4 17
REMARK H PARENT
REMARK Flexibility Score: 60.00
ROOT
ATOM      1  C   UNL     1      -1.327   5.483  14.088  1.00  0.00    -0.070 C 
ATOM      2  C   UNL     1      -0.716   4.393  14.623  1.00  0.00    -0.027 C 
ATOM      3  C   UNL     1      -1.423   5.535  12.581  1.00  0.00     0.039 C 
ENDROOT
BRANCH   2   4
ATOM      4  C   UNL     1      -0.593   4.037  16.086  1.00  0.00     0.032 C 
BRANCH   4   5
ATOM      5  C   UNL     1       0.410   4.896  16.873  1.00  0.00     0.034 C 
BRANCH   5   6
ATOM      6  C   UNL     1      -0.095   5.456  18.191  1.00  0.00    -0.077 C 
ATOM      7  C   UNL     1      -0.559   4.494  19.257  1.00  0.00     0.039 C 
ATOM      8  C   UNL     1      -0.236   6.781  18.435  1.00  0.00    -0.023 CG0
ATOM      9  G   UNL     1       0.299   7.890  17.568  1.00  0.00     0.000 G0
ENDBRANCH   5   6
ENDBRANCH   4   5
ENDBRANCH   2   4
BRANCH   1  10
ATOM     10  C   UNL     1      -1.809   6.703  14.866  1.00  0.00     0.111 C 
BRANCH  10  11
ATOM     11  C   UNL     1      -0.748   7.701  15.238  1.00  0.00     0.163 C 
ATOM     12  O   UNL     1       0.216   7.910  14.454  1.00  0.00    -0.294 OA
BRANCH  11  13
ATOM     13  C   UNL     1      -0.766   8.356  16.571  1.00  0.00    -0.002 C 
ATOM     14  C   UNL     1      -1.672   9.339  16.831  1.00  0.00    -0.069 C 
ATOM     15  C   UNL     1      -1.700  10.061  18.157  1.00  0.00     0.039 C 
ATOM     16  C   UNL     1      -2.673   9.762  15.780  1.00  0.00     0.039 C 
BRANCH  13  17
ATOM     17  C   UNL     1       0.291   7.921  17.577  1.00  0.00     0.066 CG0
ATOM     18  G   UNL     1      -0.235   6.789  18.420  1.00  0.00     0.000 G0
ENDBRANCH  13  17
ENDBRANCH  11  13
ENDBRANCH  10  11
ENDBRANCH   1  10
TORSDOF 0
ENDMDL
MODEL 2
REMARK VINA RESULT:    -3.551      1.913      3.802
REMARK INTER + INTRA:          -4.708
REMARK INTER:                  -4.946
REMARK INTRA:                   0.238
REMARK UNBOUND:                 0.296
REMARK SMILES CC1=CCC(=C(C)C)C(=O)CC(C)=CCC1
REMARK SMILES IDX 12 1 14 2 13 3 15 4 16 5 2 6 1 7 3 8 11 10 9 11 10 12 5 13
REMARK SMILES IDX 6 14 7 15 8 16 4 17
REMARK H PARENT
REMARK Flexibility Score: 60.00
ROOT
ATOM      1  C   UNL     1      -0.026   3.849  17.290  1.00  0.00    -0.070 C 
ATOM      2  C   UNL     1      -0.469   3.398  16.087  1.00  0.00    -0.027 C 
ATOM      3  C   UNL     1      -0.101   2.880  18.447  1.00  0.00     0.039 C 
ENDROOT
BRANCH   2   4
ATOM      4  C   UNL     1      -0.397   4.111  14.757  1.00  0.00     0.032 C 
BRANCH   4   5
ATOM      5  C   UNL     1      -1.539   5.107  14.501  1.00  0.00     0.034 C 
BRANCH   5   6
ATOM      6  C   UNL     1      -1.113   6.537  14.211  1.00  0.00    -0.077 C 
ATOM      7  C   UNL     1      -0.465   6.844  12.884  1.00  0.00     0.039 C 
ATOM      8  C   UNL     1      -1.203   7.541  15.115  1.00  0.00    -0.023 CG0
ATOM      9  G   UNL     1      -1.944   7.472  16.425  1.00  0.00     0.000 G0
ENDBRANCH   5   6
ENDBRANCH   4   5
ENDBRANCH   2   4
BRANCH   1  10
ATOM     10  C   UNL     1       0.423   5.274  17.595  1.00  0.00     0.111 C 
BRANCH  10  11
ATOM     11  C   UNL     1      -0.618   6.168  18.208  1.00  0.00     0.163 C 
ATOM     12  O   UNL     1      -1.287   5.764  19.197  1.00  0.00    -0.294 OA
BRANCH  11  13
ATOM     13  C   UNL     1      -0.945   7.478  17.587  1.00  0.00    -0.002 C 
ATOM     14  C   UNL     1      -0.404   8.622  18.092  1.00  0.00    -0.069 C 
ATOM     15  C   UNL     1      -0.741   9.978  17.520  1.00  0.00     0.039 C 
ATOM     16  C   UNL     1       0.541   8.571  19.271  1.00  0.00     0.039 C 
BRANCH  13  17
ATOM     17  C   UNL     1      -1.935   7.474  16.430  1.00  0.00     0.066 CG0
ATOM     18  G   UNL     1      -1.194   7.536  15.119  1.00  0.00     0.000 G0
ENDBRANCH  13  17
ENDBRANCH  11  13
ENDBRANCH  10  11
ENDBRANCH   1  10
TORSDOF 0
ENDMDL
MODEL 3
REMARK VINA RESULT:    -3.488      6.488      9.117
REMARK INTER + INTRA:          -4.619
REMARK INTER:                  -4.765
REMARK INTRA:                   0.145
REMARK UNBOUND:                 0.296
REMARK SMILES CC1=CCC(=C(C)C)C(=O)CC(C)=CCC1
REMARK SMILES IDX 12 1 14 2 13 3 15 4 16 5 2 6 1 7 3 8 11 10 9 11 10 12 5 13
REMARK SMILES IDX 6 14 7 15 8 16 4 17
REMARK H PARENT
REMARK Flexibility Score: 60.00
ROOT
ATOM      1  C   UNL     1      -2.899   5.477  11.076  1.00  0.00    -0.070 C 
ATOM      2  C   UNL     1      -2.642   4.254  10.542  1.00  0.00    -0.027 C 
ATOM      3  C   UNL     1      -2.285   5.770  12.425  1.00  0.00     0.039 C 
ENDROOT
BRANCH   2   4
ATOM      4  C   UNL     1      -3.030   3.753   9.170  1.00  0.00     0.032 C 
BRANCH   4   5
ATOM      5  C   UNL     1      -4.448   3.166   9.079  1.00  0.00     0.034 C 
BRANCH   5   6
ATOM      6  C   UNL     1      -5.314   3.708   7.955  1.00  0.00    -0.077 C 
ATOM      7  C   UNL     1      -4.991   3.309   6.536  1.00  0.00     0.039 C 
ATOM      8  C   UNL     1      -6.311   4.604   8.145  1.00  0.00    -0.023 CG0
ATOM      9  G   UNL     1      -6.876   5.010   9.481  1.00  0.00     0.000 G0
ENDBRANCH   5   6
ENDBRANCH   4   5
ENDBRANCH   2   4
BRANCH   1  10
ATOM     10  C   UNL     1      -3.844   6.522  10.493  1.00  0.00     0.111 C 
BRANCH  10  11
ATOM     11  C   UNL     1      -5.281   6.413  10.921  1.00  0.00     0.163 C 
ATOM     12  O   UNL     1      -5.560   6.245  12.138  1.00  0.00    -0.294 OA
BRANCH  11  13
ATOM     13  C   UNL     1      -6.367   6.385   9.908  1.00  0.00    -0.002 C 
ATOM     14  C   UNL     1      -6.883   7.553   9.435  1.00  0.00    -0.069 C 
ATOM     15  C   UNL     1      -8.016   7.573   8.437  1.00  0.00     0.039 C 
ATOM     16  C   UNL     1      -6.350   8.883   9.918  1.00  0.00     0.039 C 
BRANCH  13  17
ATOM     17  C   UNL     1      -6.896   5.020   9.488  1.00  0.00     0.066 CG0
ATOM     18  G   UNL     1      -6.293   4.619   8.167  1.00  0.00     0.000 G0
ENDBRANCH  13  17
ENDBRANCH  11  13
ENDBRANCH  10  11
ENDBRANCH   1  10
TORSDOF 0
ENDMDL
MODEL 4
REMARK VINA RESULT:    -3.450      2.935      5.102
REMARK INTER + INTRA:          -4.565
REMARK INTER:                  -5.158
REMARK INTRA:                   0.593
REMARK UNBOUND:                 0.296
REMARK SMILES CC1=CCC(=C(C)C)C(=O)CC(C)=CCC1
REMARK SMILES IDX 12 1 14 2 13 3 15 4 16 5 2 6 1 7 3 8 11 10 9 11 10 12 5 13
REMARK SMILES IDX 6 14 7 15 8 16 4 17
REMARK H PARENT
REMARK Flexibility Score: 60.00
ROOT
ATOM      1  C   UNL     1      -2.111   5.590  11.174  1.00  0.00    -0.070 C 
ATOM      2  C   UNL     1      -2.932   6.493  10.576  1.00  0.00    -0.027 C 
ATOM      3  C   UNL     1      -2.387   4.132  10.891  1.00  0.00     0.039 C 
ENDROOT
BRANCH   2   4
ATOM      4  C   UNL     1      -2.806   7.999  10.594  1.00  0.00     0.032 C 
BRANCH   4   5
ATOM      5  C   UNL     1      -3.864   8.720  11.444  1.00  0.00     0.034 C 
BRANCH   5   6
ATOM      6  C   UNL     1      -4.372   7.953  12.653  1.00  0.00    -0.077 C 
ATOM      7  C   UNL     1      -5.757   7.356  12.602  1.00  0.00     0.039 C 
ATOM      8  C   UNL     1      -3.684   7.848  13.815  1.00  0.00    -0.023 CG0
ATOM      9  G   UNL     1      -2.244   8.243  14.015  1.00  0.00     0.000 G0
ENDBRANCH   5   6
ENDBRANCH   4   5
ENDBRANCH   2   4
BRANCH   1  10
ATOM     10  C   UNL     1      -1.024   5.915  12.193  1.00  0.00     0.111 C 
BRANCH  10  11
ATOM     11  C   UNL     1      -1.434   5.821  13.636  1.00  0.00     0.163 C 
ATOM     12  O   UNL     1      -1.877   4.732  14.091  1.00  0.00    -0.294 OA
BRANCH  11  13
ATOM     13  C   UNL     1      -1.432   7.030  14.499  1.00  0.00    -0.002 C 
ATOM     14  C   UNL     1      -0.765   7.014  15.687  1.00  0.00    -0.069 C 
ATOM     15  C   UNL     1      -0.770   8.205  16.615  1.00  0.00     0.039 C 
ATOM     16  C   UNL     1      -0.010   5.781  16.130  1.00  0.00     0.039 C 
BRANCH  13  17
ATOM     17  C   UNL     1      -2.243   8.228  14.025  1.00  0.00     0.066 CG0
ATOM     18  G   UNL     1      -3.684   7.831  13.832  1.00  0.00     0.000 G0
ENDBRANCH  13  17
ENDBRANCH  11  13
ENDBRANCH  10  11
ENDBRANCH   1  10
TORSDOF 0
ENDMDL
MODEL 5
REMARK VINA RESULT:    -3.345      3.244      4.592
REMARK INTER + INTRA:          -4.417
REMARK INTER:                  -4.733
REMARK INTRA:                   0.316
REMARK UNBOUND:                 0.296
REMARK SMILES CC1=CCC(=C(C)C)C(=O)CC(C)=CCC1
REMARK SMILES IDX 12 1 14 2 13 3 15 4 16 5 2 6 1 7 3 8 11 10 9 11 10 12 5 13
REMARK SMILES IDX 6 14 7 15 8 16 4 17
REMARK H PARENT
REMARK Flexibility Score: 60.00
ROOT
ATOM      1  C   UNL     1      -3.092   4.837  11.091  1.00  0.00    -0.070 C 
ATOM      2  C   UNL     1      -1.788   4.538  11.327  1.00  0.00    -0.027 C 
ATOM      3  C   UNL     1      -3.686   4.312   9.804  1.00  0.00     0.039 C 
ENDROOT
BRANCH   2   4
ATOM      4  C   UNL     1      -0.991   4.833  12.576  1.00  0.00     0.032 C 
BRANCH   4   5
ATOM      5  C   UNL     1      -0.778   6.329  12.863  1.00  0.00     0.034 C 
BRANCH   5   6
ATOM      6  C   UNL     1      -1.245   6.811  14.226  1.00  0.00    -0.077 C 
ATOM      7  C   UNL     1      -0.758   6.086  15.456  1.00  0.00     0.039 C 
ATOM      8  C   UNL     1      -2.147   7.806  14.398  1.00  0.00    -0.023 CG0
ATOM      9  G   UNL     1      -2.634   8.738  13.319  1.00  0.00     0.000 G0
ENDBRANCH   5   6
ENDBRANCH   4   5
ENDBRANCH   2   4
BRANCH   1  10
ATOM     10  C   UNL     1      -3.963   5.752  11.945  1.00  0.00     0.111 C 
BRANCH  10  11
ATOM     11  C   UNL     1      -3.865   7.220  11.639  1.00  0.00     0.163 C 
ATOM     12  O   UNL     1      -3.604   7.598  10.465  1.00  0.00    -0.294 OA
BRANCH  11  13
ATOM     13  C   UNL     1      -3.956   8.224  12.729  1.00  0.00    -0.002 C 
ATOM     14  C   UNL     1      -5.174   8.690  13.122  1.00  0.00    -0.069 C 
ATOM     15  C   UNL     1      -5.313   9.741  14.198  1.00  0.00     0.039 C 
ATOM     16  C   UNL     1      -6.440   8.181  12.469  1.00  0.00     0.039 C 
BRANCH  13  17
ATOM     17  C   UNL     1      -2.649   8.732  13.323  1.00  0.00     0.066 CG0
ATOM     18  G   UNL     1      -2.164   7.784  14.389  1.00  0.00     0.000 G0
ENDBRANCH  13  17
ENDBRANCH  11  13
ENDBRANCH  10  11
ENDBRANCH   1  10
TORSDOF 0
ENDMDL
MODEL 6
REMARK VINA RESULT:    -3.327      7.442      9.651
REMARK INTER + INTRA:          -4.392
REMARK INTER:                  -4.592
REMARK INTRA:                   0.200
REMARK UNBOUND:                 0.296
REMARK SMILES CC1=CCC(=C(C)C)C(=O)CC(C)=CCC1
REMARK SMILES IDX 12 1 14 2 13 3 15 4 16 5 2 6 1 7 3 8 11 10 9 11 10 12 5 13
REMARK SMILES IDX 6 14 7 15 8 16 4 17
REMARK H PARENT
REMARK Flexibility Score: 60.00
ROOT
ATOM      1  C   UNL     1      -4.096   3.825   9.610  1.00  0.00    -0.070 C 
ATOM      2  C   UNL     1      -4.102   3.082   8.472  1.00  0.00    -0.027 C 
ATOM      3  C   UNL     1      -2.787   3.909  10.358  1.00  0.00     0.039 C 
ENDROOT
BRANCH   2   4
ATOM      4  C   UNL     1      -5.233   2.930   7.481  1.00  0.00     0.032 C 
BRANCH   4   5
ATOM      5  C   UNL     1      -5.287   4.019   6.398  1.00  0.00     0.034 C 
BRANCH   5   6
ATOM      6  C   UNL     1      -4.033   4.862   6.248  1.00  0.00    -0.077 C 
ATOM      7  C   UNL     1      -2.853   4.280   5.509  1.00  0.00     0.039 C 
ATOM      8  C   UNL     1      -3.878   6.081   6.818  1.00  0.00    -0.023 CG0
ATOM      9  G   UNL     1      -4.975   6.888   7.463  1.00  0.00     0.000 G0
ENDBRANCH   5   6
ENDBRANCH   4   5
ENDBRANCH   2   4
BRANCH   1  10
ATOM     10  C   UNL     1      -5.318   4.471  10.255  1.00  0.00     0.111 C 
BRANCH  10  11
ATOM     11  C   UNL     1      -5.867   5.679   9.548  1.00  0.00     0.163 C 
ATOM     12  O   UNL     1      -7.107   5.775   9.346  1.00  0.00    -0.294 OA
BRANCH  11  13
ATOM     13  C   UNL     1      -4.949   6.702   8.984  1.00  0.00    -0.002 C 
ATOM     14  C   UNL     1      -4.175   7.452   9.817  1.00  0.00    -0.069 C 
ATOM     15  C   UNL     1      -3.259   8.531   9.291  1.00  0.00     0.039 C 
ATOM     16  C   UNL     1      -4.228   7.243  11.313  1.00  0.00     0.039 C 
BRANCH  13  17
ATOM     17  C   UNL     1      -4.968   6.899   7.474  1.00  0.00     0.066 CG0
ATOM     18  G   UNL     1      -3.886   6.069   6.833  1.00  0.00     0.000 G0
ENDBRANCH  13  17
ENDBRANCH  11  13
ENDBRANCH  10  11
ENDBRANCH   1  10
TORSDOF 0
ENDMDL
MODEL 7
REMARK VINA RESULT:    -3.314      4.826      6.800
REMARK INTER + INTRA:          -4.374
REMARK INTER:                  -4.568
REMARK INTRA:                   0.194
REMARK UNBOUND:                 0.296
REMARK SMILES CC1=CCC(=C(C)C)C(=O)CC(C)=CCC1
REMARK SMILES IDX 12 1 14 2 13 3 15 4 16 5 2 6 1 7 3 8 11 10 9 11 10 12 5 13
REMARK SMILES IDX 6 14 7 15 8 16 4 17
REMARK H PARENT
REMARK Flexibility Score: 60.00
ROOT
ATOM      1  C   UNL     1      -3.538   4.064   9.837  1.00  0.00    -0.070 C 
ATOM      2  C   UNL     1      -2.352   3.914  10.483  1.00  0.00    -0.027 C 
ATOM      3  C   UNL     1      -3.802   3.129   8.680  1.00  0.00     0.039 C 
ENDROOT
BRANCH   2   4
ATOM      4  C   UNL     1      -1.892   4.630  11.732  1.00  0.00     0.032 C 
BRANCH   4   5
ATOM      5  C   UNL     1      -1.569   6.120  11.535  1.00  0.00     0.034 C 
BRANCH   5   6
ATOM      6  C   UNL     1      -2.288   7.079  12.469  1.00  0.00    -0.077 C 
ATOM      7  C   UNL     1      -2.111   6.909  13.958  1.00  0.00     0.039 C 
ATOM      8  C   UNL     1      -3.155   8.028  12.043  1.00  0.00    -0.023 CG0
ATOM      9  G   UNL     1      -3.354   8.447  10.609  1.00  0.00     0.000 G0
ENDBRANCH   5   6
ENDBRANCH   4   5
ENDBRANCH   2   4
BRANCH   1  10
ATOM     10  C   UNL     1      -4.560   5.165  10.098  1.00  0.00     0.111 C 
BRANCH  10  11
ATOM     11  C   UNL     1      -4.344   6.448   9.345  1.00  0.00     0.163 C 
ATOM     12  O   UNL     1      -3.872   6.416   8.177  1.00  0.00    -0.294 OA
BRANCH  11  13
ATOM     13  C   UNL     1      -4.573   7.757  10.008  1.00  0.00    -0.002 C 
ATOM     14  C   UNL     1      -5.821   8.302  10.020  1.00  0.00    -0.069 C 
ATOM     15  C   UNL     1      -6.093   9.650  10.646  1.00  0.00     0.039 C 
ATOM     16  C   UNL     1      -6.983   7.579   9.377  1.00  0.00     0.039 C 
BRANCH  13  17
ATOM     17  C   UNL     1      -3.360   8.461  10.602  1.00  0.00     0.066 CG0
ATOM     18  G   UNL     1      -3.156   8.020  12.028  1.00  0.00     0.000 G0
ENDBRANCH  13  17
ENDBRANCH  11  13
ENDBRANCH  10  11
ENDBRANCH   1  10
TORSDOF 0
ENDMDL
MODEL 8
REMARK VINA RESULT:    -3.311      3.680      6.534
REMARK INTER + INTRA:          -4.369
REMARK INTER:                  -4.681
REMARK INTRA:                   0.311
REMARK UNBOUND:                 0.296
REMARK SMILES CC1=CCC(=C(C)C)C(=O)CC(C)=CCC1
REMARK SMILES IDX 12 1 14 2 13 3 15 4 16 5 2 6 1 7 3 8 11 10 9 11 10 12 5 13
REMARK SMILES IDX 6 14 7 15 8 16 4 17
REMARK H PARENT
REMARK Flexibility Score: 60.00
ROOT
ATOM      1  C   UNL     1      -1.652   5.702  14.262  1.00  0.00    -0.070 C 
ATOM      2  C   UNL     1      -1.421   6.871  14.916  1.00  0.00    -0.027 C 
ATOM      3  C   UNL     1      -0.748   4.542  14.607  1.00  0.00     0.039 C 
ENDROOT
BRANCH   2   4
ATOM      4  C   UNL     1      -2.242   8.137  14.848  1.00  0.00     0.032 C 
BRANCH   4   5
ATOM      5  C   UNL     1      -2.210   8.850  13.487  1.00  0.00     0.034 C 
BRANCH   5   6
ATOM      6  C   UNL     1      -3.554   9.014  12.798  1.00  0.00    -0.077 C 
ATOM      7  C   UNL     1      -4.664   9.722  13.534  1.00  0.00     0.039 C 
ATOM      8  C   UNL     1      -3.843   8.479  11.588  1.00  0.00    -0.023 CG0
ATOM      9  G   UNL     1      -2.842   7.870  10.641  1.00  0.00     0.000 G0
ENDBRANCH   5   6
ENDBRANCH   4   5
ENDBRANCH   2   4
BRANCH   1  10
ATOM     10  C   UNL     1      -2.657   5.499  13.133  1.00  0.00     0.111 C 
BRANCH  10  11
ATOM     11  C   UNL     1      -2.119   5.676  11.741  1.00  0.00     0.163 C 
ATOM     12  O   UNL     1      -0.931   5.343  11.482  1.00  0.00    -0.294 OA
BRANCH  11  13
ATOM     13  C   UNL     1      -2.936   6.348  10.699  1.00  0.00    -0.002 C 
ATOM     14  C   UNL     1      -3.673   5.601   9.829  1.00  0.00    -0.069 C 
ATOM     15  C   UNL     1      -4.486   6.239   8.727  1.00  0.00     0.039 C 
ATOM     16  C   UNL     1      -3.679   4.092   9.923  1.00  0.00     0.039 C 
BRANCH  13  17
ATOM     17  C   UNL     1      -2.860   7.867  10.621  1.00  0.00     0.066 CG0
ATOM     18  G   UNL     1      -3.830   8.481  11.597  1.00  0.00     0.000 G0
ENDBRANCH  13  17
ENDBRANCH  11  13
ENDBRANCH  10  11
ENDBRANCH   1  10
TORSDOF 0
ENDMDL
MODEL 9
REMARK VINA RESULT:    -3.250      4.475      6.052
REMARK INTER + INTRA:          -4.284
REMARK INTER:                  -4.427
REMARK INTRA:                   0.143
REMARK UNBOUND:                 0.296
REMARK SMILES CC1=CCC(=C(C)C)C(=O)CC(C)=CCC1
REMARK SMILES IDX 12 1 14 2 13 3 15 4 16 5 2 6 1 7 3 8 11 10 9 11 10 12 5 13
REMARK SMILES IDX 6 14 7 15 8 16 4 17
REMARK H PARENT
REMARK Flexibility Score: 60.00
ROOT
ATOM      1  C   UNL     1      -5.507   4.823  10.034  1.00  0.00    -0.070 C 
ATOM      2  C   UNL     1      -4.336   4.195   9.751  1.00  0.00    -0.027 C 
ATOM      3  C   UNL     1      -6.570   4.791   8.960  1.00  0.00     0.039 C 
ENDROOT
BRANCH   2   4
ATOM      4  C   UNL     1      -3.165   3.976  10.680  1.00  0.00     0.032 C 
BRANCH   4   5
ATOM      5  C   UNL     1      -2.230   5.188  10.830  1.00  0.00     0.034 C 
BRANCH   5   6
ATOM      6  C   UNL     1      -1.957   5.637  12.255  1.00  0.00    -0.077 C 
ATOM      7  C   UNL     1      -1.151   4.734  13.157  1.00  0.00     0.039 C 
ATOM      8  C   UNL     1      -2.472   6.767  12.794  1.00  0.00    -0.023 CG0
ATOM      9  G   UNL     1      -3.171   7.860  12.028  1.00  0.00     0.000 G0
ENDBRANCH   5   6
ENDBRANCH   4   5
ENDBRANCH   2   4
BRANCH   1  10
ATOM     10  C   UNL     1      -5.791   5.655  11.280  1.00  0.00     0.111 C 
BRANCH  10  11
ATOM     11  C   UNL     1      -5.471   7.120  11.174  1.00  0.00     0.163 C 
ATOM     12  O   UNL     1      -5.790   7.757  10.134  1.00  0.00    -0.294 OA
BRANCH  11  13
ATOM     13  C   UNL     1      -4.677   7.795  12.233  1.00  0.00    -0.002 C 
ATOM     14  C   UNL     1      -5.311   8.356  13.300  1.00  0.00    -0.069 C 
ATOM     15  C   UNL     1      -4.550   9.089  14.379  1.00  0.00     0.039 C 
ATOM     16  C   UNL     1      -6.816   8.286  13.427  1.00  0.00     0.039 C 
BRANCH  13  17
ATOM     17  C   UNL     1      -3.170   7.874  12.034  1.00  0.00     0.066 CG0
ATOM     18  G   UNL     1      -2.491   6.764  12.794  1.00  0.00     0.000 G0
ENDBRANCH  13  17
ENDBRANCH  11  13
ENDBRANCH  10  11
ENDBRANCH   1  10
TORSDOF 0
ENDMDL
