MODEL 1
REMARK VINA RESULT:    -5.492      0.000      0.000
REMARK INTER + INTRA:          -7.811
REMARK INTER:                  -7.739
REMARK INTRA:                  -0.072
REMARK UNBOUND:                -0.072
REMARK SMILES CC1=CCC(=C(C)C)C(=O)CC(C)=CCC1
REMARK SMILES IDX 12 1 14 2 13 3 15 4 16 5 2 6 1 7 3 8 11 10 9 11 10 12 5 13
REMARK SMILES IDX 6 14 7 15 8 16 4 17
REMARK H PARENT
REMARK Flexibility Score: 60.00
ROOT
ATOM      1  C   UNL     1      -7.565  33.365  21.316  1.00  0.00    -0.070 C 
ATOM      2  C   UNL     1      -7.565  34.517  22.028  1.00  0.00    -0.027 C 
ATOM      3  C   UNL     1      -7.595  33.460  19.813  1.00  0.00     0.039 C 
ENDROOT
BRANCH   2   4
ATOM      4  C   UNL     1      -7.390  34.609  23.522  1.00  0.00     0.032 C 
BRANCH   4   5
ATOM      5  C   UNL     1      -8.759  34.572  24.209  1.00  0.00     0.034 C 
BRANCH   5   6
ATOM      6  C   UNL     1      -8.733  33.798  25.513  1.00  0.00    -0.077 C 
ATOM      7  C   UNL     1      -8.017  34.400  26.695  1.00  0.00     0.039 C 
ATOM      8  C   UNL     1      -9.260  32.557  25.660  1.00  0.00    -0.023 CG0
ATOM      9  G   UNL     1     -10.073  31.773  24.644  1.00  0.00     0.000 G0
ENDBRANCH   5   6
ENDBRANCH   4   5
ENDBRANCH   2   4
BRANCH   1  10
ATOM     10  C   UNL     1      -7.558  31.991  21.955  1.00  0.00     0.111 C 
BRANCH  10  11
ATOM     11  C   UNL     1      -8.949  31.535  22.326  1.00  0.00     0.163 C 
ATOM     12  O   UNL     1      -9.858  31.713  21.470  1.00  0.00    -0.294 OA
BRANCH  11  13
ATOM     13  C   UNL     1      -9.300  30.913  23.646  1.00  0.00    -0.002 C 
ATOM     14  C   UNL     1      -9.070  29.583  23.872  1.00  0.00    -0.069 C 
ATOM     15  C   UNL     1      -8.211  28.760  22.937  1.00  0.00     0.039 C 
ATOM     16  C   UNL     1      -9.615  28.870  25.088  1.00  0.00     0.039 C 
BRANCH  13  17
ATOM     17  C   UNL     1     -10.079  31.760  24.646  1.00  0.00     0.066 CG0
ATOM     18  G   UNL     1      -9.257  32.553  25.646  1.00  0.00     0.000 G0
ENDBRANCH  13  17
ENDBRANCH  11  13
ENDBRANCH  10  11
ENDBRANCH   1  10
TORSDOF 0
ENDMDL
MODEL 2
REMARK VINA RESULT:    -5.434      2.166      4.139
REMARK INTER + INTRA:          -7.730
REMARK INTER:                  -7.550
REMARK INTRA:                  -0.180
REMARK UNBOUND:                -0.072
REMARK SMILES CC1=CCC(=C(C)C)C(=O)CC(C)=CCC1
REMARK SMILES IDX 12 1 14 2 13 3 15 4 16 5 2 6 1 7 3 8 11 10 9 11 10 12 5 13
REMARK SMILES IDX 6 14 7 15 8 16 4 17
REMARK H PARENT
REMARK Flexibility Score: 60.00
ROOT
ATOM      1  C   UNL     1      -8.553  32.603  26.988  1.00  0.00    -0.070 C 
ATOM      2  C   UNL     1      -8.225  33.734  26.322  1.00  0.00    -0.027 C 
ATOM      3  C   UNL     1      -8.220  32.522  28.455  1.00  0.00     0.039 C 
ENDROOT
BRANCH   2   4
ATOM      4  C   UNL     1      -8.613  34.042  24.898  1.00  0.00     0.032 C 
BRANCH   4   5
ATOM      5  C   UNL     1      -7.429  33.765  23.965  1.00  0.00     0.034 C 
BRANCH   5   6
ATOM      6  C   UNL     1      -7.851  33.080  22.679  1.00  0.00    -0.077 C 
ATOM      7  C   UNL     1      -8.439  33.920  21.574  1.00  0.00     0.039 C 
ATOM      8  C   UNL     1      -7.794  31.738  22.491  1.00  0.00    -0.023 CG0
ATOM      9  G   UNL     1      -7.195  30.699  23.424  1.00  0.00     0.000 G0
ENDBRANCH   5   6
ENDBRANCH   4   5
ENDBRANCH   2   4
BRANCH   1  10
ATOM     10  C   UNL     1      -9.219  31.411  26.330  1.00  0.00     0.111 C 
BRANCH  10  11
ATOM     11  C   UNL     1      -8.208  30.422  25.802  1.00  0.00     0.163 C 
ATOM     12  O   UNL     1      -7.356  29.980  26.621  1.00  0.00    -0.294 OA
BRANCH  11  13
ATOM     13  C   UNL     1      -8.153  29.965  24.373  1.00  0.00    -0.002 C 
ATOM     14  C   UNL     1      -8.825  28.840  23.977  1.00  0.00    -0.069 C 
ATOM     15  C   UNL     1      -9.860  28.184  24.864  1.00  0.00     0.039 C 
ATOM     16  C   UNL     1      -8.613  28.218  22.616  1.00  0.00     0.039 C 
BRANCH  13  17
ATOM     17  C   UNL     1      -7.189  30.680  23.434  1.00  0.00     0.066 CG0
ATOM     18  G   UNL     1      -7.793  31.727  22.515  1.00  0.00     0.000 G0
ENDBRANCH  13  17
ENDBRANCH  11  13
ENDBRANCH  10  11
ENDBRANCH   1  10
TORSDOF 0
ENDMDL
MODEL 3
REMARK VINA RESULT:    -5.263      1.213      3.881
REMARK INTER + INTRA:          -7.489
REMARK INTER:                  -7.900
REMARK INTRA:                   0.411
REMARK UNBOUND:                -0.072
REMARK SMILES CC1=CCC(=C(C)C)C(=O)CC(C)=CCC1
REMARK SMILES IDX 12 1 14 2 13 3 15 4 16 5 2 6 1 7 3 8 11 10 9 11 10 12 5 13
REMARK SMILES IDX 6 14 7 15 8 16 4 17
REMARK H PARENT
REMARK Flexibility Score: 60.00
ROOT
ATOM      1  C   UNL     1      -8.587  29.108  23.698  1.00  0.00    -0.070 C 
ATOM      2  C   UNL     1      -8.823  29.025  25.028  1.00  0.00    -0.027 C 
ATOM      3  C   UNL     1      -9.138  28.023  22.809  1.00  0.00     0.039 C 
ENDROOT
BRANCH   2   4
ATOM      4  C   UNL     1      -8.476  30.090  26.036  1.00  0.00     0.032 C 
BRANCH   4   5
ATOM      5  C   UNL     1      -9.453  31.264  25.910  1.00  0.00     0.034 C 
BRANCH   5   6
ATOM      6  C   UNL     1      -8.746  32.601  25.814  1.00  0.00    -0.077 C 
ATOM      7  C   UNL     1      -7.944  33.080  26.998  1.00  0.00     0.039 C 
ATOM      8  C   UNL     1      -8.851  33.430  24.745  1.00  0.00    -0.023 CG0
ATOM      9  G   UNL     1      -9.546  33.150  23.424  1.00  0.00     0.000 G0
ENDBRANCH   5   6
ENDBRANCH   4   5
ENDBRANCH   2   4
BRANCH   1  10
ATOM     10  C   UNL     1      -7.780  30.223  23.063  1.00  0.00     0.111 C 
BRANCH  10  11
ATOM     11  C   UNL     1      -8.629  31.090  22.163  1.00  0.00     0.163 C 
ATOM     12  O   UNL     1      -9.275  30.507  21.250  1.00  0.00    -0.294 OA
BRANCH  11  13
ATOM     13  C   UNL     1      -8.721  32.582  22.285  1.00  0.00    -0.002 C 
ATOM     14  C   UNL     1      -7.944  33.393  21.502  1.00  0.00    -0.069 C 
ATOM     15  C   UNL     1      -7.189  32.851  20.308  1.00  0.00     0.039 C 
ATOM     16  C   UNL     1      -7.834  34.880  21.750  1.00  0.00     0.039 C 
BRANCH  13  17
ATOM     17  C   UNL     1      -9.561  33.153  23.422  1.00  0.00     0.066 CG0
ATOM     18  G   UNL     1      -8.837  33.417  24.730  1.00  0.00     0.000 G0
ENDBRANCH  13  17
ENDBRANCH  11  13
ENDBRANCH  10  11
ENDBRANCH   1  10
TORSDOF 0
ENDMDL
MODEL 4
REMARK VINA RESULT:    -5.223      1.604      4.000
REMARK INTER + INTRA:          -7.433
REMARK INTER:                  -7.476
REMARK INTRA:                   0.043
REMARK UNBOUND:                -0.072
REMARK SMILES CC1=CCC(=C(C)C)C(=O)CC(C)=CCC1
REMARK SMILES IDX 12 1 14 2 13 3 15 4 16 5 2 6 1 7 3 8 11 10 9 11 10 12 5 13
REMARK SMILES IDX 6 14 7 15 8 16 4 17
REMARK H PARENT
REMARK Flexibility Score: 60.00
ROOT
ATOM      1  C   UNL     1      -8.015  32.757  21.101  1.00  0.00    -0.070 C 
ATOM      2  C   UNL     1      -8.053  31.404  21.132  1.00  0.00    -0.027 C 
ATOM      3  C   UNL     1      -7.133  33.419  20.074  1.00  0.00     0.039 C 
ENDROOT
BRANCH   2   4
ATOM      4  C   UNL     1      -8.984  30.585  21.988  1.00  0.00     0.032 C 
BRANCH   4   5
ATOM      5  C   UNL     1      -8.199  29.923  23.125  1.00  0.00     0.034 C 
BRANCH   5   6
ATOM      6  C   UNL     1      -8.808  30.194  24.487  1.00  0.00    -0.077 C 
ATOM      7  C   UNL     1      -9.840  29.233  25.020  1.00  0.00     0.039 C 
ATOM      8  C   UNL     1      -8.529  31.296  25.227  1.00  0.00    -0.023 CG0
ATOM      9  G   UNL     1      -7.495  32.368  24.934  1.00  0.00     0.000 G0
ENDBRANCH   5   6
ENDBRANCH   4   5
ENDBRANCH   2   4
BRANCH   1  10
ATOM     10  C   UNL     1      -8.798  33.634  22.057  1.00  0.00     0.111 C 
BRANCH  10  11
ATOM     11  C   UNL     1      -7.924  34.185  23.159  1.00  0.00     0.163 C 
ATOM     12  O   UNL     1      -7.059  35.042  22.830  1.00  0.00    -0.294 OA
BRANCH  11  13
ATOM     13  C   UNL     1      -8.018  33.754  24.593  1.00  0.00    -0.002 C 
ATOM     14  C   UNL     1      -8.400  34.642  25.563  1.00  0.00    -0.069 C 
ATOM     15  C   UNL     1      -9.010  35.981  25.211  1.00  0.00     0.039 C 
ATOM     16  C   UNL     1      -8.285  34.320  27.035  1.00  0.00     0.039 C 
BRANCH  13  17
ATOM     17  C   UNL     1      -7.501  32.366  24.954  1.00  0.00     0.066 CG0
ATOM     18  G   UNL     1      -8.552  31.304  25.227  1.00  0.00     0.000 G0
ENDBRANCH  13  17
ENDBRANCH  11  13
ENDBRANCH  10  11
ENDBRANCH   1  10
TORSDOF 0
ENDMDL
MODEL 5
REMARK VINA RESULT:    -5.080      1.626      3.664
REMARK INTER + INTRA:          -7.231
REMARK INTER:                  -7.498
REMARK INTRA:                   0.267
REMARK UNBOUND:                -0.072
REMARK SMILES CC1=CCC(=C(C)C)C(=O)CC(C)=CCC1
REMARK SMILES IDX 12 1 14 2 13 3 15 4 16 5 2 6 1 7 3 8 11 10 9 11 10 12 5 13
REMARK SMILES IDX 6 14 7 15 8 16 4 17
REMARK H PARENT
REMARK Flexibility Score: 60.00
ROOT
ATOM      1  C   UNL     1      -7.997  34.252  25.316  1.00  0.00    -0.070 C 
ATOM      2  C   UNL     1      -7.585  35.092  24.338  1.00  0.00    -0.027 C 
ATOM      3  C   UNL     1      -8.631  34.851  26.545  1.00  0.00     0.039 C 
ENDROOT
BRANCH   2   4
ATOM      4  C   UNL     1      -7.068  34.661  22.989  1.00  0.00     0.032 C 
BRANCH   4   5
ATOM      5  C   UNL     1      -8.240  34.475  22.019  1.00  0.00     0.034 C 
BRANCH   5   6
ATOM      6  C   UNL     1      -8.072  33.258  21.131  1.00  0.00    -0.077 C 
ATOM      7  C   UNL     1      -7.082  33.325  19.995  1.00  0.00     0.039 C 
ATOM      8  C   UNL     1      -8.815  32.130  21.256  1.00  0.00    -0.023 CG0
ATOM      9  G   UNL     1      -9.823  31.804  22.343  1.00  0.00     0.000 G0
ENDBRANCH   5   6
ENDBRANCH   4   5
ENDBRANCH   2   4
BRANCH   1  10
ATOM     10  C   UNL     1      -7.835  32.747  25.245  1.00  0.00     0.111 C 
BRANCH  10  11
ATOM     11  C   UNL     1      -9.117  32.061  24.834  1.00  0.00     0.163 C 
ATOM     12  O   UNL     1     -10.125  32.242  25.571  1.00  0.00    -0.294 OA
BRANCH  11  13
ATOM     13  C   UNL     1      -9.242  31.176  23.629  1.00  0.00    -0.002 C 
ATOM     14  C   UNL     1      -8.708  29.915  23.634  1.00  0.00    -0.069 C 
ATOM     15  C   UNL     1      -8.234  29.264  24.915  1.00  0.00     0.039 C 
ATOM     16  C   UNL     1      -8.606  29.083  22.377  1.00  0.00     0.039 C 
BRANCH  13  17
ATOM     17  C   UNL     1      -9.813  31.785  22.354  1.00  0.00     0.066 CG0
ATOM     18  G   UNL     1      -8.817  32.106  21.253  1.00  0.00     0.000 G0
ENDBRANCH  13  17
ENDBRANCH  11  13
ENDBRANCH  10  11
ENDBRANCH   1  10
TORSDOF 0
ENDMDL
MODEL 6
REMARK VINA RESULT:    -4.989      1.983      4.065
REMARK INTER + INTRA:          -7.103
REMARK INTER:                  -7.129
REMARK INTRA:                   0.026
REMARK UNBOUND:                -0.072
REMARK SMILES CC1=CCC(=C(C)C)C(=O)CC(C)=CCC1
REMARK SMILES IDX 12 1 14 2 13 3 15 4 16 5 2 6 1 7 3 8 11 10 9 11 10 12 5 13
REMARK SMILES IDX 6 14 7 15 8 16 4 17
REMARK H PARENT
REMARK Flexibility Score: 60.00
ROOT
ATOM      1  C   UNL     1      -8.148  31.003  26.469  1.00  0.00    -0.070 C 
ATOM      2  C   UNL     1      -7.905  32.052  27.288  1.00  0.00    -0.027 C 
ATOM      3  C   UNL     1      -7.650  29.644  26.889  1.00  0.00     0.039 C 
ENDROOT
BRANCH   2   4
ATOM      4  C   UNL     1      -8.455  33.443  27.098  1.00  0.00     0.032 C 
BRANCH   4   5
ATOM      5  C   UNL     1      -7.498  34.265  26.228  1.00  0.00     0.034 C 
BRANCH   5   6
ATOM      6  C   UNL     1      -8.212  34.987  25.101  1.00  0.00    -0.077 C 
ATOM      7  C   UNL     1      -9.126  36.135  25.445  1.00  0.00     0.039 C 
ATOM      8  C   UNL     1      -8.130  34.612  23.800  1.00  0.00    -0.023 CG0
ATOM      9  G   UNL     1      -7.241  33.535  23.203  1.00  0.00     0.000 G0
ENDBRANCH   5   6
ENDBRANCH   4   5
ENDBRANCH   2   4
BRANCH   1  10
ATOM     10  C   UNL     1      -8.877  31.129  25.145  1.00  0.00     0.111 C 
BRANCH  10  11
ATOM     11  C   UNL     1      -7.921  31.145  23.976  1.00  0.00     0.163 C 
ATOM     12  O   UNL     1      -7.062  30.223  23.927  1.00  0.00    -0.294 OA
BRANCH  11  13
ATOM     13  C   UNL     1      -7.929  32.196  22.905  1.00  0.00    -0.002 C 
ATOM     14  C   UNL     1      -8.387  31.904  21.648  1.00  0.00    -0.069 C 
ATOM     15  C   UNL     1      -9.154  30.632  21.363  1.00  0.00     0.039 C 
ATOM     16  C   UNL     1      -8.199  32.853  20.487  1.00  0.00     0.039 C 
BRANCH  13  17
ATOM     17  C   UNL     1      -7.248  33.526  23.208  1.00  0.00     0.066 CG0
ATOM     18  G   UNL     1      -8.126  34.615  23.799  1.00  0.00     0.000 G0
ENDBRANCH  13  17
ENDBRANCH  11  13
ENDBRANCH  10  11
ENDBRANCH   1  10
TORSDOF 0
ENDMDL
MODEL 7
REMARK VINA RESULT:    -4.889      2.069      3.780
REMARK INTER + INTRA:          -6.962
REMARK INTER:                  -7.285
REMARK INTRA:                   0.323
REMARK UNBOUND:                -0.072
REMARK SMILES CC1=CCC(=C(C)C)C(=O)CC(C)=CCC1
REMARK SMILES IDX 12 1 14 2 13 3 15 4 16 5 2 6 1 7 3 8 11 10 9 11 10 12 5 13
REMARK SMILES IDX 6 14 7 15 8 16 4 17
REMARK H PARENT
REMARK Flexibility Score: 60.00
ROOT
ATOM      1  C   UNL     1      -8.421  34.083  25.507  1.00  0.00    -0.070 C 
ATOM      2  C   UNL     1      -8.295  33.646  26.782  1.00  0.00    -0.027 C 
ATOM      3  C   UNL     1      -7.807  35.412  25.148  1.00  0.00     0.039 C 
ENDROOT
BRANCH   2   4
ATOM      4  C   UNL     1      -8.715  32.285  27.275  1.00  0.00     0.032 C 
BRANCH   4   5
ATOM      5  C   UNL     1      -7.574  31.283  27.069  1.00  0.00     0.034 C 
BRANCH   5   6
ATOM      6  C   UNL     1      -8.044  29.992  26.428  1.00  0.00    -0.077 C 
ATOM      7  C   UNL     1      -8.781  28.990  27.280  1.00  0.00     0.039 C 
ATOM      8  C   UNL     1      -7.776  29.652  25.142  1.00  0.00    -0.023 CG0
ATOM      9  G   UNL     1      -7.107  30.508  24.081  1.00  0.00     0.000 G0
ENDBRANCH   5   6
ENDBRANCH   4   5
ENDBRANCH   2   4
BRANCH   1  10
ATOM     10  C   UNL     1      -9.162  33.313  24.432  1.00  0.00     0.111 C 
BRANCH  10  11
ATOM     11  C   UNL     1      -8.221  32.747  23.395  1.00  0.00     0.163 C 
ATOM     12  O   UNL     1      -7.570  33.574  22.700  1.00  0.00    -0.294 OA
BRANCH  11  13
ATOM     13  C   UNL     1      -8.045  31.279  23.141  1.00  0.00    -0.002 C 
ATOM     14  C   UNL     1      -8.819  30.635  22.213  1.00  0.00    -0.069 C 
ATOM     15  C   UNL     1      -9.664  31.403  21.221  1.00  0.00     0.039 C 
ATOM     16  C   UNL     1      -8.837  29.129  22.090  1.00  0.00     0.039 C 
BRANCH  13  17
ATOM     17  C   UNL     1      -7.116  30.503  24.068  1.00  0.00     0.066 CG0
ATOM     18  G   UNL     1      -7.782  29.656  25.138  1.00  0.00     0.000 G0
ENDBRANCH  13  17
ENDBRANCH  11  13
ENDBRANCH  10  11
ENDBRANCH   1  10
TORSDOF 0
ENDMDL
MODEL 8
REMARK VINA RESULT:    -4.674      2.456      4.278
REMARK INTER + INTRA:          -6.659
REMARK INTER:                  -6.638
REMARK INTRA:                  -0.021
REMARK UNBOUND:                -0.072
REMARK SMILES CC1=CCC(=C(C)C)C(=O)CC(C)=CCC1
REMARK SMILES IDX 12 1 14 2 13 3 15 4 16 5 2 6 1 7 3 8 11 10 9 11 10 12 5 13
REMARK SMILES IDX 6 14 7 15 8 16 4 17
REMARK H PARENT
REMARK Flexibility Score: 60.00
ROOT
ATOM      1  C   UNL     1      -8.174  33.912  24.616  1.00  0.00    -0.070 C 
ATOM      2  C   UNL     1      -7.759  33.557  23.378  1.00  0.00    -0.027 C 
ATOM      3  C   UNL     1      -7.625  35.183  25.211  1.00  0.00     0.039 C 
ENDROOT
BRANCH   2   4
ATOM      4  C   UNL     1      -8.313  32.405  22.578  1.00  0.00     0.032 C 
BRANCH   4   5
ATOM      5  C   UNL     1      -7.383  31.193  22.700  1.00  0.00     0.034 C 
BRANCH   5   6
ATOM      6  C   UNL     1      -8.128  29.925  23.070  1.00  0.00    -0.077 C 
ATOM      7  C   UNL     1      -8.854  29.172  21.985  1.00  0.00     0.039 C 
ATOM      8  C   UNL     1      -8.237  29.464  24.342  1.00  0.00    -0.023 CG0
ATOM      9  G   UNL     1      -7.556  30.010  25.584  1.00  0.00     0.000 G0
ENDBRANCH   5   6
ENDBRANCH   4   5
ENDBRANCH   2   4
BRANCH   1  10
ATOM     10  C   UNL     1      -9.145  33.087  25.439  1.00  0.00     0.111 C 
BRANCH  10  11
ATOM     11  C   UNL     1      -8.437  32.277  26.498  1.00  0.00     0.163 C 
ATOM     12  O   UNL     1      -7.774  32.915  27.360  1.00  0.00    -0.294 OA
BRANCH  11  13
ATOM     13  C   UNL     1      -8.466  30.777  26.561  1.00  0.00    -0.002 C 
ATOM     14  C   UNL     1      -9.149  30.135  27.558  1.00  0.00    -0.069 C 
ATOM     15  C   UNL     1     -10.121  30.874  28.451  1.00  0.00     0.039 C 
ATOM     16  C   UNL     1      -9.015  28.649  27.793  1.00  0.00     0.039 C 
BRANCH  13  17
ATOM     17  C   UNL     1      -7.568  30.008  25.598  1.00  0.00     0.066 CG0
ATOM     18  G   UNL     1      -8.233  29.449  24.353  1.00  0.00     0.000 G0
ENDBRANCH  13  17
ENDBRANCH  11  13
ENDBRANCH  10  11
ENDBRANCH   1  10
TORSDOF 0
ENDMDL
MODEL 9
REMARK VINA RESULT:    -4.673      1.951      5.226
REMARK INTER + INTRA:          -6.657
REMARK INTER:                  -6.544
REMARK INTRA:                  -0.114
REMARK UNBOUND:                -0.072
REMARK SMILES CC1=CCC(=C(C)C)C(=O)CC(C)=CCC1
REMARK SMILES IDX 12 1 14 2 13 3 15 4 16 5 2 6 1 7 3 8 11 10 9 11 10 12 5 13
REMARK SMILES IDX 6 14 7 15 8 16 4 17
REMARK H PARENT
REMARK Flexibility Score: 60.00
ROOT
ATOM      1  C   UNL     1      -8.263  31.570  27.328  1.00  0.00    -0.070 C 
ATOM      2  C   UNL     1      -8.702  30.292  27.253  1.00  0.00    -0.027 C 
ATOM      3  C   UNL     1      -8.587  32.360  28.570  1.00  0.00     0.039 C 
ENDROOT
BRANCH   2   4
ATOM      4  C   UNL     1      -8.346  29.320  26.158  1.00  0.00     0.032 C 
BRANCH   4   5
ATOM      5  C   UNL     1      -9.458  29.293  25.104  1.00  0.00     0.034 C 
BRANCH   5   6
ATOM      6  C   UNL     1      -8.920  29.374  23.689  1.00  0.00    -0.077 C 
ATOM      7  C   UNL     1      -8.329  28.132  23.070  1.00  0.00     0.039 C 
ATOM      8  C   UNL     1      -8.873  30.522  22.968  1.00  0.00    -0.023 CG0
ATOM      9  G   UNL     1      -9.450  31.874  23.348  1.00  0.00     0.000 G0
ENDBRANCH   5   6
ENDBRANCH   4   5
ENDBRANCH   2   4
BRANCH   1  10
ATOM     10  C   UNL     1      -7.481  32.250  26.222  1.00  0.00     0.111 C 
BRANCH  10  11
ATOM     11  C   UNL     1      -8.369  33.105  25.349  1.00  0.00     0.163 C 
ATOM     12  O   UNL     1      -9.057  33.991  25.926  1.00  0.00    -0.294 OA
BRANCH  11  13
ATOM     13  C   UNL     1      -8.487  32.940  23.862  1.00  0.00    -0.002 C 
ATOM     14  C   UNL     1      -7.867  33.817  23.014  1.00  0.00    -0.069 C 
ATOM     15  C   UNL     1      -6.825  34.795  23.511  1.00  0.00     0.039 C 
ATOM     16  C   UNL     1      -8.146  33.828  21.528  1.00  0.00     0.039 C 
BRANCH  13  17
ATOM     17  C   UNL     1      -9.458  31.888  23.338  1.00  0.00     0.066 CG0
ATOM     18  G   UNL     1      -8.862  30.539  22.975  1.00  0.00     0.000 G0
ENDBRANCH  13  17
ENDBRANCH  11  13
ENDBRANCH  10  11
ENDBRANCH   1  10
TORSDOF 0
ENDMDL
