MODEL 1
REMARK VINA RESULT:    -6.875      0.000      0.000
REMARK INTER + INTRA:         -10.039
REMARK INTER:                  -9.287
REMARK INTRA:                  -0.752
REMARK UNBOUND:                -0.752
REMARK SMILES O=c1c(-c2ccc(O)cc2)coc2c([C@@H]3O[C@H](CO)[C@H](O)[C@H](O)[C@H]3O)c(O)ccc12
REMARK SMILES IDX 3 1 11 2 12 3 13 4 30 5 2 6 1 7 29 8 28 9 26 10 14 11 4 12
REMARK SMILES IDX 5 13 6 14 7 15 10 16 9 17 8 18 15 20 24 21 16 22 22 23 17 24
REMARK SMILES IDX 20 25 25 26 23 28 18 30 19 31 21 33 27 35
REMARK H PARENT 8 19 25 27 23 29 19 32 21 34 27 36
REMARK Flexibility Score: inf
ROOT
ATOM      1  C   UNL     1      25.591  -0.299  36.116  1.00  0.00     0.065 A 
ATOM      2  C   UNL     1      26.263   0.814  36.622  1.00  0.00     0.208 A 
ATOM      3  O   UNL     1      25.625   1.749  37.317  1.00  0.00    -0.463 OA
ATOM      4  C   UNL     1      24.319   1.701  37.562  1.00  0.00     0.147 A 
ATOM      5  C   UNL     1      23.550   0.654  37.002  1.00  0.00     0.066 A 
ATOM      6  C   UNL     1      24.205  -0.373  36.294  1.00  0.00     0.200 A 
ATOM      7  O   UNL     1      23.564  -1.366  35.856  1.00  0.00    -0.288 OA
ATOM      8  C   UNL     1      22.174   0.619  37.231  1.00  0.00     0.020 A 
ATOM      9  C   UNL     1      21.565   1.591  38.009  1.00  0.00     0.047 A 
ATOM     10  C   UNL     1      22.306   2.631  38.612  1.00  0.00     0.125 A 
ATOM     11  C   UNL     1      23.733   2.614  38.477  1.00  0.00     0.069 A 
ENDROOT
BRANCH   1  12
ATOM     12  C   UNL     1      26.358  -1.401  35.497  1.00  0.00    -0.011 A 
ATOM     13  C   UNL     1      25.838  -2.095  34.383  1.00  0.00     0.013 A 
ATOM     14  C   UNL     1      26.521  -3.199  33.863  1.00  0.00     0.047 A 
ATOM     15  C   UNL     1      27.707  -3.636  34.451  1.00  0.00     0.115 A 
ATOM     16  C   UNL     1      27.557  -1.843  36.084  1.00  0.00     0.013 A 
ATOM     17  C   UNL     1      28.218  -2.961  35.565  1.00  0.00     0.047 A 
BRANCH  15  18
ATOM     18  O   UNL     1      28.356  -4.760  33.949  1.00  0.00    -0.508 OA
ATOM     19  H   UNL     1      29.159  -5.153  34.415  1.00  0.00     0.293 HD
ENDBRANCH  15  18
ENDBRANCH   1  12
BRANCH  11  20
ATOM     20  C   UNL     1      24.692   3.002  39.601  1.00  0.00     0.188 C 
ATOM     21  C   UNL     1      25.249   4.448  39.614  1.00  0.00     0.179 C 
ATOM     22  O   UNL     1      23.959   2.764  40.803  1.00  0.00    -0.362 OA
ATOM     23  C   UNL     1      26.118   4.652  40.884  1.00  0.00     0.177 C 
ATOM     24  C   UNL     1      24.800   2.742  41.933  1.00  0.00     0.176 C 
ATOM     25  C   UNL     1      25.378   4.166  42.157  1.00  0.00     0.177 C 
BRANCH  21  26
ATOM     26  O   UNL     1      26.007   4.696  38.461  1.00  0.00    -0.387 OA
ATOM     27  H   UNL     1      26.885   5.066  38.744  1.00  0.00     0.211 HD
ENDBRANCH  21  26
BRANCH  23  28
ATOM     28  O   UNL     1      26.484   5.995  41.044  1.00  0.00    -0.387 OA
ATOM     29  H   UNL     1      26.273   6.450  40.185  1.00  0.00     0.211 HD
ENDBRANCH  23  28
BRANCH  24  30
ATOM     30  C   UNL     1      24.013   2.208  43.184  1.00  0.00     0.191 C 
BRANCH  30  31
ATOM     31  O   UNL     1      23.623   0.868  43.010  1.00  0.00    -0.394 OA
ATOM     32  H   UNL     1      23.748   0.389  43.878  1.00  0.00     0.210 HD
ENDBRANCH  30  31
ENDBRANCH  24  30
BRANCH  25  33
ATOM     33  O   UNL     1      24.370   5.076  42.525  1.00  0.00    -0.388 OA
ATOM     34  H   UNL     1      23.519   4.578  42.602  1.00  0.00     0.211 HD
ENDBRANCH  25  33
ENDBRANCH  11  20
BRANCH  10  35
ATOM     35  O   UNL     1      21.623   3.627  39.338  1.00  0.00    -0.507 OA
ATOM     36  H   UNL     1      21.014   3.415  40.132  1.00  0.00     0.293 HD
ENDBRANCH  10  35
TORSDOF 9
ENDMDL
MODEL 2
REMARK VINA RESULT:    -6.285      2.090      8.400
REMARK INTER + INTRA:          -9.242
REMARK INTER:                  -8.039
REMARK INTRA:                  -1.203
REMARK UNBOUND:                -0.752
REMARK SMILES O=c1c(-c2ccc(O)cc2)coc2c([C@@H]3O[C@H](CO)[C@H](O)[C@H](O)[C@H]3O)c(O)ccc12
REMARK SMILES IDX 3 1 11 2 12 3 13 4 30 5 2 6 1 7 29 8 28 9 26 10 14 11 4 12
REMARK SMILES IDX 5 13 6 14 7 15 10 16 9 17 8 18 15 20 24 21 16 22 22 23 17 24
REMARK SMILES IDX 20 25 25 26 23 28 18 30 19 31 21 33 27 35
REMARK H PARENT 8 19 25 27 23 29 19 32 21 34 27 36
REMARK Flexibility Score: inf
ROOT
ATOM      1  C   UNL     1      24.957   2.926  39.545  1.00  0.00     0.065 A 
ATOM      2  C   UNL     1      24.282   2.118  38.629  1.00  0.00     0.208 A 
ATOM      3  O   UNL     1      24.880   1.677  37.528  1.00  0.00    -0.463 OA
ATOM      4  C   UNL     1      26.136   1.982  37.215  1.00  0.00     0.147 A 
ATOM      5  C   UNL     1      26.855   2.873  38.044  1.00  0.00     0.066 A 
ATOM      6  C   UNL     1      26.263   3.326  39.240  1.00  0.00     0.200 A 
ATOM      7  O   UNL     1      26.906   4.051  40.046  1.00  0.00    -0.288 OA
ATOM      8  C   UNL     1      28.163   3.220  37.702  1.00  0.00     0.020 A 
ATOM      9  C   UNL     1      28.758   2.688  36.570  1.00  0.00     0.047 A 
ATOM     10  C   UNL     1      28.082   1.769  35.737  1.00  0.00     0.125 A 
ATOM     11  C   UNL     1      26.782   1.320  36.139  1.00  0.00     0.069 A 
ENDROOT
BRANCH   1  12
ATOM     12  C   UNL     1      24.322   3.258  40.839  1.00  0.00    -0.011 A 
ATOM     13  C   UNL     1      24.541   2.444  41.971  1.00  0.00     0.013 A 
ATOM     14  C   UNL     1      23.861   2.706  43.165  1.00  0.00     0.047 A 
ATOM     15  C   UNL     1      22.947   3.756  43.241  1.00  0.00     0.115 A 
ATOM     16  C   UNL     1      23.403   4.319  40.922  1.00  0.00     0.013 A 
ATOM     17  C   UNL     1      22.716   4.556  42.116  1.00  0.00     0.047 A 
BRANCH  15  18
ATOM     18  O   UNL     1      22.247   3.981  44.423  1.00  0.00    -0.508 OA
ATOM     19  H   UNL     1      22.232   3.294  45.160  1.00  0.00     0.293 HD
ENDBRANCH  15  18
ENDBRANCH   1  12
BRANCH  11  20
ATOM     20  C   UNL     1      26.295  -0.118  35.969  1.00  0.00     0.188 C 
ATOM     21  C   UNL     1      25.166  -0.387  34.943  1.00  0.00     0.179 C 
ATOM     22  O   UNL     1      27.461  -0.854  35.596  1.00  0.00    -0.362 OA
ATOM     23  C   UNL     1      24.897  -1.914  34.863  1.00  0.00     0.177 C 
ATOM     24  C   UNL     1      27.268  -2.243  35.732  1.00  0.00     0.176 C 
ATOM     25  C   UNL     1      26.217  -2.709  34.689  1.00  0.00     0.177 C 
BRANCH  21  26
ATOM     26  O   UNL     1      23.996   0.294  35.306  1.00  0.00    -0.387 OA
ATOM     27  H   UNL     1      23.464   0.453  34.482  1.00  0.00     0.211 HD
ENDBRANCH  21  26
BRANCH  23  28
ATOM     28  O   UNL     1      24.024  -2.226  33.811  1.00  0.00    -0.387 OA
ATOM     29  H   UNL     1      24.239  -1.599  33.070  1.00  0.00     0.211 HD
ENDBRANCH  23  28
BRANCH  24  30
ATOM     30  C   UNL     1      28.638  -2.998  35.585  1.00  0.00     0.191 C 
BRANCH  30  31
ATOM     31  O   UNL     1      29.695  -2.100  35.348  1.00  0.00    -0.394 OA
ATOM     32  H   UNL     1      30.497  -2.624  35.067  1.00  0.00     0.210 HD
ENDBRANCH  30  31
ENDBRANCH  24  30
BRANCH  25  33
ATOM     33  O   UNL     1      26.707  -2.580  33.376  1.00  0.00    -0.388 OA
ATOM     34  H   UNL     1      27.309  -1.796  33.347  1.00  0.00     0.211 HD
ENDBRANCH  25  33
ENDBRANCH  11  20
BRANCH  10  35
ATOM     35  O   UNL     1      28.715   1.314  34.563  1.00  0.00    -0.507 OA
ATOM     36  H   UNL     1      28.418   1.600  33.627  1.00  0.00     0.293 HD
ENDBRANCH  10  35
TORSDOF 9
ENDMDL
MODEL 3
REMARK VINA RESULT:    -6.256      2.825      8.515
REMARK INTER + INTRA:          -9.203
REMARK INTER:                  -8.219
REMARK INTRA:                  -0.984
REMARK UNBOUND:                -0.752
REMARK SMILES O=c1c(-c2ccc(O)cc2)coc2c([C@@H]3O[C@H](CO)[C@H](O)[C@H](O)[C@H]3O)c(O)ccc12
REMARK SMILES IDX 3 1 11 2 12 3 13 4 30 5 2 6 1 7 29 8 28 9 26 10 14 11 4 12
REMARK SMILES IDX 5 13 6 14 7 15 10 16 9 17 8 18 15 20 24 21 16 22 22 23 17 24
REMARK SMILES IDX 20 25 25 26 23 28 18 30 19 31 21 33 27 35
REMARK H PARENT 8 19 25 27 23 29 19 32 21 34 27 36
REMARK Flexibility Score: inf
ROOT
ATOM      1  C   UNL     1      21.873   3.638  38.869  1.00  0.00     0.065 A 
ATOM      2  C   UNL     1      22.087   2.260  38.836  1.00  0.00     0.208 A 
ATOM      3  O   UNL     1      22.124   1.594  37.687  1.00  0.00    -0.463 OA
ATOM      4  C   UNL     1      21.944   2.179  36.507  1.00  0.00     0.147 A 
ATOM      5  C   UNL     1      21.627   3.557  36.462  1.00  0.00     0.066 A 
ATOM      6  C   UNL     1      21.621   4.298  37.661  1.00  0.00     0.200 A 
ATOM      7  O   UNL     1      21.428   5.544  37.649  1.00  0.00    -0.288 OA
ATOM      8  C   UNL     1      21.407   4.168  35.227  1.00  0.00     0.020 A 
ATOM      9  C   UNL     1      21.511   3.438  34.053  1.00  0.00     0.047 A 
ATOM     10  C   UNL     1      21.859   2.069  34.058  1.00  0.00     0.125 A 
ATOM     11  C   UNL     1      22.196   1.459  35.310  1.00  0.00     0.069 A 
ENDROOT
BRANCH   1  12
ATOM     12  C   UNL     1      22.008   4.372  40.145  1.00  0.00    -0.011 A 
ATOM     13  C   UNL     1      23.178   4.241  40.924  1.00  0.00     0.013 A 
ATOM     14  C   UNL     1      23.260   4.860  42.176  1.00  0.00     0.047 A 
ATOM     15  C   UNL     1      22.183   5.591  42.673  1.00  0.00     0.115 A 
ATOM     16  C   UNL     1      20.925   5.115  40.649  1.00  0.00     0.013 A 
ATOM     17  C   UNL     1      21.015   5.711  41.911  1.00  0.00     0.047 A 
BRANCH  15  18
ATOM     18  O   UNL     1      22.262   6.168  43.938  1.00  0.00    -0.508 OA
ATOM     19  H   UNL     1      22.954   6.870  44.150  1.00  0.00     0.293 HD
ENDBRANCH  15  18
ENDBRANCH   1  12
BRANCH  11  20
ATOM     20  C   UNL     1      23.318   0.436  35.476  1.00  0.00     0.188 C 
ATOM     21  C   UNL     1      23.069  -1.005  34.965  1.00  0.00     0.179 C 
ATOM     22  O   UNL     1      24.431   1.001  34.781  1.00  0.00    -0.362 OA
ATOM     23  C   UNL     1      24.363  -1.844  35.145  1.00  0.00     0.177 C 
ATOM     24  C   UNL     1      25.639   0.359  35.119  1.00  0.00     0.176 C 
ATOM     25  C   UNL     1      25.600  -1.098  34.584  1.00  0.00     0.177 C 
BRANCH  21  26
ATOM     26  O   UNL     1      22.005  -1.598  35.659  1.00  0.00    -0.387 OA
ATOM     27  H   UNL     1      22.173  -1.489  36.632  1.00  0.00     0.211 HD
ENDBRANCH  21  26
BRANCH  23  28
ATOM     28  O   UNL     1      24.252  -3.095  34.521  1.00  0.00    -0.387 OA
ATOM     29  H   UNL     1      24.553  -2.971  33.582  1.00  0.00     0.211 HD
ENDBRANCH  23  28
BRANCH  24  30
ATOM     30  C   UNL     1      26.860   1.174  34.560  1.00  0.00     0.191 C 
BRANCH  30  31
ATOM     31  O   UNL     1      26.754   1.367  33.170  1.00  0.00    -0.394 OA
ATOM     32  H   UNL     1      27.532   1.915  32.868  1.00  0.00     0.210 HD
ENDBRANCH  30  31
ENDBRANCH  24  30
BRANCH  25  33
ATOM     33  O   UNL     1      25.604  -1.126  33.176  1.00  0.00    -0.388 OA
ATOM     34  H   UNL     1      24.674  -1.263  32.868  1.00  0.00     0.211 HD
ENDBRANCH  25  33
ENDBRANCH  11  20
BRANCH  10  35
ATOM     35  O   UNL     1      21.884   1.365  32.838  1.00  0.00    -0.507 OA
ATOM     36  H   UNL     1      22.059   1.819  31.938  1.00  0.00     0.293 HD
ENDBRANCH  10  35
TORSDOF 9
ENDMDL
MODEL 4
REMARK VINA RESULT:    -6.217      2.670      8.378
REMARK INTER + INTRA:          -9.149
REMARK INTER:                  -8.135
REMARK INTRA:                  -1.014
REMARK UNBOUND:                -0.752
REMARK SMILES O=c1c(-c2ccc(O)cc2)coc2c([C@@H]3O[C@H](CO)[C@H](O)[C@H](O)[C@H]3O)c(O)ccc12
REMARK SMILES IDX 3 1 11 2 12 3 13 4 30 5 2 6 1 7 29 8 28 9 26 10 14 11 4 12
REMARK SMILES IDX 5 13 6 14 7 15 10 16 9 17 8 18 15 20 24 21 16 22 22 23 17 24
REMARK SMILES IDX 20 25 25 26 23 28 18 30 19 31 21 33 27 35
REMARK H PARENT 8 19 25 27 23 29 19 32 21 34 27 36
REMARK Flexibility Score: inf
ROOT
ATOM      1  C   UNL     1      22.173   3.624  39.064  1.00  0.00     0.065 A 
ATOM      2  C   UNL     1      22.121   2.237  38.922  1.00  0.00     0.208 A 
ATOM      3  O   UNL     1      22.287   1.658  37.737  1.00  0.00    -0.463 OA
ATOM      4  C   UNL     1      22.494   2.347  36.619  1.00  0.00     0.147 A 
ATOM      5  C   UNL     1      22.465   3.760  36.665  1.00  0.00     0.066 A 
ATOM      6  C   UNL     1      22.332   4.402  37.912  1.00  0.00     0.200 A 
ATOM      7  O   UNL     1      22.389   5.659  38.002  1.00  0.00    -0.288 OA
ATOM      8  C   UNL     1      22.651   4.486  35.488  1.00  0.00     0.020 A 
ATOM      9  C   UNL     1      22.874   3.833  34.287  1.00  0.00     0.047 A 
ATOM     10  C   UNL     1      22.943   2.424  34.209  1.00  0.00     0.125 A 
ATOM     11  C   UNL     1      22.866   1.673  35.427  1.00  0.00     0.069 A 
ENDROOT
BRANCH   1  12
ATOM     12  C   UNL     1      22.156   4.224  40.415  1.00  0.00    -0.011 A 
ATOM     13  C   UNL     1      23.090   3.814  41.391  1.00  0.00     0.013 A 
ATOM     14  C   UNL     1      23.007   4.313  42.695  1.00  0.00     0.047 A 
ATOM     15  C   UNL     1      21.990   5.201  43.047  1.00  0.00     0.115 A 
ATOM     16  C   UNL     1      21.136   5.123  40.774  1.00  0.00     0.013 A 
ATOM     17  C   UNL     1      21.053   5.598  42.087  1.00  0.00     0.047 A 
BRANCH  15  18
ATOM     18  O   UNL     1      21.895   5.658  44.359  1.00  0.00    -0.508 OA
ATOM     19  H   UNL     1      21.276   6.415  44.604  1.00  0.00     0.293 HD
ENDBRANCH  15  18
ENDBRANCH   1  12
BRANCH  11  20
ATOM     20  C   UNL     1      23.704   0.426  35.705  1.00  0.00     0.188 C 
ATOM     21  C   UNL     1      23.303  -0.892  34.997  1.00  0.00     0.179 C 
ATOM     22  O   UNL     1      25.031   0.788  35.319  1.00  0.00    -0.362 OA
ATOM     23  C   UNL     1      24.337  -1.996  35.344  1.00  0.00     0.177 C 
ATOM     24  C   UNL     1      25.987  -0.117  35.824  1.00  0.00     0.176 C 
ATOM     25  C   UNL     1      25.788  -1.493  35.134  1.00  0.00     0.177 C 
BRANCH  21  26
ATOM     26  O   UNL     1      22.017  -1.291  35.389  1.00  0.00    -0.387 OA
ATOM     27  H   UNL     1      22.039  -1.491  36.362  1.00  0.00     0.211 HD
ENDBRANCH  21  26
BRANCH  23  28
ATOM     28  O   UNL     1      24.130  -3.151  34.576  1.00  0.00    -0.387 OA
ATOM     29  H   UNL     1      24.043  -2.851  33.632  1.00  0.00     0.211 HD
ENDBRANCH  23  28
BRANCH  24  30
ATOM     30  C   UNL     1      27.435   0.456  35.620  1.00  0.00     0.191 C 
BRANCH  30  31
ATOM     31  O   UNL     1      28.392  -0.574  35.575  1.00  0.00    -0.394 OA
ATOM     32  H   UNL     1      29.151  -0.274  34.999  1.00  0.00     0.210 HD
ENDBRANCH  30  31
ENDBRANCH  24  30
BRANCH  25  33
ATOM     33  O   UNL     1      26.101  -1.429  33.763  1.00  0.00    -0.388 OA
ATOM     34  H   UNL     1      27.046  -1.154  33.675  1.00  0.00     0.211 HD
ENDBRANCH  25  33
ENDBRANCH  11  20
BRANCH  10  35
ATOM     35  O   UNL     1      23.106   1.815  32.949  1.00  0.00    -0.507 OA
ATOM     36  H   UNL     1      23.595   2.268  32.173  1.00  0.00     0.293 HD
ENDBRANCH  10  35
TORSDOF 9
ENDMDL
MODEL 5
REMARK VINA RESULT:    -6.139      4.995     10.603
REMARK INTER + INTRA:          -9.045
REMARK INTER:                  -8.025
REMARK INTRA:                  -1.020
REMARK UNBOUND:                -0.752
REMARK SMILES O=c1c(-c2ccc(O)cc2)coc2c([C@@H]3O[C@H](CO)[C@H](O)[C@H](O)[C@H]3O)c(O)ccc12
REMARK SMILES IDX 3 1 11 2 12 3 13 4 30 5 2 6 1 7 29 8 28 9 26 10 14 11 4 12
REMARK SMILES IDX 5 13 6 14 7 15 10 16 9 17 8 18 15 20 24 21 16 22 22 23 17 24
REMARK SMILES IDX 20 25 25 26 23 28 18 30 19 31 21 33 27 35
REMARK H PARENT 8 19 25 27 23 29 19 32 21 34 27 36
REMARK Flexibility Score: inf
ROOT
ATOM      1  C   UNL     1      28.022  -2.655  35.092  1.00  0.00     0.065 A 
ATOM      2  C   UNL     1      29.126  -1.906  35.499  1.00  0.00     0.208 A 
ATOM      3  O   UNL     1      30.366  -2.310  35.246  1.00  0.00    -0.463 OA
ATOM      4  C   UNL     1      30.640  -3.447  34.613  1.00  0.00     0.147 A 
ATOM      5  C   UNL     1      29.578  -4.308  34.253  1.00  0.00     0.066 A 
ATOM      6  C   UNL     1      28.251  -3.888  34.472  1.00  0.00     0.200 A 
ATOM      7  O   UNL     1      27.278  -4.591  34.085  1.00  0.00    -0.288 OA
ATOM      8  C   UNL     1      29.864  -5.517  33.617  1.00  0.00     0.020 A 
ATOM      9  C   UNL     1      31.174  -5.867  33.328  1.00  0.00     0.047 A 
ATOM     10  C   UNL     1      32.256  -5.016  33.642  1.00  0.00     0.125 A 
ATOM     11  C   UNL     1      31.967  -3.725  34.193  1.00  0.00     0.069 A 
ENDROOT
BRANCH   1  12
ATOM     12  C   UNL     1      26.661  -2.096  35.237  1.00  0.00    -0.011 A 
ATOM     13  C   UNL     1      26.229  -1.581  36.478  1.00  0.00     0.013 A 
ATOM     14  C   UNL     1      24.910  -1.143  36.636  1.00  0.00     0.047 A 
ATOM     15  C   UNL     1      24.006  -1.232  35.577  1.00  0.00     0.115 A 
ATOM     16  C   UNL     1      25.747  -2.178  34.171  1.00  0.00     0.013 A 
ATOM     17  C   UNL     1      24.426  -1.755  34.349  1.00  0.00     0.047 A 
BRANCH  15  18
ATOM     18  O   UNL     1      22.686  -0.830  35.759  1.00  0.00    -0.508 OA
ATOM     19  H   UNL     1      22.460   0.108  36.049  1.00  0.00     0.293 HD
ENDBRANCH  15  18
ENDBRANCH   1  12
BRANCH  11  20
ATOM     20  C   UNL     1      32.733  -2.457  33.822  1.00  0.00     0.188 C 
ATOM     21  C   UNL     1      33.860  -1.984  34.774  1.00  0.00     0.179 C 
ATOM     22  O   UNL     1      33.284  -2.730  32.533  1.00  0.00    -0.362 OA
ATOM     23  C   UNL     1      34.564  -0.744  34.161  1.00  0.00     0.177 C 
ATOM     24  C   UNL     1      33.731  -1.555  31.895  1.00  0.00     0.176 C 
ATOM     25  C   UNL     1      34.946  -0.990  32.678  1.00  0.00     0.177 C 
BRANCH  21  26
ATOM     26  O   UNL     1      33.339  -1.671  36.038  1.00  0.00    -0.387 OA
ATOM     27  H   UNL     1      32.965  -0.752  35.997  1.00  0.00     0.211 HD
ENDBRANCH  21  26
BRANCH  23  28
ATOM     28  O   UNL     1      35.712  -0.396  34.885  1.00  0.00    -0.387 OA
ATOM     29  H   UNL     1      35.839  -1.104  35.572  1.00  0.00     0.211 HD
ENDBRANCH  23  28
BRANCH  24  30
ATOM     30  C   UNL     1      34.069  -1.851  30.390  1.00  0.00     0.191 C 
BRANCH  30  31
ATOM     31  O   UNL     1      34.511  -3.175  30.214  1.00  0.00    -0.394 OA
ATOM     32  H   UNL     1      35.503  -3.192  30.320  1.00  0.00     0.210 HD
ENDBRANCH  30  31
ENDBRANCH  24  30
BRANCH  25  33
ATOM     33  O   UNL     1      36.059  -1.847  32.586  1.00  0.00    -0.388 OA
ATOM     34  H   UNL     1      35.748  -2.773  32.744  1.00  0.00     0.211 HD
ENDBRANCH  25  33
ENDBRANCH  11  20
BRANCH  10  35
ATOM     35  O   UNL     1      33.570  -5.455  33.384  1.00  0.00    -0.507 OA
ATOM     36  H   UNL     1      34.165  -5.033  32.667  1.00  0.00     0.293 HD
ENDBRANCH  10  35
TORSDOF 9
ENDMDL
MODEL 6
REMARK VINA RESULT:    -6.049      3.338      4.506
REMARK INTER + INTRA:          -8.923
REMARK INTER:                  -7.987
REMARK INTRA:                  -0.936
REMARK UNBOUND:                -0.752
REMARK SMILES O=c1c(-c2ccc(O)cc2)coc2c([C@@H]3O[C@H](CO)[C@H](O)[C@H](O)[C@H]3O)c(O)ccc12
REMARK SMILES IDX 3 1 11 2 12 3 13 4 30 5 2 6 1 7 29 8 28 9 26 10 14 11 4 12
REMARK SMILES IDX 5 13 6 14 7 15 10 16 9 17 8 18 15 20 24 21 16 22 22 23 17 24
REMARK SMILES IDX 20 25 25 26 23 28 18 30 19 31 21 33 27 35
REMARK H PARENT 8 19 25 27 23 29 19 32 21 34 27 36
REMARK Flexibility Score: inf
ROOT
ATOM      1  C   UNL     1      26.282   2.339  34.110  1.00  0.00     0.065 A 
ATOM      2  C   UNL     1      25.541   3.330  34.755  1.00  0.00     0.208 A 
ATOM      3  O   UNL     1      24.562   3.021  35.599  1.00  0.00    -0.463 OA
ATOM      4  C   UNL     1      24.212   1.767  35.871  1.00  0.00     0.147 A 
ATOM      5  C   UNL     1      24.851   0.709  35.184  1.00  0.00     0.066 A 
ATOM      6  C   UNL     1      25.920   1.003  34.314  1.00  0.00     0.200 A 
ATOM      7  O   UNL     1      26.569   0.079  33.752  1.00  0.00    -0.288 OA
ATOM      8  C   UNL     1      24.464  -0.607  35.444  1.00  0.00     0.020 A 
ATOM      9  C   UNL     1      23.473  -0.877  36.374  1.00  0.00     0.047 A 
ATOM     10  C   UNL     1      22.837   0.152  37.103  1.00  0.00     0.125 A 
ATOM     11  C   UNL     1      23.304   1.495  36.927  1.00  0.00     0.069 A 
ENDROOT
BRANCH   1  12
ATOM     12  C   UNL     1      27.470   2.712  33.314  1.00  0.00    -0.011 A 
ATOM     13  C   UNL     1      28.768   2.540  33.843  1.00  0.00     0.013 A 
ATOM     14  C   UNL     1      29.883   2.985  33.126  1.00  0.00     0.047 A 
ATOM     15  C   UNL     1      29.722   3.620  31.895  1.00  0.00     0.115 A 
ATOM     16  C   UNL     1      27.314   3.348  32.069  1.00  0.00     0.013 A 
ATOM     17  C   UNL     1      28.437   3.806  31.373  1.00  0.00     0.047 A 
BRANCH  15  18
ATOM     18  O   UNL     1      30.838   4.094  31.210  1.00  0.00    -0.508 OA
ATOM     19  H   UNL     1      31.224   5.004  31.407  1.00  0.00     0.293 HD
ENDBRANCH  15  18
ENDBRANCH   1  12
BRANCH  11  20
ATOM     20  C   UNL     1      23.426   2.504  38.068  1.00  0.00     0.188 C 
ATOM     21  C   UNL     1      22.171   2.775  38.935  1.00  0.00     0.179 C 
ATOM     22  O   UNL     1      24.473   1.992  38.894  1.00  0.00    -0.362 OA
ATOM     23  C   UNL     1      22.542   3.750  40.085  1.00  0.00     0.177 C 
ATOM     24  C   UNL     1      24.947   2.964  39.798  1.00  0.00     0.176 C 
ATOM     25  C   UNL     1      23.826   3.288  40.821  1.00  0.00     0.177 C 
BRANCH  21  26
ATOM     26  O   UNL     1      21.139   3.315  38.155  1.00  0.00    -0.387 OA
ATOM     27  H   UNL     1      21.256   2.991  37.222  1.00  0.00     0.211 HD
ENDBRANCH  21  26
BRANCH  23  28
ATOM     28  O   UNL     1      21.495   3.874  41.009  1.00  0.00    -0.387 OA
ATOM     29  H   UNL     1      21.684   3.227  41.740  1.00  0.00     0.211 HD
ENDBRANCH  23  28
BRANCH  24  30
ATOM     30  C   UNL     1      26.266   2.463  40.488  1.00  0.00     0.191 C 
BRANCH  30  31
ATOM     31  O   UNL     1      26.125   1.149  40.971  1.00  0.00    -0.394 OA
ATOM     32  H   UNL     1      26.604   1.081  41.844  1.00  0.00     0.210 HD
ENDBRANCH  30  31
ENDBRANCH  24  30
BRANCH  25  33
ATOM     33  O   UNL     1      23.554   2.183  41.651  1.00  0.00    -0.388 OA
ATOM     34  H   UNL     1      23.469   2.509  42.580  1.00  0.00     0.211 HD
ENDBRANCH  25  33
ENDBRANCH  11  20
BRANCH  10  35
ATOM     35  O   UNL     1      21.791  -0.180  37.987  1.00  0.00    -0.507 OA
ATOM     36  H   UNL     1      21.018  -0.797  37.724  1.00  0.00     0.293 HD
ENDBRANCH  10  35
TORSDOF 9
ENDMDL
MODEL 7
REMARK VINA RESULT:    -6.026      4.585      7.106
REMARK INTER + INTRA:          -8.892
REMARK INTER:                  -8.439
REMARK INTRA:                  -0.453
REMARK UNBOUND:                -0.752
REMARK SMILES O=c1c(-c2ccc(O)cc2)coc2c([C@@H]3O[C@H](CO)[C@H](O)[C@H](O)[C@H]3O)c(O)ccc12
REMARK SMILES IDX 3 1 11 2 12 3 13 4 30 5 2 6 1 7 29 8 28 9 26 10 14 11 4 12
REMARK SMILES IDX 5 13 6 14 7 15 10 16 9 17 8 18 15 20 24 21 16 22 22 23 17 24
REMARK SMILES IDX 20 25 25 26 23 28 18 30 19 31 21 33 27 35
REMARK H PARENT 8 19 25 27 23 29 19 32 21 34 27 36
REMARK Flexibility Score: inf
ROOT
ATOM      1  C   UNL     1      22.596   3.275  32.972  1.00  0.00     0.065 A 
ATOM      2  C   UNL     1      23.823   2.807  33.444  1.00  0.00     0.208 A 
ATOM      3  O   UNL     1      23.983   2.448  34.713  1.00  0.00    -0.463 OA
ATOM      4  C   UNL     1      23.007   2.525  35.613  1.00  0.00     0.147 A 
ATOM      5  C   UNL     1      21.762   3.079  35.235  1.00  0.00     0.066 A 
ATOM      6  C   UNL     1      21.550   3.430  33.887  1.00  0.00     0.200 A 
ATOM      7  O   UNL     1      20.425   3.846  33.497  1.00  0.00    -0.288 OA
ATOM      8  C   UNL     1      20.746   3.190  36.186  1.00  0.00     0.020 A 
ATOM      9  C   UNL     1      20.948   2.750  37.485  1.00  0.00     0.047 A 
ATOM     10  C   UNL     1      22.166   2.161  37.889  1.00  0.00     0.125 A 
ATOM     11  C   UNL     1      23.175   1.940  36.896  1.00  0.00     0.069 A 
ENDROOT
BRANCH   1  12
ATOM     12  C   UNL     1      22.406   3.502  31.523  1.00  0.00    -0.011 A 
ATOM     13  C   UNL     1      22.069   2.429  30.670  1.00  0.00     0.013 A 
ATOM     14  C   UNL     1      21.986   2.630  29.288  1.00  0.00     0.047 A 
ATOM     15  C   UNL     1      22.256   3.884  28.741  1.00  0.00     0.115 A 
ATOM     16  C   UNL     1      22.671   4.766  30.966  1.00  0.00     0.013 A 
ATOM     17  C   UNL     1      22.605   4.947  29.581  1.00  0.00     0.047 A 
BRANCH  15  18
ATOM     18  O   UNL     1      22.209   4.061  27.361  1.00  0.00    -0.508 OA
ATOM     19  H   UNL     1      22.815   4.720  26.898  1.00  0.00     0.293 HD
ENDBRANCH  15  18
ENDBRANCH   1  12
BRANCH  11  20
ATOM     20  C   UNL     1      24.058   0.694  36.851  1.00  0.00     0.188 C 
ATOM     21  C   UNL     1      23.569  -0.513  36.014  1.00  0.00     0.179 C 
ATOM     22  O   UNL     1      25.309   1.154  36.337  1.00  0.00    -0.362 OA
ATOM     23  C   UNL     1      24.655  -1.623  36.030  1.00  0.00     0.177 C 
ATOM     24  C   UNL     1      26.338   0.216  36.550  1.00  0.00     0.176 C 
ATOM     25  C   UNL     1      26.053  -1.046  35.691  1.00  0.00     0.177 C 
BRANCH  21  26
ATOM     26  O   UNL     1      22.360  -1.010  36.523  1.00  0.00    -0.387 OA
ATOM     27  H   UNL     1      22.034  -0.375  37.214  1.00  0.00     0.211 HD
ENDBRANCH  21  26
BRANCH  23  28
ATOM     28  O   UNL     1      24.347  -2.654  35.131  1.00  0.00    -0.387 OA
ATOM     29  H   UNL     1      23.969  -3.398  35.672  1.00  0.00     0.211 HD
ENDBRANCH  23  28
BRANCH  24  30
ATOM     30  C   UNL     1      27.734   0.861  36.228  1.00  0.00     0.191 C 
BRANCH  30  31
ATOM     31  O   UNL     1      28.561  -0.032  35.521  1.00  0.00    -0.394 OA
ATOM     32  H   UNL     1      28.125  -0.239  34.647  1.00  0.00     0.210 HD
ENDBRANCH  30  31
ENDBRANCH  24  30
BRANCH  25  33
ATOM     33  O   UNL     1      26.156  -0.764  34.316  1.00  0.00    -0.388 OA
ATOM     34  H   UNL     1      27.040  -0.352  34.151  1.00  0.00     0.211 HD
ENDBRANCH  25  33
ENDBRANCH  11  20
BRANCH  10  35
ATOM     35  O   UNL     1      22.335   1.795  39.239  1.00  0.00    -0.507 OA
ATOM     36  H   UNL     1      22.062   0.879  39.603  1.00  0.00     0.293 HD
ENDBRANCH  10  35
TORSDOF 9
ENDMDL
MODEL 8
REMARK VINA RESULT:    -5.988      2.236      7.810
REMARK INTER + INTRA:          -8.840
REMARK INTER:                  -7.880
REMARK INTRA:                  -0.960
REMARK UNBOUND:                -0.752
REMARK SMILES O=c1c(-c2ccc(O)cc2)coc2c([C@@H]3O[C@H](CO)[C@H](O)[C@H](O)[C@H]3O)c(O)ccc12
REMARK SMILES IDX 3 1 11 2 12 3 13 4 30 5 2 6 1 7 29 8 28 9 26 10 14 11 4 12
REMARK SMILES IDX 5 13 6 14 7 15 10 16 9 17 8 18 15 20 24 21 16 22 22 23 17 24
REMARK SMILES IDX 20 25 25 26 23 28 18 30 19 31 21 33 27 35
REMARK H PARENT 8 19 25 27 23 29 19 32 21 34 27 36
REMARK Flexibility Score: inf
ROOT
ATOM      1  C   UNL     1      25.781   4.163  40.042  1.00  0.00     0.065 A 
ATOM      2  C   UNL     1      25.628   2.779  40.125  1.00  0.00     0.208 A 
ATOM      3  O   UNL     1      24.886   2.113  39.247  1.00  0.00    -0.463 OA
ATOM      4  C   UNL     1      24.231   2.709  38.255  1.00  0.00     0.147 A 
ATOM      5  C   UNL     1      24.258   4.119  38.161  1.00  0.00     0.066 A 
ATOM      6  C   UNL     1      25.069   4.850  39.052  1.00  0.00     0.200 A 
ATOM      7  O   UNL     1      25.185   6.101  38.943  1.00  0.00    -0.288 OA
ATOM      8  C   UNL     1      23.546   4.750  37.139  1.00  0.00     0.020 A 
ATOM      9  C   UNL     1      22.831   4.004  36.217  1.00  0.00     0.047 A 
ATOM     10  C   UNL     1      22.809   2.592  36.260  1.00  0.00     0.125 A 
ATOM     11  C   UNL     1      23.625   1.931  37.234  1.00  0.00     0.069 A 
ENDROOT
BRANCH   1  12
ATOM     12  C   UNL     1      26.746   4.850  40.927  1.00  0.00    -0.011 A 
ATOM     13  C   UNL     1      28.109   4.933  40.567  1.00  0.00     0.013 A 
ATOM     14  C   UNL     1      29.034   5.497  41.452  1.00  0.00     0.047 A 
ATOM     15  C   UNL     1      28.624   5.959  42.702  1.00  0.00     0.115 A 
ATOM     16  C   UNL     1      26.336   5.322  42.186  1.00  0.00     0.013 A 
ATOM     17  C   UNL     1      27.277   5.864  43.068  1.00  0.00     0.047 A 
BRANCH  15  18
ATOM     18  O   UNL     1      29.562   6.481  43.589  1.00  0.00    -0.508 OA
ATOM     19  H   UNL     1      30.129   5.878  44.164  1.00  0.00     0.293 HD
ENDBRANCH  15  18
ENDBRANCH   1  12
BRANCH  11  20
ATOM     20  C   UNL     1      24.395   0.641  36.956  1.00  0.00     0.188 C 
ATOM     21  C   UNL     1      23.698  -0.452  36.109  1.00  0.00     0.179 C 
ATOM     22  O   UNL     1      25.588   1.066  36.295  1.00  0.00    -0.362 OA
ATOM     23  C   UNL     1      24.688  -1.625  35.869  1.00  0.00     0.177 C 
ATOM     24  C   UNL     1      26.564   0.050  36.272  1.00  0.00     0.176 C 
ATOM     25  C   UNL     1      26.061  -1.109  35.369  1.00  0.00     0.177 C 
BRANCH  21  26
ATOM     26  O   UNL     1      22.543  -0.916  36.754  1.00  0.00    -0.387 OA
ATOM     27  H   UNL     1      22.153  -0.160  37.268  1.00  0.00     0.211 HD
ENDBRANCH  21  26
BRANCH  23  28
ATOM     28  O   UNL     1      24.174  -2.548  34.948  1.00  0.00    -0.387 OA
ATOM     29  H   UNL     1      23.338  -2.910  35.346  1.00  0.00     0.211 HD
ENDBRANCH  23  28
BRANCH  24  30
ATOM     30  C   UNL     1      27.942   0.632  35.794  1.00  0.00     0.191 C 
BRANCH  30  31
ATOM     31  O   UNL     1      28.818  -0.391  35.388  1.00  0.00    -0.394 OA
ATOM     32  H   UNL     1      28.723  -1.157  36.021  1.00  0.00     0.210 HD
ENDBRANCH  30  31
ENDBRANCH  24  30
BRANCH  25  33
ATOM     33  O   UNL     1      25.982  -0.709  34.021  1.00  0.00    -0.388 OA
ATOM     34  H   UNL     1      25.879  -1.520  33.465  1.00  0.00     0.211 HD
ENDBRANCH  25  33
ENDBRANCH  11  20
BRANCH  10  35
ATOM     35  O   UNL     1      22.009   1.892  35.335  1.00  0.00    -0.507 OA
ATOM     36  H   UNL     1      21.515   2.354  34.568  1.00  0.00     0.293 HD
ENDBRANCH  10  35
TORSDOF 9
ENDMDL
MODEL 9
REMARK VINA RESULT:    -5.879      8.453     10.438
REMARK INTER + INTRA:          -8.694
REMARK INTER:                  -7.192
REMARK INTRA:                  -1.502
REMARK UNBOUND:                -0.752
REMARK SMILES O=c1c(-c2ccc(O)cc2)coc2c([C@@H]3O[C@H](CO)[C@H](O)[C@H](O)[C@H]3O)c(O)ccc12
REMARK SMILES IDX 3 1 11 2 12 3 13 4 30 5 2 6 1 7 29 8 28 9 26 10 14 11 4 12
REMARK SMILES IDX 5 13 6 14 7 15 10 16 9 17 8 18 15 20 24 21 16 22 22 23 17 24
REMARK SMILES IDX 20 25 25 26 23 28 18 30 19 31 21 33 27 35
REMARK H PARENT 8 19 25 27 23 29 19 32 21 34 27 36
REMARK Flexibility Score: inf
ROOT
ATOM      1  C   UNL     1      33.513  -2.109  35.376  1.00  0.00     0.065 A 
ATOM      2  C   UNL     1      34.174  -2.728  36.438  1.00  0.00     0.208 A 
ATOM      3  O   UNL     1      34.897  -2.026  37.304  1.00  0.00    -0.463 OA
ATOM      4  C   UNL     1      35.056  -0.709  37.212  1.00  0.00     0.147 A 
ATOM      5  C   UNL     1      34.497  -0.023  36.109  1.00  0.00     0.066 A 
ATOM      6  C   UNL     1      33.691  -0.733  35.197  1.00  0.00     0.200 A 
ATOM      7  O   UNL     1      33.106  -0.137  34.252  1.00  0.00    -0.288 OA
ATOM      8  C   UNL     1      34.688   1.355  35.993  1.00  0.00     0.020 A 
ATOM      9  C   UNL     1      35.407   2.048  36.954  1.00  0.00     0.047 A 
ATOM     10  C   UNL     1      35.951   1.401  38.086  1.00  0.00     0.125 A 
ATOM     11  C   UNL     1      35.666   0.009  38.273  1.00  0.00     0.069 A 
ENDROOT
BRANCH   1  12
ATOM     12  C   UNL     1      32.581  -2.891  34.535  1.00  0.00    -0.011 A 
ATOM     13  C   UNL     1      31.233  -3.050  34.921  1.00  0.00     0.013 A 
ATOM     14  C   UNL     1      30.382  -3.871  34.175  1.00  0.00     0.047 A 
ATOM     15  C   UNL     1      30.861  -4.554  33.058  1.00  0.00     0.115 A 
ATOM     16  C   UNL     1      33.059  -3.578  33.405  1.00  0.00     0.013 A 
ATOM     17  C   UNL     1      32.201  -4.411  32.681  1.00  0.00     0.047 A 
BRANCH  15  18
ATOM     18  O   UNL     1      30.014  -5.400  32.347  1.00  0.00    -0.508 OA
ATOM     19  H   UNL     1      30.375  -6.054  31.672  1.00  0.00     0.293 HD
ENDBRANCH  15  18
ENDBRANCH   1  12
BRANCH  11  20
ATOM     20  C   UNL     1      35.378  -0.618  39.636  1.00  0.00     0.188 C 
ATOM     21  C   UNL     1      36.514  -1.416  40.323  1.00  0.00     0.179 C 
ATOM     22  O   UNL     1      34.998   0.480  40.468  1.00  0.00    -0.362 OA
ATOM     23  C   UNL     1      36.041  -1.879  41.727  1.00  0.00     0.177 C 
ATOM     24  C   UNL     1      34.373   0.045  41.654  1.00  0.00     0.176 C 
ATOM     25  C   UNL     1      35.416  -0.705  42.525  1.00  0.00     0.177 C 
BRANCH  21  26
ATOM     26  O   UNL     1      36.880  -2.523  39.545  1.00  0.00    -0.387 OA
ATOM     27  H   UNL     1      37.332  -3.180  40.138  1.00  0.00     0.211 HD
ENDBRANCH  21  26
BRANCH  23  28
ATOM     28  O   UNL     1      37.094  -2.434  42.465  1.00  0.00    -0.387 OA
ATOM     29  H   UNL     1      36.858  -3.387  42.624  1.00  0.00     0.211 HD
ENDBRANCH  23  28
BRANCH  24  30
ATOM     30  C   UNL     1      33.727   1.265  42.404  1.00  0.00     0.191 C 
BRANCH  30  31
ATOM     31  O   UNL     1      33.677   1.045  43.792  1.00  0.00    -0.394 OA
ATOM     32  H   UNL     1      34.548   1.331  44.188  1.00  0.00     0.210 HD
ENDBRANCH  30  31
ENDBRANCH  24  30
BRANCH  25  33
ATOM     33  O   UNL     1      36.417   0.169  42.991  1.00  0.00    -0.388 OA
ATOM     34  H   UNL     1      36.162   1.091  42.742  1.00  0.00     0.211 HD
ENDBRANCH  25  33
ENDBRANCH  11  20
BRANCH  10  35
ATOM     35  O   UNL     1      36.728   2.148  38.994  1.00  0.00    -0.507 OA
ATOM     36  H   UNL     1      36.586   2.111  40.006  1.00  0.00     0.293 HD
ENDBRANCH  10  35
TORSDOF 9
ENDMDL
