MODEL 1
REMARK VINA RESULT:    -3.939      0.000      0.000
REMARK INTER + INTRA:          -4.718
REMARK INTER:                  -4.630
REMARK INTRA:                  -0.088
REMARK UNBOUND:                -0.088
REMARK SMILES O=C([O-])CCC(=O)[O-]
REMARK SMILES IDX 4 1 2 2 1 3 3 4 5 5 6 6 7 7 8 8
REMARK H PARENT
REMARK Flexibility Score: inf
ROOT
ATOM      1  C   UNL     1      26.702  -7.221  -6.225  1.00  0.00     0.059 C 
ENDROOT
BRANCH   1   2
ATOM      2  C   UNL     1      28.039  -7.789  -6.594  1.00  0.00     0.042 C 
ATOM      3  O   UNL     1      28.332  -7.988  -7.802  1.00  0.00    -0.550 OA
ATOM      4  O   UNL     1      28.945  -8.137  -5.600  1.00  0.00    -0.550 OA
ENDBRANCH   1   2
BRANCH   1   5
ATOM      5  C   UNL     1      26.707  -5.690  -6.279  1.00  0.00     0.059 C 
BRANCH   5   6
ATOM      6  C   UNL     1      26.497  -5.088  -4.923  1.00  0.00     0.042 C 
ATOM      7  O   UNL     1      26.395  -3.839  -4.793  1.00  0.00    -0.550 OA
ATOM      8  O   UNL     1      26.370  -5.908  -3.810  1.00  0.00    -0.550 OA
ENDBRANCH   5   6
ENDBRANCH   1   5
TORSDOF 3
ENDMDL
MODEL 2
REMARK VINA RESULT:    -3.930      9.562     11.548
REMARK INTER + INTRA:          -4.707
REMARK INTER:                  -4.578
REMARK INTRA:                  -0.129
REMARK UNBOUND:                -0.088
REMARK SMILES O=C([O-])CCC(=O)[O-]
REMARK SMILES IDX 4 1 2 2 1 3 3 4 5 5 6 6 7 7 8 8
REMARK H PARENT
REMARK Flexibility Score: inf
ROOT
ATOM      1  C   UNL     1      17.477  -0.342  -4.541  1.00  0.00     0.059 C 
ENDROOT
BRANCH   1   2
ATOM      2  C   UNL     1      16.293  -0.729  -3.707  1.00  0.00     0.042 C 
ATOM      3  O   UNL     1      15.136  -0.709  -4.201  1.00  0.00    -0.550 OA
ATOM      4  O   UNL     1      16.466  -1.072  -2.372  1.00  0.00    -0.550 OA
ENDBRANCH   1   2
BRANCH   1   5
ATOM      5  C   UNL     1      18.767  -0.981  -4.017  1.00  0.00     0.059 C 
BRANCH   5   6
ATOM      6  C   UNL     1      18.974  -2.352  -4.582  1.00  0.00     0.042 C 
ATOM      7  O   UNL     1      18.997  -3.355  -3.820  1.00  0.00    -0.550 OA
ATOM      8  O   UNL     1      19.100  -2.528  -5.954  1.00  0.00    -0.550 OA
ENDBRANCH   5   6
ENDBRANCH   1   5
TORSDOF 3
ENDMDL
MODEL 3
REMARK VINA RESULT:    -3.926      9.519     11.004
REMARK INTER + INTRA:          -4.702
REMARK INTER:                  -4.599
REMARK INTRA:                  -0.103
REMARK UNBOUND:                -0.088
REMARK SMILES O=C([O-])CCC(=O)[O-]
REMARK SMILES IDX 4 1 2 2 1 3 3 4 5 5 6 6 7 7 8 8
REMARK H PARENT
REMARK Flexibility Score: inf
ROOT
ATOM      1  C   UNL     1      18.767  -1.113  -3.853  1.00  0.00     0.059 C 
ENDROOT
BRANCH   1   2
ATOM      2  C   UNL     1      19.029  -2.467  -4.440  1.00  0.00     0.042 C 
ATOM      3  O   UNL     1      19.195  -3.462  -3.689  1.00  0.00    -0.550 OA
ATOM      4  O   UNL     1      19.129  -2.619  -5.818  1.00  0.00    -0.550 OA
ENDBRANCH   1   2
BRANCH   1   5
ATOM      5  C   UNL     1      17.530  -0.458  -4.477  1.00  0.00     0.059 C 
BRANCH   5   6
ATOM      6  C   UNL     1      16.298  -0.720  -3.667  1.00  0.00     0.042 C 
ATOM      7  O   UNL     1      15.160  -0.651  -4.203  1.00  0.00    -0.550 OA
ATOM      8  O   UNL     1      16.407  -1.082  -2.331  1.00  0.00    -0.550 OA
ENDBRANCH   5   6
ENDBRANCH   1   5
TORSDOF 3
ENDMDL
MODEL 4
REMARK VINA RESULT:    -3.913      0.160      3.937
REMARK INTER + INTRA:          -4.687
REMARK INTER:                  -4.577
REMARK INTRA:                  -0.110
REMARK UNBOUND:                -0.088
REMARK SMILES O=C([O-])CCC(=O)[O-]
REMARK SMILES IDX 4 1 2 2 1 3 3 4 5 5 6 6 7 7 8 8
REMARK H PARENT
REMARK Flexibility Score: inf
ROOT
ATOM      1  C   UNL     1      26.798  -5.592  -6.204  1.00  0.00     0.059 C 
ENDROOT
BRANCH   1   2
ATOM      2  C   UNL     1      26.494  -5.122  -4.814  1.00  0.00     0.042 C 
ATOM      3  O   UNL     1      26.298  -5.954  -3.891  1.00  0.00    -0.550 OA
ATOM      4  O   UNL     1      26.388  -3.762  -4.549  1.00  0.00    -0.550 OA
ENDBRANCH   1   2
BRANCH   1   5
ATOM      5  C   UNL     1      26.705  -7.118  -6.315  1.00  0.00     0.059 C 
BRANCH   5   6
ATOM      6  C   UNL     1      28.043  -7.736  -6.577  1.00  0.00     0.042 C 
ATOM      7  O   UNL     1      28.371  -8.066  -7.748  1.00  0.00    -0.550 OA
ATOM      8  O   UNL     1      28.945  -7.910  -5.536  1.00  0.00    -0.550 OA
ENDBRANCH   5   6
ENDBRANCH   1   5
TORSDOF 3
ENDMDL
MODEL 5
REMARK VINA RESULT:    -3.884     11.471     12.341
REMARK INTER + INTRA:          -4.653
REMARK INTER:                  -4.537
REMARK INTRA:                  -0.117
REMARK UNBOUND:                -0.088
REMARK SMILES O=C([O-])CCC(=O)[O-]
REMARK SMILES IDX 4 1 2 2 1 3 3 4 5 5 6 6 7 7 8 8
REMARK H PARENT
REMARK Flexibility Score: inf
ROOT
ATOM      1  C   UNL     1      15.877  -0.692  -4.268  1.00  0.00     0.059 C 
ENDROOT
BRANCH   1   2
ATOM      2  C   UNL     1      16.641  -1.247  -3.104  1.00  0.00     0.042 C 
ATOM      3  O   UNL     1      16.316  -0.942  -1.928  1.00  0.00    -0.550 OA
ATOM      4  O   UNL     1      17.739  -2.070  -3.323  1.00  0.00    -0.550 OA
ENDBRANCH   1   2
BRANCH   1   5
ATOM      5  C   UNL     1      16.726   0.288  -5.084  1.00  0.00     0.059 C 
BRANCH   5   6
ATOM      6  C   UNL     1      17.032  -0.249  -6.449  1.00  0.00     0.042 C 
ATOM      7  O   UNL     1      16.691   0.397  -7.475  1.00  0.00    -0.550 OA
ATOM      8  O   UNL     1      17.731  -1.441  -6.587  1.00  0.00    -0.550 OA
ENDBRANCH   5   6
ENDBRANCH   1   5
TORSDOF 3
ENDMDL
MODEL 6
REMARK VINA RESULT:    -3.877      9.587     10.991
REMARK INTER + INTRA:          -4.645
REMARK INTER:                  -4.583
REMARK INTRA:                  -0.062
REMARK UNBOUND:                -0.088
REMARK SMILES O=C([O-])CCC(=O)[O-]
REMARK SMILES IDX 4 1 2 2 1 3 3 4 5 5 6 6 7 7 8 8
REMARK H PARENT
REMARK Flexibility Score: inf
ROOT
ATOM      1  C   UNL     1      17.732  -1.231  -5.600  1.00  0.00     0.059 C 
ENDROOT
BRANCH   1   2
ATOM      2  C   UNL     1      18.894  -2.173  -5.687  1.00  0.00     0.042 C 
ATOM      3  O   UNL     1      19.201  -2.702  -6.787  1.00  0.00    -0.550 OA
ATOM      4  O   UNL     1      19.614  -2.497  -4.544  1.00  0.00    -0.550 OA
ENDBRANCH   1   2
BRANCH   1   5
ATOM      5  C   UNL     1      17.683  -0.522  -4.242  1.00  0.00     0.059 C 
BRANCH   5   6
ATOM      6  C   UNL     1      16.393  -0.784  -3.527  1.00  0.00     0.042 C 
ATOM      7  O   UNL     1      16.393  -1.054  -2.297  1.00  0.00    -0.550 OA
ATOM      8  O   UNL     1      15.187  -0.687  -4.210  1.00  0.00    -0.550 OA
ENDBRANCH   5   6
ENDBRANCH   1   5
TORSDOF 3
ENDMDL
MODEL 7
REMARK VINA RESULT:    -3.873      0.772      1.237
REMARK INTER + INTRA:          -4.640
REMARK INTER:                  -4.543
REMARK INTRA:                  -0.098
REMARK UNBOUND:                -0.088
REMARK SMILES O=C([O-])CCC(=O)[O-]
REMARK SMILES IDX 4 1 2 2 1 3 3 4 5 5 6 6 7 7 8 8
REMARK H PARENT
REMARK Flexibility Score: inf
ROOT
ATOM      1  C   UNL     1      26.631  -7.138  -6.130  1.00  0.00     0.059 C 
ENDROOT
BRANCH   1   2
ATOM      2  C   UNL     1      27.968  -7.715  -6.485  1.00  0.00     0.042 C 
ATOM      3  O   UNL     1      28.272  -7.918  -7.689  1.00  0.00    -0.550 OA
ATOM      4  O   UNL     1      28.862  -8.066  -5.480  1.00  0.00    -0.550 OA
ENDBRANCH   1   2
BRANCH   1   5
ATOM      5  C   UNL     1      26.749  -5.679  -5.678  1.00  0.00     0.059 C 
BRANCH   5   6
ATOM      6  C   UNL     1      26.643  -5.551  -4.190  1.00  0.00     0.042 C 
ATOM      7  O   UNL     1      25.935  -6.359  -3.533  1.00  0.00    -0.550 OA
ATOM      8  O   UNL     1      27.360  -4.565  -3.523  1.00  0.00    -0.550 OA
ENDBRANCH   5   6
ENDBRANCH   1   5
TORSDOF 3
ENDMDL
MODEL 8
REMARK VINA RESULT:    -3.720      9.747     11.673
REMARK INTER + INTRA:          -4.460
REMARK INTER:                  -4.344
REMARK INTRA:                  -0.116
REMARK UNBOUND:                -0.088
REMARK SMILES O=C([O-])CCC(=O)[O-]
REMARK SMILES IDX 4 1 2 2 1 3 3 4 5 5 6 6 7 7 8 8
REMARK H PARENT
REMARK Flexibility Score: inf
ROOT
ATOM      1  C   UNL     1      17.282  -0.124  -4.889  1.00  0.00     0.059 C 
ENDROOT
BRANCH   1   2
ATOM      2  C   UNL     1      16.353  -0.783  -3.915  1.00  0.00     0.042 C 
ATOM      3  O   UNL     1      16.812  -1.474  -2.969  1.00  0.00    -0.550 OA
ATOM      4  O   UNL     1      14.978  -0.664  -4.077  1.00  0.00    -0.550 OA
ENDBRANCH   1   2
BRANCH   1   5
ATOM      5  C   UNL     1      17.443  -0.957  -6.166  1.00  0.00     0.059 C 
BRANCH   5   6
ATOM      6  C   UNL     1      18.779  -1.630  -6.222  1.00  0.00     0.042 C 
ATOM      7  O   UNL     1      19.695  -1.161  -6.949  1.00  0.00    -0.550 OA
ATOM      8  O   UNL     1      19.028  -2.751  -5.441  1.00  0.00    -0.550 OA
ENDBRANCH   5   6
ENDBRANCH   1   5
TORSDOF 3
ENDMDL
MODEL 9
REMARK VINA RESULT:    -3.697      9.184     10.280
REMARK INTER + INTRA:          -4.433
REMARK INTER:                  -4.306
REMARK INTRA:                  -0.127
REMARK UNBOUND:                -0.088
REMARK SMILES O=C([O-])CCC(=O)[O-]
REMARK SMILES IDX 4 1 2 2 1 3 3 4 5 5 6 6 7 7 8 8
REMARK H PARENT
REMARK Flexibility Score: inf
ROOT
ATOM      1  C   UNL     1      19.572  -2.111  -4.602  1.00  0.00     0.059 C 
ENDROOT
BRANCH   1   2
ATOM      2  C   UNL     1      19.030  -1.951  -5.990  1.00  0.00     0.042 C 
ATOM      3  O   UNL     1      19.161  -2.876  -6.833  1.00  0.00    -0.550 OA
ATOM      4  O   UNL     1      18.416  -0.761  -6.363  1.00  0.00    -0.550 OA
ENDBRANCH   1   2
BRANCH   1   5
ATOM      5  C   UNL     1      18.541  -2.750  -3.665  1.00  0.00     0.059 C 
BRANCH   5   6
ATOM      6  C   UNL     1      17.704  -1.716  -2.977  1.00  0.00     0.042 C 
ATOM      7  O   UNL     1      16.578  -1.398  -3.443  1.00  0.00    -0.550 OA
ATOM      8  O   UNL     1      18.149  -1.134  -1.796  1.00  0.00    -0.550 OA
ENDBRANCH   5   6
ENDBRANCH   1   5
TORSDOF 3
ENDMDL
