MODEL 1
REMARK VINA RESULT:    -3.540      0.000      0.000
REMARK INTER + INTRA:         -11.188
REMARK INTER:                  -7.679
REMARK INTRA:                  -3.509
REMARK UNBOUND:                -3.509
REMARK SMILES CCCCCCCCCCCCCCCCCCCCCC(=O)[O-]
REMARK SMILES IDX 12 1 11 2 10 3 9 4 8 5 7 6 6 7 5 8 4 9 3 10 2 11 1 12 13 13
REMARK SMILES IDX 14 14 15 15 16 16 17 17 18 18 19 19 20 20 21 21 22 22 23 23
REMARK SMILES IDX 24 24
REMARK H PARENT
REMARK Flexibility Score: inf
ROOT
ATOM      1  C   UNL     1      25.266  23.249  18.036  1.00  0.00     0.000 C 
ENDROOT
BRANCH   1   2
ATOM      2  C   UNL     1      24.023  23.959  18.608  1.00  0.00     0.000 C 
BRANCH   2   3
ATOM      3  C   UNL     1      23.305  24.911  17.630  1.00  0.00     0.000 C 
BRANCH   3   4
ATOM      4  C   UNL     1      21.775  24.977  17.784  1.00  0.00    -0.000 C 
BRANCH   4   5
ATOM      5  C   UNL     1      21.295  24.527  19.175  1.00  0.00    -0.000 C 
BRANCH   5   6
ATOM      6  C   UNL     1      21.198  25.692  20.172  1.00  0.00    -0.000 C 
BRANCH   6   7
ATOM      7  C   UNL     1      20.901  27.037  19.491  1.00  0.00    -0.000 C 
BRANCH   7   8
ATOM      8  C   UNL     1      21.615  28.188  20.216  1.00  0.00    -0.000 C 
BRANCH   8   9
ATOM      9  C   UNL     1      23.038  27.818  20.660  1.00  0.00    -0.000 C 
BRANCH   9  10
ATOM     10  C   UNL     1      24.076  28.016  19.545  1.00  0.00    -0.000 C 
BRANCH  10  11
ATOM     11  C   UNL     1      25.309  27.136  19.783  1.00  0.00    -0.003 C 
ATOM     12  C   UNL     1      26.438  27.496  18.821  1.00  0.00     0.004 C 
ENDBRANCH  10  11
ENDBRANCH   9  10
ENDBRANCH   8   9
ENDBRANCH   7   8
ENDBRANCH   6   7
ENDBRANCH   5   6
ENDBRANCH   4   5
ENDBRANCH   3   4
ENDBRANCH   2   3
ENDBRANCH   1   2
BRANCH   1  13
ATOM     13  C   UNL     1      25.157  21.714  17.956  1.00  0.00     0.000 C 
BRANCH  13  14
ATOM     14  C   UNL     1      23.860  21.124  18.543  1.00  0.00     0.000 C 
BRANCH  14  15
ATOM     15  C   UNL     1      22.880  20.538  17.505  1.00  0.00     0.000 C 
BRANCH  15  16
ATOM     16  C   UNL     1      21.498  21.211  17.464  1.00  0.00     0.000 C 
BRANCH  16  17
ATOM     17  C   UNL     1      20.877  21.216  16.060  1.00  0.00     0.000 C 
BRANCH  17  18
ATOM     18  C   UNL     1      21.030  22.589  15.395  1.00  0.00     0.000 C 
BRANCH  18  19
ATOM     19  C   UNL     1      21.252  22.445  13.881  1.00  0.00     0.000 C 
BRANCH  19  20
ATOM     20  C   UNL     1      22.693  22.775  13.460  1.00  0.00     0.006 C 
BRANCH  20  21
ATOM     21  C   UNL     1      23.656  22.841  14.652  1.00  0.00     0.053 C 
BRANCH  21  22
ATOM     22  C   UNL     1      25.067  22.986  14.176  1.00  0.00     0.041 C 
ATOM     23  O   UNL     1      25.776  23.946  14.577  1.00  0.00    -0.550 OA
ATOM     24  O   UNL     1      25.583  22.091  13.248  1.00  0.00    -0.550 OA
ENDBRANCH  21  22
ENDBRANCH  20  21
ENDBRANCH  19  20
ENDBRANCH  18  19
ENDBRANCH  17  18
ENDBRANCH  16  17
ENDBRANCH  15  16
ENDBRANCH  14  15
ENDBRANCH  13  14
ENDBRANCH   1  13
TORSDOF 20
ENDMDL
MODEL 2
REMARK VINA RESULT:    -3.470      1.246      2.782
REMARK INTER + INTRA:         -11.035
REMARK INTER:                  -7.609
REMARK INTRA:                  -3.426
REMARK UNBOUND:                -3.509
REMARK SMILES CCCCCCCCCCCCCCCCCCCCCC(=O)[O-]
REMARK SMILES IDX 12 1 11 2 10 3 9 4 8 5 7 6 6 7 5 8 4 9 3 10 2 11 1 12 13 13
REMARK SMILES IDX 14 14 15 15 16 16 17 17 18 18 19 19 20 20 21 21 22 22 23 23
REMARK SMILES IDX 24 24
REMARK H PARENT
REMARK Flexibility Score: inf
ROOT
ATOM      1  C   UNL     1      25.719  23.211  17.331  1.00  0.00     0.000 C 
ENDROOT
BRANCH   1   2
ATOM      2  C   UNL     1      25.469  24.733  17.333  1.00  0.00     0.000 C 
BRANCH   2   3
ATOM      3  C   UNL     1      24.712  25.270  18.566  1.00  0.00     0.000 C 
BRANCH   3   4
ATOM      4  C   UNL     1      25.568  26.077  19.559  1.00  0.00    -0.000 C 
BRANCH   4   5
ATOM      5  C   UNL     1      26.184  27.338  18.930  1.00  0.00    -0.000 C 
BRANCH   5   6
ATOM      6  C   UNL     1      25.903  28.606  19.753  1.00  0.00    -0.000 C 
BRANCH   6   7
ATOM      7  C   UNL     1      24.997  28.341  20.966  1.00  0.00    -0.000 C 
BRANCH   7   8
ATOM      8  C   UNL     1      23.802  29.306  20.977  1.00  0.00    -0.000 C 
BRANCH   8   9
ATOM      9  C   UNL     1      22.594  28.765  20.196  1.00  0.00    -0.000 C 
BRANCH   9  10
ATOM     10  C   UNL     1      22.220  27.331  20.602  1.00  0.00    -0.000 C 
BRANCH  10  11
ATOM     11  C   UNL     1      21.489  26.613  19.462  1.00  0.00    -0.003 C 
ATOM     12  C   UNL     1      21.702  27.330  18.131  1.00  0.00     0.004 C 
ENDBRANCH  10  11
ENDBRANCH   9  10
ENDBRANCH   8   9
ENDBRANCH   7   8
ENDBRANCH   6   7
ENDBRANCH   5   6
ENDBRANCH   4   5
ENDBRANCH   3   4
ENDBRANCH   2   3
ENDBRANCH   1   2
BRANCH   1  13
ATOM     13  C   UNL     1      25.364  22.494  18.649  1.00  0.00     0.000 C 
BRANCH  13  14
ATOM     14  C   UNL     1      24.589  21.173  18.481  1.00  0.00     0.000 C 
BRANCH  14  15
ATOM     15  C   UNL     1      23.093  21.331  18.139  1.00  0.00     0.000 C 
BRANCH  15  16
ATOM     16  C   UNL     1      22.437  22.615  18.674  1.00  0.00     0.000 C 
BRANCH  16  17
ATOM     17  C   UNL     1      21.302  23.126  17.775  1.00  0.00     0.000 C 
BRANCH  17  18
ATOM     18  C   UNL     1      21.856  23.941  16.600  1.00  0.00     0.000 C 
BRANCH  18  19
ATOM     19  C   UNL     1      21.728  23.160  15.281  1.00  0.00     0.000 C 
BRANCH  19  20
ATOM     20  C   UNL     1      23.021  22.422  14.902  1.00  0.00     0.006 C 
BRANCH  20  21
ATOM     21  C   UNL     1      23.604  22.898  13.566  1.00  0.00     0.053 C 
BRANCH  21  22
ATOM     22  C   UNL     1      25.098  22.916  13.624  1.00  0.00     0.041 C 
ATOM     23  O   UNL     1      25.708  23.971  13.941  1.00  0.00    -0.550 OA
ATOM     24  O   UNL     1      25.821  21.782  13.279  1.00  0.00    -0.550 OA
ENDBRANCH  21  22
ENDBRANCH  20  21
ENDBRANCH  19  20
ENDBRANCH  18  19
ENDBRANCH  17  18
ENDBRANCH  16  17
ENDBRANCH  15  16
ENDBRANCH  14  15
ENDBRANCH  13  14
ENDBRANCH   1  13
TORSDOF 20
ENDMDL
MODEL 3
REMARK VINA RESULT:    -3.370      2.067      3.182
REMARK INTER + INTRA:         -10.819
REMARK INTER:                  -7.947
REMARK INTRA:                  -2.871
REMARK UNBOUND:                -3.509
REMARK SMILES CCCCCCCCCCCCCCCCCCCCCC(=O)[O-]
REMARK SMILES IDX 12 1 11 2 10 3 9 4 8 5 7 6 6 7 5 8 4 9 3 10 2 11 1 12 13 13
REMARK SMILES IDX 14 14 15 15 16 16 17 17 18 18 19 19 20 20 21 21 22 22 23 23
REMARK SMILES IDX 24 24
REMARK H PARENT
REMARK Flexibility Score: inf
ROOT
ATOM      1  C   UNL     1      24.185  21.430  18.285  1.00  0.00     0.000 C 
ENDROOT
BRANCH   1   2
ATOM      2  C   UNL     1      22.781  21.927  17.888  1.00  0.00     0.000 C 
BRANCH   2   3
ATOM      3  C   UNL     1      22.560  23.447  18.031  1.00  0.00     0.000 C 
BRANCH   3   4
ATOM      4  C   UNL     1      21.708  23.875  19.240  1.00  0.00    -0.000 C 
BRANCH   4   5
ATOM      5  C   UNL     1      21.456  25.392  19.287  1.00  0.00    -0.000 C 
BRANCH   5   6
ATOM      6  C   UNL     1      22.131  26.138  18.124  1.00  0.00    -0.000 C 
BRANCH   6   7
ATOM      7  C   UNL     1      21.879  27.653  18.162  1.00  0.00    -0.000 C 
BRANCH   7   8
ATOM      8  C   UNL     1      22.505  28.282  19.416  1.00  0.00    -0.000 C 
BRANCH   8   9
ATOM      9  C   UNL     1      23.954  28.738  19.192  1.00  0.00    -0.000 C 
BRANCH   9  10
ATOM     10  C   UNL     1      24.880  28.367  20.360  1.00  0.00    -0.000 C 
BRANCH  10  11
ATOM     11  C   UNL     1      24.958  26.845  20.535  1.00  0.00    -0.003 C 
ATOM     12  C   UNL     1      25.575  26.180  19.308  1.00  0.00     0.004 C 
ENDBRANCH  10  11
ENDBRANCH   9  10
ENDBRANCH   8   9
ENDBRANCH   7   8
ENDBRANCH   6   7
ENDBRANCH   5   6
ENDBRANCH   4   5
ENDBRANCH   3   4
ENDBRANCH   2   3
ENDBRANCH   1   2
BRANCH   1  13
ATOM     13  C   UNL     1      25.250  22.536  18.418  1.00  0.00     0.000 C 
BRANCH  13  14
ATOM     14  C   UNL     1      26.106  22.769  17.158  1.00  0.00     0.000 C 
BRANCH  14  15
ATOM     15  C   UNL     1      25.767  24.047  16.364  1.00  0.00     0.000 C 
BRANCH  15  16
ATOM     16  C   UNL     1      25.478  23.826  14.869  1.00  0.00     0.000 C 
BRANCH  16  17
ATOM     17  C   UNL     1      24.770  22.491  14.589  1.00  0.00     0.000 C 
BRANCH  17  18
ATOM     18  C   UNL     1      23.622  22.677  13.591  1.00  0.00     0.000 C 
BRANCH  18  19
ATOM     19  C   UNL     1      22.276  22.815  14.321  1.00  0.00     0.000 C 
BRANCH  19  20
ATOM     20  C   UNL     1      21.094  22.994  13.355  1.00  0.00     0.006 C 
BRANCH  20  21
ATOM     21  C   UNL     1      21.315  24.138  12.356  1.00  0.00     0.053 C 
BRANCH  21  22
ATOM     22  C   UNL     1      21.242  23.627  10.953  1.00  0.00     0.041 C 
ATOM     23  O   UNL     1      21.260  22.389  10.727  1.00  0.00    -0.550 OA
ATOM     24  O   UNL     1      21.204  24.520   9.889  1.00  0.00    -0.550 OA
ENDBRANCH  21  22
ENDBRANCH  20  21
ENDBRANCH  19  20
ENDBRANCH  18  19
ENDBRANCH  17  18
ENDBRANCH  16  17
ENDBRANCH  15  16
ENDBRANCH  14  15
ENDBRANCH  13  14
ENDBRANCH   1  13
TORSDOF 20
ENDMDL
MODEL 4
REMARK VINA RESULT:    -3.337      2.133      6.366
REMARK INTER + INTRA:         -10.749
REMARK INTER:                  -7.600
REMARK INTRA:                  -3.148
REMARK UNBOUND:                -3.509
REMARK SMILES CCCCCCCCCCCCCCCCCCCCCC(=O)[O-]
REMARK SMILES IDX 12 1 11 2 10 3 9 4 8 5 7 6 6 7 5 8 4 9 3 10 2 11 1 12 13 13
REMARK SMILES IDX 14 14 15 15 16 16 17 17 18 18 19 19 20 20 21 21 22 22 23 23
REMARK SMILES IDX 24 24
REMARK H PARENT
REMARK Flexibility Score: inf
ROOT
ATOM      1  C   UNL     1      21.770  22.723  15.424  1.00  0.00     0.000 C 
ENDROOT
BRANCH   1   2
ATOM      2  C   UNL     1      20.891  21.545  15.888  1.00  0.00     0.000 C 
BRANCH   2   3
ATOM      3  C   UNL     1      21.630  20.452  16.688  1.00  0.00     0.000 C 
BRANCH   3   4
ATOM      4  C   UNL     1      22.325  20.937  17.973  1.00  0.00    -0.000 C 
BRANCH   4   5
ATOM      5  C   UNL     1      23.840  21.134  17.795  1.00  0.00    -0.000 C 
BRANCH   5   6
ATOM      6  C   UNL     1      24.483  21.870  18.981  1.00  0.00    -0.000 C 
BRANCH   6   7
ATOM      7  C   UNL     1      25.406  23.018  18.543  1.00  0.00    -0.000 C 
BRANCH   7   8
ATOM      8  C   UNL     1      25.837  22.845  17.079  1.00  0.00    -0.000 C 
BRANCH   8   9
ATOM      9  C   UNL     1      25.566  24.095  16.228  1.00  0.00    -0.000 C 
BRANCH   9  10
ATOM     10  C   UNL     1      25.372  23.768  14.740  1.00  0.00    -0.000 C 
BRANCH  10  11
ATOM     11  C   UNL     1      25.709  22.300  14.454  1.00  0.00    -0.003 C 
ATOM     12  C   UNL     1      25.858  22.050  12.955  1.00  0.00     0.004 C 
ENDBRANCH  10  11
ENDBRANCH   9  10
ENDBRANCH   8   9
ENDBRANCH   7   8
ENDBRANCH   6   7
ENDBRANCH   5   6
ENDBRANCH   4   5
ENDBRANCH   3   4
ENDBRANCH   2   3
ENDBRANCH   1   2
BRANCH   1  13
ATOM     13  C   UNL     1      21.240  24.118  15.810  1.00  0.00     0.000 C 
BRANCH  13  14
ATOM     14  C   UNL     1      21.017  24.333  17.320  1.00  0.00     0.000 C 
BRANCH  14  15
ATOM     15  C   UNL     1      22.230  24.897  18.087  1.00  0.00     0.000 C 
BRANCH  15  16
ATOM     16  C   UNL     1      22.234  24.609  19.598  1.00  0.00     0.000 C 
BRANCH  16  17
ATOM     17  C   UNL     1      22.415  25.877  20.447  1.00  0.00     0.000 C 
BRANCH  17  18
ATOM     18  C   UNL     1      21.688  27.070  19.815  1.00  0.00     0.000 C 
BRANCH  18  19
ATOM     19  C   UNL     1      22.012  28.371  20.566  1.00  0.00     0.000 C 
BRANCH  19  20
ATOM     20  C   UNL     1      23.520  28.663  20.621  1.00  0.00     0.006 C 
BRANCH  20  21
ATOM     21  C   UNL     1      24.168  28.687  19.231  1.00  0.00     0.053 C 
BRANCH  21  22
ATOM     22  C   UNL     1      25.480  27.969  19.253  1.00  0.00     0.041 C 
ATOM     23  O   UNL     1      25.553  26.769  18.879  1.00  0.00    -0.550 OA
ATOM     24  O   UNL     1      26.614  28.609  19.736  1.00  0.00    -0.550 OA
ENDBRANCH  21  22
ENDBRANCH  20  21
ENDBRANCH  19  20
ENDBRANCH  18  19
ENDBRANCH  17  18
ENDBRANCH  16  17
ENDBRANCH  15  16
ENDBRANCH  14  15
ENDBRANCH  13  14
ENDBRANCH   1  13
TORSDOF 20
ENDMDL
MODEL 5
REMARK VINA RESULT:    -3.333      2.711      6.443
REMARK INTER + INTRA:         -10.739
REMARK INTER:                  -7.530
REMARK INTRA:                  -3.209
REMARK UNBOUND:                -3.509
REMARK SMILES CCCCCCCCCCCCCCCCCCCCCC(=O)[O-]
REMARK SMILES IDX 12 1 11 2 10 3 9 4 8 5 7 6 6 7 5 8 4 9 3 10 2 11 1 12 13 13
REMARK SMILES IDX 14 14 15 15 16 16 17 17 18 18 19 19 20 20 21 21 22 22 23 23
REMARK SMILES IDX 24 24
REMARK H PARENT
REMARK Flexibility Score: inf
ROOT
ATOM      1  C   UNL     1      25.458  23.408  17.537  1.00  0.00     0.000 C 
ENDROOT
BRANCH   1   2
ATOM      2  C   UNL     1      24.743  22.359  18.413  1.00  0.00     0.000 C 
BRANCH   2   3
ATOM      3  C   UNL     1      24.252  21.104  17.662  1.00  0.00     0.000 C 
BRANCH   3   4
ATOM      4  C   UNL     1      22.771  20.748  17.880  1.00  0.00    -0.000 C 
BRANCH   4   5
ATOM      5  C   UNL     1      21.913  21.967  18.258  1.00  0.00    -0.000 C 
BRANCH   5   6
ATOM      6  C   UNL     1      21.201  22.587  17.045  1.00  0.00    -0.000 C 
BRANCH   6   7
ATOM      7  C   UNL     1      20.990  21.584  15.900  1.00  0.00    -0.000 C 
BRANCH   7   8
ATOM      8  C   UNL     1      21.579  22.120  14.587  1.00  0.00    -0.000 C 
BRANCH   8   9
ATOM      9  C   UNL     1      22.866  22.931  14.801  1.00  0.00    -0.000 C 
BRANCH   9  10
ATOM     10  C   UNL     1      23.845  22.810  13.624  1.00  0.00    -0.000 C 
BRANCH  10  11
ATOM     11  C   UNL     1      25.266  22.517  14.122  1.00  0.00    -0.003 C 
ATOM     12  C   UNL     1      26.130  21.929  13.010  1.00  0.00     0.004 C 
ENDBRANCH  10  11
ENDBRANCH   9  10
ENDBRANCH   8   9
ENDBRANCH   7   8
ENDBRANCH   6   7
ENDBRANCH   5   6
ENDBRANCH   4   5
ENDBRANCH   3   4
ENDBRANCH   2   3
ENDBRANCH   1   2
BRANCH   1  13
ATOM     13  C   UNL     1      25.154  24.874  17.903  1.00  0.00     0.000 C 
BRANCH  13  14
ATOM     14  C   UNL     1      23.668  25.180  18.176  1.00  0.00     0.000 C 
BRANCH  14  15
ATOM     15  C   UNL     1      23.287  25.296  19.666  1.00  0.00     0.000 C 
BRANCH  15  16
ATOM     16  C   UNL     1      21.775  25.268  19.953  1.00  0.00     0.000 C 
BRANCH  16  17
ATOM     17  C   UNL     1      20.979  26.229  19.057  1.00  0.00     0.000 C 
BRANCH  17  18
ATOM     18  C   UNL     1      20.959  27.643  19.649  1.00  0.00     0.000 C 
BRANCH  18  19
ATOM     19  C   UNL     1      21.938  28.564  18.904  1.00  0.00     0.000 C 
BRANCH  19  20
ATOM     20  C   UNL     1      23.054  29.102  19.815  1.00  0.00     0.006 C 
BRANCH  20  21
ATOM     21  C   UNL     1      24.441  29.013  19.166  1.00  0.00     0.053 C 
BRANCH  21  22
ATOM     22  C   UNL     1      25.463  28.596  20.175  1.00  0.00     0.041 C 
ATOM     23  O   UNL     1      25.183  27.726  21.040  1.00  0.00    -0.550 OA
ATOM     24  O   UNL     1      26.711  29.206  20.193  1.00  0.00    -0.550 OA
ENDBRANCH  21  22
ENDBRANCH  20  21
ENDBRANCH  19  20
ENDBRANCH  18  19
ENDBRANCH  17  18
ENDBRANCH  16  17
ENDBRANCH  15  16
ENDBRANCH  14  15
ENDBRANCH  13  14
ENDBRANCH   1  13
TORSDOF 20
ENDMDL
MODEL 6
REMARK VINA RESULT:    -3.323     18.771     21.310
REMARK INTER + INTRA:         -10.718
REMARK INTER:                  -7.922
REMARK INTRA:                  -2.796
REMARK UNBOUND:                -3.509
REMARK SMILES CCCCCCCCCCCCCCCCCCCCCC(=O)[O-]
REMARK SMILES IDX 12 1 11 2 10 3 9 4 8 5 7 6 6 7 5 8 4 9 3 10 2 11 1 12 13 13
REMARK SMILES IDX 14 14 15 15 16 16 17 17 18 18 19 19 20 20 21 21 22 22 23 23
REMARK SMILES IDX 24 24
REMARK H PARENT
REMARK Flexibility Score: inf
ROOT
ATOM      1  C   UNL     1      40.303  20.452   3.569  1.00  0.00     0.000 C 
ENDROOT
BRANCH   1   2
ATOM      2  C   UNL     1      41.106  20.101   2.302  1.00  0.00     0.000 C 
BRANCH   2   3
ATOM      3  C   UNL     1      40.394  20.409   0.968  1.00  0.00     0.000 C 
BRANCH   3   4
ATOM      4  C   UNL     1      39.755  21.806   0.875  1.00  0.00    -0.000 C 
BRANCH   4   5
ATOM      5  C   UNL     1      40.764  22.942   1.114  1.00  0.00    -0.000 C 
BRANCH   5   6
ATOM      6  C   UNL     1      40.090  24.240   1.589  1.00  0.00    -0.000 C 
BRANCH   6   7
ATOM      7  C   UNL     1      38.812  23.986   2.403  1.00  0.00    -0.000 C 
BRANCH   7   8
ATOM      8  C   UNL     1      37.634  24.794   1.839  1.00  0.00    -0.000 C 
BRANCH   8   9
ATOM      9  C   UNL     1      37.831  26.311   1.985  1.00  0.00    -0.000 C 
BRANCH   9  10
ATOM     10  C   UNL     1      36.651  27.118   1.423  1.00  0.00    -0.000 C 
BRANCH  10  11
ATOM     11  C   UNL     1      36.332  28.318   2.322  1.00  0.00    -0.003 C 
ATOM     12  C   UNL     1      37.475  29.330   2.318  1.00  0.00     0.004 C 
ENDBRANCH  10  11
ENDBRANCH   9  10
ENDBRANCH   8   9
ENDBRANCH   7   8
ENDBRANCH   6   7
ENDBRANCH   5   6
ENDBRANCH   4   5
ENDBRANCH   3   4
ENDBRANCH   2   3
ENDBRANCH   1   2
BRANCH   1  13
ATOM     13  C   UNL     1      41.091  21.229   4.642  1.00  0.00     0.000 C 
BRANCH  13  14
ATOM     14  C   UNL     1      40.260  22.244   5.451  1.00  0.00     0.000 C 
BRANCH  14  15
ATOM     15  C   UNL     1      39.642  21.694   6.752  1.00  0.00     0.000 C 
BRANCH  15  16
ATOM     16  C   UNL     1      39.799  20.176   6.954  1.00  0.00     0.000 C 
BRANCH  16  17
ATOM     17  C   UNL     1      38.491  19.405   6.724  1.00  0.00     0.000 C 
BRANCH  17  18
ATOM     18  C   UNL     1      37.378  20.342   6.241  1.00  0.00     0.000 C 
BRANCH  18  19
ATOM     19  C   UNL     1      36.891  19.940   4.839  1.00  0.00     0.000 C 
BRANCH  19  20
ATOM     20  C   UNL     1      37.013  21.084   3.820  1.00  0.00     0.006 C 
BRANCH  20  21
ATOM     21  C   UNL     1      36.597  20.663   2.405  1.00  0.00     0.053 C 
BRANCH  21  22
ATOM     22  C   UNL     1      35.354  21.384   1.989  1.00  0.00     0.041 C 
ATOM     23  O   UNL     1      35.418  22.332   1.164  1.00  0.00    -0.550 OA
ATOM     24  O   UNL     1      34.132  21.042   2.552  1.00  0.00    -0.550 OA
ENDBRANCH  21  22
ENDBRANCH  20  21
ENDBRANCH  19  20
ENDBRANCH  18  19
ENDBRANCH  17  18
ENDBRANCH  16  17
ENDBRANCH  15  16
ENDBRANCH  14  15
ENDBRANCH  13  14
ENDBRANCH   1  13
TORSDOF 20
ENDMDL
MODEL 7
REMARK VINA RESULT:    -3.297     18.390     21.265
REMARK INTER + INTRA:         -10.661
REMARK INTER:                  -8.301
REMARK INTRA:                  -2.360
REMARK UNBOUND:                -3.509
REMARK SMILES CCCCCCCCCCCCCCCCCCCCCC(=O)[O-]
REMARK SMILES IDX 12 1 11 2 10 3 9 4 8 5 7 6 6 7 5 8 4 9 3 10 2 11 1 12 13 13
REMARK SMILES IDX 14 14 15 15 16 16 17 17 18 18 19 19 20 20 21 21 22 22 23 23
REMARK SMILES IDX 24 24
REMARK H PARENT
REMARK Flexibility Score: inf
ROOT
ATOM      1  C   UNL     1      40.204  21.963   7.371  1.00  0.00     0.000 C 
ENDROOT
BRANCH   1   2
ATOM      2  C   UNL     1      38.701  22.258   7.197  1.00  0.00     0.000 C 
BRANCH   2   3
ATOM      3  C   UNL     1      37.752  21.229   7.846  1.00  0.00     0.000 C 
BRANCH   3   4
ATOM      4  C   UNL     1      37.427  20.000   6.977  1.00  0.00    -0.000 C 
BRANCH   4   5
ATOM      5  C   UNL     1      38.665  19.425   6.267  1.00  0.00    -0.000 C 
BRANCH   5   6
ATOM      6  C   UNL     1      38.617  19.626   4.744  1.00  0.00    -0.000 C 
BRANCH   6   7
ATOM      7  C   UNL     1      37.245  20.110   4.248  1.00  0.00    -0.000 C 
BRANCH   7   8
ATOM      8  C   UNL     1      37.377  21.432   3.477  1.00  0.00    -0.000 C 
BRANCH   8   9
ATOM      9  C   UNL     1      36.730  21.375   2.085  1.00  0.00    -0.000 C 
BRANCH   9  10
ATOM     10  C   UNL     1      35.500  20.456   2.040  1.00  0.00    -0.000 C 
BRANCH  10  11
ATOM     11  C   UNL     1      34.206  21.276   1.984  1.00  0.00    -0.003 C 
ATOM     12  C   UNL     1      34.263  22.322   0.875  1.00  0.00     0.004 C 
ENDBRANCH  10  11
ENDBRANCH   9  10
ENDBRANCH   8   9
ENDBRANCH   7   8
ENDBRANCH   6   7
ENDBRANCH   5   6
ENDBRANCH   4   5
ENDBRANCH   3   4
ENDBRANCH   2   3
ENDBRANCH   1   2
BRANCH   1  13
ATOM     13  C   UNL     1      41.122  22.652   6.342  1.00  0.00     0.000 C 
BRANCH  13  14
ATOM     14  C   UNL     1      41.042  22.079   4.914  1.00  0.00     0.000 C 
BRANCH  14  15
ATOM     15  C   UNL     1      40.885  23.130   3.796  1.00  0.00     0.000 C 
BRANCH  15  16
ATOM     16  C   UNL     1      40.569  22.556   2.404  1.00  0.00     0.000 C 
BRANCH  16  17
ATOM     17  C   UNL     1      40.045  23.616   1.424  1.00  0.00     0.000 C 
BRANCH  17  18
ATOM     18  C   UNL     1      39.451  24.813   2.177  1.00  0.00     0.000 C 
BRANCH  18  19
ATOM     19  C   UNL     1      37.919  24.838   2.046  1.00  0.00     0.000 C 
BRANCH  19  20
ATOM     20  C   UNL     1      37.385  26.213   1.614  1.00  0.00     0.006 C 
BRANCH  20  21
ATOM     21  C   UNL     1      37.866  27.348   2.528  1.00  0.00     0.053 C 
BRANCH  21  22
ATOM     22  C   UNL     1      38.609  28.376   1.736  1.00  0.00     0.041 C 
ATOM     23  O   UNL     1      37.987  29.157   0.968  1.00  0.00    -0.550 OA
ATOM     24  O   UNL     1      39.995  28.441   1.807  1.00  0.00    -0.550 OA
ENDBRANCH  21  22
ENDBRANCH  20  21
ENDBRANCH  19  20
ENDBRANCH  18  19
ENDBRANCH  17  18
ENDBRANCH  16  17
ENDBRANCH  15  16
ENDBRANCH  14  15
ENDBRANCH  13  14
ENDBRANCH   1  13
TORSDOF 20
ENDMDL
MODEL 8
REMARK VINA RESULT:    -3.253      1.982      3.537
REMARK INTER + INTRA:         -10.565
REMARK INTER:                  -7.658
REMARK INTRA:                  -2.906
REMARK UNBOUND:                -3.509
REMARK SMILES CCCCCCCCCCCCCCCCCCCCCC(=O)[O-]
REMARK SMILES IDX 12 1 11 2 10 3 9 4 8 5 7 6 6 7 5 8 4 9 3 10 2 11 1 12 13 13
REMARK SMILES IDX 14 14 15 15 16 16 17 17 18 18 19 19 20 20 21 21 22 22 23 23
REMARK SMILES IDX 24 24
REMARK H PARENT
REMARK Flexibility Score: inf
ROOT
ATOM      1  C   UNL     1      22.134  23.657  19.177  1.00  0.00     0.000 C 
ENDROOT
BRANCH   1   2
ATOM      2  C   UNL     1      21.294  24.800  19.779  1.00  0.00     0.000 C 
BRANCH   2   3
ATOM      3  C   UNL     1      22.053  26.125  19.999  1.00  0.00     0.000 C 
BRANCH   3   4
ATOM      4  C   UNL     1      22.290  26.962  18.729  1.00  0.00    -0.000 C 
BRANCH   4   5
ATOM      5  C   UNL     1      21.390  28.208  18.658  1.00  0.00    -0.000 C 
BRANCH   5   6
ATOM      6  C   UNL     1      22.091  29.472  19.180  1.00  0.00    -0.000 C 
BRANCH   6   7
ATOM      7  C   UNL     1      23.540  29.599  18.686  1.00  0.00    -0.000 C 
BRANCH   7   8
ATOM      8  C   UNL     1      24.455  30.125  19.802  1.00  0.00    -0.000 C 
BRANCH   8   9
ATOM      9  C   UNL     1      25.688  29.236  20.027  1.00  0.00    -0.000 C 
BRANCH   9  10
ATOM     10  C   UNL     1      25.319  27.793  20.400  1.00  0.00    -0.000 C 
BRANCH  10  11
ATOM     11  C   UNL     1      25.861  26.803  19.361  1.00  0.00    -0.003 C 
ATOM     12  C   UNL     1      26.888  27.468  18.449  1.00  0.00     0.004 C 
ENDBRANCH  10  11
ENDBRANCH   9  10
ENDBRANCH   8   9
ENDBRANCH   7   8
ENDBRANCH   6   7
ENDBRANCH   5   6
ENDBRANCH   4   5
ENDBRANCH   3   4
ENDBRANCH   2   3
ENDBRANCH   1   2
BRANCH   1  13
ATOM     13  C   UNL     1      22.122  23.586  17.637  1.00  0.00     0.000 C 
BRANCH  13  14
ATOM     14  C   UNL     1      21.713  22.220  17.052  1.00  0.00     0.000 C 
BRANCH  14  15
ATOM     15  C   UNL     1      22.399  21.846  15.723  1.00  0.00     0.000 C 
BRANCH  15  16
ATOM     16  C   UNL     1      22.363  22.941  14.642  1.00  0.00     0.000 C 
BRANCH  16  17
ATOM     17  C   UNL     1      23.512  22.821  13.630  1.00  0.00     0.000 C 
BRANCH  17  18
ATOM     18  C   UNL     1      24.850  22.592  14.343  1.00  0.00     0.000 C 
BRANCH  18  19
ATOM     19  C   UNL     1      25.418  23.915  14.882  1.00  0.00     0.000 C 
BRANCH  19  20
ATOM     20  C   UNL     1      25.819  23.827  16.364  1.00  0.00     0.006 C 
BRANCH  20  21
ATOM     21  C   UNL     1      26.022  22.382  16.836  1.00  0.00     0.053 C 
BRANCH  21  22
ATOM     22  C   UNL     1      25.498  22.208  18.226  1.00  0.00     0.041 C 
ATOM     23  O   UNL     1      24.840  21.179  18.532  1.00  0.00    -0.550 OA
ATOM     24  O   UNL     1      25.691  23.207  19.172  1.00  0.00    -0.550 OA
ENDBRANCH  21  22
ENDBRANCH  20  21
ENDBRANCH  19  20
ENDBRANCH  18  19
ENDBRANCH  17  18
ENDBRANCH  16  17
ENDBRANCH  15  16
ENDBRANCH  14  15
ENDBRANCH  13  14
ENDBRANCH   1  13
TORSDOF 20
ENDMDL
MODEL 9
REMARK VINA RESULT:    -3.150      2.305      6.708
REMARK INTER + INTRA:         -10.341
REMARK INTER:                  -7.587
REMARK INTRA:                  -2.754
REMARK UNBOUND:                -3.509
REMARK SMILES CCCCCCCCCCCCCCCCCCCCCC(=O)[O-]
REMARK SMILES IDX 12 1 11 2 10 3 9 4 8 5 7 6 6 7 5 8 4 9 3 10 2 11 1 12 13 13
REMARK SMILES IDX 14 14 15 15 16 16 17 17 18 18 19 19 20 20 21 21 22 22 23 23
REMARK SMILES IDX 24 24
REMARK H PARENT
REMARK Flexibility Score: inf
ROOT
ATOM      1  C   UNL     1      25.401  23.051  18.171  1.00  0.00     0.000 C 
ENDROOT
BRANCH   1   2
ATOM      2  C   UNL     1      24.277  22.254  18.862  1.00  0.00     0.000 C 
BRANCH   2   3
ATOM      3  C   UNL     1      23.713  21.073  18.045  1.00  0.00     0.000 C 
BRANCH   3   4
ATOM      4  C   UNL     1      22.203  21.140  17.752  1.00  0.00    -0.000 C 
BRANCH   4   5
ATOM      5  C   UNL     1      21.672  22.582  17.683  1.00  0.00    -0.000 C 
BRANCH   5   6
ATOM      6  C   UNL     1      21.147  22.950  16.285  1.00  0.00    -0.000 C 
BRANCH   6   7
ATOM      7  C   UNL     1      21.521  21.914  15.215  1.00  0.00    -0.000 C 
BRANCH   7   8
ATOM      8  C   UNL     1      21.733  22.587  13.851  1.00  0.00    -0.000 C 
BRANCH   8   9
ATOM      9  C   UNL     1      23.168  23.102  13.659  1.00  0.00    -0.000 C 
BRANCH   9  10
ATOM     10  C   UNL     1      24.123  22.619  14.761  1.00  0.00    -0.000 C 
BRANCH  10  11
ATOM     11  C   UNL     1      25.582  22.698  14.294  1.00  0.00    -0.003 C 
ATOM     12  C   UNL     1      25.802  21.870  13.031  1.00  0.00     0.004 C 
ENDBRANCH  10  11
ENDBRANCH   9  10
ENDBRANCH   8   9
ENDBRANCH   7   8
ENDBRANCH   6   7
ENDBRANCH   5   6
ENDBRANCH   4   5
ENDBRANCH   3   4
ENDBRANCH   2   3
ENDBRANCH   1   2
BRANCH   1  13
ATOM     13  C   UNL     1      25.041  24.508  17.819  1.00  0.00     0.000 C 
BRANCH  13  14
ATOM     14  C   UNL     1      24.045  25.181  18.783  1.00  0.00     0.000 C 
BRANCH  14  15
ATOM     15  C   UNL     1      24.675  26.160  19.796  1.00  0.00     0.000 C 
BRANCH  15  16
ATOM     16  C   UNL     1      25.759  27.085  19.215  1.00  0.00     0.000 C 
BRANCH  16  17
ATOM     17  C   UNL     1      25.673  28.519  19.758  1.00  0.00     0.000 C 
BRANCH  17  18
ATOM     18  C   UNL     1      24.518  29.286  19.103  1.00  0.00     0.000 C 
BRANCH  18  19
ATOM     19  C   UNL     1      23.418  29.603  20.129  1.00  0.00     0.000 C 
BRANCH  19  20
ATOM     20  C   UNL     1      22.007  29.524  19.526  1.00  0.00     0.006 C 
BRANCH  20  21
ATOM     21  C   UNL     1      21.586  28.087  19.194  1.00  0.00     0.053 C 
BRANCH  21  22
ATOM     22  C   UNL     1      21.506  27.895  17.713  1.00  0.00     0.041 C 
ATOM     23  O   UNL     1      21.572  28.888  16.940  1.00  0.00    -0.550 OA
ATOM     24  O   UNL     1      21.307  26.626  17.186  1.00  0.00    -0.550 OA
ENDBRANCH  21  22
ENDBRANCH  20  21
ENDBRANCH  19  20
ENDBRANCH  18  19
ENDBRANCH  17  18
ENDBRANCH  16  17
ENDBRANCH  15  16
ENDBRANCH  14  15
ENDBRANCH  13  14
ENDBRANCH   1  13
TORSDOF 20
ENDMDL
