MODEL 1
REMARK VINA RESULT:    -4.702      0.000      0.000
REMARK INTER + INTRA:          -5.478
REMARK INTER:                  -5.252
REMARK INTRA:                  -0.226
REMARK UNBOUND:                -0.226
REMARK SMILES O=C([O-])c1ccccc1C(=O)[O-]
REMARK SMILES IDX 4 1 9 2 5 3 8 4 6 5 7 6 2 7 1 8 3 9 10 10 11 11 12 12
REMARK H PARENT
REMARK Flexibility Score: inf
ROOT
ATOM      1  C   UNL     1      15.614 -30.746  22.403  1.00  0.00     0.006 A 
ATOM      2  C   UNL     1      14.763 -31.732  22.973  1.00  0.00     0.006 A 
ATOM      3  C   UNL     1      15.172 -29.411  22.343  1.00  0.00     0.010 A 
ATOM      4  C   UNL     1      13.527 -31.336  23.520  1.00  0.00     0.010 A 
ATOM      5  C   UNL     1      13.934 -29.045  22.871  1.00  0.00     0.001 A 
ATOM      6  C   UNL     1      13.118 -30.003  23.469  1.00  0.00     0.001 A 
ENDROOT
BRANCH   1   7
ATOM      7  C   UNL     1      16.985 -31.050  21.934  1.00  0.00     0.072 C 
ATOM      8  O   UNL     1      17.947 -31.057  22.748  1.00  0.00    -0.545 OA
ATOM      9  O   UNL     1      17.222 -31.393  20.608  1.00  0.00    -0.545 OA
ENDBRANCH   1   7
BRANCH   2  10
ATOM     10  C   UNL     1      15.087 -33.177  22.951  1.00  0.00     0.072 C 
ATOM     11  O   UNL     1      15.513 -33.747  23.991  1.00  0.00    -0.545 OA
ATOM     12  O   UNL     1      14.867 -33.936  21.808  1.00  0.00    -0.545 OA
ENDBRANCH   2  10
TORSDOF 2
ENDMDL
MODEL 2
REMARK VINA RESULT:    -4.672      0.077      2.861
REMARK INTER + INTRA:          -5.444
REMARK INTER:                  -5.221
REMARK INTRA:                  -0.223
REMARK UNBOUND:                -0.226
REMARK SMILES O=C([O-])c1ccccc1C(=O)[O-]
REMARK SMILES IDX 4 1 9 2 5 3 8 4 6 5 7 6 2 7 1 8 3 9 10 10 11 11 12 12
REMARK H PARENT
REMARK Flexibility Score: inf
ROOT
ATOM      1  C   UNL     1      14.831 -31.762  22.985  1.00  0.00     0.006 A 
ATOM      2  C   UNL     1      15.681 -30.777  22.411  1.00  0.00     0.006 A 
ATOM      3  C   UNL     1      13.600 -31.366  23.539  1.00  0.00     0.010 A 
ATOM      4  C   UNL     1      15.240 -29.441  22.356  1.00  0.00     0.010 A 
ATOM      5  C   UNL     1      13.192 -30.032  23.493  1.00  0.00     0.001 A 
ATOM      6  C   UNL     1      14.005 -29.074  22.893  1.00  0.00     0.001 A 
ENDROOT
BRANCH   1   7
ATOM      7  C   UNL     1      15.153 -33.207  22.958  1.00  0.00     0.072 C 
ATOM      8  O   UNL     1      15.596 -33.778  23.990  1.00  0.00    -0.545 OA
ATOM      9  O   UNL     1      14.912 -33.966  21.819  1.00  0.00    -0.545 OA
ENDBRANCH   1   7
BRANCH   2  10
ATOM     10  C   UNL     1      17.049 -31.082  21.934  1.00  0.00     0.072 C 
ATOM     11  O   UNL     1      18.008 -31.130  22.749  1.00  0.00    -0.545 OA
ATOM     12  O   UNL     1      17.283 -31.384  20.597  1.00  0.00    -0.545 OA
ENDBRANCH   2  10
TORSDOF 2
ENDMDL
MODEL 3
REMARK VINA RESULT:    -4.647      1.678      2.568
REMARK INTER + INTRA:          -5.417
REMARK INTER:                  -5.213
REMARK INTRA:                  -0.204
REMARK UNBOUND:                -0.226
REMARK SMILES O=C([O-])c1ccccc1C(=O)[O-]
REMARK SMILES IDX 4 1 9 2 5 3 8 4 6 5 7 6 2 7 1 8 3 9 10 10 11 11 12 12
REMARK H PARENT
REMARK Flexibility Score: inf
ROOT
ATOM      1  C   UNL     1      14.458 -32.531  21.369  1.00  0.00     0.006 A 
ATOM      2  C   UNL     1      14.680 -32.254  22.746  1.00  0.00     0.006 A 
ATOM      3  C   UNL     1      13.411 -31.873  20.697  1.00  0.00     0.010 A 
ATOM      4  C   UNL     1      13.886 -31.282  23.384  1.00  0.00     0.010 A 
ATOM      5  C   UNL     1      12.622 -30.930  21.356  1.00  0.00     0.001 A 
ATOM      6  C   UNL     1      12.866 -30.626  22.693  1.00  0.00     0.001 A 
ENDROOT
BRANCH   1   7
ATOM      7  C   UNL     1      15.335 -33.431  20.585  1.00  0.00     0.072 C 
ATOM      8  O   UNL     1      14.932 -34.578  20.252  1.00  0.00    -0.545 OA
ATOM      9  O   UNL     1      16.585 -33.005  20.152  1.00  0.00    -0.545 OA
ENDBRANCH   1   7
BRANCH   2  10
ATOM     10  C   UNL     1      15.664 -33.000  23.562  1.00  0.00     0.072 C 
ATOM     11  O   UNL     1      15.397 -34.161  23.972  1.00  0.00    -0.545 OA
ATOM     12  O   UNL     1      16.916 -32.460  23.832  1.00  0.00    -0.545 OA
ENDBRANCH   2  10
TORSDOF 2
ENDMDL
MODEL 4
REMARK VINA RESULT:    -4.635      1.735      2.816
REMARK INTER + INTRA:          -5.402
REMARK INTER:                  -5.209
REMARK INTRA:                  -0.193
REMARK UNBOUND:                -0.226
REMARK SMILES O=C([O-])c1ccccc1C(=O)[O-]
REMARK SMILES IDX 4 1 9 2 5 3 8 4 6 5 7 6 2 7 1 8 3 9 10 10 11 11 12 12
REMARK H PARENT
REMARK Flexibility Score: inf
ROOT
ATOM      1  C   UNL     1      14.619 -32.167  22.655  1.00  0.00     0.006 A 
ATOM      2  C   UNL     1      14.431 -32.503  21.286  1.00  0.00     0.006 A 
ATOM      3  C   UNL     1      13.798 -31.185  23.240  1.00  0.00     0.010 A 
ATOM      4  C   UNL     1      13.386 -31.889  20.570  1.00  0.00     0.010 A 
ATOM      5  C   UNL     1      12.783 -30.574  22.504  1.00  0.00     0.001 A 
ATOM      6  C   UNL     1      12.569 -30.933  21.175  1.00  0.00     0.001 A 
ENDROOT
BRANCH   1   7
ATOM      7  C   UNL     1      15.600 -32.863  23.520  1.00  0.00     0.072 C 
ATOM      8  O   UNL     1      15.356 -34.023  23.949  1.00  0.00    -0.545 OA
ATOM      9  O   UNL     1      16.824 -32.278  23.818  1.00  0.00    -0.545 OA
ENDBRANCH   1   7
BRANCH   2  10
ATOM     10  C   UNL     1      15.336 -33.419  20.557  1.00  0.00     0.072 C 
ATOM     11  O   UNL     1      14.947 -34.574  20.239  1.00  0.00    -0.545 OA
ATOM     12  O   UNL     1      16.599 -32.998  20.156  1.00  0.00    -0.545 OA
ENDBRANCH   2  10
TORSDOF 2
ENDMDL
MODEL 5
REMARK VINA RESULT:    -4.609      2.298      3.428
REMARK INTER + INTRA:          -5.374
REMARK INTER:                  -5.161
REMARK INTRA:                  -0.213
REMARK UNBOUND:                -0.226
REMARK SMILES O=C([O-])c1ccccc1C(=O)[O-]
REMARK SMILES IDX 4 1 9 2 5 3 8 4 6 5 7 6 2 7 1 8 3 9 10 10 11 11 12 12
REMARK H PARENT
REMARK Flexibility Score: inf
ROOT
ATOM      1  C   UNL     1      15.020 -31.124  21.429  1.00  0.00     0.006 A 
ATOM      2  C   UNL     1      15.838 -32.187  20.956  1.00  0.00     0.006 A 
ATOM      3  C   UNL     1      15.604 -29.870  21.684  1.00  0.00     0.010 A 
ATOM      4  C   UNL     1      17.199 -31.938  20.695  1.00  0.00     0.010 A 
ATOM      5  C   UNL     1      16.960 -29.652  21.440  1.00  0.00     0.001 A 
ATOM      6  C   UNL     1      17.754 -30.680  20.935  1.00  0.00     0.001 A 
ENDROOT
BRANCH   1   7
ATOM      7  C   UNL     1      13.554 -31.259  21.594  1.00  0.00     0.072 C 
ATOM      8  O   UNL     1      13.046 -31.294  22.747  1.00  0.00    -0.545 OA
ATOM      9  O   UNL     1      12.714 -31.284  20.487  1.00  0.00    -0.545 OA
ENDBRANCH   1   7
BRANCH   2  10
ATOM     10  C   UNL     1      15.336 -33.570  20.795  1.00  0.00     0.072 C 
ATOM     11  O   UNL     1      15.296 -34.349  21.785  1.00  0.00    -0.545 OA
ATOM     12  O   UNL     1      14.844 -34.009  19.571  1.00  0.00    -0.545 OA
ENDBRANCH   2  10
TORSDOF 2
ENDMDL
MODEL 6
REMARK VINA RESULT:    -4.589      2.330      3.531
REMARK INTER + INTRA:          -5.352
REMARK INTER:                  -5.154
REMARK INTRA:                  -0.198
REMARK UNBOUND:                -0.226
REMARK SMILES O=C([O-])c1ccccc1C(=O)[O-]
REMARK SMILES IDX 4 1 9 2 5 3 8 4 6 5 7 6 2 7 1 8 3 9 10 10 11 11 12 12
REMARK H PARENT
REMARK Flexibility Score: inf
ROOT
ATOM      1  C   UNL     1      15.879 -32.194  20.903  1.00  0.00     0.006 A 
ATOM      2  C   UNL     1      15.064 -31.135  21.391  1.00  0.00     0.006 A 
ATOM      3  C   UNL     1      17.242 -31.949  20.652  1.00  0.00     0.010 A 
ATOM      4  C   UNL     1      15.657 -29.889  21.671  1.00  0.00     0.010 A 
ATOM      5  C   UNL     1      17.803 -30.700  20.916  1.00  0.00     0.001 A 
ATOM      6  C   UNL     1      17.015 -29.675  21.435  1.00  0.00     0.001 A 
ENDROOT
BRANCH   1   7
ATOM      7  C   UNL     1      15.369 -33.572  20.716  1.00  0.00     0.072 C 
ATOM      8  O   UNL     1      15.233 -34.337  21.708  1.00  0.00    -0.545 OA
ATOM      9  O   UNL     1      14.976 -34.018  19.461  1.00  0.00    -0.545 OA
ENDBRANCH   1   7
BRANCH   2  10
ATOM     10  C   UNL     1      13.597 -31.264  21.549  1.00  0.00     0.072 C 
ATOM     11  O   UNL     1      13.084 -31.294  22.699  1.00  0.00    -0.545 OA
ATOM     12  O   UNL     1      12.764 -31.287  20.437  1.00  0.00    -0.545 OA
ENDBRANCH   2  10
TORSDOF 2
ENDMDL
MODEL 7
REMARK VINA RESULT:    -4.565      3.651      5.712
REMARK INTER + INTRA:          -5.324
REMARK INTER:                  -5.090
REMARK INTRA:                  -0.234
REMARK UNBOUND:                -0.226
REMARK SMILES O=C([O-])c1ccccc1C(=O)[O-]
REMARK SMILES IDX 4 1 9 2 5 3 8 4 6 5 7 6 2 7 1 8 3 9 10 10 11 11 12 12
REMARK H PARENT
REMARK Flexibility Score: inf
ROOT
ATOM      1  C   UNL     1      17.302 -35.570  21.618  1.00  0.00     0.006 A 
ATOM      2  C   UNL     1      16.530 -34.851  20.665  1.00  0.00     0.006 A 
ATOM      3  C   UNL     1      17.857 -36.811  21.255  1.00  0.00     0.010 A 
ATOM      4  C   UNL     1      16.394 -35.370  19.364  1.00  0.00     0.010 A 
ATOM      5  C   UNL     1      17.690 -37.317  19.966  1.00  0.00     0.001 A 
ATOM      6  C   UNL     1      16.970 -36.593  19.019  1.00  0.00     0.001 A 
ENDROOT
BRANCH   1   7
ATOM      7  C   UNL     1      17.614 -35.031  22.962  1.00  0.00     0.072 C 
ATOM      8  O   UNL     1      18.634 -34.312  23.137  1.00  0.00    -0.545 OA
ATOM      9  O   UNL     1      16.757 -35.256  24.033  1.00  0.00    -0.545 OA
ENDBRANCH   1   7
BRANCH   2  10
ATOM     10  C   UNL     1      15.797 -33.610  21.004  1.00  0.00     0.072 C 
ATOM     11  O   UNL     1      14.636 -33.673  21.490  1.00  0.00    -0.545 OA
ATOM     12  O   UNL     1      16.399 -32.366  20.853  1.00  0.00    -0.545 OA
ENDBRANCH   2  10
TORSDOF 2
ENDMDL
MODEL 8
REMARK VINA RESULT:    -4.524      3.672      5.584
REMARK INTER + INTRA:          -5.279
REMARK INTER:                  -5.051
REMARK INTRA:                  -0.228
REMARK UNBOUND:                -0.226
REMARK SMILES O=C([O-])c1ccccc1C(=O)[O-]
REMARK SMILES IDX 4 1 9 2 5 3 8 4 6 5 7 6 2 7 1 8 3 9 10 10 11 11 12 12
REMARK H PARENT
REMARK Flexibility Score: inf
ROOT
ATOM      1  C   UNL     1      16.568 -34.849  20.682  1.00  0.00     0.006 A 
ATOM      2  C   UNL     1      17.348 -35.578  21.622  1.00  0.00     0.006 A 
ATOM      3  C   UNL     1      16.396 -35.368  19.386  1.00  0.00     0.010 A 
ATOM      4  C   UNL     1      17.873 -36.830  21.250  1.00  0.00     0.010 A 
ATOM      5  C   UNL     1      16.944 -36.601  19.032  1.00  0.00     0.001 A 
ATOM      6  C   UNL     1      17.671 -37.336  19.965  1.00  0.00     0.001 A 
ENDROOT
BRANCH   1   7
ATOM      7  C   UNL     1      15.863 -33.595  21.033  1.00  0.00     0.072 C 
ATOM      8  O   UNL     1      16.362 -32.479  20.726  1.00  0.00    -0.545 OA
ATOM      9  O   UNL     1      14.616 -33.630  21.646  1.00  0.00    -0.545 OA
ENDBRANCH   1   7
BRANCH   2  10
ATOM     10  C   UNL     1      17.697 -35.041  22.957  1.00  0.00     0.072 C 
ATOM     11  O   UNL     1      18.706 -34.301  23.099  1.00  0.00    -0.545 OA
ATOM     12  O   UNL     1      16.884 -35.291  24.056  1.00  0.00    -0.545 OA
ENDBRANCH   2  10
TORSDOF 2
ENDMDL
MODEL 9
REMARK VINA RESULT:    -4.521      7.999      9.798
REMARK INTER + INTRA:          -5.275
REMARK INTER:                  -5.051
REMARK INTRA:                  -0.224
REMARK UNBOUND:                -0.226
REMARK SMILES O=C([O-])c1ccccc1C(=O)[O-]
REMARK SMILES IDX 4 1 9 2 5 3 8 4 6 5 7 6 2 7 1 8 3 9 10 10 11 11 12 12
REMARK H PARENT
REMARK Flexibility Score: inf
ROOT
ATOM      1  C   UNL     1      21.977 -25.332  20.562  1.00  0.00     0.006 A 
ATOM      2  C   UNL     1      22.049 -24.544  21.744  1.00  0.00     0.006 A 
ATOM      3  C   UNL     1      22.749 -24.964  19.445  1.00  0.00     0.010 A 
ATOM      4  C   UNL     1      22.938 -23.454  21.785  1.00  0.00     0.010 A 
ATOM      5  C   UNL     1      23.608 -23.866  19.501  1.00  0.00     0.001 A 
ATOM      6  C   UNL     1      23.711 -23.119  20.672  1.00  0.00     0.001 A 
ENDROOT
BRANCH   1   7
ATOM      7  C   UNL     1      21.177 -26.576  20.480  1.00  0.00     0.072 C 
ATOM      8  O   UNL     1      21.698 -27.686  20.770  1.00  0.00    -0.545 OA
ATOM      9  O   UNL     1      19.829 -26.531  20.145  1.00  0.00    -0.545 OA
ENDBRANCH   1   7
BRANCH   2  10
ATOM     10  C   UNL     1      21.170 -24.775  22.913  1.00  0.00     0.072 C 
ATOM     11  O   UNL     1      21.609 -25.384  23.925  1.00  0.00    -0.545 OA
ATOM     12  O   UNL     1      19.876 -24.270  22.938  1.00  0.00    -0.545 OA
ENDBRANCH   2  10
TORSDOF 2
ENDMDL
