MODEL 1
REMARK VINA RESULT:    -4.671      0.000      0.000
REMARK INTER + INTRA:         -11.748
REMARK INTER:                  -9.040
REMARK INTRA:                  -2.708
REMARK UNBOUND:                -2.708
REMARK SMILES CCCCCCCCCCCCCCCCCC(=O)[O-]
REMARK SMILES IDX 10 1 11 2 12 3 13 4 14 5 15 6 16 7 17 8 18 9 19 10 20 11
REMARK SMILES IDX 9 12 8 13 7 14 6 15 5 16 4 17 3 18 2 19 1 20
REMARK H PARENT
REMARK Flexibility Score: inf
ROOT
ATOM      1  C   UNL     1      21.116  17.470  48.754  1.00  0.00     0.000 C 
ENDROOT
BRANCH   1   2
ATOM      2  C   UNL     1      20.610  18.793  49.339  1.00  0.00     0.000 C 
BRANCH   2   3
ATOM      3  C   UNL     1      20.526  19.878  48.259  1.00  0.00     0.000 C 
BRANCH   3   4
ATOM      4  C   UNL     1      19.156  20.567  48.276  1.00  0.00     0.000 C 
BRANCH   4   5
ATOM      5  C   UNL     1      18.619  20.759  46.852  1.00  0.00     0.000 C 
BRANCH   5   6
ATOM      6  C   UNL     1      19.668  20.356  45.809  1.00  0.00     0.000 C 
BRANCH   6   7
ATOM      7  C   UNL     1      19.003  19.767  44.557  1.00  0.00     0.006 C 
BRANCH   7   8
ATOM      8  C   UNL     1      18.556  20.853  43.571  1.00  0.00     0.053 C 
BRANCH   8   9
ATOM      9  C   UNL     1      17.097  20.745  43.250  1.00  0.00     0.041 C 
ATOM     10  O   UNL     1      16.288  20.313  44.113  1.00  0.00    -0.550 OA
ATOM     11  O   UNL     1      16.626  21.153  42.009  1.00  0.00    -0.550 OA
ENDBRANCH   8   9
ENDBRANCH   7   8
ENDBRANCH   6   7
ENDBRANCH   5   6
ENDBRANCH   4   5
ENDBRANCH   3   4
ENDBRANCH   2   3
ENDBRANCH   1   2
BRANCH   1  12
ATOM     12  C   UNL     1      20.742  17.343  47.272  1.00  0.00     0.000 C 
BRANCH  12  13
ATOM     13  C   UNL     1      20.130  15.967  46.975  1.00  0.00    -0.000 C 
BRANCH  13  14
ATOM     14  C   UNL     1      18.657  16.052  46.548  1.00  0.00    -0.000 C 
BRANCH  14  15
ATOM     15  C   UNL     1      17.891  17.169  47.279  1.00  0.00    -0.000 C 
BRANCH  15  16
ATOM     16  C   UNL     1      16.644  17.630  46.496  1.00  0.00    -0.000 C 
BRANCH  16  17
ATOM     17  C   UNL     1      15.842  16.471  45.878  1.00  0.00    -0.000 C 
BRANCH  17  18
ATOM     18  C   UNL     1      15.599  16.652  44.371  1.00  0.00    -0.000 C 
BRANCH  18  19
ATOM     19  C   UNL     1      16.762  16.123  43.519  1.00  0.00    -0.003 C 
ATOM     20  C   UNL     1      17.267  17.150  42.506  1.00  0.00     0.004 C 
ENDBRANCH  18  19
ENDBRANCH  17  18
ENDBRANCH  16  17
ENDBRANCH  15  16
ENDBRANCH  14  15
ENDBRANCH  13  14
ENDBRANCH  12  13
ENDBRANCH   1  12
TORSDOF 16
ENDMDL
MODEL 2
REMARK VINA RESULT:    -4.636      2.801      5.117
REMARK INTER + INTRA:         -11.680
REMARK INTER:                  -9.090
REMARK INTRA:                  -2.590
REMARK UNBOUND:                -2.708
REMARK SMILES CCCCCCCCCCCCCCCCCC(=O)[O-]
REMARK SMILES IDX 10 1 11 2 12 3 13 4 14 5 15 6 16 7 17 8 18 9 19 10 20 11
REMARK SMILES IDX 9 12 8 13 7 14 6 15 5 16 4 17 3 18 2 19 1 20
REMARK H PARENT
REMARK Flexibility Score: inf
ROOT
ATOM      1  C   UNL     1      21.041  16.922  48.983  1.00  0.00     0.000 C 
ENDROOT
BRANCH   1   2
ATOM      2  C   UNL     1      20.978  16.921  47.452  1.00  0.00     0.000 C 
BRANCH   2   3
ATOM      3  C   UNL     1      19.944  15.910  46.943  1.00  0.00     0.000 C 
BRANCH   3   4
ATOM      4  C   UNL     1      18.813  16.612  46.182  1.00  0.00     0.000 C 
BRANCH   4   5
ATOM      5  C   UNL     1      17.843  17.301  47.149  1.00  0.00     0.000 C 
BRANCH   5   6
ATOM      6  C   UNL     1      16.518  16.535  47.237  1.00  0.00     0.000 C 
BRANCH   6   7
ATOM      7  C   UNL     1      16.284  15.691  45.975  1.00  0.00     0.006 C 
BRANCH   7   8
ATOM      8  C   UNL     1      15.377  14.484  46.243  1.00  0.00     0.053 C 
BRANCH   8   9
ATOM      9  C   UNL     1      16.171  13.235  46.477  1.00  0.00     0.041 C 
ATOM     10  O   UNL     1      15.587  12.158  46.772  1.00  0.00    -0.550 OA
ATOM     11  O   UNL     1      17.552  13.252  46.335  1.00  0.00    -0.550 OA
ENDBRANCH   8   9
ENDBRANCH   7   8
ENDBRANCH   6   7
ENDBRANCH   5   6
ENDBRANCH   4   5
ENDBRANCH   3   4
ENDBRANCH   2   3
ENDBRANCH   1   2
BRANCH   1  12
ATOM     12  C   UNL     1      20.761  18.320  49.547  1.00  0.00     0.000 C 
BRANCH  12  13
ATOM     13  C   UNL     1      20.594  19.346  48.416  1.00  0.00    -0.000 C 
BRANCH  13  14
ATOM     14  C   UNL     1      19.506  20.387  48.718  1.00  0.00    -0.000 C 
BRANCH  14  15
ATOM     15  C   UNL     1      18.740  20.829  47.457  1.00  0.00    -0.000 C 
BRANCH  15  16
ATOM     16  C   UNL     1      19.555  20.596  46.168  1.00  0.00    -0.000 C 
BRANCH  16  17
ATOM     17  C   UNL     1      18.738  20.794  44.880  1.00  0.00    -0.000 C 
BRANCH  17  18
ATOM     18  C   UNL     1      18.751  19.555  43.969  1.00  0.00    -0.000 C 
BRANCH  18  19
ATOM     19  C   UNL     1      17.341  19.006  43.703  1.00  0.00    -0.003 C 
ATOM     20  C   UNL     1      17.355  17.717  42.882  1.00  0.00     0.004 C 
ENDBRANCH  18  19
ENDBRANCH  17  18
ENDBRANCH  16  17
ENDBRANCH  15  16
ENDBRANCH  14  15
ENDBRANCH  13  14
ENDBRANCH  12  13
ENDBRANCH   1  12
TORSDOF 16
ENDMDL
MODEL 3
REMARK VINA RESULT:    -4.621      1.999      4.412
REMARK INTER + INTRA:         -11.651
REMARK INTER:                  -8.864
REMARK INTRA:                  -2.787
REMARK UNBOUND:                -2.708
REMARK SMILES CCCCCCCCCCCCCCCCCC(=O)[O-]
REMARK SMILES IDX 10 1 11 2 12 3 13 4 14 5 15 6 16 7 17 8 18 9 19 10 20 11
REMARK SMILES IDX 9 12 8 13 7 14 6 15 5 16 4 17 3 18 2 19 1 20
REMARK H PARENT
REMARK Flexibility Score: inf
ROOT
ATOM      1  C   UNL     1      20.092  16.101  46.886  1.00  0.00     0.000 C 
ENDROOT
BRANCH   1   2
ATOM      2  C   UNL     1      18.614  15.978  46.502  1.00  0.00     0.000 C 
BRANCH   2   3
ATOM      3  C   UNL     1      17.766  17.024  47.235  1.00  0.00     0.000 C 
BRANCH   3   4
ATOM      4  C   UNL     1      17.031  17.933  46.241  1.00  0.00     0.000 C 
BRANCH   4   5
ATOM      5  C   UNL     1      17.768  17.987  44.897  1.00  0.00     0.000 C 
BRANCH   5   6
ATOM      6  C   UNL     1      16.783  18.177  43.737  1.00  0.00     0.000 C 
BRANCH   6   7
ATOM      7  C   UNL     1      15.395  18.585  44.254  1.00  0.00     0.006 C 
BRANCH   7   8
ATOM      8  C   UNL     1      14.293  17.632  43.775  1.00  0.00     0.053 C 
BRANCH   8   9
ATOM      9  C   UNL     1      13.126  17.617  44.714  1.00  0.00     0.041 C 
ATOM     10  O   UNL     1      12.456  16.563  44.877  1.00  0.00    -0.550 OA
ATOM     11  O   UNL     1      12.798  18.759  45.434  1.00  0.00    -0.550 OA
ENDBRANCH   8   9
ENDBRANCH   7   8
ENDBRANCH   6   7
ENDBRANCH   5   6
ENDBRANCH   4   5
ENDBRANCH   3   4
ENDBRANCH   2   3
ENDBRANCH   1   2
BRANCH   1  12
ATOM     12  C   UNL     1      20.304  17.214  47.919  1.00  0.00     0.000 C 
BRANCH  12  13
ATOM     13  C   UNL     1      21.291  18.268  47.397  1.00  0.00    -0.000 C 
BRANCH  13  14
ATOM     14  C   UNL     1      20.595  19.567  46.962  1.00  0.00    -0.000 C 
BRANCH  14  15
ATOM     15  C   UNL     1      19.677  20.144  48.054  1.00  0.00    -0.000 C 
BRANCH  15  16
ATOM     16  C   UNL     1      18.541  21.006  47.465  1.00  0.00    -0.000 C 
BRANCH  16  17
ATOM     17  C   UNL     1      18.727  21.334  45.973  1.00  0.00    -0.000 C 
BRANCH  17  18
ATOM     18  C   UNL     1      17.406  21.691  45.272  1.00  0.00    -0.000 C 
BRANCH  18  19
ATOM     19  C   UNL     1      17.607  22.078  43.799  1.00  0.00    -0.003 C 
ATOM     20  C   UNL     1      18.644  21.202  43.095  1.00  0.00     0.004 C 
ENDBRANCH  18  19
ENDBRANCH  17  18
ENDBRANCH  16  17
ENDBRANCH  15  16
ENDBRANCH  14  15
ENDBRANCH  13  14
ENDBRANCH  12  13
ENDBRANCH   1  12
TORSDOF 16
ENDMDL
MODEL 4
REMARK VINA RESULT:    -4.619      1.608      3.784
REMARK INTER + INTRA:         -11.647
REMARK INTER:                  -8.870
REMARK INTRA:                  -2.777
REMARK UNBOUND:                -2.708
REMARK SMILES CCCCCCCCCCCCCCCCCC(=O)[O-]
REMARK SMILES IDX 10 1 11 2 12 3 13 4 14 5 15 6 16 7 17 8 18 9 19 10 20 11
REMARK SMILES IDX 9 12 8 13 7 14 6 15 5 16 4 17 3 18 2 19 1 20
REMARK H PARENT
REMARK Flexibility Score: inf
ROOT
ATOM      1  C   UNL     1      18.757  20.846  47.463  1.00  0.00     0.000 C 
ENDROOT
BRANCH   1   2
ATOM      2  C   UNL     1      18.466  20.994  45.966  1.00  0.00     0.000 C 
BRANCH   2   3
ATOM      3  C   UNL     1      19.380  20.086  45.135  1.00  0.00     0.000 C 
BRANCH   3   4
ATOM      4  C   UNL     1      18.946  20.067  43.663  1.00  0.00     0.000 C 
BRANCH   4   5
ATOM      5  C   UNL     1      18.398  21.433  43.233  1.00  0.00     0.000 C 
BRANCH   5   6
ATOM      6  C   UNL     1      17.083  21.279  42.460  1.00  0.00     0.000 C 
BRANCH   6   7
ATOM      7  C   UNL     1      16.098  20.381  43.223  1.00  0.00     0.006 C 
BRANCH   7   8
ATOM      8  C   UNL     1      14.913  19.947  42.352  1.00  0.00     0.053 C 
BRANCH   8   9
ATOM      9  C   UNL     1      15.006  18.503  41.965  1.00  0.00     0.041 C 
ATOM     10  O   UNL     1      16.118  18.002  41.648  1.00  0.00    -0.550 OA
ATOM     11  O   UNL     1      13.872  17.702  41.988  1.00  0.00    -0.550 OA
ENDBRANCH   8   9
ENDBRANCH   7   8
ENDBRANCH   6   7
ENDBRANCH   5   6
ENDBRANCH   4   5
ENDBRANCH   3   4
ENDBRANCH   2   3
ENDBRANCH   1   2
BRANCH   1  12
ATOM     12  C   UNL     1      20.141  20.232  47.699  1.00  0.00     0.000 C 
BRANCH  12  13
ATOM     13  C   UNL     1      20.223  19.574  49.084  1.00  0.00    -0.000 C 
BRANCH  13  14
ATOM     14  C   UNL     1      20.925  18.208  49.050  1.00  0.00    -0.000 C 
BRANCH  14  15
ATOM     15  C   UNL     1      21.173  17.703  47.618  1.00  0.00    -0.000 C 
BRANCH  15  16
ATOM     16  C   UNL     1      20.403  16.400  47.317  1.00  0.00    -0.000 C 
BRANCH  16  17
ATOM     17  C   UNL     1      19.116  16.620  46.503  1.00  0.00    -0.000 C 
BRANCH  17  18
ATOM     18  C   UNL     1      17.952  17.144  47.359  1.00  0.00    -0.000 C 
BRANCH  18  19
ATOM     19  C   UNL     1      16.793  17.687  46.509  1.00  0.00    -0.003 C 
ATOM     20  C   UNL     1      16.893  17.271  45.041  1.00  0.00     0.004 C 
ENDBRANCH  18  19
ENDBRANCH  17  18
ENDBRANCH  16  17
ENDBRANCH  15  16
ENDBRANCH  14  15
ENDBRANCH  13  14
ENDBRANCH  12  13
ENDBRANCH   1  12
TORSDOF 16
ENDMDL
MODEL 5
REMARK VINA RESULT:    -4.616      1.779      2.873
REMARK INTER + INTRA:         -11.641
REMARK INTER:                  -8.943
REMARK INTRA:                  -2.699
REMARK UNBOUND:                -2.708
REMARK SMILES CCCCCCCCCCCCCCCCCC(=O)[O-]
REMARK SMILES IDX 10 1 11 2 12 3 13 4 14 5 15 6 16 7 17 8 18 9 19 10 20 11
REMARK SMILES IDX 9 12 8 13 7 14 6 15 5 16 4 17 3 18 2 19 1 20
REMARK H PARENT
REMARK Flexibility Score: inf
ROOT
ATOM      1  C   UNL     1      20.557  20.488  47.516  1.00  0.00     0.000 C 
ENDROOT
BRANCH   1   2
ATOM      2  C   UNL     1      19.200  20.386  48.222  1.00  0.00     0.000 C 
BRANCH   2   3
ATOM      3  C   UNL     1      18.047  20.525  47.222  1.00  0.00     0.000 C 
BRANCH   3   4
ATOM      4  C   UNL     1      18.228  21.767  46.341  1.00  0.00     0.000 C 
BRANCH   4   5
ATOM      5  C   UNL     1      17.713  21.513  44.919  1.00  0.00     0.000 C 
BRANCH   5   6
ATOM      6  C   UNL     1      18.790  20.846  44.055  1.00  0.00     0.000 C 
BRANCH   6   7
ATOM      7  C   UNL     1      18.529  19.338  43.916  1.00  0.00     0.006 C 
BRANCH   7   8
ATOM      8  C   UNL     1      17.047  18.987  44.089  1.00  0.00     0.053 C 
BRANCH   8   9
ATOM      9  C   UNL     1      16.653  17.812  43.247  1.00  0.00     0.041 C 
ATOM     10  O   UNL     1      17.470  17.317  42.426  1.00  0.00    -0.550 OA
ATOM     11  O   UNL     1      15.394  17.243  43.392  1.00  0.00    -0.550 OA
ENDBRANCH   8   9
ENDBRANCH   7   8
ENDBRANCH   6   7
ENDBRANCH   5   6
ENDBRANCH   4   5
ENDBRANCH   3   4
ENDBRANCH   2   3
ENDBRANCH   1   2
BRANCH   1  12
ATOM     12  C   UNL     1      20.859  19.216  46.715  1.00  0.00     0.000 C 
BRANCH  12  13
ATOM     13  C   UNL     1      21.380  18.099  47.630  1.00  0.00    -0.000 C 
BRANCH  13  14
ATOM     14  C   UNL     1      20.400  16.922  47.745  1.00  0.00    -0.000 C 
BRANCH  14  15
ATOM     15  C   UNL     1      19.353  16.908  46.616  1.00  0.00    -0.000 C 
BRANCH  15  16
ATOM     16  C   UNL     1      17.910  16.984  47.158  1.00  0.00    -0.000 C 
BRANCH  16  17
ATOM     17  C   UNL     1      16.992  15.873  46.621  1.00  0.00    -0.000 C 
BRANCH  17  18
ATOM     18  C   UNL     1      17.648  15.046  45.503  1.00  0.00    -0.000 C 
BRANCH  18  19
ATOM     19  C   UNL     1      17.792  13.562  45.876  1.00  0.00    -0.003 C 
ATOM     20  C   UNL     1      19.221  13.189  46.271  1.00  0.00     0.004 C 
ENDBRANCH  18  19
ENDBRANCH  17  18
ENDBRANCH  16  17
ENDBRANCH  15  16
ENDBRANCH  14  15
ENDBRANCH  13  14
ENDBRANCH  12  13
ENDBRANCH   1  12
TORSDOF 16
ENDMDL
MODEL 6
REMARK VINA RESULT:    -4.581      4.119      6.875
REMARK INTER + INTRA:         -11.574
REMARK INTER:                  -9.102
REMARK INTRA:                  -2.472
REMARK UNBOUND:                -2.708
REMARK SMILES CCCCCCCCCCCCCCCCCC(=O)[O-]
REMARK SMILES IDX 10 1 11 2 12 3 13 4 14 5 15 6 16 7 17 8 18 9 19 10 20 11
REMARK SMILES IDX 9 12 8 13 7 14 6 15 5 16 4 17 3 18 2 19 1 20
REMARK H PARENT
REMARK Flexibility Score: inf
ROOT
ATOM      1  C   UNL     1      19.136  16.887  47.545  1.00  0.00     0.000 C 
ENDROOT
BRANCH   1   2
ATOM      2  C   UNL     1      20.547  16.353  47.272  1.00  0.00     0.000 C 
BRANCH   2   3
ATOM      3  C   UNL     1      21.599  17.156  48.044  1.00  0.00     0.000 C 
BRANCH   3   4
ATOM      4  C   UNL     1      21.150  17.405  49.490  1.00  0.00     0.000 C 
BRANCH   4   5
ATOM      5  C   UNL     1      21.354  16.154  50.353  1.00  0.00     0.000 C 
BRANCH   5   6
ATOM      6  C   UNL     1      22.511  16.348  51.339  1.00  0.00     0.000 C 
BRANCH   6   7
ATOM      7  C   UNL     1      23.578  15.258  51.159  1.00  0.00     0.006 C 
BRANCH   7   8
ATOM      8  C   UNL     1      24.378  15.436  49.863  1.00  0.00     0.053 C 
BRANCH   8   9
ATOM      9  C   UNL     1      24.321  14.211  49.002  1.00  0.00     0.041 C 
ATOM     10  O   UNL     1      25.271  13.384  49.013  1.00  0.00    -0.550 OA
ATOM     11  O   UNL     1      23.204  13.967  48.214  1.00  0.00    -0.550 OA
ENDBRANCH   8   9
ENDBRANCH   7   8
ENDBRANCH   6   7
ENDBRANCH   5   6
ENDBRANCH   4   5
ENDBRANCH   3   4
ENDBRANCH   2   3
ENDBRANCH   1   2
BRANCH   1  12
ATOM     12  C   UNL     1      18.233  16.713  46.318  1.00  0.00     0.000 C 
BRANCH  12  13
ATOM     13  C   UNL     1      16.986  17.603  46.422  1.00  0.00    -0.000 C 
BRANCH  13  14
ATOM     14  C   UNL     1      16.884  18.617  45.273  1.00  0.00    -0.000 C 
BRANCH  14  15
ATOM     15  C   UNL     1      17.947  18.388  44.183  1.00  0.00    -0.000 C 
BRANCH  15  16
ATOM     16  C   UNL     1      18.624  19.703  43.744  1.00  0.00    -0.000 C 
BRANCH  16  17
ATOM     17  C   UNL     1      19.099  20.574  44.920  1.00  0.00    -0.000 C 
BRANCH  17  18
ATOM     18  C   UNL     1      20.159  19.877  45.788  1.00  0.00    -0.000 C 
BRANCH  18  19
ATOM     19  C   UNL     1      20.239  20.465  47.205  1.00  0.00    -0.003 C 
ATOM     20  C   UNL     1      18.878  20.521  47.898  1.00  0.00     0.004 C 
ENDBRANCH  18  19
ENDBRANCH  17  18
ENDBRANCH  16  17
ENDBRANCH  15  16
ENDBRANCH  14  15
ENDBRANCH  13  14
ENDBRANCH  12  13
ENDBRANCH   1  12
TORSDOF 16
ENDMDL
MODEL 7
REMARK VINA RESULT:    -4.566      3.321      6.610
REMARK INTER + INTRA:         -11.545
REMARK INTER:                  -8.816
REMARK INTRA:                  -2.729
REMARK UNBOUND:                -2.708
REMARK SMILES CCCCCCCCCCCCCCCCCC(=O)[O-]
REMARK SMILES IDX 10 1 11 2 12 3 13 4 14 5 15 6 16 7 17 8 18 9 19 10 20 11
REMARK SMILES IDX 9 12 8 13 7 14 6 15 5 16 4 17 3 18 2 19 1 20
REMARK H PARENT
REMARK Flexibility Score: inf
ROOT
ATOM      1  C   UNL     1      16.505  17.481  44.685  1.00  0.00     0.000 C 
ENDROOT
BRANCH   1   2
ATOM      2  C   UNL     1      16.401  17.900  46.156  1.00  0.00     0.000 C 
BRANCH   2   3
ATOM      3  C   UNL     1      17.239  16.980  47.051  1.00  0.00     0.000 C 
BRANCH   3   4
ATOM      4  C   UNL     1      18.011  15.951  46.216  1.00  0.00     0.000 C 
BRANCH   4   5
ATOM      5  C   UNL     1      19.505  15.969  46.563  1.00  0.00     0.000 C 
BRANCH   5   6
ATOM      6  C   UNL     1      19.865  17.216  47.378  1.00  0.00     0.000 C 
BRANCH   6   7
ATOM      7  C   UNL     1      21.362  17.237  47.722  1.00  0.00     0.006 C 
BRANCH   7   8
ATOM      8  C   UNL     1      21.895  15.845  48.082  1.00  0.00     0.053 C 
BRANCH   8   9
ATOM      9  C   UNL     1      22.171  15.719  49.549  1.00  0.00     0.041 C 
ATOM     10  O   UNL     1      23.146  15.033  49.955  1.00  0.00    -0.550 OA
ATOM     11  O   UNL     1      21.372  16.387  50.468  1.00  0.00    -0.550 OA
ENDBRANCH   8   9
ENDBRANCH   7   8
ENDBRANCH   6   7
ENDBRANCH   5   6
ENDBRANCH   4   5
ENDBRANCH   3   4
ENDBRANCH   2   3
ENDBRANCH   1   2
BRANCH   1  12
ATOM     12  C   UNL     1      16.357  18.691  43.755  1.00  0.00     0.000 C 
BRANCH  12  13
ATOM     13  C   UNL     1      17.721  19.138  43.211  1.00  0.00    -0.000 C 
BRANCH  13  14
ATOM     14  C   UNL     1      18.342  20.277  44.033  1.00  0.00    -0.000 C 
BRANCH  14  15
ATOM     15  C   UNL     1      19.574  19.826  44.839  1.00  0.00    -0.000 C 
BRANCH  15  16
ATOM     16  C   UNL     1      19.774  20.666  46.117  1.00  0.00    -0.000 C 
BRANCH  16  17
ATOM     17  C   UNL     1      18.492  20.836  46.950  1.00  0.00    -0.000 C 
BRANCH  17  18
ATOM     18  C   UNL     1      18.728  20.636  48.456  1.00  0.00    -0.000 C 
BRANCH  18  19
ATOM     19  C   UNL     1      20.220  20.626  48.821  1.00  0.00    -0.003 C 
ATOM     20  C   UNL     1      20.503  19.879  50.126  1.00  0.00     0.004 C 
ENDBRANCH  18  19
ENDBRANCH  17  18
ENDBRANCH  16  17
ENDBRANCH  15  16
ENDBRANCH  14  15
ENDBRANCH  13  14
ENDBRANCH  12  13
ENDBRANCH   1  12
TORSDOF 16
ENDMDL
MODEL 8
REMARK VINA RESULT:    -4.512      4.701      7.141
REMARK INTER + INTRA:         -11.440
REMARK INTER:                  -9.242
REMARK INTRA:                  -2.197
REMARK UNBOUND:                -2.708
REMARK SMILES CCCCCCCCCCCCCCCCCC(=O)[O-]
REMARK SMILES IDX 10 1 11 2 12 3 13 4 14 5 15 6 16 7 17 8 18 9 19 10 20 11
REMARK SMILES IDX 9 12 8 13 7 14 6 15 5 16 4 17 3 18 2 19 1 20
REMARK H PARENT
REMARK Flexibility Score: inf
ROOT
ATOM      1  C   UNL     1      20.070  19.746  48.191  1.00  0.00     0.000 C 
ENDROOT
BRANCH   1   2
ATOM      2  C   UNL     1      20.761  18.935  47.090  1.00  0.00     0.000 C 
BRANCH   2   3
ATOM      3  C   UNL     1      21.426  17.679  47.665  1.00  0.00     0.000 C 
BRANCH   3   4
ATOM      4  C   UNL     1      20.814  17.304  49.021  1.00  0.00     0.000 C 
BRANCH   4   5
ATOM      5  C   UNL     1      21.725  16.337  49.788  1.00  0.00     0.000 C 
BRANCH   5   6
ATOM      6  C   UNL     1      22.922  15.912  48.930  1.00  0.00     0.000 C 
BRANCH   6   7
ATOM      7  C   UNL     1      23.646  14.709  49.551  1.00  0.00     0.006 C 
BRANCH   7   8
ATOM      8  C   UNL     1      24.280  15.048  50.906  1.00  0.00     0.053 C 
BRANCH   8   9
ATOM      9  C   UNL     1      25.775  15.107  50.821  1.00  0.00     0.041 C 
ATOM     10  O   UNL     1      26.447  14.045  50.736  1.00  0.00    -0.550 OA
ATOM     11  O   UNL     1      26.423  16.335  50.801  1.00  0.00    -0.550 OA
ENDBRANCH   8   9
ENDBRANCH   7   8
ENDBRANCH   6   7
ENDBRANCH   5   6
ENDBRANCH   4   5
ENDBRANCH   3   4
ENDBRANCH   2   3
ENDBRANCH   1   2
BRANCH   1  12
ATOM     12  C   UNL     1      18.975  20.647  47.609  1.00  0.00     0.000 C 
BRANCH  12  13
ATOM     13  C   UNL     1      19.299  21.041  46.160  1.00  0.00    -0.000 C 
BRANCH  13  14
ATOM     14  C   UNL     1      18.054  21.471  45.371  1.00  0.00    -0.000 C 
BRANCH  14  15
ATOM     15  C   UNL     1      18.162  21.151  43.869  1.00  0.00    -0.000 C 
BRANCH  15  16
ATOM     16  C   UNL     1      18.701  19.728  43.613  1.00  0.00    -0.000 C 
BRANCH  16  17
ATOM     17  C   UNL     1      17.649  18.625  43.821  1.00  0.00    -0.000 C 
BRANCH  17  18
ATOM     18  C   UNL     1      17.972  17.710  45.013  1.00  0.00    -0.000 C 
BRANCH  18  19
ATOM     19  C   UNL     1      17.008  17.915  46.191  1.00  0.00    -0.003 C 
ATOM     20  C   UNL     1      17.397  17.096  47.422  1.00  0.00     0.004 C 
ENDBRANCH  18  19
ENDBRANCH  17  18
ENDBRANCH  16  17
ENDBRANCH  15  16
ENDBRANCH  14  15
ENDBRANCH  13  14
ENDBRANCH  12  13
ENDBRANCH   1  12
TORSDOF 16
ENDMDL
MODEL 9
REMARK VINA RESULT:    -4.508      1.570      2.148
REMARK INTER + INTRA:         -11.433
REMARK INTER:                  -9.085
REMARK INTRA:                  -2.348
REMARK UNBOUND:                -2.708
REMARK SMILES CCCCCCCCCCCCCCCCCC(=O)[O-]
REMARK SMILES IDX 10 1 11 2 12 3 13 4 14 5 15 6 16 7 17 8 18 9 19 10 20 11
REMARK SMILES IDX 9 12 8 13 7 14 6 15 5 16 4 17 3 18 2 19 1 20
REMARK H PARENT
REMARK Flexibility Score: inf
ROOT
ATOM      1  C   UNL     1      20.913  18.141  47.534  1.00  0.00     0.000 C 
ENDROOT
BRANCH   1   2
ATOM      2  C   UNL     1      20.663  18.614  48.970  1.00  0.00     0.000 C 
BRANCH   2   3
ATOM      3  C   UNL     1      20.014  20.003  48.988  1.00  0.00     0.000 C 
BRANCH   3   4
ATOM      4  C   UNL     1      19.907  20.580  47.571  1.00  0.00     0.000 C 
BRANCH   4   5
ATOM      5  C   UNL     1      18.492  21.102  47.295  1.00  0.00     0.000 C 
BRANCH   5   6
ATOM      6  C   UNL     1      18.077  20.826  45.845  1.00  0.00     0.000 C 
BRANCH   6   7
ATOM      7  C   UNL     1      19.286  20.401  44.998  1.00  0.00     0.006 C 
BRANCH   7   8
ATOM      8  C   UNL     1      18.904  20.125  43.538  1.00  0.00     0.053 C 
BRANCH   8   9
ATOM      9  C   UNL     1      17.507  19.596  43.420  1.00  0.00     0.041 C 
ATOM     10  O   UNL     1      17.266  18.383  43.660  1.00  0.00    -0.550 OA
ATOM     11  O   UNL     1      16.467  20.449  43.077  1.00  0.00    -0.550 OA
ENDBRANCH   8   9
ENDBRANCH   7   8
ENDBRANCH   6   7
ENDBRANCH   5   6
ENDBRANCH   4   5
ENDBRANCH   3   4
ENDBRANCH   2   3
ENDBRANCH   1   2
BRANCH   1  12
ATOM     12  C   UNL     1      20.220  16.801  47.266  1.00  0.00     0.000 C 
BRANCH  12  13
ATOM     13  C   UNL     1      18.998  16.985  46.354  1.00  0.00    -0.000 C 
BRANCH  13  14
ATOM     14  C   UNL     1      17.763  17.494  47.113  1.00  0.00    -0.000 C 
BRANCH  14  15
ATOM     15  C   UNL     1      16.699  16.401  47.317  1.00  0.00    -0.000 C 
BRANCH  15  16
ATOM     16  C   UNL     1      15.873  16.145  46.040  1.00  0.00    -0.000 C 
BRANCH  16  17
ATOM     17  C   UNL     1      16.181  14.796  45.367  1.00  0.00    -0.000 C 
BRANCH  17  18
ATOM     18  C   UNL     1      16.213  13.626  46.363  1.00  0.00    -0.000 C 
BRANCH  18  19
ATOM     19  C   UNL     1      17.392  12.673  46.115  1.00  0.00    -0.003 C 
ATOM     20  C   UNL     1      18.732  13.403  46.025  1.00  0.00     0.004 C 
ENDBRANCH  18  19
ENDBRANCH  17  18
ENDBRANCH  16  17
ENDBRANCH  15  16
ENDBRANCH  14  15
ENDBRANCH  13  14
ENDBRANCH  12  13
ENDBRANCH   1  12
TORSDOF 16
ENDMDL
