MODEL 1
REMARK VINA RESULT:    -5.590      0.000      0.000
REMARK INTER + INTRA:          -6.126
REMARK INTER:                  -6.080
REMARK INTRA:                  -0.046
REMARK UNBOUND:                -0.046
REMARK SMILES COc1ccccc1O
REMARK SMILES IDX 3 1 4 2 5 3 6 4 7 5 8 6 2 7 1 8 9 9
REMARK H PARENT 9 10
REMARK Flexibility Score: inf
ROOT
ATOM      1  C   UNL     1      18.367  -2.257  26.843  1.00  0.00     0.160 A 
ATOM      2  C   UNL     1      17.093  -2.689  27.262  1.00  0.00     0.050 A 
ATOM      3  C   UNL     1      15.949  -1.974  26.895  1.00  0.00     0.004 A 
ATOM      4  C   UNL     1      16.063  -0.825  26.111  1.00  0.00     0.004 A 
ATOM      5  C   UNL     1      17.320  -0.387  25.691  1.00  0.00     0.050 A 
ATOM      6  C   UNL     1      18.472  -1.096  26.052  1.00  0.00     0.157 A 
ENDROOT
BRANCH   1   7
ATOM      7  O   UNL     1      19.538  -2.948  27.191  1.00  0.00    -0.493 OA
ATOM      8  C   UNL     1      20.194  -2.841  28.451  1.00  0.00     0.278 C 
ENDBRANCH   1   7
BRANCH   6   9
ATOM      9  O   UNL     1      19.713  -0.631  25.616  1.00  0.00    -0.504 OA
ATOM     10  H   UNL     1      19.817  -0.086  24.769  1.00  0.00     0.293 HD
ENDBRANCH   6   9
TORSDOF 2
ENDMDL
MODEL 2
REMARK VINA RESULT:    -5.571     12.136     13.027
REMARK INTER + INTRA:          -6.106
REMARK INTER:                  -6.083
REMARK INTRA:                  -0.022
REMARK UNBOUND:                -0.046
REMARK SMILES COc1ccccc1O
REMARK SMILES IDX 3 1 4 2 5 3 6 4 7 5 8 6 2 7 1 8 9 9
REMARK H PARENT 9 10
REMARK Flexibility Score: inf
ROOT
ATOM      1  C   UNL     1      12.236 -12.547  29.016  1.00  0.00     0.160 A 
ATOM      2  C   UNL     1      13.603 -12.357  29.301  1.00  0.00     0.050 A 
ATOM      3  C   UNL     1      14.580 -12.967  28.510  1.00  0.00     0.004 A 
ATOM      4  C   UNL     1      14.208 -13.770  27.431  1.00  0.00     0.004 A 
ATOM      5  C   UNL     1      12.857 -13.966  27.140  1.00  0.00     0.050 A 
ATOM      6  C   UNL     1      11.869 -13.359  27.925  1.00  0.00     0.157 A 
ENDROOT
BRANCH   1   7
ATOM      7  O   UNL     1      11.226 -11.951  29.788  1.00  0.00    -0.493 OA
ATOM      8  C   UNL     1      10.619 -10.697  29.492  1.00  0.00     0.278 C 
ENDBRANCH   1   7
BRANCH   6   9
ATOM      9  O   UNL     1      10.528 -13.575  27.606  1.00  0.00    -0.504 OA
ATOM     10  H   UNL     1      10.091 -14.483  27.699  1.00  0.00     0.293 HD
ENDBRANCH   6   9
TORSDOF 2
ENDMDL
MODEL 3
REMARK VINA RESULT:    -5.298     11.467     12.590
REMARK INTER + INTRA:          -5.809
REMARK INTER:                  -5.783
REMARK INTRA:                  -0.026
REMARK UNBOUND:                -0.046
REMARK SMILES COc1ccccc1O
REMARK SMILES IDX 3 1 4 2 5 3 6 4 7 5 8 6 2 7 1 8 9 9
REMARK H PARENT 9 10
REMARK Flexibility Score: inf
ROOT
ATOM      1  C   UNL     1      12.920 -13.085  28.168  1.00  0.00     0.160 A 
ATOM      2  C   UNL     1      13.753 -12.092  28.722  1.00  0.00     0.050 A 
ATOM      3  C   UNL     1      13.219 -10.862  29.115  1.00  0.00     0.004 A 
ATOM      4  C   UNL     1      11.856 -10.608  28.961  1.00  0.00     0.004 A 
ATOM      5  C   UNL     1      11.021 -11.584  28.413  1.00  0.00     0.050 A 
ATOM      6  C   UNL     1      11.545 -12.820  28.016  1.00  0.00     0.157 A 
ENDROOT
BRANCH   1   7
ATOM      7  O   UNL     1      13.420 -14.332  27.761  1.00  0.00    -0.493 OA
ATOM      8  C   UNL     1      14.634 -14.907  28.233  1.00  0.00     0.278 C 
ENDBRANCH   1   7
BRANCH   6   9
ATOM      9  O   UNL     1      10.684 -13.773  27.472  1.00  0.00    -0.504 OA
ATOM     10  H   UNL     1      10.933 -14.752  27.409  1.00  0.00     0.293 HD
ENDBRANCH   6   9
TORSDOF 2
ENDMDL
MODEL 4
REMARK VINA RESULT:    -5.298      1.313      2.285
REMARK INTER + INTRA:          -5.809
REMARK INTER:                  -5.771
REMARK INTRA:                  -0.038
REMARK UNBOUND:                -0.046
REMARK SMILES COc1ccccc1O
REMARK SMILES IDX 3 1 4 2 5 3 6 4 7 5 8 6 2 7 1 8 9 9
REMARK H PARENT 9 10
REMARK Flexibility Score: inf
ROOT
ATOM      1  C   UNL     1      18.373  -2.166  26.833  1.00  0.00     0.160 A 
ATOM      2  C   UNL     1      19.005  -1.613  25.701  1.00  0.00     0.050 A 
ATOM      3  C   UNL     1      18.330  -0.691  24.896  1.00  0.00     0.004 A 
ATOM      4  C   UNL     1      17.024  -0.312  25.209  1.00  0.00     0.004 A 
ATOM      5  C   UNL     1      16.388  -0.854  26.327  1.00  0.00     0.050 A 
ATOM      6  C   UNL     1      17.055  -1.778  27.141  1.00  0.00     0.157 A 
ENDROOT
BRANCH   1   7
ATOM      7  O   UNL     1      19.019  -3.094  27.664  1.00  0.00    -0.493 OA
ATOM      8  C   UNL     1      20.241  -2.847  28.354  1.00  0.00     0.278 C 
ENDBRANCH   1   7
BRANCH   6   9
ATOM      9  O   UNL     1      16.391  -2.300  28.251  1.00  0.00    -0.504 OA
ATOM     10  H   UNL     1      16.687  -2.102  29.199  1.00  0.00     0.293 HD
ENDBRANCH   6   9
TORSDOF 2
ENDMDL
MODEL 5
REMARK VINA RESULT:    -5.290      1.346      3.154
REMARK INTER + INTRA:          -5.800
REMARK INTER:                  -5.773
REMARK INTRA:                  -0.027
REMARK UNBOUND:                -0.046
REMARK SMILES COc1ccccc1O
REMARK SMILES IDX 3 1 4 2 5 3 6 4 7 5 8 6 2 7 1 8 9 9
REMARK H PARENT 9 10
REMARK Flexibility Score: inf
ROOT
ATOM      1  C   UNL     1      17.377  -0.952  26.290  1.00  0.00     0.160 A 
ATOM      2  C   UNL     1      16.507  -1.815  26.988  1.00  0.00     0.050 A 
ATOM      3  C   UNL     1      17.016  -2.902  27.703  1.00  0.00     0.004 A 
ATOM      4  C   UNL     1      18.390  -3.141  27.732  1.00  0.00     0.004 A 
ATOM      5  C   UNL     1      19.261  -2.294  27.045  1.00  0.00     0.050 A 
ATOM      6  C   UNL     1      18.763  -1.201  26.325  1.00  0.00     0.157 A 
ENDROOT
BRANCH   1   7
ATOM      7  O   UNL     1      16.904   0.150  25.561  1.00  0.00    -0.493 OA
ATOM      8  C   UNL     1      15.696   0.849  25.848  1.00  0.00     0.278 C 
ENDBRANCH   1   7
BRANCH   6   9
ATOM      9  O   UNL     1      19.660  -0.373  25.650  1.00  0.00    -0.504 OA
ATOM     10  H   UNL     1      19.353   0.333  24.993  1.00  0.00     0.293 HD
ENDBRANCH   6   9
TORSDOF 2
ENDMDL
MODEL 6
REMARK VINA RESULT:    -5.204     11.479     12.730
REMARK INTER + INTRA:          -5.707
REMARK INTER:                  -5.661
REMARK INTRA:                  -0.046
REMARK UNBOUND:                -0.046
REMARK SMILES COc1ccccc1O
REMARK SMILES IDX 3 1 4 2 5 3 6 4 7 5 8 6 2 7 1 8 9 9
REMARK H PARENT 9 10
REMARK Flexibility Score: inf
ROOT
ATOM      1  C   UNL     1      12.835 -12.544  29.472  1.00  0.00     0.160 A 
ATOM      2  C   UNL     1      14.021 -13.265  29.226  1.00  0.00     0.050 A 
ATOM      3  C   UNL     1      14.150 -14.037  28.068  1.00  0.00     0.004 A 
ATOM      4  C   UNL     1      13.104 -14.098  27.146  1.00  0.00     0.004 A 
ATOM      5  C   UNL     1      11.925 -13.388  27.380  1.00  0.00     0.050 A 
ATOM      6  C   UNL     1      11.784 -12.612  28.537  1.00  0.00     0.157 A 
ENDROOT
BRANCH   1   7
ATOM      7  O   UNL     1      12.668 -11.759  30.623  1.00  0.00    -0.493 OA
ATOM      8  C   UNL     1      13.152 -10.427  30.768  1.00  0.00     0.278 C 
ENDBRANCH   1   7
BRANCH   6   9
ATOM      9  O   UNL     1      10.593 -11.915  28.739  1.00  0.00    -0.504 OA
ATOM     10  H   UNL     1      10.494 -10.936  28.501  1.00  0.00     0.293 HD
ENDBRANCH   6   9
TORSDOF 2
ENDMDL
MODEL 7
REMARK VINA RESULT:    -5.151     11.959     12.712
REMARK INTER + INTRA:          -5.648
REMARK INTER:                  -5.623
REMARK INTRA:                  -0.026
REMARK UNBOUND:                -0.046
REMARK SMILES COc1ccccc1O
REMARK SMILES IDX 3 1 4 2 5 3 6 4 7 5 8 6 2 7 1 8 9 9
REMARK H PARENT 9 10
REMARK Flexibility Score: inf
ROOT
ATOM      1  C   UNL     1      12.085 -12.221  29.045  1.00  0.00     0.160 A 
ATOM      2  C   UNL     1      11.505 -12.863  27.932  1.00  0.00     0.050 A 
ATOM      3  C   UNL     1      12.259 -13.745  27.154  1.00  0.00     0.004 A 
ATOM      4  C   UNL     1      13.593 -13.998  27.475  1.00  0.00     0.004 A 
ATOM      5  C   UNL     1      14.179 -13.368  28.574  1.00  0.00     0.050 A 
ATOM      6  C   UNL     1      13.433 -12.481  29.361  1.00  0.00     0.157 A 
ENDROOT
BRANCH   1   7
ATOM      7  O   UNL     1      11.360 -11.328  29.850  1.00  0.00    -0.493 OA
ATOM      8  C   UNL     1      10.154 -10.682  29.454  1.00  0.00     0.278 C 
ENDBRANCH   1   7
BRANCH   6   9
ATOM      9  O   UNL     1      14.049 -11.869  30.452  1.00  0.00    -0.504 OA
ATOM     10  H   UNL     1      14.110 -10.862  30.542  1.00  0.00     0.293 HD
ENDBRANCH   6   9
TORSDOF 2
ENDMDL
MODEL 8
REMARK VINA RESULT:    -5.101      2.919      4.467
REMARK INTER + INTRA:          -5.594
REMARK INTER:                  -5.568
REMARK INTRA:                  -0.026
REMARK UNBOUND:                -0.046
REMARK SMILES COc1ccccc1O
REMARK SMILES IDX 3 1 4 2 5 3 6 4 7 5 8 6 2 7 1 8 9 9
REMARK H PARENT 9 10
REMARK Flexibility Score: inf
ROOT
ATOM      1  C   UNL     1      16.029   0.148  26.334  1.00  0.00     0.160 A 
ATOM      2  C   UNL     1      17.077  -0.260  25.484  1.00  0.00     0.050 A 
ATOM      3  C   UNL     1      18.143  -1.010  25.989  1.00  0.00     0.004 A 
ATOM      4  C   UNL     1      18.176  -1.360  27.339  1.00  0.00     0.004 A 
ATOM      5  C   UNL     1      17.144  -0.961  28.190  1.00  0.00     0.050 A 
ATOM      6  C   UNL     1      16.071  -0.210  27.696  1.00  0.00     0.157 A 
ENDROOT
BRANCH   1   7
ATOM      7  O   UNL     1      14.942   0.902  25.864  1.00  0.00    -0.493 OA
ATOM      8  C   UNL     1      14.883   2.325  25.875  1.00  0.00     0.278 C 
ENDBRANCH   1   7
BRANCH   6   9
ATOM      9  O   UNL     1      15.056   0.172  28.572  1.00  0.00    -0.504 OA
ATOM     10  H   UNL     1      14.644  -0.473  29.234  1.00  0.00     0.293 HD
ENDBRANCH   6   9
TORSDOF 2
ENDMDL
MODEL 9
REMARK VINA RESULT:    -5.085      1.459      2.431
REMARK INTER + INTRA:          -5.577
REMARK INTER:                  -5.538
REMARK INTRA:                  -0.039
REMARK UNBOUND:                -0.046
REMARK SMILES COc1ccccc1O
REMARK SMILES IDX 3 1 4 2 5 3 6 4 7 5 8 6 2 7 1 8 9 9
REMARK H PARENT 9 10
REMARK Flexibility Score: inf
ROOT
ATOM      1  C   UNL     1      17.497  -1.772  27.242  1.00  0.00     0.160 A 
ATOM      2  C   UNL     1      16.608  -0.920  26.556  1.00  0.00     0.050 A 
ATOM      3  C   UNL     1      16.978  -0.349  25.336  1.00  0.00     0.004 A 
ATOM      4  C   UNL     1      18.232  -0.619  24.787  1.00  0.00     0.004 A 
ATOM      5  C   UNL     1      19.121  -1.462  25.457  1.00  0.00     0.050 A 
ATOM      6  C   UNL     1      18.761  -2.040  26.681  1.00  0.00     0.157 A 
ENDROOT
BRANCH   1   7
ATOM      7  O   UNL     1      17.161  -2.364  28.470  1.00  0.00    -0.493 OA
ATOM      8  C   UNL     1      16.845  -1.640  29.655  1.00  0.00     0.278 C 
ENDBRANCH   1   7
BRANCH   6   9
ATOM      9  O   UNL     1      19.673  -2.877  27.324  1.00  0.00    -0.504 OA
ATOM     10  H   UNL     1      20.644  -2.934  27.044  1.00  0.00     0.293 HD
ENDBRANCH   6   9
TORSDOF 2
ENDMDL
