MODEL 1
REMARK VINA RESULT:    -4.430      0.000      0.000
REMARK INTER + INTRA:         -10.317
REMARK INTER:                  -8.315
REMARK INTRA:                  -2.002
REMARK UNBOUND:                -2.002
REMARK SMILES O=C([O-])CCCCCCCCCCCCCCC(=O)[O-]
REMARK SMILES IDX 10 1 9 2 8 3 7 4 6 5 5 6 4 7 2 8 1 9 3 10 11 11 12 12 13 13
REMARK SMILES IDX 14 14 15 15 16 16 17 17 18 18 19 19 20 20
REMARK H PARENT
REMARK Flexibility Score: inf
ROOT
ATOM      1  C   UNL     1     164.251 177.790 181.148  1.00  0.00     0.000 C 
ENDROOT
BRANCH   1   2
ATOM      2  C   UNL     1     163.539 178.887 181.960  1.00  0.00     0.000 C 
BRANCH   2   3
ATOM      3  C   UNL     1     162.601 179.752 181.107  1.00  0.00     0.000 C 
BRANCH   3   4
ATOM      4  C   UNL     1     163.123 179.872 179.667  1.00  0.00     0.000 C 
BRANCH   4   5
ATOM      5  C   UNL     1     161.993 179.889 178.626  1.00  0.00     0.000 C 
BRANCH   5   6
ATOM      6  C   UNL     1     161.410 178.492 178.363  1.00  0.00     0.006 C 
BRANCH   6   7
ATOM      7  C   UNL     1     162.125 177.811 177.192  1.00  0.00     0.053 C 
BRANCH   7   8
ATOM      8  C   UNL     1     161.383 176.583 176.766  1.00  0.00     0.041 C 
ATOM      9  O   UNL     1     160.682 175.947 177.597  1.00  0.00    -0.550 OA
ATOM     10  O   UNL     1     161.425 176.170 175.441  1.00  0.00    -0.550 OA
ENDBRANCH   7   8
ENDBRANCH   6   7
ENDBRANCH   5   6
ENDBRANCH   4   5
ENDBRANCH   3   4
ENDBRANCH   2   3
ENDBRANCH   1   2
BRANCH   1  11
ATOM     11  C   UNL     1     163.826 176.350 181.489  1.00  0.00     0.000 C 
BRANCH  11  12
ATOM     12  C   UNL     1     162.764 175.794 180.528  1.00  0.00     0.000 C 
BRANCH  12  13
ATOM     13  C   UNL     1     161.350 176.112 181.028  1.00  0.00     0.000 C 
BRANCH  13  14
ATOM     14  C   UNL     1     160.589 174.825 181.381  1.00  0.00     0.000 C 
BRANCH  14  15
ATOM     15  C   UNL     1     160.984 173.639 180.488  1.00  0.00     0.000 C 
BRANCH  15  16
ATOM     16  C   UNL     1     161.311 172.373 181.294  1.00  0.00     0.006 C 
BRANCH  16  17
ATOM     17  C   UNL     1     161.823 172.732 182.693  1.00  0.00     0.053 C 
BRANCH  17  18
ATOM     18  C   UNL     1     163.287 172.447 182.804  1.00  0.00     0.041 C 
ATOM     19  O   UNL     1     164.059 173.296 183.321  1.00  0.00    -0.550 OA
ATOM     20  O   UNL     1     163.792 171.222 182.386  1.00  0.00    -0.550 OA
ENDBRANCH  17  18
ENDBRANCH  16  17
ENDBRANCH  15  16
ENDBRANCH  14  15
ENDBRANCH  13  14
ENDBRANCH  12  13
ENDBRANCH  11  12
ENDBRANCH   1  11
TORSDOF 15
ENDMDL
MODEL 2
REMARK VINA RESULT:    -4.330      0.513      6.194
REMARK INTER + INTRA:         -10.130
REMARK INTER:                  -7.957
REMARK INTRA:                  -2.173
REMARK UNBOUND:                -2.002
REMARK SMILES O=C([O-])CCCCCCCCCCCCCCC(=O)[O-]
REMARK SMILES IDX 10 1 9 2 8 3 7 4 6 5 5 6 4 7 2 8 1 9 3 10 11 11 12 12 13 13
REMARK SMILES IDX 14 14 15 15 16 16 17 17 18 18 19 19 20 20
REMARK H PARENT
REMARK Flexibility Score: inf
ROOT
ATOM      1  C   UNL     1     164.000 176.635 181.253  1.00  0.00     0.000 C 
ENDROOT
BRANCH   1   2
ATOM      2  C   UNL     1     162.800 176.108 180.444  1.00  0.00     0.000 C 
BRANCH   2   3
ATOM      3  C   UNL     1     161.451 176.383 181.123  1.00  0.00     0.000 C 
BRANCH   3   4
ATOM      4  C   UNL     1     160.606 175.102 181.202  1.00  0.00     0.000 C 
BRANCH   4   5
ATOM      5  C   UNL     1     161.294 173.897 180.540  1.00  0.00     0.000 C 
BRANCH   5   6
ATOM      6  C   UNL     1     161.091 172.594 181.327  1.00  0.00     0.006 C 
BRANCH   6   7
ATOM      7  C   UNL     1     161.654 172.717 182.746  1.00  0.00     0.053 C 
BRANCH   7   8
ATOM      8  C   UNL     1     163.131 172.476 182.748  1.00  0.00     0.041 C 
ATOM      9  O   UNL     1     163.590 171.356 182.403  1.00  0.00    -0.550 OA
ATOM     10  O   UNL     1     164.002 173.505 183.081  1.00  0.00    -0.550 OA
ENDBRANCH   7   8
ENDBRANCH   6   7
ENDBRANCH   5   6
ENDBRANCH   4   5
ENDBRANCH   3   4
ENDBRANCH   2   3
ENDBRANCH   1   2
BRANCH   1  11
ATOM     11  C   UNL     1     163.726 177.918 182.058  1.00  0.00     0.000 C 
BRANCH  11  12
ATOM     12  C   UNL     1     163.731 179.186 181.189  1.00  0.00     0.000 C 
BRANCH  12  13
ATOM     13  C   UNL     1     162.480 180.033 181.445  1.00  0.00     0.000 C 
BRANCH  13  14
ATOM     14  C   UNL     1     161.581 180.075 180.200  1.00  0.00     0.000 C 
BRANCH  14  15
ATOM     15  C   UNL     1     162.277 179.518 178.948  1.00  0.00     0.000 C 
BRANCH  15  16
ATOM     16  C   UNL     1     161.364 178.597 178.123  1.00  0.00     0.006 C 
BRANCH  16  17
ATOM     17  C   UNL     1     162.184 177.744 177.149  1.00  0.00     0.053 C 
BRANCH  17  18
ATOM     18  C   UNL     1     161.423 176.516 176.760  1.00  0.00     0.041 C 
ATOM     19  O   UNL     1     160.680 175.940 177.596  1.00  0.00    -0.550 OA
ATOM     20  O   UNL     1     161.493 176.038 175.458  1.00  0.00    -0.550 OA
ENDBRANCH  17  18
ENDBRANCH  16  17
ENDBRANCH  15  16
ENDBRANCH  14  15
ENDBRANCH  13  14
ENDBRANCH  12  13
ENDBRANCH  11  12
ENDBRANCH   1  11
TORSDOF 15
ENDMDL
MODEL 3
REMARK VINA RESULT:    -4.320     10.389     12.943
REMARK INTER + INTRA:         -10.111
REMARK INTER:                  -7.861
REMARK INTRA:                  -2.250
REMARK UNBOUND:                -2.002
REMARK SMILES O=C([O-])CCCCCCCCCCCCCCC(=O)[O-]
REMARK SMILES IDX 10 1 9 2 8 3 7 4 6 5 5 6 4 7 2 8 1 9 3 10 11 11 12 12 13 13
REMARK SMILES IDX 14 14 15 15 16 16 17 17 18 18 19 19 20 20
REMARK H PARENT
REMARK Flexibility Score: inf
ROOT
ATOM      1  C   UNL     1     173.850 177.736 180.743  1.00  0.00     0.000 C 
ENDROOT
BRANCH   1   2
ATOM      2  C   UNL     1     173.827 179.227 181.127  1.00  0.00     0.000 C 
BRANCH   2   3
ATOM      3  C   UNL     1     172.410 179.817 181.159  1.00  0.00     0.000 C 
BRANCH   3   4
ATOM      4  C   UNL     1     171.478 179.057 180.203  1.00  0.00     0.000 C 
BRANCH   4   5
ATOM      5  C   UNL     1     170.122 178.717 180.842  1.00  0.00     0.000 C 
BRANCH   5   6
ATOM      6  C   UNL     1     170.245 178.344 182.327  1.00  0.00     0.006 C 
BRANCH   6   7
ATOM      7  C   UNL     1     169.921 176.864 182.550  1.00  0.00     0.053 C 
BRANCH   7   8
ATOM      8  C   UNL     1     171.144 176.024 182.356  1.00  0.00     0.041 C 
ATOM      9  O   UNL     1     171.994 175.922 183.279  1.00  0.00    -0.550 OA
ATOM     10  O   UNL     1     171.319 175.313 181.176  1.00  0.00    -0.550 OA
ENDBRANCH   7   8
ENDBRANCH   6   7
ENDBRANCH   5   6
ENDBRANCH   4   5
ENDBRANCH   3   4
ENDBRANCH   2   3
ENDBRANCH   1   2
BRANCH   1  11
ATOM     11  C   UNL     1     175.043 176.940 181.303  1.00  0.00     0.000 C 
BRANCH  11  12
ATOM     12  C   UNL     1     176.169 177.841 181.835  1.00  0.00     0.000 C 
BRANCH  12  13
ATOM     13  C   UNL     1     177.497 177.532 181.135  1.00  0.00     0.000 C 
BRANCH  13  14
ATOM     14  C   UNL     1     177.496 178.064 179.694  1.00  0.00     0.000 C 
BRANCH  14  15
ATOM     15  C   UNL     1     177.226 179.575 179.620  1.00  0.00     0.000 C 
BRANCH  15  16
ATOM     16  C   UNL     1     176.427 179.974 178.371  1.00  0.00     0.006 C 
BRANCH  16  17
ATOM     17  C   UNL     1     175.696 178.765 177.779  1.00  0.00     0.053 C 
BRANCH  17  18
ATOM     18  C   UNL     1     174.485 179.205 177.019  1.00  0.00     0.041 C 
ATOM     19  O   UNL     1     173.590 179.881 177.589  1.00  0.00    -0.550 OA
ATOM     20  O   UNL     1     174.369 178.913 175.665  1.00  0.00    -0.550 OA
ENDBRANCH  17  18
ENDBRANCH  16  17
ENDBRANCH  15  16
ENDBRANCH  14  15
ENDBRANCH  13  14
ENDBRANCH  12  13
ENDBRANCH  11  12
ENDBRANCH   1  11
TORSDOF 15
ENDMDL
MODEL 4
REMARK VINA RESULT:    -4.280      1.580      1.954
REMARK INTER + INTRA:         -10.036
REMARK INTER:                  -7.969
REMARK INTRA:                  -2.066
REMARK UNBOUND:                -2.002
REMARK SMILES O=C([O-])CCCCCCCCCCCCCCC(=O)[O-]
REMARK SMILES IDX 10 1 9 2 8 3 7 4 6 5 5 6 4 7 2 8 1 9 3 10 11 11 12 12 13 13
REMARK SMILES IDX 14 14 15 15 16 16 17 17 18 18 19 19 20 20
REMARK H PARENT
REMARK Flexibility Score: inf
ROOT
ATOM      1  C   UNL     1     164.093 178.231 181.473  1.00  0.00     0.000 C 
ENDROOT
BRANCH   1   2
ATOM      2  C   UNL     1     162.896 179.104 181.893  1.00  0.00     0.000 C 
BRANCH   2   3
ATOM      3  C   UNL     1     162.035 179.554 180.705  1.00  0.00     0.000 C 
BRANCH   3   4
ATOM      4  C   UNL     1     162.910 179.880 179.485  1.00  0.00     0.000 C 
BRANCH   4   5
ATOM      5  C   UNL     1     162.169 179.680 178.154  1.00  0.00     0.000 C 
BRANCH   5   6
ATOM      6  C   UNL     1     161.614 178.258 177.993  1.00  0.00     0.006 C 
BRANCH   6   7
ATOM      7  C   UNL     1     162.225 177.566 176.770  1.00  0.00     0.053 C 
BRANCH   7   8
ATOM      8  C   UNL     1     161.358 176.431 176.322  1.00  0.00     0.041 C 
ATOM      9  O   UNL     1     160.334 176.117 176.982  1.00  0.00    -0.550 OA
ATOM     10  O   UNL     1     161.655 175.753 175.146  1.00  0.00    -0.550 OA
ENDBRANCH   7   8
ENDBRANCH   6   7
ENDBRANCH   5   6
ENDBRANCH   4   5
ENDBRANCH   3   4
ENDBRANCH   2   3
ENDBRANCH   1   2
BRANCH   1  11
ATOM     11  C   UNL     1     163.828 176.714 181.494  1.00  0.00     0.000 C 
BRANCH  11  12
ATOM     12  C   UNL     1     163.786 176.092 180.090  1.00  0.00     0.000 C 
BRANCH  12  13
ATOM     13  C   UNL     1     162.482 175.318 179.869  1.00  0.00     0.000 C 
BRANCH  13  14
ATOM     14  C   UNL     1     161.368 175.845 180.787  1.00  0.00     0.000 C 
BRANCH  14  15
ATOM     15  C   UNL     1     160.632 174.719 181.532  1.00  0.00     0.000 C 
BRANCH  15  16
ATOM     16  C   UNL     1     161.519 173.487 181.768  1.00  0.00     0.006 C 
BRANCH  16  17
ATOM     17  C   UNL     1     160.669 172.219 181.900  1.00  0.00     0.053 C 
BRANCH  17  18
ATOM     18  C   UNL     1     160.674 171.449 180.618  1.00  0.00     0.041 C 
ATOM     19  O   UNL     1     161.152 170.285 180.580  1.00  0.00    -0.550 OA
ATOM     20  O   UNL     1     160.102 171.995 179.476  1.00  0.00    -0.550 OA
ENDBRANCH  17  18
ENDBRANCH  16  17
ENDBRANCH  15  16
ENDBRANCH  14  15
ENDBRANCH  13  14
ENDBRANCH  12  13
ENDBRANCH  11  12
ENDBRANCH   1  11
TORSDOF 15
ENDMDL
MODEL 5
REMARK VINA RESULT:    -4.225      3.147      4.433
REMARK INTER + INTRA:          -9.933
REMARK INTER:                  -7.489
REMARK INTRA:                  -2.444
REMARK UNBOUND:                -2.002
REMARK SMILES O=C([O-])CCCCCCCCCCCCCCC(=O)[O-]
REMARK SMILES IDX 10 1 9 2 8 3 7 4 6 5 5 6 4 7 2 8 1 9 3 10 11 11 12 12 13 13
REMARK SMILES IDX 14 14 15 15 16 16 17 17 18 18 19 19 20 20
REMARK H PARENT
REMARK Flexibility Score: inf
ROOT
ATOM      1  C   UNL     1     162.124 180.045 179.446  1.00  0.00     0.000 C 
ENDROOT
BRANCH   1   2
ATOM      2  C   UNL     1     161.734 180.123 180.934  1.00  0.00     0.000 C 
BRANCH   2   3
ATOM      3  C   UNL     1     162.722 179.390 181.852  1.00  0.00     0.000 C 
BRANCH   3   4
ATOM      4  C   UNL     1     164.132 179.375 181.241  1.00  0.00     0.000 C 
BRANCH   4   5
ATOM      5  C   UNL     1     164.778 177.981 181.277  1.00  0.00     0.000 C 
BRANCH   5   6
ATOM      6  C   UNL     1     165.663 177.707 180.052  1.00  0.00     0.006 C 
BRANCH   6   7
ATOM      7  C   UNL     1     166.354 178.988 179.577  1.00  0.00     0.053 C 
BRANCH   7   8
ATOM      8  C   UNL     1     167.784 179.008 180.021  1.00  0.00     0.041 C 
ATOM      9  O   UNL     1     168.068 178.919 181.243  1.00  0.00    -0.550 OA
ATOM     10  O   UNL     1     168.802 179.075 179.079  1.00  0.00    -0.550 OA
ENDBRANCH   7   8
ENDBRANCH   6   7
ENDBRANCH   5   6
ENDBRANCH   4   5
ENDBRANCH   3   4
ENDBRANCH   2   3
ENDBRANCH   1   2
BRANCH   1  11
ATOM     11  C   UNL     1     161.472 178.890 178.664  1.00  0.00     0.000 C 
BRANCH  11  12
ATOM     12  C   UNL     1     162.498 177.921 178.056  1.00  0.00     0.000 C 
BRANCH  12  13
ATOM     13  C   UNL     1     162.455 176.560 178.761  1.00  0.00     0.000 C 
BRANCH  13  14
ATOM     14  C   UNL     1     161.377 176.542 179.855  1.00  0.00     0.000 C 
BRANCH  14  15
ATOM     15  C   UNL     1     161.800 175.729 181.089  1.00  0.00     0.000 C 
BRANCH  15  16
ATOM     16  C   UNL     1     162.770 174.589 180.744  1.00  0.00     0.006 C 
BRANCH  16  17
ATOM     17  C   UNL     1     162.533 173.376 181.648  1.00  0.00     0.053 C 
BRANCH  17  18
ATOM     18  C   UNL     1     161.099 172.952 181.592  1.00  0.00     0.041 C 
ATOM     19  O   UNL     1     160.405 172.929 182.641  1.00  0.00    -0.550 OA
ATOM     20  O   UNL     1     160.515 172.634 180.372  1.00  0.00    -0.550 OA
ENDBRANCH  17  18
ENDBRANCH  16  17
ENDBRANCH  15  16
ENDBRANCH  14  15
ENDBRANCH  13  14
ENDBRANCH  12  13
ENDBRANCH  11  12
ENDBRANCH   1  11
TORSDOF 15
ENDMDL
MODEL 6
REMARK VINA RESULT:    -4.114     11.388     13.154
REMARK INTER + INTRA:          -9.724
REMARK INTER:                  -7.570
REMARK INTRA:                  -2.154
REMARK UNBOUND:                -2.002
REMARK SMILES O=C([O-])CCCCCCCCCCCCCCC(=O)[O-]
REMARK SMILES IDX 10 1 9 2 8 3 7 4 6 5 5 6 4 7 2 8 1 9 3 10 11 11 12 12 13 13
REMARK SMILES IDX 14 14 15 15 16 16 17 17 18 18 19 19 20 20
REMARK H PARENT
REMARK Flexibility Score: inf
ROOT
ATOM      1  C   UNL     1     176.792 179.764 178.210  1.00  0.00     0.000 C 
ENDROOT
BRANCH   1   2
ATOM      2  C   UNL     1     175.253 179.784 178.268  1.00  0.00     0.000 C 
BRANCH   2   3
ATOM      3  C   UNL     1     174.629 178.390 178.118  1.00  0.00     0.000 C 
BRANCH   3   4
ATOM      4  C   UNL     1     173.437 178.216 179.071  1.00  0.00     0.000 C 
BRANCH   4   5
ATOM      5  C   UNL     1     173.268 179.405 180.031  1.00  0.00     0.000 C 
BRANCH   5   6
ATOM      6  C   UNL     1     172.319 179.094 181.198  1.00  0.00     0.006 C 
BRANCH   6   7
ATOM      7  C   UNL     1     171.312 178.007 180.811  1.00  0.00     0.053 C 
BRANCH   7   8
ATOM      8  C   UNL     1     169.989 178.616 180.466  1.00  0.00     0.041 C 
ATOM      9  O   UNL     1     169.873 179.337 179.441  1.00  0.00    -0.550 OA
ATOM     10  O   UNL     1     168.874 178.344 181.248  1.00  0.00    -0.550 OA
ENDBRANCH   7   8
ENDBRANCH   6   7
ENDBRANCH   5   6
ENDBRANCH   4   5
ENDBRANCH   3   4
ENDBRANCH   2   3
ENDBRANCH   1   2
BRANCH   1  11
ATOM     11  C   UNL     1     177.488 179.422 179.540  1.00  0.00     0.000 C 
BRANCH  11  12
ATOM     12  C   UNL     1     176.747 179.978 180.765  1.00  0.00     0.000 C 
BRANCH  12  13
ATOM     13  C   UNL     1     176.557 178.895 181.833  1.00  0.00     0.000 C 
BRANCH  13  14
ATOM     14  C   UNL     1     177.011 177.523 181.310  1.00  0.00     0.000 C 
BRANCH  14  15
ATOM     15  C   UNL     1     175.835 176.565 181.061  1.00  0.00     0.000 C 
BRANCH  15  16
ATOM     16  C   UNL     1     176.139 175.523 179.975  1.00  0.00     0.006 C 
BRANCH  16  17
ATOM     17  C   UNL     1     176.198 174.113 180.571  1.00  0.00     0.053 C 
BRANCH  17  18
ATOM     18  C   UNL     1     177.533 173.490 180.313  1.00  0.00     0.041 C 
ATOM     19  O   UNL     1     178.369 174.069 179.570  1.00  0.00    -0.550 OA
ATOM     20  O   UNL     1     177.876 172.295 180.933  1.00  0.00    -0.550 OA
ENDBRANCH  17  18
ENDBRANCH  16  17
ENDBRANCH  15  16
ENDBRANCH  14  15
ENDBRANCH  13  14
ENDBRANCH  12  13
ENDBRANCH  11  12
ENDBRANCH   1  11
TORSDOF 15
ENDMDL
MODEL 7
REMARK VINA RESULT:    -4.087      2.635      3.303
REMARK INTER + INTRA:          -9.673
REMARK INTER:                  -7.220
REMARK INTRA:                  -2.453
REMARK UNBOUND:                -2.002
REMARK SMILES O=C([O-])CCCCCCCCCCCCCCC(=O)[O-]
REMARK SMILES IDX 10 1 9 2 8 3 7 4 6 5 5 6 4 7 2 8 1 9 3 10 11 11 12 12 13 13
REMARK SMILES IDX 14 14 15 15 16 16 17 17 18 18 19 19 20 20
REMARK H PARENT
REMARK Flexibility Score: inf
ROOT
ATOM      1  C   UNL     1     164.773 178.683 180.957  1.00  0.00     0.000 C 
ENDROOT
BRANCH   1   2
ATOM      2  C   UNL     1     163.634 178.990 181.947  1.00  0.00     0.000 C 
BRANCH   2   3
ATOM      3  C   UNL     1     162.459 179.736 181.299  1.00  0.00     0.000 C 
BRANCH   3   4
ATOM      4  C   UNL     1     162.687 179.912 179.790  1.00  0.00     0.000 C 
BRANCH   4   5
ATOM      5  C   UNL     1     161.415 179.661 178.965  1.00  0.00     0.000 C 
BRANCH   5   6
ATOM      6  C   UNL     1     161.527 178.419 178.068  1.00  0.00     0.006 C 
BRANCH   6   7
ATOM      7  C   UNL     1     162.988 178.135 177.706  1.00  0.00     0.053 C 
BRANCH   7   8
ATOM      8  C   UNL     1     163.273 178.564 176.300  1.00  0.00     0.041 C 
ATOM      9  O   UNL     1     163.530 177.705 175.416  1.00  0.00    -0.550 OA
ATOM     10  O   UNL     1     163.204 179.908 175.957  1.00  0.00    -0.550 OA
ENDBRANCH   7   8
ENDBRANCH   6   7
ENDBRANCH   5   6
ENDBRANCH   4   5
ENDBRANCH   3   4
ENDBRANCH   2   3
ENDBRANCH   1   2
BRANCH   1  11
ATOM     11  C   UNL     1     164.987 177.188 180.657  1.00  0.00     0.000 C 
BRANCH  11  12
ATOM     12  C   UNL     1     164.152 176.269 181.562  1.00  0.00     0.000 C 
BRANCH  12  13
ATOM     13  C   UNL     1     163.094 175.512 180.751  1.00  0.00     0.000 C 
BRANCH  13  14
ATOM     14  C   UNL     1     161.692 176.084 181.008  1.00  0.00     0.000 C 
BRANCH  14  15
ATOM     15  C   UNL     1     160.577 175.208 180.415  1.00  0.00     0.000 C 
BRANCH  15  16
ATOM     16  C   UNL     1     161.114 174.133 179.458  1.00  0.00     0.006 C 
BRANCH  16  17
ATOM     17  C   UNL     1     160.698 174.429 178.014  1.00  0.00     0.053 C 
BRANCH  17  18
ATOM     18  C   UNL     1     161.819 174.123 177.072  1.00  0.00     0.041 C 
ATOM     19  O   UNL     1     162.917 174.730 177.177  1.00  0.00    -0.550 OA
ATOM     20  O   UNL     1     161.671 173.131 176.111  1.00  0.00    -0.550 OA
ENDBRANCH  17  18
ENDBRANCH  16  17
ENDBRANCH  15  16
ENDBRANCH  14  15
ENDBRANCH  13  14
ENDBRANCH  12  13
ENDBRANCH  11  12
ENDBRANCH   1  11
TORSDOF 15
ENDMDL
MODEL 8
REMARK VINA RESULT:    -4.086      2.244      6.287
REMARK INTER + INTRA:          -9.671
REMARK INTER:                  -7.654
REMARK INTRA:                  -2.017
REMARK UNBOUND:                -2.002
REMARK SMILES O=C([O-])CCCCCCCCCCCCCCC(=O)[O-]
REMARK SMILES IDX 10 1 9 2 8 3 7 4 6 5 5 6 4 7 2 8 1 9 3 10 11 11 12 12 13 13
REMARK SMILES IDX 14 14 15 15 16 16 17 17 18 18 19 19 20 20
REMARK H PARENT
REMARK Flexibility Score: inf
ROOT
ATOM      1  C   UNL     1     163.256 177.694 181.371  1.00  0.00     0.000 C 
ENDROOT
BRANCH   1   2
ATOM      2  C   UNL     1     162.738 176.325 180.891  1.00  0.00     0.000 C 
BRANCH   2   3
ATOM      3  C   UNL     1     161.207 176.267 180.785  1.00  0.00     0.000 C 
BRANCH   3   4
ATOM      4  C   UNL     1     160.673 174.919 181.291  1.00  0.00     0.000 C 
BRANCH   4   5
ATOM      5  C   UNL     1     161.290 173.722 180.551  1.00  0.00     0.000 C 
BRANCH   5   6
ATOM      6  C   UNL     1     161.224 172.423 181.369  1.00  0.00     0.006 C 
BRANCH   6   7
ATOM      7  C   UNL     1     161.765 172.639 182.785  1.00  0.00     0.053 C 
BRANCH   7   8
ATOM      8  C   UNL     1     163.256 172.499 182.805  1.00  0.00     0.041 C 
ATOM      9  O   UNL     1     163.788 171.373 182.622  1.00  0.00    -0.550 OA
ATOM     10  O   UNL     1     164.056 173.621 182.974  1.00  0.00    -0.550 OA
ENDBRANCH   7   8
ENDBRANCH   6   7
ENDBRANCH   5   6
ENDBRANCH   4   5
ENDBRANCH   3   4
ENDBRANCH   2   3
ENDBRANCH   1   2
BRANCH   1  11
ATOM     11  C   UNL     1     162.177 178.781 181.521  1.00  0.00     0.000 C 
BRANCH  11  12
ATOM     12  C   UNL     1     162.433 180.008 180.633  1.00  0.00     0.000 C 
BRANCH  12  13
ATOM     13  C   UNL     1     161.436 180.064 179.470  1.00  0.00     0.000 C 
BRANCH  13  14
ATOM     14  C   UNL     1     162.140 179.803 178.130  1.00  0.00     0.000 C 
BRANCH  14  15
ATOM     15  C   UNL     1     162.221 178.307 177.785  1.00  0.00     0.000 C 
BRANCH  15  16
ATOM     16  C   UNL     1     163.664 177.826 177.572  1.00  0.00     0.006 C 
BRANCH  16  17
ATOM     17  C   UNL     1     164.668 178.909 177.979  1.00  0.00     0.053 C 
BRANCH  17  18
ATOM     18  C   UNL     1     165.927 178.289 178.498  1.00  0.00     0.041 C 
ATOM     19  O   UNL     1     166.264 178.452 179.700  1.00  0.00    -0.550 OA
ATOM     20  O   UNL     1     166.701 177.488 177.669  1.00  0.00    -0.550 OA
ENDBRANCH  17  18
ENDBRANCH  16  17
ENDBRANCH  15  16
ENDBRANCH  14  15
ENDBRANCH  13  14
ENDBRANCH  12  13
ENDBRANCH  11  12
ENDBRANCH   1  11
TORSDOF 15
ENDMDL
MODEL 9
REMARK VINA RESULT:    -4.063      2.293      5.944
REMARK INTER + INTRA:          -9.629
REMARK INTER:                  -7.474
REMARK INTRA:                  -2.155
REMARK UNBOUND:                -2.002
REMARK SMILES O=C([O-])CCCCCCCCCCCCCCC(=O)[O-]
REMARK SMILES IDX 10 1 9 2 8 3 7 4 6 5 5 6 4 7 2 8 1 9 3 10 11 11 12 12 13 13
REMARK SMILES IDX 14 14 15 15 16 16 17 17 18 18 19 19 20 20
REMARK H PARENT
REMARK Flexibility Score: inf
ROOT
ATOM      1  C   UNL     1     165.495 176.232 179.417  1.00  0.00     0.000 C 
ENDROOT
BRANCH   1   2
ATOM      2  C   UNL     1     164.346 175.210 179.485  1.00  0.00     0.000 C 
BRANCH   2   3
ATOM      3  C   UNL     1     164.527 174.178 180.607  1.00  0.00     0.000 C 
BRANCH   3   4
ATOM      4  C   UNL     1     163.618 174.502 181.803  1.00  0.00     0.000 C 
BRANCH   4   5
ATOM      5  C   UNL     1     162.868 173.267 182.329  1.00  0.00     0.000 C 
BRANCH   5   6
ATOM      6  C   UNL     1     161.409 173.214 181.853  1.00  0.00     0.006 C 
BRANCH   6   7
ATOM      7  C   UNL     1     161.020 174.507 181.130  1.00  0.00     0.053 C 
BRANCH   7   8
ATOM      8  C   UNL     1     160.595 174.216 179.725  1.00  0.00     0.041 C 
ATOM      9  O   UNL     1     160.584 175.135 178.864  1.00  0.00    -0.550 OA
ATOM     10  O   UNL     1     160.261 172.920 179.355  1.00  0.00    -0.550 OA
ENDBRANCH   7   8
ENDBRANCH   6   7
ENDBRANCH   5   6
ENDBRANCH   4   5
ENDBRANCH   3   4
ENDBRANCH   2   3
ENDBRANCH   1   2
BRANCH   1  11
ATOM     11  C   UNL     1     165.278 177.388 178.423  1.00  0.00     0.000 C 
BRANCH  11  12
ATOM     12  C   UNL     1     165.627 178.762 179.014  1.00  0.00     0.000 C 
BRANCH  12  13
ATOM     13  C   UNL     1     165.668 178.708 180.546  1.00  0.00     0.000 C 
BRANCH  13  14
ATOM     14  C   UNL     1     164.425 179.376 181.153  1.00  0.00     0.000 C 
BRANCH  14  15
ATOM     15  C   UNL     1     163.415 178.356 181.704  1.00  0.00     0.000 C 
BRANCH  15  16
ATOM     16  C   UNL     1     162.195 178.177 180.788  1.00  0.00     0.006 C 
BRANCH  16  17
ATOM     17  C   UNL     1     161.860 179.483 180.061  1.00  0.00     0.053 C 
BRANCH  17  18
ATOM     18  C   UNL     1     161.763 179.252 178.586  1.00  0.00     0.041 C 
ATOM     19  O   UNL     1     161.056 178.312 178.138  1.00  0.00    -0.550 OA
ATOM     20  O   UNL     1     162.412 180.106 177.703  1.00  0.00    -0.550 OA
ENDBRANCH  17  18
ENDBRANCH  16  17
ENDBRANCH  15  16
ENDBRANCH  14  15
ENDBRANCH  13  14
ENDBRANCH  12  13
ENDBRANCH  11  12
ENDBRANCH   1  11
TORSDOF 15
ENDMDL
