MODEL 1
REMARK VINA RESULT:    -4.644      0.000      0.000
REMARK INTER + INTRA:          -9.982
REMARK INTER:                  -8.716
REMARK INTRA:                  -1.266
REMARK UNBOUND:                -1.266
REMARK SMILES CCCCCCCCC=CCCCCCCCC(=O)[O-]
REMARK SMILES IDX 10 1 9 2 11 3 12 4 13 5 14 6 15 7 16 8 17 9 18 10 19 11
REMARK SMILES IDX 20 12 8 13 7 14 6 15 5 16 4 17 3 18 2 19 1 20
REMARK H PARENT
REMARK Flexibility Score: inf
ROOT
ATOM      1  C   UNL     1      13.284  35.839  20.752  1.00  0.00    -0.031 C 
ATOM      2  C   UNL     1      12.434  36.016  21.783  1.00  0.00    -0.031 C 
ENDROOT
BRANCH   1   3
ATOM      3  C   UNL     1      13.059  34.919  19.576  1.00  0.00     0.027 C 
BRANCH   3   4
ATOM      4  C   UNL     1      13.917  33.651  19.674  1.00  0.00     0.004 C 
BRANCH   4   5
ATOM      5  C   UNL     1      15.251  33.902  20.395  1.00  0.00     0.000 C 
BRANCH   5   6
ATOM      6  C   UNL     1      15.803  32.640  21.076  1.00  0.00     0.000 C 
BRANCH   6   7
ATOM      7  C   UNL     1      17.339  32.605  21.108  1.00  0.00     0.000 C 
BRANCH   7   8
ATOM      8  C   UNL     1      17.844  31.441  21.974  1.00  0.00     0.006 C 
BRANCH   8   9
ATOM      9  C   UNL     1      16.718  30.793  22.789  1.00  0.00     0.053 C 
BRANCH   9  10
ATOM     10  C   UNL     1      17.022  30.791  24.257  1.00  0.00     0.041 C 
ATOM     11  O   UNL     1      16.319  30.108  25.048  1.00  0.00    -0.550 OA
ATOM     12  O   UNL     1      18.103  31.513  24.745  1.00  0.00    -0.550 OA
ENDBRANCH   9  10
ENDBRANCH   8   9
ENDBRANCH   7   8
ENDBRANCH   6   7
ENDBRANCH   5   6
ENDBRANCH   4   5
ENDBRANCH   3   4
ENDBRANCH   1   3
BRANCH   2  13
ATOM     13  C   UNL     1      11.079  35.368  21.926  1.00  0.00     0.027 C 
BRANCH  13  14
ATOM     14  C   UNL     1       9.945  36.360  21.636  1.00  0.00     0.004 C 
BRANCH  14  15
ATOM     15  C   UNL     1       9.727  36.571  20.129  1.00  0.00     0.000 C 
BRANCH  15  16
ATOM     16  C   UNL     1       9.387  35.267  19.392  1.00  0.00     0.000 C 
BRANCH  16  17
ATOM     17  C   UNL     1       7.890  34.917  19.466  1.00  0.00    -0.000 C 
BRANCH  17  18
ATOM     18  C   UNL     1       7.638  33.593  20.218  1.00  0.00    -0.000 C 
BRANCH  18  19
ATOM     19  C   UNL     1       6.419  32.812  19.696  1.00  0.00    -0.003 C 
ATOM     20  C   UNL     1       5.537  32.261  20.814  1.00  0.00     0.004 C 
ENDBRANCH  18  19
ENDBRANCH  17  18
ENDBRANCH  16  17
ENDBRANCH  15  16
ENDBRANCH  14  15
ENDBRANCH  13  14
ENDBRANCH   2  13
TORSDOF 15
ENDMDL
MODEL 2
REMARK VINA RESULT:    -4.508      1.566      2.048
REMARK INTER + INTRA:          -9.727
REMARK INTER:                  -8.296
REMARK INTRA:                  -1.431
REMARK UNBOUND:                -1.266
REMARK SMILES CCCCCCCCC=CCCCCCCCC(=O)[O-]
REMARK SMILES IDX 10 1 9 2 11 3 12 4 13 5 14 6 15 7 16 8 17 9 18 10 19 11
REMARK SMILES IDX 20 12 8 13 7 14 6 15 5 16 4 17 3 18 2 19 1 20
REMARK H PARENT
REMARK Flexibility Score: inf
ROOT
ATOM      1  C   UNL     1      13.722  35.749  20.328  1.00  0.00    -0.031 C 
ATOM      2  C   UNL     1      12.705  36.281  21.034  1.00  0.00    -0.031 C 
ENDROOT
BRANCH   1   3
ATOM      3  C   UNL     1      14.425  34.451  20.643  1.00  0.00     0.027 C 
BRANCH   3   4
ATOM      4  C   UNL     1      14.369  33.473  19.462  1.00  0.00     0.004 C 
BRANCH   4   5
ATOM      5  C   UNL     1      13.854  32.085  19.876  1.00  0.00     0.000 C 
BRANCH   5   6
ATOM      6  C   UNL     1      13.297  32.064  21.308  1.00  0.00     0.000 C 
BRANCH   6   7
ATOM      7  C   UNL     1      13.958  30.992  22.187  1.00  0.00     0.000 C 
BRANCH   7   8
ATOM      8  C   UNL     1      15.375  30.669  21.688  1.00  0.00     0.006 C 
BRANCH   8   9
ATOM      9  C   UNL     1      16.459  31.215  22.625  1.00  0.00     0.053 C 
BRANCH   9  10
ATOM     10  C   UNL     1      17.692  31.620  21.875  1.00  0.00     0.041 C 
ATOM     11  O   UNL     1      17.669  32.625  21.116  1.00  0.00    -0.550 OA
ATOM     12  O   UNL     1      18.873  30.911  22.043  1.00  0.00    -0.550 OA
ENDBRANCH   9  10
ENDBRANCH   8   9
ENDBRANCH   7   8
ENDBRANCH   6   7
ENDBRANCH   5   6
ENDBRANCH   4   5
ENDBRANCH   3   4
ENDBRANCH   1   3
BRANCH   2  13
ATOM     13  C   UNL     1      12.047  35.652  22.239  1.00  0.00     0.027 C 
BRANCH  13  14
ATOM     14  C   UNL     1      10.561  36.024  22.328  1.00  0.00     0.004 C 
BRANCH  14  15
ATOM     15  C   UNL     1       9.909  36.159  20.943  1.00  0.00     0.000 C 
BRANCH  15  16
ATOM     16  C   UNL     1       9.257  34.852  20.466  1.00  0.00     0.000 C 
BRANCH  16  17
ATOM     17  C   UNL     1       7.901  35.084  19.775  1.00  0.00    -0.000 C 
BRANCH  17  18
ATOM     18  C   UNL     1       6.737  34.417  20.537  1.00  0.00    -0.000 C 
BRANCH  18  19
ATOM     19  C   UNL     1       6.432  32.985  20.063  1.00  0.00    -0.003 C 
ATOM     20  C   UNL     1       5.394  32.275  20.929  1.00  0.00     0.004 C 
ENDBRANCH  18  19
ENDBRANCH  17  18
ENDBRANCH  16  17
ENDBRANCH  15  16
ENDBRANCH  14  15
ENDBRANCH  13  14
ENDBRANCH   2  13
TORSDOF 15
ENDMDL
MODEL 3
REMARK VINA RESULT:    -4.506      4.129      7.798
REMARK INTER + INTRA:          -9.723
REMARK INTER:                  -7.201
REMARK INTRA:                  -2.523
REMARK UNBOUND:                -1.266
REMARK SMILES CCCCCCCCC=CCCCCCCCC(=O)[O-]
REMARK SMILES IDX 10 1 9 2 11 3 12 4 13 5 14 6 15 7 16 8 17 9 18 10 19 11
REMARK SMILES IDX 20 12 8 13 7 14 6 15 5 16 4 17 3 18 2 19 1 20
REMARK H PARENT
REMARK Flexibility Score: inf
ROOT
ATOM      1  C   UNL     1      11.504  34.782  22.260  1.00  0.00    -0.031 C 
ATOM      2  C   UNL     1      12.577  34.534  21.484  1.00  0.00    -0.031 C 
ENDROOT
BRANCH   1   3
ATOM      3  C   UNL     1      10.916  36.144  22.539  1.00  0.00     0.027 C 
BRANCH   3   4
ATOM      4  C   UNL     1       9.662  36.406  21.695  1.00  0.00     0.004 C 
BRANCH   4   5
ATOM      5  C   UNL     1      10.000  36.705  20.225  1.00  0.00     0.000 C 
BRANCH   5   6
ATOM      6  C   UNL     1       9.119  35.917  19.243  1.00  0.00     0.000 C 
BRANCH   6   7
ATOM      7  C   UNL     1       9.635  34.492  18.994  1.00  0.00     0.000 C 
BRANCH   7   8
ATOM      8  C   UNL     1       8.773  33.459  19.736  1.00  0.00     0.006 C 
BRANCH   8   9
ATOM      9  C   UNL     1       7.367  33.988  20.042  1.00  0.00     0.053 C 
BRANCH   9  10
ATOM     10  C   UNL     1       6.356  32.884  20.100  1.00  0.00     0.041 C 
ATOM     11  O   UNL     1       6.314  32.015  19.190  1.00  0.00    -0.550 OA
ATOM     12  O   UNL     1       5.485  32.793  21.177  1.00  0.00    -0.550 OA
ENDBRANCH   9  10
ENDBRANCH   8   9
ENDBRANCH   7   8
ENDBRANCH   6   7
ENDBRANCH   5   6
ENDBRANCH   4   5
ENDBRANCH   3   4
ENDBRANCH   1   3
BRANCH   2  13
ATOM     13  C   UNL     1      13.358  35.568  20.708  1.00  0.00     0.027 C 
BRANCH  13  14
ATOM     14  C   UNL     1      13.317  35.290  19.199  1.00  0.00     0.004 C 
BRANCH  14  15
ATOM     15  C   UNL     1      13.529  33.803  18.875  1.00  0.00     0.000 C 
BRANCH  15  16
ATOM     16  C   UNL     1      14.998  33.373  19.001  1.00  0.00     0.000 C 
BRANCH  16  17
ATOM     17  C   UNL     1      15.164  32.039  19.750  1.00  0.00    -0.000 C 
BRANCH  17  18
ATOM     18  C   UNL     1      15.655  32.243  21.199  1.00  0.00    -0.000 C 
BRANCH  18  19
ATOM     19  C   UNL     1      14.883  31.406  22.233  1.00  0.00    -0.003 C 
ATOM     20  C   UNL     1      13.454  31.085  21.799  1.00  0.00     0.004 C 
ENDBRANCH  18  19
ENDBRANCH  17  18
ENDBRANCH  16  17
ENDBRANCH  15  16
ENDBRANCH  14  15
ENDBRANCH  13  14
ENDBRANCH   2  13
TORSDOF 15
ENDMDL
MODEL 4
REMARK VINA RESULT:    -4.490      3.851      8.742
REMARK INTER + INTRA:          -9.693
REMARK INTER:                  -8.570
REMARK INTRA:                  -1.123
REMARK UNBOUND:                -1.266
REMARK SMILES CCCCCCCCC=CCCCCCCCC(=O)[O-]
REMARK SMILES IDX 10 1 9 2 11 3 12 4 13 5 14 6 15 7 16 8 17 9 18 10 19 11
REMARK SMILES IDX 20 12 8 13 7 14 6 15 5 16 4 17 3 18 2 19 1 20
REMARK H PARENT
REMARK Flexibility Score: inf
ROOT
ATOM      1  C   UNL     1      12.645  36.155  21.580  1.00  0.00    -0.031 C 
ATOM      2  C   UNL     1      13.317  35.768  20.478  1.00  0.00    -0.031 C 
ENDROOT
BRANCH   1   3
ATOM      3  C   UNL     1      11.447  35.454  22.171  1.00  0.00     0.027 C 
BRANCH   3   4
ATOM      4  C   UNL     1      10.164  36.278  22.001  1.00  0.00     0.004 C 
BRANCH   4   5
ATOM      5  C   UNL     1       9.395  35.905  20.723  1.00  0.00     0.000 C 
BRANCH   5   6
ATOM      6  C   UNL     1       9.428  34.397  20.431  1.00  0.00     0.000 C 
BRANCH   6   7
ATOM      7  C   UNL     1       8.374  33.968  19.399  1.00  0.00     0.000 C 
BRANCH   7   8
ATOM      8  C   UNL     1       7.589  32.744  19.893  1.00  0.00     0.006 C 
BRANCH   8   9
ATOM      9  C   UNL     1       6.204  33.121  20.434  1.00  0.00     0.053 C 
BRANCH   9  10
ATOM     10  C   UNL     1       5.423  31.915  20.857  1.00  0.00     0.041 C 
ATOM     11  O   UNL     1       4.225  32.034  21.226  1.00  0.00    -0.550 OA
ATOM     12  O   UNL     1       6.005  30.656  20.809  1.00  0.00    -0.550 OA
ENDBRANCH   9  10
ENDBRANCH   8   9
ENDBRANCH   7   8
ENDBRANCH   6   7
ENDBRANCH   5   6
ENDBRANCH   4   5
ENDBRANCH   3   4
ENDBRANCH   1   3
BRANCH   2  13
ATOM     13  C   UNL     1      13.026  34.533  19.660  1.00  0.00     0.027 C 
BRANCH  13  14
ATOM     14  C   UNL     1      14.311  33.765  19.320  1.00  0.00     0.004 C 
BRANCH  14  15
ATOM     15  C   UNL     1      15.360  33.861  20.439  1.00  0.00     0.000 C 
BRANCH  15  16
ATOM     16  C   UNL     1      15.918  32.489  20.845  1.00  0.00     0.000 C 
BRANCH  16  17
ATOM     17  C   UNL     1      17.438  32.515  21.087  1.00  0.00    -0.000 C 
BRANCH  17  18
ATOM     18  C   UNL     1      17.854  31.620  22.274  1.00  0.00    -0.000 C 
BRANCH  18  19
ATOM     19  C   UNL     1      16.667  31.140  23.127  1.00  0.00    -0.003 C 
ATOM     20  C   UNL     1      17.089  30.251  24.294  1.00  0.00     0.004 C 
ENDBRANCH  18  19
ENDBRANCH  17  18
ENDBRANCH  16  17
ENDBRANCH  15  16
ENDBRANCH  14  15
ENDBRANCH  13  14
ENDBRANCH   2  13
TORSDOF 15
ENDMDL
MODEL 5
REMARK VINA RESULT:    -4.488      3.283      5.180
REMARK INTER + INTRA:          -9.689
REMARK INTER:                  -7.531
REMARK INTRA:                  -2.159
REMARK UNBOUND:                -1.266
REMARK SMILES CCCCCCCCC=CCCCCCCCC(=O)[O-]
REMARK SMILES IDX 10 1 9 2 11 3 12 4 13 5 14 6 15 7 16 8 17 9 18 10 19 11
REMARK SMILES IDX 20 12 8 13 7 14 6 15 5 16 4 17 3 18 2 19 1 20
REMARK H PARENT
REMARK Flexibility Score: inf
ROOT
ATOM      1  C   UNL     1      13.652  32.200  21.789  1.00  0.00    -0.031 C 
ATOM      2  C   UNL     1      12.448  31.726  21.413  1.00  0.00    -0.031 C 
ENDROOT
BRANCH   1   3
ATOM      3  C   UNL     1      14.873  32.298  20.908  1.00  0.00     0.027 C 
BRANCH   3   4
ATOM      4  C   UNL     1      14.903  33.616  20.123  1.00  0.00     0.004 C 
BRANCH   4   5
ATOM      5  C   UNL     1      14.187  34.755  20.866  1.00  0.00     0.000 C 
BRANCH   5   6
ATOM      6  C   UNL     1      13.544  35.773  19.911  1.00  0.00     0.000 C 
BRANCH   6   7
ATOM      7  C   UNL     1      12.218  36.336  20.445  1.00  0.00     0.000 C 
BRANCH   7   8
ATOM      8  C   UNL     1      12.021  35.965  21.923  1.00  0.00     0.006 C 
BRANCH   8   9
ATOM      9  C   UNL     1      10.565  36.135  22.375  1.00  0.00     0.053 C 
BRANCH   9  10
ATOM     10  C   UNL     1      10.472  36.521  23.820  1.00  0.00     0.041 C 
ATOM     11  O   UNL     1      11.382  36.189  24.624  1.00  0.00    -0.550 OA
ATOM     12  O   UNL     1       9.399  37.279  24.270  1.00  0.00    -0.550 OA
ENDBRANCH   9  10
ENDBRANCH   8   9
ENDBRANCH   7   8
ENDBRANCH   6   7
ENDBRANCH   5   6
ENDBRANCH   4   5
ENDBRANCH   3   4
ENDBRANCH   1   3
BRANCH   2  13
ATOM     13  C   UNL     1      12.084  31.254  20.026  1.00  0.00     0.027 C 
BRANCH  13  14
ATOM     14  C   UNL     1      11.385  32.358  19.220  1.00  0.00     0.004 C 
BRANCH  14  15
ATOM     15  C   UNL     1      10.476  33.233  20.098  1.00  0.00     0.000 C 
BRANCH  15  16
ATOM     16  C   UNL     1       9.009  33.205  19.643  1.00  0.00     0.000 C 
BRANCH  16  17
ATOM     17  C   UNL     1       8.233  34.466  20.063  1.00  0.00    -0.000 C 
BRANCH  17  18
ATOM     18  C   UNL     1       6.733  34.180  20.283  1.00  0.00    -0.000 C 
BRANCH  18  19
ATOM     19  C   UNL     1       6.382  32.683  20.257  1.00  0.00    -0.003 C 
ATOM     20  C   UNL     1       5.208  32.326  21.167  1.00  0.00     0.004 C 
ENDBRANCH  18  19
ENDBRANCH  17  18
ENDBRANCH  16  17
ENDBRANCH  15  16
ENDBRANCH  14  15
ENDBRANCH  13  14
ENDBRANCH   2  13
TORSDOF 15
ENDMDL
MODEL 6
REMARK VINA RESULT:    -4.476      3.039      7.629
REMARK INTER + INTRA:          -9.667
REMARK INTER:                  -7.442
REMARK INTRA:                  -2.225
REMARK UNBOUND:                -1.266
REMARK SMILES CCCCCCCCC=CCCCCCCCC(=O)[O-]
REMARK SMILES IDX 10 1 9 2 11 3 12 4 13 5 14 6 15 7 16 8 17 9 18 10 19 11
REMARK SMILES IDX 20 12 8 13 7 14 6 15 5 16 4 17 3 18 2 19 1 20
REMARK H PARENT
REMARK Flexibility Score: inf
ROOT
ATOM      1  C   UNL     1      13.596  33.385  19.719  1.00  0.00    -0.031 C 
ATOM      2  C   UNL     1      13.061  32.221  20.137  1.00  0.00    -0.031 C 
ENDROOT
BRANCH   1   3
ATOM      3  C   UNL     1      14.208  34.441  20.607  1.00  0.00     0.027 C 
BRANCH   3   4
ATOM      4  C   UNL     1      13.746  35.851  20.215  1.00  0.00     0.004 C 
BRANCH   4   5
ATOM      5  C   UNL     1      12.749  35.835  19.045  1.00  0.00     0.000 C 
BRANCH   5   6
ATOM      6  C   UNL     1      11.378  36.414  19.429  1.00  0.00     0.000 C 
BRANCH   6   7
ATOM      7  C   UNL     1      10.364  35.329  19.824  1.00  0.00     0.000 C 
BRANCH   7   8
ATOM      8  C   UNL     1       9.565  35.752  21.066  1.00  0.00     0.006 C 
BRANCH   8   9
ATOM      9  C   UNL     1      10.414  36.559  22.056  1.00  0.00     0.053 C 
BRANCH   9  10
ATOM     10  C   UNL     1      11.003  35.689  23.124  1.00  0.00     0.041 C 
ATOM     11  O   UNL     1      11.496  34.569  22.828  1.00  0.00    -0.550 OA
ATOM     12  O   UNL     1      11.042  36.131  24.439  1.00  0.00    -0.550 OA
ENDBRANCH   9  10
ENDBRANCH   8   9
ENDBRANCH   7   8
ENDBRANCH   6   7
ENDBRANCH   5   6
ENDBRANCH   4   5
ENDBRANCH   3   4
ENDBRANCH   1   3
BRANCH   2  13
ATOM     13  C   UNL     1      13.020  31.736  21.566  1.00  0.00     0.027 C 
BRANCH  13  14
ATOM     14  C   UNL     1      13.315  30.233  21.660  1.00  0.00     0.004 C 
BRANCH  14  15
ATOM     15  C   UNL     1      14.691  29.947  22.281  1.00  0.00     0.000 C 
BRANCH  15  16
ATOM     16  C   UNL     1      15.443  31.229  22.668  1.00  0.00     0.000 C 
BRANCH  16  17
ATOM     17  C   UNL     1      16.907  30.962  23.062  1.00  0.00    -0.000 C 
BRANCH  17  18
ATOM     18  C   UNL     1      17.902  31.633  22.092  1.00  0.00    -0.000 C 
BRANCH  18  19
ATOM     19  C   UNL     1      17.224  32.335  20.903  1.00  0.00    -0.003 C 
ATOM     20  C   UNL     1      17.247  31.503  19.623  1.00  0.00     0.004 C 
ENDBRANCH  18  19
ENDBRANCH  17  18
ENDBRANCH  16  17
ENDBRANCH  15  16
ENDBRANCH  14  15
ENDBRANCH  13  14
ENDBRANCH   2  13
TORSDOF 15
ENDMDL
MODEL 7
REMARK VINA RESULT:    -4.401      1.988      3.328
REMARK INTER + INTRA:          -9.526
REMARK INTER:                  -7.478
REMARK INTRA:                  -2.048
REMARK UNBOUND:                -1.266
REMARK SMILES CCCCCCCCC=CCCCCCCCC(=O)[O-]
REMARK SMILES IDX 10 1 9 2 11 3 12 4 13 5 14 6 15 7 16 8 17 9 18 10 19 11
REMARK SMILES IDX 20 12 8 13 7 14 6 15 5 16 4 17 3 18 2 19 1 20
REMARK H PARENT
REMARK Flexibility Score: inf
ROOT
ATOM      1  C   UNL     1      14.425  34.409  20.747  1.00  0.00    -0.031 C 
ATOM      2  C   UNL     1      14.111  35.529  20.066  1.00  0.00    -0.031 C 
ENDROOT
BRANCH   1   3
ATOM      3  C   UNL     1      13.868  33.032  20.478  1.00  0.00     0.027 C 
BRANCH   3   4
ATOM      4  C   UNL     1      12.822  32.627  21.525  1.00  0.00     0.004 C 
BRANCH   4   5
ATOM      5  C   UNL     1      12.878  31.127  21.857  1.00  0.00     0.000 C 
BRANCH   5   6
ATOM      6  C   UNL     1      14.132  30.442  21.291  1.00  0.00     0.000 C 
BRANCH   6   7
ATOM      7  C   UNL     1      15.323  30.487  22.261  1.00  0.00     0.000 C 
BRANCH   7   8
ATOM      8  C   UNL     1      16.643  30.681  21.500  1.00  0.00     0.006 C 
BRANCH   8   9
ATOM      9  C   UNL     1      17.551  31.721  22.168  1.00  0.00     0.053 C 
BRANCH   9  10
ATOM     10  C   UNL     1      18.347  31.127  23.290  1.00  0.00     0.041 C 
ATOM     11  O   UNL     1      19.270  30.305  23.047  1.00  0.00    -0.550 OA
ATOM     12  O   UNL     1      18.093  31.508  24.601  1.00  0.00    -0.550 OA
ENDBRANCH   9  10
ENDBRANCH   8   9
ENDBRANCH   7   8
ENDBRANCH   6   7
ENDBRANCH   5   6
ENDBRANCH   4   5
ENDBRANCH   3   4
ENDBRANCH   1   3
BRANCH   2  13
ATOM     13  C   UNL     1      13.185  35.603  18.876  1.00  0.00     0.027 C 
BRANCH  13  14
ATOM     14  C   UNL     1      12.354  36.894  18.887  1.00  0.00     0.004 C 
BRANCH  14  15
ATOM     15  C   UNL     1      10.848  36.617  19.013  1.00  0.00     0.000 C 
BRANCH  15  16
ATOM     16  C   UNL     1      10.547  35.186  19.485  1.00  0.00     0.000 C 
BRANCH  16  17
ATOM     17  C   UNL     1       9.576  35.147  20.678  1.00  0.00    -0.000 C 
BRANCH  17  18
ATOM     18  C   UNL     1       9.765  36.353  21.623  1.00  0.00    -0.000 C 
BRANCH  18  19
ATOM     19  C   UNL     1      10.503  36.002  22.926  1.00  0.00    -0.003 C 
ATOM     20  C   UNL     1      12.013  36.212  22.835  1.00  0.00     0.004 C 
ENDBRANCH  18  19
ENDBRANCH  17  18
ENDBRANCH  16  17
ENDBRANCH  15  16
ENDBRANCH  14  15
ENDBRANCH  13  14
ENDBRANCH   2  13
TORSDOF 15
ENDMDL
MODEL 8
REMARK VINA RESULT:    -4.385      3.899      8.849
REMARK INTER + INTRA:          -9.495
REMARK INTER:                  -8.171
REMARK INTRA:                  -1.324
REMARK UNBOUND:                -1.266
REMARK SMILES CCCCCCCCC=CCCCCCCCC(=O)[O-]
REMARK SMILES IDX 10 1 9 2 11 3 12 4 13 5 14 6 15 7 16 8 17 9 18 10 19 11
REMARK SMILES IDX 20 12 8 13 7 14 6 15 5 16 4 17 3 18 2 19 1 20
REMARK H PARENT
REMARK Flexibility Score: inf
ROOT
ATOM      1  C   UNL     1      11.869  33.825  21.388  1.00  0.00    -0.031 C 
ATOM      2  C   UNL     1      12.927  33.665  20.569  1.00  0.00    -0.031 C 
ENDROOT
BRANCH   1   3
ATOM      3  C   UNL     1      11.721  34.906  22.431  1.00  0.00     0.027 C 
BRANCH   3   4
ATOM      4  C   UNL     1      11.309  36.245  21.808  1.00  0.00     0.004 C 
BRANCH   4   5
ATOM      5  C   UNL     1       9.817  36.284  21.439  1.00  0.00     0.000 C 
BRANCH   5   6
ATOM      6  C   UNL     1       9.583  36.587  19.951  1.00  0.00     0.000 C 
BRANCH   6   7
ATOM      7  C   UNL     1       8.949  35.408  19.196  1.00  0.00     0.000 C 
BRANCH   7   8
ATOM      8  C   UNL     1       8.466  34.327  20.175  1.00  0.00     0.006 C 
BRANCH   8   9
ATOM      9  C   UNL     1       6.947  34.364  20.379  1.00  0.00     0.053 C 
BRANCH   9  10
ATOM     10  C   UNL     1       6.335  33.001  20.267  1.00  0.00     0.041 C 
ATOM     11  O   UNL     1       6.742  32.194  19.390  1.00  0.00    -0.550 OA
ATOM     12  O   UNL     1       5.343  32.608  21.156  1.00  0.00    -0.550 OA
ENDBRANCH   9  10
ENDBRANCH   8   9
ENDBRANCH   7   8
ENDBRANCH   6   7
ENDBRANCH   5   6
ENDBRANCH   4   5
ENDBRANCH   3   4
ENDBRANCH   1   3
BRANCH   2  13
ATOM     13  C   UNL     1      14.136  34.567  20.507  1.00  0.00     0.027 C 
BRANCH  13  14
ATOM     14  C   UNL     1      15.436  33.784  20.734  1.00  0.00     0.004 C 
BRANCH  14  15
ATOM     15  C   UNL     1      15.489  32.490  19.906  1.00  0.00     0.000 C 
BRANCH  15  16
ATOM     16  C   UNL     1      16.650  31.572  20.317  1.00  0.00     0.000 C 
BRANCH  16  17
ATOM     17  C   UNL     1      17.561  32.208  21.382  1.00  0.00    -0.000 C 
BRANCH  17  18
ATOM     18  C   UNL     1      18.289  31.146  22.233  1.00  0.00    -0.000 C 
BRANCH  18  19
ATOM     19  C   UNL     1      18.157  31.376  23.749  1.00  0.00    -0.003 C 
ATOM     20  C   UNL     1      16.971  30.638  24.366  1.00  0.00     0.004 C 
ENDBRANCH  18  19
ENDBRANCH  17  18
ENDBRANCH  16  17
ENDBRANCH  15  16
ENDBRANCH  14  15
ENDBRANCH  13  14
ENDBRANCH   2  13
TORSDOF 15
ENDMDL
MODEL 9
REMARK VINA RESULT:    -2.609      0.913      1.692
REMARK INTER + INTRA:          -6.162
REMARK INTER:                  -5.313
REMARK INTRA:                  -0.849
REMARK UNBOUND:                -1.266
REMARK SMILES CCCCCCCCC=CCCCCCCCC(=O)[O-]
REMARK SMILES IDX 10 1 9 2 11 3 12 4 13 5 14 6 15 7 16 8 17 9 18 10 19 11
REMARK SMILES IDX 20 12 8 13 7 14 6 15 5 16 4 17 3 18 2 19 1 20
REMARK H PARENT
REMARK Flexibility Score: inf
ROOT
ATOM      1  C   UNL     1      11.672  35.871  21.718  1.00  0.00    -0.031 C 
ATOM      2  C   UNL     1      10.509  36.221  21.134  1.00  0.00    -0.031 C 
ENDROOT
BRANCH   1   3
ATOM      3  C   UNL     1      13.004  35.750  21.019  1.00  0.00     0.027 C 
BRANCH   3   4
ATOM      4  C   UNL     1      13.435  34.286  20.866  1.00  0.00     0.004 C 
BRANCH   4   5
ATOM      5  C   UNL     1      14.879  34.153  20.355  1.00  0.00     0.000 C 
BRANCH   5   6
ATOM      6  C   UNL     1      15.542  32.836  20.790  1.00  0.00     0.000 C 
BRANCH   6   7
ATOM      7  C   UNL     1      14.686  32.042  21.789  1.00  0.00     0.000 C 
BRANCH   7   8
ATOM      8  C   UNL     1      15.515  30.939  22.465  1.00  0.00     0.006 C 
BRANCH   8   9
ATOM      9  C   UNL     1      16.970  31.363  22.693  1.00  0.00     0.053 C 
BRANCH   9  10
ATOM     10  C   UNL     1      17.431  31.049  24.084  1.00  0.00     0.041 C 
ATOM     11  O   UNL     1      16.715  30.345  24.844  1.00  0.00    -0.550 OA
ATOM     12  O   UNL     1      18.667  31.501  24.527  1.00  0.00    -0.550 OA
ENDBRANCH   9  10
ENDBRANCH   8   9
ENDBRANCH   7   8
ENDBRANCH   6   7
ENDBRANCH   5   6
ENDBRANCH   4   5
ENDBRANCH   3   4
ENDBRANCH   1   3
BRANCH   2  13
ATOM     13  C   UNL     1      10.333  36.608  19.685  1.00  0.00     0.027 C 
BRANCH  13  14
ATOM     14  C   UNL     1       8.928  37.162  19.415  1.00  0.00     0.004 C 
BRANCH  14  15
ATOM     15  C   UNL     1       7.972  36.086  18.875  1.00  0.00     0.000 C 
BRANCH  15  16
ATOM     16  C   UNL     1       7.373  35.214  19.989  1.00  0.00     0.000 C 
BRANCH  16  17
ATOM     17  C   UNL     1       7.918  33.775  19.973  1.00  0.00    -0.000 C 
BRANCH  17  18
ATOM     18  C   UNL     1       6.824  32.742  19.632  1.00  0.00    -0.000 C 
BRANCH  18  19
ATOM     19  C   UNL     1       5.796  32.540  20.759  1.00  0.00    -0.003 C 
ATOM     20  C   UNL     1       4.684  31.561  20.388  1.00  0.00     0.004 C 
ENDBRANCH  18  19
ENDBRANCH  17  18
ENDBRANCH  16  17
ENDBRANCH  15  16
ENDBRANCH  14  15
ENDBRANCH  13  14
ENDBRANCH   2  13
TORSDOF 15
ENDMDL
