MODEL 1
REMARK VINA RESULT:    -4.350      0.000      0.000
REMARK INTER + INTRA:         -11.515
REMARK INTER:                  -9.435
REMARK INTRA:                  -2.080
REMARK UNBOUND:                -2.080
REMARK SMILES CCCCCCCCCCCCCCCCCCCCCC(=O)[O-]
REMARK SMILES IDX 12 1 11 2 10 3 9 4 8 5 7 6 6 7 5 8 4 9 3 10 2 11 1 12 13 13
REMARK SMILES IDX 14 14 15 15 16 16 17 17 18 18 19 19 20 20 21 21 22 22 23 23
REMARK SMILES IDX 24 24
REMARK H PARENT
REMARK Flexibility Score: inf
ROOT
ATOM      1  C   UNL     1       0.898   3.120   8.161  1.00  0.00     0.000 C 
ENDROOT
BRANCH   1   2
ATOM      2  C   UNL     1       1.951   4.244   8.261  1.00  0.00     0.000 C 
BRANCH   2   3
ATOM      3  C   UNL     1       1.945   5.032   9.583  1.00  0.00     0.000 C 
BRANCH   3   4
ATOM      4  C   UNL     1       1.733   6.551   9.432  1.00  0.00    -0.000 C 
BRANCH   4   5
ATOM      5  C   UNL     1       2.604   7.194   8.333  1.00  0.00    -0.000 C 
BRANCH   5   6
ATOM      6  C   UNL     1       3.711   8.093   8.905  1.00  0.00    -0.000 C 
BRANCH   6   7
ATOM      7  C   UNL     1       4.914   7.257   9.363  1.00  0.00    -0.000 C 
BRANCH   7   8
ATOM      8  C   UNL     1       5.831   6.916   8.178  1.00  0.00    -0.000 C 
BRANCH   8   9
ATOM      9  C   UNL     1       6.364   8.168   7.463  1.00  0.00    -0.000 C 
BRANCH   9  10
ATOM     10  C   UNL     1       6.509   7.969   5.946  1.00  0.00    -0.000 C 
BRANCH  10  11
ATOM     11  C   UNL     1       5.196   8.286   5.223  1.00  0.00    -0.003 C 
ATOM     12  C   UNL     1       4.612   9.615   5.694  1.00  0.00     0.004 C 
ENDBRANCH  10  11
ENDBRANCH   9  10
ENDBRANCH   8   9
ENDBRANCH   7   8
ENDBRANCH   6   7
ENDBRANCH   5   6
ENDBRANCH   4   5
ENDBRANCH   3   4
ENDBRANCH   2   3
ENDBRANCH   1   2
BRANCH   1  13
ATOM     13  C   UNL     1      -0.066   3.011   9.357  1.00  0.00     0.000 C 
BRANCH  13  14
ATOM     14  C   UNL     1      -1.399   2.337   8.994  1.00  0.00     0.000 C 
BRANCH  14  15
ATOM     15  C   UNL     1      -1.606   0.995   9.719  1.00  0.00     0.000 C 
BRANCH  15  16
ATOM     16  C   UNL     1      -2.412  -0.060   8.935  1.00  0.00     0.000 C 
BRANCH  16  17
ATOM     17  C   UNL     1      -1.898  -0.356   7.515  1.00  0.00     0.000 C 
BRANCH  17  18
ATOM     18  C   UNL     1      -0.921  -1.544   7.470  1.00  0.00     0.000 C 
BRANCH  18  19
ATOM     19  C   UNL     1       0.430  -1.171   6.837  1.00  0.00     0.000 C 
BRANCH  19  20
ATOM     20  C   UNL     1       0.546   0.336   6.546  1.00  0.00     0.006 C 
BRANCH  20  21
ATOM     21  C   UNL     1       0.916   0.615   5.083  1.00  0.00     0.053 C 
BRANCH  21  22
ATOM     22  C   UNL     1       0.107   1.736   4.505  1.00  0.00     0.041 C 
ATOM     23  O   UNL     1      -1.032   2.002   4.972  1.00  0.00    -0.550 OA
ATOM     24  O   UNL     1       0.600   2.470   3.433  1.00  0.00    -0.550 OA
ENDBRANCH  21  22
ENDBRANCH  20  21
ENDBRANCH  19  20
ENDBRANCH  18  19
ENDBRANCH  17  18
ENDBRANCH  16  17
ENDBRANCH  15  16
ENDBRANCH  14  15
ENDBRANCH  13  14
ENDBRANCH   1  13
TORSDOF 20
ENDMDL
MODEL 2
REMARK VINA RESULT:    -4.265      2.844      9.142
REMARK INTER + INTRA:         -11.332
REMARK INTER:                  -9.577
REMARK INTRA:                  -1.755
REMARK UNBOUND:                -2.080
REMARK SMILES CCCCCCCCCCCCCCCCCCCCCC(=O)[O-]
REMARK SMILES IDX 12 1 11 2 10 3 9 4 8 5 7 6 6 7 5 8 4 9 3 10 2 11 1 12 13 13
REMARK SMILES IDX 14 14 15 15 16 16 17 17 18 18 19 19 20 20 21 21 22 22 23 23
REMARK SMILES IDX 24 24
REMARK H PARENT
REMARK Flexibility Score: inf
ROOT
ATOM      1  C   UNL     1       1.427   2.996   7.121  1.00  0.00     0.000 C 
ENDROOT
BRANCH   1   2
ATOM      2  C   UNL     1       0.994   1.593   6.644  1.00  0.00     0.000 C 
BRANCH   2   3
ATOM      3  C   UNL     1       0.629   1.492   5.152  1.00  0.00     0.000 C 
BRANCH   3   4
ATOM      4  C   UNL     1      -0.877   1.351   4.860  1.00  0.00    -0.000 C 
BRANCH   4   5
ATOM      5  C   UNL     1      -1.681   0.736   6.024  1.00  0.00    -0.000 C 
BRANCH   5   6
ATOM      6  C   UNL     1      -2.329   1.800   6.923  1.00  0.00    -0.000 C 
BRANCH   6   7
ATOM      7  C   UNL     1      -2.204   1.417   8.404  1.00  0.00    -0.000 C 
BRANCH   7   8
ATOM      8  C   UNL     1      -2.139  -0.108   8.575  1.00  0.00    -0.000 C 
BRANCH   8   9
ATOM      9  C   UNL     1      -0.866  -0.568   9.303  1.00  0.00    -0.000 C 
BRANCH   9  10
ATOM     10  C   UNL     1      -0.026  -1.549   8.471  1.00  0.00    -0.000 C 
BRANCH  10  11
ATOM     11  C   UNL     1       0.735  -2.524   9.376  1.00  0.00    -0.003 C 
ATOM     12  C   UNL     1      -0.177  -3.639   9.878  1.00  0.00     0.004 C 
ENDBRANCH  10  11
ENDBRANCH   9  10
ENDBRANCH   8   9
ENDBRANCH   7   8
ENDBRANCH   6   7
ENDBRANCH   5   6
ENDBRANCH   4   5
ENDBRANCH   3   4
ENDBRANCH   2   3
ENDBRANCH   1   2
BRANCH   1  13
ATOM     13  C   UNL     1       0.977   3.378   8.544  1.00  0.00     0.000 C 
BRANCH  13  14
ATOM     14  C   UNL     1       1.741   4.584   9.111  1.00  0.00     0.000 C 
BRANCH  14  15
ATOM     15  C   UNL     1       2.766   5.163   8.119  1.00  0.00     0.000 C 
BRANCH  15  16
ATOM     16  C   UNL     1       4.215   5.239   8.639  1.00  0.00     0.000 C 
BRANCH  16  17
ATOM     17  C   UNL     1       4.591   6.555   9.343  1.00  0.00     0.000 C 
BRANCH  17  18
ATOM     18  C   UNL     1       6.097   6.663   9.641  1.00  0.00     0.000 C 
BRANCH  18  19
ATOM     19  C   UNL     1       6.777   7.782   8.835  1.00  0.00     0.000 C 
BRANCH  19  20
ATOM     20  C   UNL     1       7.003   7.393   7.364  1.00  0.00     0.006 C 
BRANCH  20  21
ATOM     21  C   UNL     1       6.868   8.595   6.420  1.00  0.00     0.053 C 
BRANCH  21  22
ATOM     22  C   UNL     1       6.827   8.177   4.982  1.00  0.00     0.041 C 
ATOM     23  O   UNL     1       7.873   8.213   4.282  1.00  0.00    -0.550 OA
ATOM     24  O   UNL     1       5.629   7.772   4.408  1.00  0.00    -0.550 OA
ENDBRANCH  21  22
ENDBRANCH  20  21
ENDBRANCH  19  20
ENDBRANCH  18  19
ENDBRANCH  17  18
ENDBRANCH  16  17
ENDBRANCH  15  16
ENDBRANCH  14  15
ENDBRANCH  13  14
ENDBRANCH   1  13
TORSDOF 20
ENDMDL
MODEL 3
REMARK VINA RESULT:    -4.254      1.184      2.226
REMARK INTER + INTRA:         -11.308
REMARK INTER:                  -8.653
REMARK INTRA:                  -2.655
REMARK UNBOUND:                -2.080
REMARK SMILES CCCCCCCCCCCCCCCCCCCCCC(=O)[O-]
REMARK SMILES IDX 12 1 11 2 10 3 9 4 8 5 7 6 6 7 5 8 4 9 3 10 2 11 1 12 13 13
REMARK SMILES IDX 14 14 15 15 16 16 17 17 18 18 19 19 20 20 21 21 22 22 23 23
REMARK SMILES IDX 24 24
REMARK H PARENT
REMARK Flexibility Score: inf
ROOT
ATOM      1  C   UNL     1       1.045   3.209   7.966  1.00  0.00     0.000 C 
ENDROOT
BRANCH   1   2
ATOM      2  C   UNL     1       2.271   4.094   7.657  1.00  0.00     0.000 C 
BRANCH   2   3
ATOM      3  C   UNL     1       2.389   5.370   8.510  1.00  0.00     0.000 C 
BRANCH   3   4
ATOM      4  C   UNL     1       3.524   5.352   9.552  1.00  0.00    -0.000 C 
BRANCH   4   5
ATOM      5  C   UNL     1       4.936   5.284   8.933  1.00  0.00    -0.000 C 
BRANCH   5   6
ATOM      6  C   UNL     1       5.597   6.665   8.815  1.00  0.00    -0.000 C 
BRANCH   6   7
ATOM      7  C   UNL     1       5.486   7.206   7.384  1.00  0.00    -0.000 C 
BRANCH   7   8
ATOM      8  C   UNL     1       4.766   8.564   7.362  1.00  0.00    -0.000 C 
BRANCH   8   9
ATOM      9  C   UNL     1       4.325   9.022   8.761  1.00  0.00    -0.000 C 
BRANCH   9  10
ATOM     10  C   UNL     1       2.801   8.979   8.948  1.00  0.00    -0.000 C 
BRANCH  10  11
ATOM     11  C   UNL     1       2.080   9.108   7.602  1.00  0.00    -0.003 C 
ATOM     12  C   UNL     1       0.602   8.746   7.728  1.00  0.00     0.004 C 
ENDBRANCH  10  11
ENDBRANCH   9  10
ENDBRANCH   8   9
ENDBRANCH   7   8
ENDBRANCH   6   7
ENDBRANCH   5   6
ENDBRANCH   4   5
ENDBRANCH   3   4
ENDBRANCH   2   3
ENDBRANCH   1   2
BRANCH   1  13
ATOM     13  C   UNL     1       0.394   3.439   9.342  1.00  0.00     0.000 C 
BRANCH  13  14
ATOM     14  C   UNL     1      -0.741   2.447   9.643  1.00  0.00     0.000 C 
BRANCH  14  15
ATOM     15  C   UNL     1      -1.617   2.151   8.413  1.00  0.00     0.000 C 
BRANCH  15  16
ATOM     16  C   UNL     1      -2.235   0.739   8.369  1.00  0.00     0.000 C 
BRANCH  16  17
ATOM     17  C   UNL     1      -1.236  -0.420   8.529  1.00  0.00     0.000 C 
BRANCH  17  18
ATOM     18  C   UNL     1      -0.725  -0.958   7.181  1.00  0.00     0.000 C 
BRANCH  18  19
ATOM     19  C   UNL     1       0.662  -0.403   6.814  1.00  0.00     0.000 C 
BRANCH  19  20
ATOM     20  C   UNL     1       0.858  -0.268   5.294  1.00  0.00     0.006 C 
BRANCH  20  21
ATOM     21  C   UNL     1       1.379   1.119   4.897  1.00  0.00     0.053 C 
BRANCH  21  22
ATOM     22  C   UNL     1       0.292   1.988   4.342  1.00  0.00     0.041 C 
ATOM     23  O   UNL     1       0.525   2.750   3.368  1.00  0.00    -0.550 OA
ATOM     24  O   UNL     1      -0.973   1.974   4.917  1.00  0.00    -0.550 OA
ENDBRANCH  21  22
ENDBRANCH  20  21
ENDBRANCH  19  20
ENDBRANCH  18  19
ENDBRANCH  17  18
ENDBRANCH  16  17
ENDBRANCH  15  16
ENDBRANCH  14  15
ENDBRANCH  13  14
ENDBRANCH   1  13
TORSDOF 20
ENDMDL
MODEL 4
REMARK VINA RESULT:    -4.246      2.607      8.654
REMARK INTER + INTRA:         -11.291
REMARK INTER:                  -9.468
REMARK INTRA:                  -1.822
REMARK UNBOUND:                -2.080
REMARK SMILES CCCCCCCCCCCCCCCCCCCCCC(=O)[O-]
REMARK SMILES IDX 12 1 11 2 10 3 9 4 8 5 7 6 6 7 5 8 4 9 3 10 2 11 1 12 13 13
REMARK SMILES IDX 14 14 15 15 16 16 17 17 18 18 19 19 20 20 21 21 22 22 23 23
REMARK SMILES IDX 24 24
REMARK H PARENT
REMARK Flexibility Score: inf
ROOT
ATOM      1  C   UNL     1      -0.112   2.807   8.812  1.00  0.00     0.000 C 
ENDROOT
BRANCH   1   2
ATOM      2  C   UNL     1      -1.122   2.808   9.979  1.00  0.00     0.000 C 
BRANCH   2   3
ATOM      3  C   UNL     1      -2.519   2.261   9.636  1.00  0.00     0.000 C 
BRANCH   3   4
ATOM      4  C   UNL     1      -2.775   0.809  10.081  1.00  0.00    -0.000 C 
BRANCH   4   5
ATOM      5  C   UNL     1      -1.677  -0.180   9.637  1.00  0.00    -0.000 C 
BRANCH   5   6
ATOM      6  C   UNL     1      -2.249  -1.429   8.948  1.00  0.00    -0.000 C 
BRANCH   6   7
ATOM      7  C   UNL     1      -1.256  -1.992   7.922  1.00  0.00    -0.000 C 
BRANCH   7   8
ATOM      8  C   UNL     1      -0.019  -1.089   7.799  1.00  0.00    -0.000 C 
BRANCH   8   9
ATOM      9  C   UNL     1       0.251  -0.650   6.351  1.00  0.00    -0.000 C 
BRANCH   9  10
ATOM     10  C   UNL     1       0.398   0.872   6.209  1.00  0.00    -0.000 C 
BRANCH  10  11
ATOM     11  C   UNL     1      -0.706   1.449   5.317  1.00  0.00    -0.003 C 
ATOM     12  C   UNL     1      -2.079   0.925   5.729  1.00  0.00     0.004 C 
ENDBRANCH  10  11
ENDBRANCH   9  10
ENDBRANCH   8   9
ENDBRANCH   7   8
ENDBRANCH   6   7
ENDBRANCH   5   6
ENDBRANCH   4   5
ENDBRANCH   3   4
ENDBRANCH   2   3
ENDBRANCH   1   2
BRANCH   1  13
ATOM     13  C   UNL     1       1.109   3.729   8.994  1.00  0.00     0.000 C 
BRANCH  13  14
ATOM     14  C   UNL     1       1.924   3.906   7.703  1.00  0.00     0.000 C 
BRANCH  14  15
ATOM     15  C   UNL     1       3.147   4.822   7.891  1.00  0.00     0.000 C 
BRANCH  15  16
ATOM     16  C   UNL     1       2.825   6.316   8.098  1.00  0.00     0.000 C 
BRANCH  16  17
ATOM     17  C   UNL     1       3.920   7.129   8.812  1.00  0.00     0.000 C 
BRANCH  17  18
ATOM     18  C   UNL     1       5.283   6.415   8.822  1.00  0.00     0.000 C 
BRANCH  18  19
ATOM     19  C   UNL     1       6.463   7.402   8.807  1.00  0.00     0.000 C 
BRANCH  19  20
ATOM     20  C   UNL     1       7.146   7.481   7.431  1.00  0.00     0.006 C 
BRANCH  20  21
ATOM     21  C   UNL     1       6.507   8.544   6.528  1.00  0.00     0.053 C 
BRANCH  21  22
ATOM     22  C   UNL     1       6.528   8.140   5.086  1.00  0.00     0.041 C 
ATOM     23  O   UNL     1       5.451   7.900   4.479  1.00  0.00    -0.550 OA
ATOM     24  O   UNL     1       7.739   8.005   4.417  1.00  0.00    -0.550 OA
ENDBRANCH  21  22
ENDBRANCH  20  21
ENDBRANCH  19  20
ENDBRANCH  18  19
ENDBRANCH  17  18
ENDBRANCH  16  17
ENDBRANCH  15  16
ENDBRANCH  14  15
ENDBRANCH  13  14
ENDBRANCH   1  13
TORSDOF 20
ENDMDL
MODEL 5
REMARK VINA RESULT:    -4.210      2.645      8.293
REMARK INTER + INTRA:         -11.212
REMARK INTER:                  -8.396
REMARK INTRA:                  -2.816
REMARK UNBOUND:                -2.080
REMARK SMILES CCCCCCCCCCCCCCCCCCCCCC(=O)[O-]
REMARK SMILES IDX 12 1 11 2 10 3 9 4 8 5 7 6 6 7 5 8 4 9 3 10 2 11 1 12 13 13
REMARK SMILES IDX 14 14 15 15 16 16 17 17 18 18 19 19 20 20 21 21 22 22 23 23
REMARK SMILES IDX 24 24
REMARK H PARENT
REMARK Flexibility Score: inf
ROOT
ATOM      1  C   UNL     1      -0.518   2.649  10.110  1.00  0.00     0.000 C 
ENDROOT
BRANCH   1   2
ATOM      2  C   UNL     1      -2.012   2.663   9.722  1.00  0.00     0.000 C 
BRANCH   2   3
ATOM      3  C   UNL     1      -2.620   1.284   9.408  1.00  0.00     0.000 C 
BRANCH   3   4
ATOM      4  C   UNL     1      -1.705   0.085   9.718  1.00  0.00    -0.000 C 
BRANCH   4   5
ATOM      5  C   UNL     1      -2.200  -1.248   9.119  1.00  0.00    -0.000 C 
BRANCH   5   6
ATOM      6  C   UNL     1      -1.465  -1.624   7.824  1.00  0.00    -0.000 C 
BRANCH   6   7
ATOM      7  C   UNL     1       0.020  -1.243   7.906  1.00  0.00    -0.000 C 
BRANCH   7   8
ATOM      8  C   UNL     1       0.469  -0.504   6.636  1.00  0.00    -0.000 C 
BRANCH   8   9
ATOM      9  C   UNL     1       0.607   1.011   6.851  1.00  0.00    -0.000 C 
BRANCH   9  10
ATOM     10  C   UNL     1      -0.611   1.797   6.341  1.00  0.00    -0.000 C 
BRANCH  10  11
ATOM     11  C   UNL     1      -1.270   1.080   5.158  1.00  0.00    -0.003 C 
ATOM     12  C   UNL     1      -2.739   0.777   5.444  1.00  0.00     0.004 C 
ENDBRANCH  10  11
ENDBRANCH   9  10
ENDBRANCH   8   9
ENDBRANCH   7   8
ENDBRANCH   6   7
ENDBRANCH   5   6
ENDBRANCH   4   5
ENDBRANCH   3   4
ENDBRANCH   2   3
ENDBRANCH   1   2
BRANCH   1  13
ATOM     13  C   UNL     1       0.229   3.980   9.907  1.00  0.00     0.000 C 
BRANCH  13  14
ATOM     14  C   UNL     1       1.328   3.895   8.836  1.00  0.00     0.000 C 
BRANCH  14  15
ATOM     15  C   UNL     1       2.079   5.225   8.643  1.00  0.00     0.000 C 
BRANCH  15  16
ATOM     16  C   UNL     1       1.976   6.216   9.820  1.00  0.00     0.000 C 
BRANCH  16  17
ATOM     17  C   UNL     1       0.926   7.328   9.651  1.00  0.00     0.000 C 
BRANCH  17  18
ATOM     18  C   UNL     1       1.498   8.591   8.982  1.00  0.00     0.000 C 
BRANCH  18  19
ATOM     19  C   UNL     1       1.245   8.618   7.465  1.00  0.00     0.000 C 
BRANCH  19  20
ATOM     20  C   UNL     1       2.521   8.924   6.662  1.00  0.00     0.006 C 
BRANCH  20  21
ATOM     21  C   UNL     1       3.788   8.810   7.521  1.00  0.00     0.053 C 
BRANCH  21  22
ATOM     22  C   UNL     1       4.706   7.735   7.025  1.00  0.00     0.041 C 
ATOM     23  O   UNL     1       4.973   7.646   5.798  1.00  0.00    -0.550 OA
ATOM     24  O   UNL     1       5.246   6.815   7.916  1.00  0.00    -0.550 OA
ENDBRANCH  21  22
ENDBRANCH  20  21
ENDBRANCH  19  20
ENDBRANCH  18  19
ENDBRANCH  17  18
ENDBRANCH  16  17
ENDBRANCH  15  16
ENDBRANCH  14  15
ENDBRANCH  13  14
ENDBRANCH   1  13
TORSDOF 20
ENDMDL
MODEL 6
REMARK VINA RESULT:    -4.200      2.534      3.763
REMARK INTER + INTRA:         -11.192
REMARK INTER:                  -9.679
REMARK INTRA:                  -1.513
REMARK UNBOUND:                -2.080
REMARK SMILES CCCCCCCCCCCCCCCCCCCCCC(=O)[O-]
REMARK SMILES IDX 12 1 11 2 10 3 9 4 8 5 7 6 6 7 5 8 4 9 3 10 2 11 1 12 13 13
REMARK SMILES IDX 14 14 15 15 16 16 17 17 18 18 19 19 20 20 21 21 22 22 23 23
REMARK SMILES IDX 24 24
REMARK H PARENT
REMARK Flexibility Score: inf
ROOT
ATOM      1  C   UNL     1       1.353   2.579   6.480  1.00  0.00     0.000 C 
ENDROOT
BRANCH   1   2
ATOM      2  C   UNL     1       1.369   3.354   7.815  1.00  0.00     0.000 C 
BRANCH   2   3
ATOM      3  C   UNL     1       2.347   4.542   7.871  1.00  0.00     0.000 C 
BRANCH   3   4
ATOM      4  C   UNL     1       2.467   5.220   9.249  1.00  0.00    -0.000 C 
BRANCH   4   5
ATOM      5  C   UNL     1       3.487   6.377   9.287  1.00  0.00    -0.000 C 
BRANCH   5   6
ATOM      6  C   UNL     1       4.742   6.087   8.451  1.00  0.00    -0.000 C 
BRANCH   6   7
ATOM      7  C   UNL     1       5.824   7.146   8.701  1.00  0.00    -0.000 C 
BRANCH   7   8
ATOM      8  C   UNL     1       6.229   7.840   7.391  1.00  0.00    -0.000 C 
BRANCH   8   9
ATOM      9  C   UNL     1       5.031   8.096   6.462  1.00  0.00    -0.000 C 
BRANCH   9  10
ATOM     10  C   UNL     1       5.452   8.365   5.010  1.00  0.00    -0.000 C 
BRANCH  10  11
ATOM     11  C   UNL     1       6.938   8.055   4.803  1.00  0.00    -0.003 C 
ATOM     12  C   UNL     1       7.700   9.290   4.328  1.00  0.00     0.004 C 
ENDBRANCH  10  11
ENDBRANCH   9  10
ENDBRANCH   8   9
ENDBRANCH   7   8
ENDBRANCH   6   7
ENDBRANCH   5   6
ENDBRANCH   4   5
ENDBRANCH   3   4
ENDBRANCH   2   3
ENDBRANCH   1   2
BRANCH   1  13
ATOM     13  C   UNL     1       0.948   1.097   6.582  1.00  0.00     0.000 C 
BRANCH  13  14
ATOM     14  C   UNL     1       0.149   0.608   5.363  1.00  0.00     0.000 C 
BRANCH  14  15
ATOM     15  C   UNL     1      -1.152   1.401   5.143  1.00  0.00     0.000 C 
BRANCH  15  16
ATOM     16  C   UNL     1      -2.307   1.050   6.102  1.00  0.00     0.000 C 
BRANCH  16  17
ATOM     17  C   UNL     1      -2.151   1.579   7.539  1.00  0.00     0.000 C 
BRANCH  17  18
ATOM     18  C   UNL     1      -2.142   0.455   8.590  1.00  0.00     0.000 C 
BRANCH  18  19
ATOM     19  C   UNL     1      -2.175  -0.945   7.953  1.00  0.00     0.000 C 
BRANCH  19  20
ATOM     20  C   UNL     1      -1.708  -2.044   8.925  1.00  0.00     0.006 C 
BRANCH  20  21
ATOM     21  C   UNL     1      -0.494  -1.605   9.755  1.00  0.00     0.053 C 
BRANCH  21  22
ATOM     22  C   UNL     1       0.623  -2.599   9.683  1.00  0.00     0.041 C 
ATOM     23  O   UNL     1       1.806  -2.211   9.495  1.00  0.00    -0.550 OA
ATOM     24  O   UNL     1       0.355  -3.958   9.799  1.00  0.00    -0.550 OA
ENDBRANCH  21  22
ENDBRANCH  20  21
ENDBRANCH  19  20
ENDBRANCH  18  19
ENDBRANCH  17  18
ENDBRANCH  16  17
ENDBRANCH  15  16
ENDBRANCH  14  15
ENDBRANCH  13  14
ENDBRANCH   1  13
TORSDOF 20
ENDMDL
MODEL 7
REMARK VINA RESULT:    -4.199      2.815      8.799
REMARK INTER + INTRA:         -11.189
REMARK INTER:                  -8.943
REMARK INTRA:                  -2.245
REMARK UNBOUND:                -2.080
REMARK SMILES CCCCCCCCCCCCCCCCCCCCCC(=O)[O-]
REMARK SMILES IDX 12 1 11 2 10 3 9 4 8 5 7 6 6 7 5 8 4 9 3 10 2 11 1 12 13 13
REMARK SMILES IDX 14 14 15 15 16 16 17 17 18 18 19 19 20 20 21 21 22 22 23 23
REMARK SMILES IDX 24 24
REMARK H PARENT
REMARK Flexibility Score: inf
ROOT
ATOM      1  C   UNL     1       1.376   4.114   8.867  1.00  0.00     0.000 C 
ENDROOT
BRANCH   1   2
ATOM      2  C   UNL     1       0.397   2.944   8.628  1.00  0.00     0.000 C 
BRANCH   2   3
ATOM      3  C   UNL     1      -0.741   2.822   9.658  1.00  0.00     0.000 C 
BRANCH   3   4
ATOM      4  C   UNL     1      -2.107   2.419   9.072  1.00  0.00    -0.000 C 
BRANCH   4   5
ATOM      5  C   UNL     1      -2.734   1.182   9.747  1.00  0.00    -0.000 C 
BRANCH   5   6
ATOM      6  C   UNL     1      -1.902  -0.092   9.539  1.00  0.00    -0.000 C 
BRANCH   6   7
ATOM      7  C   UNL     1      -2.309  -0.808   8.244  1.00  0.00    -0.000 C 
BRANCH   7   8
ATOM      8  C   UNL     1      -1.075  -1.322   7.487  1.00  0.00    -0.000 C 
BRANCH   8   9
ATOM      9  C   UNL     1      -0.328  -0.203   6.744  1.00  0.00    -0.000 C 
BRANCH   9  10
ATOM     10  C   UNL     1      -1.268   0.710   5.942  1.00  0.00    -0.000 C 
BRANCH  10  11
ATOM     11  C   UNL     1      -0.496   1.484   4.868  1.00  0.00    -0.003 C 
ATOM     12  C   UNL     1       0.983   1.600   5.225  1.00  0.00     0.004 C 
ENDBRANCH  10  11
ENDBRANCH   9  10
ENDBRANCH   8   9
ENDBRANCH   7   8
ENDBRANCH   6   7
ENDBRANCH   5   6
ENDBRANCH   4   5
ENDBRANCH   3   4
ENDBRANCH   2   3
ENDBRANCH   1   2
BRANCH   1  13
ATOM     13  C   UNL     1       2.343   4.412   7.706  1.00  0.00     0.000 C 
BRANCH  13  14
ATOM     14  C   UNL     1       3.541   5.276   8.130  1.00  0.00     0.000 C 
BRANCH  14  15
ATOM     15  C   UNL     1       3.133   6.478   9.001  1.00  0.00     0.000 C 
BRANCH  15  16
ATOM     16  C   UNL     1       4.279   7.139   9.791  1.00  0.00     0.000 C 
BRANCH  16  17
ATOM     17  C   UNL     1       5.684   6.582   9.499  1.00  0.00     0.000 C 
BRANCH  17  18
ATOM     18  C   UNL     1       6.776   7.665   9.543  1.00  0.00     0.000 C 
BRANCH  18  19
ATOM     19  C   UNL     1       6.892   8.436   8.217  1.00  0.00     0.000 C 
BRANCH  19  20
ATOM     20  C   UNL     1       6.710   7.526   6.990  1.00  0.00     0.006 C 
BRANCH  20  21
ATOM     21  C   UNL     1       5.773   8.145   5.944  1.00  0.00     0.053 C 
BRANCH  21  22
ATOM     22  C   UNL     1       6.453   8.330   4.623  1.00  0.00     0.041 C 
ATOM     23  O   UNL     1       7.640   7.942   4.460  1.00  0.00    -0.550 OA
ATOM     24  O   UNL     1       5.785   8.955   3.577  1.00  0.00    -0.550 OA
ENDBRANCH  21  22
ENDBRANCH  20  21
ENDBRANCH  19  20
ENDBRANCH  18  19
ENDBRANCH  17  18
ENDBRANCH  16  17
ENDBRANCH  15  16
ENDBRANCH  14  15
ENDBRANCH  13  14
ENDBRANCH   1  13
TORSDOF 20
ENDMDL
MODEL 8
REMARK VINA RESULT:    -4.101      1.089      1.808
REMARK INTER + INTRA:         -10.976
REMARK INTER:                  -8.223
REMARK INTRA:                  -2.752
REMARK UNBOUND:                -2.080
REMARK SMILES CCCCCCCCCCCCCCCCCCCCCC(=O)[O-]
REMARK SMILES IDX 12 1 11 2 10 3 9 4 8 5 7 6 6 7 5 8 4 9 3 10 2 11 1 12 13 13
REMARK SMILES IDX 14 14 15 15 16 16 17 17 18 18 19 19 20 20 21 21 22 22 23 23
REMARK SMILES IDX 24 24
REMARK H PARENT
REMARK Flexibility Score: inf
ROOT
ATOM      1  C   UNL     1       1.429   3.395   7.684  1.00  0.00     0.000 C 
ENDROOT
BRANCH   1   2
ATOM      2  C   UNL     1       2.362   4.621   7.593  1.00  0.00     0.000 C 
BRANCH   2   3
ATOM      3  C   UNL     1       3.160   4.933   8.872  1.00  0.00     0.000 C 
BRANCH   3   4
ATOM      4  C   UNL     1       2.895   6.324   9.479  1.00  0.00    -0.000 C 
BRANCH   4   5
ATOM      5  C   UNL     1       1.474   6.861   9.207  1.00  0.00    -0.000 C 
BRANCH   5   6
ATOM      6  C   UNL     1       1.412   8.396   9.205  1.00  0.00    -0.000 C 
BRANCH   6   7
ATOM      7  C   UNL     1       2.770   9.000   9.587  1.00  0.00    -0.000 C 
BRANCH   7   8
ATOM      8  C   UNL     1       3.166  10.124   8.617  1.00  0.00    -0.000 C 
BRANCH   8   9
ATOM      9  C   UNL     1       4.324   9.724   7.689  1.00  0.00    -0.000 C 
BRANCH   9  10
ATOM     10  C   UNL     1       3.885   8.775   6.563  1.00  0.00    -0.000 C 
BRANCH  10  11
ATOM     11  C   UNL     1       4.900   7.644   6.372  1.00  0.00    -0.003 C 
ATOM     12  C   UNL     1       5.878   7.575   7.541  1.00  0.00     0.004 C 
ENDBRANCH  10  11
ENDBRANCH   9  10
ENDBRANCH   8   9
ENDBRANCH   7   8
ENDBRANCH   6   7
ENDBRANCH   5   6
ENDBRANCH   4   5
ENDBRANCH   3   4
ENDBRANCH   2   3
ENDBRANCH   1   2
BRANCH   1  13
ATOM     13  C   UNL     1       0.617   3.278   8.987  1.00  0.00     0.000 C 
BRANCH  13  14
ATOM     14  C   UNL     1      -0.796   2.715   8.766  1.00  0.00     0.000 C 
BRANCH  14  15
ATOM     15  C   UNL     1      -1.196   1.673   9.826  1.00  0.00     0.000 C 
BRANCH  15  16
ATOM     16  C   UNL     1      -2.277   0.666   9.384  1.00  0.00     0.000 C 
BRANCH  16  17
ATOM     17  C   UNL     1      -1.980  -0.082   8.072  1.00  0.00     0.000 C 
BRANCH  17  18
ATOM     18  C   UNL     1      -1.004  -1.256   8.263  1.00  0.00     0.000 C 
BRANCH  18  19
ATOM     19  C   UNL     1       0.080  -1.302   7.174  1.00  0.00     0.000 C 
BRANCH  19  20
ATOM     20  C   UNL     1       0.530   0.102   6.732  1.00  0.00     0.006 C 
BRANCH  20  21
ATOM     21  C   UNL     1       0.582   0.240   5.205  1.00  0.00     0.053 C 
BRANCH  21  22
ATOM     22  C   UNL     1      -0.039   1.520   4.737  1.00  0.00     0.041 C 
ATOM     23  O   UNL     1       0.527   2.213   3.851  1.00  0.00    -0.550 OA
ATOM     24  O   UNL     1      -1.231   1.963   5.298  1.00  0.00    -0.550 OA
ENDBRANCH  21  22
ENDBRANCH  20  21
ENDBRANCH  19  20
ENDBRANCH  18  19
ENDBRANCH  17  18
ENDBRANCH  16  17
ENDBRANCH  15  16
ENDBRANCH  14  15
ENDBRANCH  13  14
ENDBRANCH   1  13
TORSDOF 20
ENDMDL
MODEL 9
REMARK VINA RESULT:    -4.061      1.240      1.728
REMARK INTER + INTRA:         -10.890
REMARK INTER:                  -9.280
REMARK INTRA:                  -1.609
REMARK UNBOUND:                -2.080
REMARK SMILES CCCCCCCCCCCCCCCCCCCCCC(=O)[O-]
REMARK SMILES IDX 12 1 11 2 10 3 9 4 8 5 7 6 6 7 5 8 4 9 3 10 2 11 1 12 13 13
REMARK SMILES IDX 14 14 15 15 16 16 17 17 18 18 19 19 20 20 21 21 22 22 23 23
REMARK SMILES IDX 24 24
REMARK H PARENT
REMARK Flexibility Score: inf
ROOT
ATOM      1  C   UNL     1       0.284   2.635   8.563  1.00  0.00     0.000 C 
ENDROOT
BRANCH   1   2
ATOM      2  C   UNL     1       1.347   3.751   8.639  1.00  0.00     0.000 C 
BRANCH   2   3
ATOM      3  C   UNL     1       1.199   4.717   9.829  1.00  0.00     0.000 C 
BRANCH   3   4
ATOM      4  C   UNL     1       2.017   6.018   9.715  1.00  0.00    -0.000 C 
BRANCH   4   5
ATOM      5  C   UNL     1       2.108   6.571   8.277  1.00  0.00    -0.000 C 
BRANCH   5   6
ATOM      6  C   UNL     1       3.538   6.536   7.719  1.00  0.00    -0.000 C 
BRANCH   6   7
ATOM      7  C   UNL     1       4.091   7.957   7.538  1.00  0.00    -0.000 C 
BRANCH   7   8
ATOM      8  C   UNL     1       5.161   7.995   6.436  1.00  0.00    -0.000 C 
BRANCH   8   9
ATOM      9  C   UNL     1       4.706   8.780   5.196  1.00  0.00    -0.000 C 
BRANCH   9  10
ATOM     10  C   UNL     1       5.671   8.632   4.010  1.00  0.00    -0.000 C 
BRANCH  10  11
ATOM     11  C   UNL     1       7.078   8.264   4.492  1.00  0.00    -0.003 C 
ATOM     12  C   UNL     1       8.147   9.027   3.714  1.00  0.00     0.004 C 
ENDBRANCH  10  11
ENDBRANCH   9  10
ENDBRANCH   8   9
ENDBRANCH   7   8
ENDBRANCH   6   7
ENDBRANCH   5   6
ENDBRANCH   4   5
ENDBRANCH   3   4
ENDBRANCH   2   3
ENDBRANCH   1   2
BRANCH   1  13
ATOM     13  C   UNL     1      -0.873   2.755   9.573  1.00  0.00     0.000 C 
BRANCH  13  14
ATOM     14  C   UNL     1      -2.202   2.206   9.031  1.00  0.00     0.000 C 
BRANCH  14  15
ATOM     15  C   UNL     1      -2.750   1.036   9.868  1.00  0.00     0.000 C 
BRANCH  15  16
ATOM     16  C   UNL     1      -2.169  -0.350   9.522  1.00  0.00     0.000 C 
BRANCH  16  17
ATOM     17  C   UNL     1      -2.371  -0.801   8.065  1.00  0.00     0.000 C 
BRANCH  17  18
ATOM     18  C   UNL     1      -1.098  -1.403   7.445  1.00  0.00     0.000 C 
BRANCH  18  19
ATOM     19  C   UNL     1      -0.228  -0.345   6.746  1.00  0.00     0.000 C 
BRANCH  19  20
ATOM     20  C   UNL     1      -1.054   0.607   5.864  1.00  0.00     0.006 C 
BRANCH  20  21
ATOM     21  C   UNL     1      -0.474   0.737   4.450  1.00  0.00     0.053 C 
BRANCH  21  22
ATOM     22  C   UNL     1       0.564   1.812   4.367  1.00  0.00     0.041 C 
ATOM     23  O   UNL     1       0.622   2.561   3.356  1.00  0.00    -0.550 OA
ATOM     24  O   UNL     1       1.485   1.973   5.395  1.00  0.00    -0.550 OA
ENDBRANCH  21  22
ENDBRANCH  20  21
ENDBRANCH  19  20
ENDBRANCH  18  19
ENDBRANCH  17  18
ENDBRANCH  16  17
ENDBRANCH  15  16
ENDBRANCH  14  15
ENDBRANCH  13  14
ENDBRANCH   1  13
TORSDOF 20
ENDMDL
