MODEL 1
REMARK VINA RESULT:    -3.779      0.000      0.000
REMARK INTER + INTRA:          -5.679
REMARK INTER:                  -5.326
REMARK INTRA:                  -0.354
REMARK UNBOUND:                -0.354
REMARK SMILES CCCCCCCCC(=O)[O-]
REMARK SMILES IDX 6 1 7 2 8 3 9 4 10 5 11 6 5 7 4 8 3 9 2 10 1 11
REMARK H PARENT
REMARK Flexibility Score: inf
ROOT
ATOM      1  C   UNL     1      49.104   6.067  22.150  1.00  0.00     0.000 C 
ENDROOT
BRANCH   1   2
ATOM      2  C   UNL     1      49.647   7.453  21.772  1.00  0.00     0.006 C 
BRANCH   2   3
ATOM      3  C   UNL     1      49.245   7.868  20.351  1.00  0.00     0.053 C 
BRANCH   3   4
ATOM      4  C   UNL     1      50.431   8.280  19.535  1.00  0.00     0.041 C 
ATOM      5  O   UNL     1      51.428   7.516  19.436  1.00  0.00    -0.550 OA
ATOM      6  O   UNL     1      50.423   9.491  18.854  1.00  0.00    -0.550 OA
ENDBRANCH   3   4
ENDBRANCH   2   3
ENDBRANCH   1   2
BRANCH   1   7
ATOM      7  C   UNL     1      49.415   5.037  21.057  1.00  0.00     0.000 C 
BRANCH   7   8
ATOM      8  C   UNL     1      49.782   3.677  21.671  1.00  0.00    -0.000 C 
BRANCH   8   9
ATOM      9  C   UNL     1      50.314   2.681  20.630  1.00  0.00    -0.000 C 
BRANCH   9  10
ATOM     10  C   UNL     1      51.129   3.364  19.522  1.00  0.00    -0.003 C 
ATOM     11  C   UNL     1      52.415   2.594  19.232  1.00  0.00     0.004 C 
ENDBRANCH   9  10
ENDBRANCH   8   9
ENDBRANCH   7   8
ENDBRANCH   1   7
TORSDOF 7
ENDMDL
MODEL 2
REMARK VINA RESULT:    -3.747      3.253      5.818
REMARK INTER + INTRA:          -5.634
REMARK INTER:                  -5.081
REMARK INTRA:                  -0.553
REMARK UNBOUND:                -0.354
REMARK SMILES CCCCCCCCC(=O)[O-]
REMARK SMILES IDX 6 1 7 2 8 3 9 4 10 5 11 6 5 7 4 8 3 9 2 10 1 11
REMARK H PARENT
REMARK Flexibility Score: inf
ROOT
ATOM      1  C   UNL     1      48.926   8.145  21.027  1.00  0.00     0.000 C 
ENDROOT
BRANCH   1   2
ATOM      2  C   UNL     1      49.931   7.454  20.093  1.00  0.00     0.006 C 
BRANCH   2   3
ATOM      3  C   UNL     1      50.723   8.459  19.247  1.00  0.00     0.053 C 
BRANCH   3   4
ATOM      4  C   UNL     1      49.840   9.201  18.292  1.00  0.00     0.041 C 
ATOM      5  O   UNL     1      49.716  10.452  18.386  1.00  0.00    -0.550 OA
ATOM      6  O   UNL     1      49.179   8.519  17.278  1.00  0.00    -0.550 OA
ENDBRANCH   3   4
ENDBRANCH   2   3
ENDBRANCH   1   2
BRANCH   1   7
ATOM      7  C   UNL     1      47.505   7.618  20.795  1.00  0.00     0.000 C 
BRANCH   7   8
ATOM      8  C   UNL     1      46.558   8.754  20.380  1.00  0.00    -0.000 C 
BRANCH   8   9
ATOM      9  C   UNL     1      47.117  10.145  20.718  1.00  0.00    -0.000 C 
BRANCH   9  10
ATOM     10  C   UNL     1      46.013  11.170  21.011  1.00  0.00    -0.003 C 
ATOM     11  C   UNL     1      46.560  12.357  21.799  1.00  0.00     0.004 C 
ENDBRANCH   9  10
ENDBRANCH   8   9
ENDBRANCH   7   8
ENDBRANCH   1   7
TORSDOF 7
ENDMDL
MODEL 3
REMARK VINA RESULT:    -3.726      8.486     10.142
REMARK INTER + INTRA:          -5.604
REMARK INTER:                  -5.293
REMARK INTRA:                  -0.311
REMARK UNBOUND:                -0.354
REMARK SMILES CCCCCCCCC(=O)[O-]
REMARK SMILES IDX 6 1 7 2 8 3 9 4 10 5 11 6 5 7 4 8 3 9 2 10 1 11
REMARK H PARENT
REMARK Flexibility Score: inf
ROOT
ATOM      1  C   UNL     1      49.581  12.937  17.487  1.00  0.00     0.000 C 
ENDROOT
BRANCH   1   2
ATOM      2  C   UNL     1      49.185  13.704  16.216  1.00  0.00     0.006 C 
BRANCH   2   3
ATOM      3  C   UNL     1      49.708  13.027  14.942  1.00  0.00     0.053 C 
BRANCH   3   4
ATOM      4  C   UNL     1      50.839  13.793  14.329  1.00  0.00     0.041 C 
ATOM      5  O   UNL     1      50.823  15.053  14.327  1.00  0.00    -0.550 OA
ATOM      6  O   UNL     1      51.928  13.119  13.791  1.00  0.00    -0.550 OA
ENDBRANCH   3   4
ENDBRANCH   2   3
ENDBRANCH   1   2
BRANCH   1   7
ATOM      7  C   UNL     1      49.036  13.631  18.741  1.00  0.00     0.000 C 
BRANCH   7   8
ATOM      8  C   UNL     1      49.552  15.074  18.839  1.00  0.00    -0.000 C 
BRANCH   8   9
ATOM      9  C   UNL     1      48.560  16.012  19.545  1.00  0.00    -0.000 C 
BRANCH   9  10
ATOM     10  C   UNL     1      47.837  15.332  20.717  1.00  0.00    -0.003 C 
ATOM     11  C   UNL     1      48.384  15.820  22.056  1.00  0.00     0.004 C 
ENDBRANCH   9  10
ENDBRANCH   8   9
ENDBRANCH   7   8
ENDBRANCH   1   7
TORSDOF 7
ENDMDL
MODEL 4
REMARK VINA RESULT:    -3.687      2.014      4.652
REMARK INTER + INTRA:          -5.549
REMARK INTER:                  -5.076
REMARK INTRA:                  -0.473
REMARK UNBOUND:                -0.354
REMARK SMILES CCCCCCCCC(=O)[O-]
REMARK SMILES IDX 6 1 7 2 8 3 9 4 10 5 11 6 5 7 4 8 3 9 2 10 1 11
REMARK H PARENT
REMARK Flexibility Score: inf
ROOT
ATOM      1  C   UNL     1      49.132   5.086  21.324  1.00  0.00     0.000 C 
ENDROOT
BRANCH   1   2
ATOM      2  C   UNL     1      50.036   3.861  21.535  1.00  0.00     0.006 C 
BRANCH   2   3
ATOM      3  C   UNL     1      50.056   2.936  20.312  1.00  0.00     0.053 C 
BRANCH   3   4
ATOM      4  C   UNL     1      51.327   3.073  19.532  1.00  0.00     0.041 C 
ATOM      5  O   UNL     1      51.565   4.131  18.890  1.00  0.00    -0.550 OA
ATOM      6  O   UNL     1      52.265   2.048  19.540  1.00  0.00    -0.550 OA
ENDBRANCH   3   4
ENDBRANCH   2   3
ENDBRANCH   1   2
BRANCH   1   7
ATOM      7  C   UNL     1      49.274   6.081  22.482  1.00  0.00     0.000 C 
BRANCH   7   8
ATOM      8  C   UNL     1      49.620   7.484  21.961  1.00  0.00    -0.000 C 
BRANCH   8   9
ATOM      9  C   UNL     1      49.053   7.753  20.558  1.00  0.00    -0.000 C 
BRANCH   9  10
ATOM     10  C   UNL     1      50.039   8.510  19.658  1.00  0.00    -0.003 C 
ATOM     11  C   UNL     1      51.169   7.597  19.192  1.00  0.00     0.004 C 
ENDBRANCH   9  10
ENDBRANCH   8   9
ENDBRANCH   7   8
ENDBRANCH   1   7
TORSDOF 7
ENDMDL
MODEL 5
REMARK VINA RESULT:    -3.658      3.506      5.182
REMARK INTER + INTRA:          -5.508
REMARK INTER:                  -5.070
REMARK INTRA:                  -0.438
REMARK UNBOUND:                -0.354
REMARK SMILES CCCCCCCCC(=O)[O-]
REMARK SMILES IDX 6 1 7 2 8 3 9 4 10 5 11 6 5 7 4 8 3 9 2 10 1 11
REMARK H PARENT
REMARK Flexibility Score: inf
ROOT
ATOM      1  C   UNL     1      48.582   3.311  21.319  1.00  0.00     0.000 C 
ENDROOT
BRANCH   1   2
ATOM      2  C   UNL     1      50.017   3.680  20.913  1.00  0.00     0.006 C 
BRANCH   2   3
ATOM      3  C   UNL     1      50.718   2.543  20.159  1.00  0.00     0.053 C 
BRANCH   3   4
ATOM      4  C   UNL     1      51.855   3.047  19.325  1.00  0.00     0.041 C 
ATOM      5  O   UNL     1      52.909   2.366  19.214  1.00  0.00    -0.550 OA
ATOM      6  O   UNL     1      51.740   4.252  18.643  1.00  0.00    -0.550 OA
ENDBRANCH   3   4
ENDBRANCH   2   3
ENDBRANCH   1   2
BRANCH   1   7
ATOM      7  C   UNL     1      48.263   1.856  20.956  1.00  0.00     0.000 C 
BRANCH   7   8
ATOM      8  C   UNL     1      46.938   1.759  20.186  1.00  0.00    -0.000 C 
BRANCH   8   9
ATOM      9  C   UNL     1      46.134   3.069  20.222  1.00  0.00    -0.000 C 
BRANCH   9  10
ATOM     10  C   UNL     1      44.757   2.898  20.878  1.00  0.00    -0.003 C 
ATOM     11  C   UNL     1      44.527   1.450  21.303  1.00  0.00     0.004 C 
ENDBRANCH   9  10
ENDBRANCH   8   9
ENDBRANCH   7   8
ENDBRANCH   1   7
TORSDOF 7
ENDMDL
MODEL 6
REMARK VINA RESULT:    -3.657      9.845     11.231
REMARK INTER + INTRA:          -5.507
REMARK INTER:                  -5.209
REMARK INTRA:                  -0.298
REMARK UNBOUND:                -0.354
REMARK SMILES CCCCCCCCC(=O)[O-]
REMARK SMILES IDX 6 1 7 2 8 3 9 4 10 5 11 6 5 7 4 8 3 9 2 10 1 11
REMARK H PARENT
REMARK Flexibility Score: inf
ROOT
ATOM      1  C   UNL     1      57.153  -0.585  18.800  1.00  0.00     0.000 C 
ENDROOT
BRANCH   1   2
ATOM      2  C   UNL     1      56.842  -1.893  19.542  1.00  0.00     0.006 C 
BRANCH   2   3
ATOM      3  C   UNL     1      56.172  -2.932  18.633  1.00  0.00     0.053 C 
BRANCH   3   4
ATOM      4  C   UNL     1      54.686  -2.957  18.818  1.00  0.00     0.041 C 
ATOM      5  O   UNL     1      53.997  -3.866  18.284  1.00  0.00    -0.550 OA
ATOM      6  O   UNL     1      54.065  -1.997  19.608  1.00  0.00    -0.550 OA
ENDBRANCH   3   4
ENDBRANCH   2   3
ENDBRANCH   1   2
BRANCH   1   7
ATOM      7  C   UNL     1      58.035  -0.844  17.572  1.00  0.00     0.000 C 
BRANCH   7   8
ATOM      8  C   UNL     1      58.630   0.466  17.036  1.00  0.00    -0.000 C 
BRANCH   8   9
ATOM      9  C   UNL     1      58.585   0.554  15.502  1.00  0.00    -0.000 C 
BRANCH   9  10
ATOM     10  C   UNL     1      58.881  -0.792  14.825  1.00  0.00    -0.003 C 
ATOM     11  C   UNL     1      60.380  -0.980  14.609  1.00  0.00     0.004 C 
ENDBRANCH   9  10
ENDBRANCH   8   9
ENDBRANCH   7   8
ENDBRANCH   1   7
TORSDOF 7
ENDMDL
MODEL 7
REMARK VINA RESULT:    -3.651      7.472     10.381
REMARK INTER + INTRA:          -5.499
REMARK INTER:                  -5.161
REMARK INTRA:                  -0.338
REMARK UNBOUND:                -0.354
REMARK SMILES CCCCCCCCC(=O)[O-]
REMARK SMILES IDX 6 1 7 2 8 3 9 4 10 5 11 6 5 7 4 8 3 9 2 10 1 11
REMARK H PARENT
REMARK Flexibility Score: inf
ROOT
ATOM      1  C   UNL     1      49.515  13.022  15.331  1.00  0.00     0.000 C 
ENDROOT
BRANCH   1   2
ATOM      2  C   UNL     1      48.859  13.881  16.423  1.00  0.00     0.006 C 
BRANCH   2   3
ATOM      3  C   UNL     1      49.537  13.704  17.787  1.00  0.00     0.053 C 
BRANCH   3   4
ATOM      4  C   UNL     1      49.001  12.517  18.525  1.00  0.00     0.041 C 
ATOM      5  O   UNL     1      48.015  12.644  19.299  1.00  0.00    -0.550 OA
ATOM      6  O   UNL     1      49.569  11.263  18.335  1.00  0.00    -0.550 OA
ENDBRANCH   3   4
ENDBRANCH   2   3
ENDBRANCH   1   2
BRANCH   1   7
ATOM      7  C   UNL     1      50.619  13.801  14.606  1.00  0.00     0.000 C 
BRANCH   7   8
ATOM      8  C   UNL     1      50.348  15.313  14.657  1.00  0.00    -0.000 C 
BRANCH   8   9
ATOM      9  C   UNL     1      51.370  16.125  13.846  1.00  0.00    -0.000 C 
BRANCH   9  10
ATOM     10  C   UNL     1      52.360  15.234  13.081  1.00  0.00    -0.003 C 
ATOM     11  C   UNL     1      53.788  15.455  13.570  1.00  0.00     0.004 C 
ENDBRANCH   9  10
ENDBRANCH   8   9
ENDBRANCH   7   8
ENDBRANCH   1   7
TORSDOF 7
ENDMDL
MODEL 8
REMARK VINA RESULT:    -3.573      4.672      5.637
REMARK INTER + INTRA:          -5.388
REMARK INTER:                  -4.978
REMARK INTRA:                  -0.410
REMARK UNBOUND:                -0.354
REMARK SMILES CCCCCCCCC(=O)[O-]
REMARK SMILES IDX 6 1 7 2 8 3 9 4 10 5 11 6 5 7 4 8 3 9 2 10 1 11
REMARK H PARENT
REMARK Flexibility Score: inf
ROOT
ATOM      1  C   UNL     1      47.888   2.103  20.839  1.00  0.00     0.000 C 
ENDROOT
BRANCH   1   2
ATOM      2  C   UNL     1      46.625   2.161  19.967  1.00  0.00     0.006 C 
BRANCH   2   3
ATOM      3  C   UNL     1      45.728   3.354  20.320  1.00  0.00     0.053 C 
BRANCH   3   4
ATOM      4  C   UNL     1      44.422   2.914  20.906  1.00  0.00     0.041 C 
ATOM      5  O   UNL     1      43.342   3.416  20.493  1.00  0.00    -0.550 OA
ATOM      6  O   UNL     1      44.393   1.927  21.882  1.00  0.00    -0.550 OA
ENDBRANCH   3   4
ENDBRANCH   2   3
ENDBRANCH   1   2
BRANCH   1   7
ATOM      7  C   UNL     1      48.153   3.455  21.514  1.00  0.00     0.000 C 
BRANCH   7   8
ATOM      8  C   UNL     1      49.601   3.912  21.279  1.00  0.00    -0.000 C 
BRANCH   8   9
ATOM      9  C   UNL     1      50.478   2.810  20.664  1.00  0.00    -0.000 C 
BRANCH   9  10
ATOM     10  C   UNL     1      51.307   3.312  19.473  1.00  0.00    -0.003 C 
ATOM     11  C   UNL     1      52.508   2.404  19.220  1.00  0.00     0.004 C 
ENDBRANCH   9  10
ENDBRANCH   8   9
ENDBRANCH   7   8
ENDBRANCH   1   7
TORSDOF 7
ENDMDL
MODEL 9
REMARK VINA RESULT:    -3.539      4.701      5.995
REMARK INTER + INTRA:          -5.341
REMARK INTER:                  -5.027
REMARK INTRA:                  -0.315
REMARK UNBOUND:                -0.354
REMARK SMILES CCCCCCCCC(=O)[O-]
REMARK SMILES IDX 6 1 7 2 8 3 9 4 10 5 11 6 5 7 4 8 3 9 2 10 1 11
REMARK H PARENT
REMARK Flexibility Score: inf
ROOT
ATOM      1  C   UNL     1      49.912   7.148  23.367  1.00  0.00     0.000 C 
ENDROOT
BRANCH   1   2
ATOM      2  C   UNL     1      49.491   6.884  24.821  1.00  0.00     0.006 C 
BRANCH   2   3
ATOM      3  C   UNL     1      50.025   5.546  25.348  1.00  0.00     0.053 C 
BRANCH   3   4
ATOM      4  C   UNL     1      49.831   5.413  26.827  1.00  0.00     0.041 C 
ATOM      5  O   UNL     1      49.770   6.442  27.552  1.00  0.00    -0.550 OA
ATOM      6  O   UNL     1      49.684   4.157  27.401  1.00  0.00    -0.550 OA
ENDBRANCH   3   4
ENDBRANCH   2   3
ENDBRANCH   1   2
BRANCH   1   7
ATOM      7  C   UNL     1      49.078   8.275  22.748  1.00  0.00     0.000 C 
BRANCH   7   8
ATOM      8  C   UNL     1      49.031   8.148  21.218  1.00  0.00    -0.000 C 
BRANCH   8   9
ATOM      9  C   UNL     1      50.029   7.111  20.679  1.00  0.00    -0.000 C 
BRANCH   9  10
ATOM     10  C   UNL     1      50.886   7.658  19.529  1.00  0.00    -0.003 C 
ATOM     11  C   UNL     1      50.379   9.022  19.068  1.00  0.00     0.004 C 
ENDBRANCH   9  10
ENDBRANCH   8   9
ENDBRANCH   7   8
ENDBRANCH   1   7
TORSDOF 7
ENDMDL
