MODEL 1
REMARK VINA RESULT:     2.334      0.000      0.000
REMARK INTER + INTRA:           2.334
REMARK INTER:                   2.334
REMARK INTRA:                   0.000
REMARK UNBOUND:                 0.000
REMARK SMILES CC1(C)O[C@]2(C)CC[C@H]1CC2
REMARK SMILES IDX 1 1 2 2 9 3 10 4 11 5 5 6 4 7 7 8 8 9 6 10 3 11
REMARK H PARENT
REMARK Flexibility Score: inf
ROOT
ATOM      1  C   UNL     1      18.321  93.974   9.746  1.00  0.00     0.042 C 
ATOM      2  C   UNL     1      17.834  94.805   8.540  1.00  0.00     0.066 C 
ATOM      3  C   UNL     1      16.283  95.074   8.637  1.00  0.00     0.021 C 
ATOM      4  C   UNL     1      16.011  95.923   9.901  1.00  0.00     0.009 C 
ATOM      5  C   UNL     1      16.937  97.164   9.890  1.00  0.00     0.035 C 
ATOM      6  C   UNL     1      17.763  97.192   8.571  1.00  0.00     0.066 C 
ATOM      7  O   UNL     1      18.587  96.027   8.507  1.00  0.00    -0.369 OA
ATOM      8  C   UNL     1      16.784  97.192   7.361  1.00  0.00     0.035 C 
ATOM      9  C   UNL     1      15.862  95.952   7.433  1.00  0.00     0.009 C 
ATOM     10  C   UNL     1      18.660  98.434   8.530  1.00  0.00     0.042 C 
ATOM     11  C   UNL     1      18.170  94.002   7.264  1.00  0.00     0.042 C 
ENDROOT
TORSDOF 0
ENDMDL
MODEL 2
REMARK VINA RESULT:     2.518      1.482      3.001
REMARK INTER + INTRA:           2.518
REMARK INTER:                   2.518
REMARK INTRA:                   0.000
REMARK UNBOUND:                 0.000
REMARK SMILES CC1(C)O[C@]2(C)CC[C@H]1CC2
REMARK SMILES IDX 1 1 2 2 9 3 10 4 11 5 5 6 4 7 7 8 8 9 6 10 3 11
REMARK H PARENT
REMARK Flexibility Score: inf
ROOT
ATOM      1  C   UNL     1      15.402  96.256   7.220  1.00  0.00     0.042 C 
ATOM      2  C   UNL     1      16.116  96.551   8.557  1.00  0.00     0.066 C 
ATOM      3  C   UNL     1      17.290  95.526   8.801  1.00  0.00     0.021 C 
ATOM      4  C   UNL     1      18.343  95.713   7.684  1.00  0.00     0.009 C 
ATOM      5  C   UNL     1      18.729  97.209   7.593  1.00  0.00     0.035 C 
ATOM      6  C   UNL     1      18.001  98.009   8.712  1.00  0.00     0.066 C 
ATOM      7  O   UNL     1      16.589  97.906   8.521  1.00  0.00    -0.369 OA
ATOM      8  C   UNL     1      18.376  97.400  10.094  1.00  0.00     0.035 C 
ATOM      9  C   UNL     1      17.999  95.900  10.125  1.00  0.00     0.009 C 
ATOM     10  C   UNL     1      18.400  99.488   8.655  1.00  0.00     0.042 C 
ATOM     11  C   UNL     1      15.057  96.444   9.676  1.00  0.00     0.042 C 
ENDROOT
TORSDOF 0
ENDMDL
MODEL 3
REMARK VINA RESULT:     2.547      1.528      3.194
REMARK INTER + INTRA:           2.547
REMARK INTER:                   2.547
REMARK INTRA:                   0.000
REMARK UNBOUND:                 0.000
REMARK SMILES CC1(C)O[C@]2(C)CC[C@H]1CC2
REMARK SMILES IDX 1 1 2 2 9 3 10 4 11 5 5 6 4 7 7 8 8 9 6 10 3 11
REMARK H PARENT
REMARK Flexibility Score: inf
ROOT
ATOM      1  C   UNL     1      19.140  98.393   9.853  1.00  0.00     0.042 C 
ATOM      2  C   UNL     1      18.014  98.161   8.822  1.00  0.00     0.066 C 
ATOM      3  C   UNL     1      18.265  96.831   8.013  1.00  0.00     0.021 C 
ATOM      4  C   UNL     1      18.217  95.640   9.000  1.00  0.00     0.009 C 
ATOM      5  C   UNL     1      16.913  95.719   9.830  1.00  0.00     0.035 C 
ATOM      6  C   UNL     1      16.044  96.911   9.334  1.00  0.00     0.066 C 
ATOM      7  O   UNL     1      16.764  98.130   9.527  1.00  0.00    -0.369 OA
ATOM      8  C   UNL     1      15.751  96.727   7.816  1.00  0.00     0.035 C 
ATOM      9  C   UNL     1      17.083  96.623   7.035  1.00  0.00     0.009 C 
ATOM     10  C   UNL     1      14.733  96.981  10.125  1.00  0.00     0.042 C 
ATOM     11  C   UNL     1      17.999  99.382   7.876  1.00  0.00     0.042 C 
ENDROOT
TORSDOF 0
ENDMDL
MODEL 4
REMARK VINA RESULT:     2.712      1.091      3.422
REMARK INTER + INTRA:           2.712
REMARK INTER:                   2.712
REMARK INTRA:                   0.000
REMARK UNBOUND:                 0.000
REMARK SMILES CC1(C)O[C@]2(C)CC[C@H]1CC2
REMARK SMILES IDX 1 1 2 2 9 3 10 4 11 5 5 6 4 7 7 8 8 9 6 10 3 11
REMARK H PARENT
REMARK Flexibility Score: inf
ROOT
ATOM      1  C   UNL     1      18.123  99.407   7.876  1.00  0.00     0.042 C 
ATOM      2  C   UNL     1      18.138  98.162   8.790  1.00  0.00     0.066 C 
ATOM      3  C   UNL     1      16.677  97.794   9.255  1.00  0.00     0.021 C 
ATOM      4  C   UNL     1      15.845  97.418   8.006  1.00  0.00     0.009 C 
ATOM      5  C   UNL     1      16.610  96.349   7.189  1.00  0.00     0.035 C 
ATOM      6  C   UNL     1      17.911  95.942   7.941  1.00  0.00     0.066 C 
ATOM      7  O   UNL     1      18.756  97.086   8.069  1.00  0.00    -0.369 OA
ATOM      8  C   UNL     1      17.534  95.424   9.359  1.00  0.00     0.035 C 
ATOM      9  C   UNL     1      16.747  96.515  10.124  1.00  0.00     0.009 C 
ATOM     10  C   UNL     1      18.662  94.858   7.159  1.00  0.00     0.042 C 
ATOM     11  C   UNL     1      19.030  98.498  10.006  1.00  0.00     0.042 C 
ENDROOT
TORSDOF 0
ENDMDL
MODEL 5
REMARK VINA RESULT:     2.822      1.407      2.568
REMARK INTER + INTRA:           2.822
REMARK INTER:                   2.822
REMARK INTRA:                   0.000
REMARK UNBOUND:                 0.000
REMARK SMILES CC1(C)O[C@]2(C)CC[C@H]1CC2
REMARK SMILES IDX 1 1 2 2 9 3 10 4 11 5 5 6 4 7 7 8 8 9 6 10 3 11
REMARK H PARENT
REMARK Flexibility Score: inf
ROOT
ATOM      1  C   UNL     1      16.710  93.951   8.646  1.00  0.00     0.042 C 
ATOM      2  C   UNL     1      17.400  95.263   9.078  1.00  0.00     0.066 C 
ATOM      3  C   UNL     1      18.036  95.994   7.834  1.00  0.00     0.021 C 
ATOM      4  C   UNL     1      16.898  96.389   6.864  1.00  0.00     0.009 C 
ATOM      5  C   UNL     1      15.806  97.159   7.645  1.00  0.00     0.035 C 
ATOM      6  C   UNL     1      16.258  97.360   9.121  1.00  0.00     0.066 C 
ATOM      7  O   UNL     1      16.425  96.083   9.739  1.00  0.00    -0.369 OA
ATOM      8  C   UNL     1      17.618  98.115   9.135  1.00  0.00     0.035 C 
ATOM      9  C   UNL     1      18.666  97.323   8.317  1.00  0.00     0.009 C 
ATOM     10  C   UNL     1      15.201  98.151   9.899  1.00  0.00     0.042 C 
ATOM     11  C   UNL     1      18.489  94.891  10.109  1.00  0.00     0.042 C 
ENDROOT
TORSDOF 0
ENDMDL
MODEL 6
REMARK VINA RESULT:     2.988      1.008      3.306
REMARK INTER + INTRA:           2.988
REMARK INTER:                   2.988
REMARK INTRA:                   0.000
REMARK UNBOUND:                 0.000
REMARK SMILES CC1(C)O[C@]2(C)CC[C@H]1CC2
REMARK SMILES IDX 1 1 2 2 9 3 10 4 11 5 5 6 4 7 7 8 8 9 6 10 3 11
REMARK H PARENT
REMARK Flexibility Score: inf
ROOT
ATOM      1  C   UNL     1      17.889  98.235   9.176  1.00  0.00     0.042 C 
ATOM      2  C   UNL     1      16.950  97.010   9.214  1.00  0.00     0.066 C 
ATOM      3  C   UNL     1      16.452  96.644   7.763  1.00  0.00     0.021 C 
ATOM      4  C   UNL     1      17.678  96.239   6.911  1.00  0.00     0.009 C 
ATOM      5  C   UNL     1      18.487  95.157   7.667  1.00  0.00     0.035 C 
ATOM      6  C   UNL     1      17.751  94.772   8.983  1.00  0.00     0.066 C 
ATOM      7  O   UNL     1      17.660  95.922   9.824  1.00  0.00    -0.369 OA
ATOM      8  C   UNL     1      16.316  94.280   8.634  1.00  0.00     0.035 C 
ATOM      9  C   UNL     1      15.559  95.383   7.855  1.00  0.00     0.009 C 
ATOM     10  C   UNL     1      18.524  93.676   9.725  1.00  0.00     0.042 C 
ATOM     11  C   UNL     1      15.757  97.374  10.125  1.00  0.00     0.042 C 
ENDROOT
TORSDOF 0
ENDMDL
MODEL 7
REMARK VINA RESULT:     3.152      1.280      2.227
REMARK INTER + INTRA:           3.152
REMARK INTER:                   3.152
REMARK INTRA:                   0.000
REMARK UNBOUND:                 0.000
REMARK SMILES CC1(C)O[C@]2(C)CC[C@H]1CC2
REMARK SMILES IDX 1 1 2 2 9 3 10 4 11 5 5 6 4 7 7 8 8 9 6 10 3 11
REMARK H PARENT
REMARK Flexibility Score: inf
ROOT
ATOM      1  C   UNL     1      15.590  96.196  10.114  1.00  0.00     0.042 C 
ATOM      2  C   UNL     1      16.881  96.137   9.269  1.00  0.00     0.066 C 
ATOM      3  C   UNL     1      16.592  96.563   7.778  1.00  0.00     0.021 C 
ATOM      4  C   UNL     1      16.123  98.037   7.772  1.00  0.00     0.009 C 
ATOM      5  C   UNL     1      17.140  98.898   8.561  1.00  0.00     0.035 C 
ATOM      6  C   UNL     1      18.337  98.013   9.016  1.00  0.00     0.066 C 
ATOM      7  O   UNL     1      17.858  96.987   9.887  1.00  0.00    -0.369 OA
ATOM      8  C   UNL     1      18.986  97.357   7.764  1.00  0.00     0.035 C 
ATOM      9  C   UNL     1      17.926  96.535   6.994  1.00  0.00     0.009 C 
ATOM     10  C   UNL     1      19.369  98.859   9.771  1.00  0.00     0.042 C 
ATOM     11  C   UNL     1      17.403  94.685   9.331  1.00  0.00     0.042 C 
ENDROOT
TORSDOF 0
ENDMDL
MODEL 8
REMARK VINA RESULT:     3.545      1.419      3.219
REMARK INTER + INTRA:           3.545
REMARK INTER:                   3.545
REMARK INTRA:                   0.000
REMARK UNBOUND:                 0.000
REMARK SMILES CC1(C)O[C@]2(C)CC[C@H]1CC2
REMARK SMILES IDX 1 1 2 2 9 3 10 4 11 5 5 6 4 7 7 8 8 9 6 10 3 11
REMARK H PARENT
REMARK Flexibility Score: inf
ROOT
ATOM      1  C   UNL     1      15.143  97.305   9.736  1.00  0.00     0.042 C 
ATOM      2  C   UNL     1      16.131  96.977   8.596  1.00  0.00     0.066 C 
ATOM      3  C   UNL     1      17.503  97.724   8.815  1.00  0.00     0.021 C 
ATOM      4  C   UNL     1      18.142  97.201  10.123  1.00  0.00     0.009 C 
ATOM      5  C   UNL     1      18.186  95.654  10.084  1.00  0.00     0.035 C 
ATOM      6  C   UNL     1      17.660  95.147   8.710  1.00  0.00     0.066 C 
ATOM      7  O   UNL     1      16.301  95.553   8.549  1.00  0.00    -0.369 OA
ATOM      8  C   UNL     1      18.520  95.776   7.576  1.00  0.00     0.035 C 
ATOM      9  C   UNL     1      18.468  97.320   7.675  1.00  0.00     0.009 C 
ATOM     10  C   UNL     1      17.730  93.617   8.645  1.00  0.00     0.042 C 
ATOM     11  C   UNL     1      15.471  97.425   7.274  1.00  0.00     0.042 C 
ENDROOT
TORSDOF 0
ENDMDL
MODEL 9
REMARK VINA RESULT:     3.977      1.283      1.951
REMARK INTER + INTRA:           3.977
REMARK INTER:                   3.977
REMARK INTRA:                   0.000
REMARK UNBOUND:                 0.000
REMARK SMILES CC1(C)O[C@]2(C)CC[C@H]1CC2
REMARK SMILES IDX 1 1 2 2 9 3 10 4 11 5 5 6 4 7 7 8 8 9 6 10 3 11
REMARK H PARENT
REMARK Flexibility Score: inf
ROOT
ATOM      1  C   UNL     1      18.189  95.083   7.239  1.00  0.00     0.042 C 
ATOM      2  C   UNL     1      17.185  96.179   7.658  1.00  0.00     0.066 C 
ATOM      3  C   UNL     1      16.517  95.823   9.041  1.00  0.00     0.021 C 
ATOM      4  C   UNL     1      17.620  95.793  10.125  1.00  0.00     0.009 C 
ATOM      5  C   UNL     1      18.435  97.107  10.059  1.00  0.00     0.035 C 
ATOM      6  C   UNL     1      17.817  98.056   8.991  1.00  0.00     0.066 C 
ATOM      7  O   UNL     1      17.887  97.430   7.709  1.00  0.00    -0.369 OA
ATOM      8  C   UNL     1      16.326  98.320   9.350  1.00  0.00     0.035 C 
ATOM      9  C   UNL     1      15.562  96.977   9.434  1.00  0.00     0.009 C 
ATOM     10  C   UNL     1      18.594  99.377   8.938  1.00  0.00     0.042 C 
ATOM     11  C   UNL     1      16.119  96.273   6.544  1.00  0.00     0.042 C 
ENDROOT
TORSDOF 0
ENDMDL
