MODEL 1
REMARK VINA RESULT:    -5.253      0.000      0.000
REMARK INTER + INTRA:          -5.560
REMARK INTER:                  -5.560
REMARK INTRA:                   0.000
REMARK UNBOUND:                 0.000
REMARK SMILES O=c1ccc2cc(O)c(O)cc2o1
REMARK SMILES IDX 4 1 3 2 2 3 1 4 13 5 12 6 11 7 9 8 7 9 6 10 5 11 8 12 10 14
REMARK H PARENT 8 13 10 15
REMARK Flexibility Score: inf
ROOT
ATOM      1  C   UNL     1     -20.661  30.397  -3.137  1.00  0.00     0.019 A 
ATOM      2  C   UNL     1     -19.344  30.654  -3.516  1.00  0.00     0.094 A 
ATOM      3  C   UNL     1     -18.819  31.936  -3.316  1.00  0.00     0.336 A 
ATOM      4  O   UNL     1     -17.632  32.187  -3.652  1.00  0.00    -0.246 OA
ATOM      5  O   UNL     1     -19.566  32.893  -2.772  1.00  0.00    -0.423 OA
ATOM      6  C   UNL     1     -20.826  32.690  -2.397  1.00  0.00     0.142 A 
ATOM      7  C   UNL     1     -21.565  33.734  -1.831  1.00  0.00     0.098 A 
ATOM      8  C   UNL     1     -22.894  33.525  -1.434  1.00  0.00     0.161 A 
ATOM      9  C   UNL     1     -23.487  32.266  -1.604  1.00  0.00     0.158 A 
ATOM     10  C   UNL     1     -22.752  31.214  -2.171  1.00  0.00     0.062 A 
ATOM     11  C   UNL     1     -21.424  31.421  -2.569  1.00  0.00     0.022 A 
ENDROOT
BRANCH   9  12
ATOM     12  O   UNL     1     -24.808  32.067  -1.205  1.00  0.00    -0.504 OA
ATOM     13  H   UNL     1     -25.523  32.765  -1.374  1.00  0.00     0.293 HD
ENDBRANCH   9  12
BRANCH   8  14
ATOM     14  O   UNL     1     -23.632  34.564  -0.869  1.00  0.00    -0.504 OA
ATOM     15  H   UNL     1     -24.642  34.592  -0.934  1.00  0.00     0.293 HD
ENDBRANCH   8  14
TORSDOF 2
ENDMDL
MODEL 2
REMARK VINA RESULT:    -5.165      1.272      2.305
REMARK INTER + INTRA:          -5.467
REMARK INTER:                  -5.467
REMARK INTRA:                   0.000
REMARK UNBOUND:                 0.000
REMARK SMILES O=c1ccc2cc(O)c(O)cc2o1
REMARK SMILES IDX 4 1 3 2 2 3 1 4 13 5 12 6 11 7 9 8 7 9 6 10 5 11 8 12 10 14
REMARK H PARENT 8 13 10 15
REMARK Flexibility Score: inf
ROOT
ATOM      1  C   UNL     1     -19.575  32.676  -2.951  1.00  0.00     0.019 A 
ATOM      2  C   UNL     1     -18.945  31.588  -3.554  1.00  0.00     0.094 A 
ATOM      3  C   UNL     1     -19.657  30.393  -3.709  1.00  0.00     0.336 A 
ATOM      4  O   UNL     1     -19.106  29.400  -4.252  1.00  0.00    -0.246 OA
ATOM      5  O   UNL     1     -20.916  30.298  -3.286  1.00  0.00    -0.423 OA
ATOM      6  C   UNL     1     -21.552  31.312  -2.705  1.00  0.00     0.142 A 
ATOM      7  C   UNL     1     -22.875  31.155  -2.279  1.00  0.00     0.098 A 
ATOM      8  C   UNL     1     -23.552  32.220  -1.666  1.00  0.00     0.161 A 
ATOM      9  C   UNL     1     -22.901  33.448  -1.477  1.00  0.00     0.158 A 
ATOM     10  C   UNL     1     -21.574  33.612  -1.902  1.00  0.00     0.062 A 
ATOM     11  C   UNL     1     -20.897  32.549  -2.515  1.00  0.00     0.022 A 
ENDROOT
BRANCH   9  12
ATOM     12  O   UNL     1     -23.581  34.501  -0.868  1.00  0.00    -0.504 OA
ATOM     13  H   UNL     1     -23.147  35.066  -0.147  1.00  0.00     0.293 HD
ENDBRANCH   9  12
BRANCH   8  14
ATOM     14  O   UNL     1     -24.870  32.066  -1.241  1.00  0.00    -0.504 OA
ATOM     15  H   UNL     1     -25.182  32.416  -0.343  1.00  0.00     0.293 HD
ENDBRANCH   8  14
TORSDOF 2
ENDMDL
MODEL 3
REMARK VINA RESULT:    -5.157      1.470      1.851
REMARK INTER + INTRA:          -5.458
REMARK INTER:                  -5.458
REMARK INTRA:                   0.000
REMARK UNBOUND:                 0.000
REMARK SMILES O=c1ccc2cc(O)c(O)cc2o1
REMARK SMILES IDX 4 1 3 2 2 3 1 4 13 5 12 6 11 7 9 8 7 9 6 10 5 11 8 12 10 14
REMARK H PARENT 8 13 10 15
REMARK Flexibility Score: inf
ROOT
ATOM      1  C   UNL     1     -18.352  30.481  -2.434  1.00  0.00     0.019 A 
ATOM      2  C   UNL     1     -17.320  30.975  -3.231  1.00  0.00     0.094 A 
ATOM      3  C   UNL     1     -17.535  32.145  -3.968  1.00  0.00     0.336 A 
ATOM      4  O   UNL     1     -16.615  32.608  -4.693  1.00  0.00    -0.246 OA
ATOM      5  O   UNL     1     -18.706  32.775  -3.909  1.00  0.00    -0.423 OA
ATOM      6  C   UNL     1     -19.716  32.335  -3.161  1.00  0.00     0.142 A 
ATOM      7  C   UNL     1     -20.925  33.038  -3.138  1.00  0.00     0.098 A 
ATOM      8  C   UNL     1     -21.993  32.579  -2.353  1.00  0.00     0.161 A 
ATOM      9  C   UNL     1     -21.851  31.413  -1.586  1.00  0.00     0.158 A 
ATOM     10  C   UNL     1     -20.640  30.704  -1.605  1.00  0.00     0.062 A 
ATOM     11  C   UNL     1     -19.572  31.161  -2.390  1.00  0.00     0.022 A 
ENDROOT
BRANCH   9  12
ATOM     12  O   UNL     1     -22.917  30.966  -0.808  1.00  0.00    -0.504 OA
ATOM     13  H   UNL     1     -23.688  31.577  -0.566  1.00  0.00     0.293 HD
ENDBRANCH   9  12
BRANCH   8  14
ATOM     14  O   UNL     1     -23.199  33.278  -2.328  1.00  0.00    -0.504 OA
ATOM     15  H   UNL     1     -23.900  33.150  -3.049  1.00  0.00     0.293 HD
ENDBRANCH   8  14
TORSDOF 2
ENDMDL
MODEL 4
REMARK VINA RESULT:    -5.112      1.696      2.629
REMARK INTER + INTRA:          -5.411
REMARK INTER:                  -5.411
REMARK INTRA:                   0.000
REMARK UNBOUND:                 0.000
REMARK SMILES O=c1ccc2cc(O)c(O)cc2o1
REMARK SMILES IDX 4 1 3 2 2 3 1 4 13 5 12 6 11 7 9 8 7 9 6 10 5 11 8 12 10 14
REMARK H PARENT 8 13 10 15
REMARK Flexibility Score: inf
ROOT
ATOM      1  C   UNL     1     -18.539  32.619  -3.858  1.00  0.00     0.019 A 
ATOM      2  C   UNL     1     -17.397  31.819  -3.864  1.00  0.00     0.094 A 
ATOM      3  C   UNL     1     -17.405  30.621  -3.139  1.00  0.00     0.336 A 
ATOM      4  O   UNL     1     -16.384  29.885  -3.133  1.00  0.00    -0.246 OA
ATOM      5  O   UNL     1     -18.486  30.254  -2.456  1.00  0.00    -0.423 OA
ATOM      6  C   UNL     1     -19.595  30.989  -2.424  1.00  0.00     0.142 A 
ATOM      7  C   UNL     1     -20.701  30.554  -1.687  1.00  0.00     0.098 A 
ATOM      8  C   UNL     1     -21.873  31.325  -1.649  1.00  0.00     0.161 A 
ATOM      9  C   UNL     1     -21.938  32.537  -2.352  1.00  0.00     0.158 A 
ATOM     10  C   UNL     1     -20.832  32.979  -3.093  1.00  0.00     0.062 A 
ATOM     11  C   UNL     1     -19.660  32.210  -3.131  1.00  0.00     0.022 A 
ENDROOT
BRANCH   9  12
ATOM     12  O   UNL     1     -23.106  33.295  -2.310  1.00  0.00    -0.504 OA
ATOM     13  H   UNL     1     -23.680  33.339  -1.475  1.00  0.00     0.293 HD
ENDBRANCH   9  12
BRANCH   8  14
ATOM     14  O   UNL     1     -22.977  30.892  -0.916  1.00  0.00    -0.504 OA
ATOM     15  H   UNL     1     -22.870  30.436  -0.018  1.00  0.00     0.293 HD
ENDBRANCH   8  14
TORSDOF 2
ENDMDL
MODEL 5
REMARK VINA RESULT:    -5.010      1.595      4.910
REMARK INTER + INTRA:          -5.303
REMARK INTER:                  -5.303
REMARK INTRA:                   0.000
REMARK UNBOUND:                 0.000
REMARK SMILES O=c1ccc2cc(O)c(O)cc2o1
REMARK SMILES IDX 4 1 3 2 2 3 1 4 13 5 12 6 11 7 9 8 7 9 6 10 5 11 8 12 10 14
REMARK H PARENT 8 13 10 15
REMARK Flexibility Score: inf
ROOT
ATOM      1  C   UNL     1     -20.717  30.256  -1.226  1.00  0.00     0.019 A 
ATOM      2  C   UNL     1     -22.040  30.697  -1.237  1.00  0.00     0.094 A 
ATOM      3  C   UNL     1     -22.384  31.787  -2.045  1.00  0.00     0.336 A 
ATOM      4  O   UNL     1     -23.573  32.199  -2.069  1.00  0.00    -0.246 OA
ATOM      5  O   UNL     1     -21.463  32.391  -2.791  1.00  0.00    -0.423 OA
ATOM      6  C   UNL     1     -20.190  32.002  -2.808  1.00  0.00     0.142 A 
ATOM      7  C   UNL     1     -19.264  32.676  -3.612  1.00  0.00     0.098 A 
ATOM      8  C   UNL     1     -17.921  32.270  -3.634  1.00  0.00     0.161 A 
ATOM      9  C   UNL     1     -17.503  31.186  -2.849  1.00  0.00     0.158 A 
ATOM     10  C   UNL     1     -18.427  30.506  -2.042  1.00  0.00     0.062 A 
ATOM     11  C   UNL     1     -19.769  30.910  -2.018  1.00  0.00     0.022 A 
ENDROOT
BRANCH   9  12
ATOM     12  O   UNL     1     -16.167  30.789  -2.878  1.00  0.00    -0.504 OA
ATOM     13  H   UNL     1     -15.667  30.548  -2.030  1.00  0.00     0.293 HD
ENDBRANCH   9  12
BRANCH   8  14
ATOM     14  O   UNL     1     -16.997  32.940  -4.434  1.00  0.00    -0.504 OA
ATOM     15  H   UNL     1     -17.284  33.455  -5.258  1.00  0.00     0.293 HD
ENDBRANCH   8  14
TORSDOF 2
ENDMDL
MODEL 6
REMARK VINA RESULT:    -4.987      1.757      5.332
REMARK INTER + INTRA:          -5.278
REMARK INTER:                  -5.278
REMARK INTRA:                   0.000
REMARK UNBOUND:                 0.000
REMARK SMILES O=c1ccc2cc(O)c(O)cc2o1
REMARK SMILES IDX 4 1 3 2 2 3 1 4 13 5 12 6 11 7 9 8 7 9 6 10 5 11 8 12 10 14
REMARK H PARENT 8 13 10 15
REMARK Flexibility Score: inf
ROOT
ATOM      1  C   UNL     1     -20.598  33.059  -3.865  1.00  0.00     0.019 A 
ATOM      2  C   UNL     1     -21.790  32.992  -3.143  1.00  0.00     0.094 A 
ATOM      3  C   UNL     1     -21.861  32.147  -2.030  1.00  0.00     0.336 A 
ATOM      4  O   UNL     1     -22.928  32.073  -1.366  1.00  0.00    -0.246 OA
ATOM      5  O   UNL     1     -20.808  31.420  -1.667  1.00  0.00    -0.423 OA
ATOM      6  C   UNL     1     -19.653  31.454  -2.328  1.00  0.00     0.142 A 
ATOM      7  C   UNL     1     -18.579  30.666  -1.901  1.00  0.00     0.098 A 
ATOM      8  C   UNL     1     -17.360  30.699  -2.594  1.00  0.00     0.161 A 
ATOM      9  C   UNL     1     -17.214  31.523  -3.720  1.00  0.00     0.158 A 
ATOM     10  C   UNL     1     -18.288  32.315  -4.153  1.00  0.00     0.062 A 
ATOM     11  C   UNL     1     -19.507  32.283  -3.462  1.00  0.00     0.022 A 
ENDROOT
BRANCH   9  12
ATOM     12  O   UNL     1     -15.999  31.549  -4.402  1.00  0.00    -0.504 OA
ATOM     13  H   UNL     1     -15.791  30.886  -5.140  1.00  0.00     0.293 HD
ENDBRANCH   9  12
BRANCH   8  14
ATOM     14  O   UNL     1     -16.288  29.915  -2.170  1.00  0.00    -0.504 OA
ATOM     15  H   UNL     1     -15.506  30.315  -1.665  1.00  0.00     0.293 HD
ENDBRANCH   8  14
TORSDOF 2
ENDMDL
MODEL 7
REMARK VINA RESULT:    -4.862      2.056      3.087
REMARK INTER + INTRA:          -5.146
REMARK INTER:                  -5.146
REMARK INTRA:                   0.000
REMARK UNBOUND:                 0.000
REMARK SMILES O=c1ccc2cc(O)c(O)cc2o1
REMARK SMILES IDX 4 1 3 2 2 3 1 4 13 5 12 6 11 7 9 8 7 9 6 10 5 11 8 12 10 14
REMARK H PARENT 8 13 10 15
REMARK Flexibility Score: inf
ROOT
ATOM      1  C   UNL     1     -17.513  30.432  -2.282  1.00  0.00     0.019 A 
ATOM      2  C   UNL     1     -16.335  30.421  -3.028  1.00  0.00     0.094 A 
ATOM      3  C   UNL     1     -16.275  31.167  -4.211  1.00  0.00     0.336 A 
ATOM      4  O   UNL     1     -15.221  31.170  -4.898  1.00  0.00    -0.246 OA
ATOM      5  O   UNL     1     -17.327  31.876  -4.615  1.00  0.00    -0.423 OA
ATOM      6  C   UNL     1     -18.469  31.913  -3.932  1.00  0.00     0.142 A 
ATOM      7  C   UNL     1     -19.542  32.675  -4.406  1.00  0.00     0.098 A 
ATOM      8  C   UNL     1     -20.748  32.717  -3.690  1.00  0.00     0.161 A 
ATOM      9  C   UNL     1     -20.881  31.994  -2.496  1.00  0.00     0.158 A 
ATOM     10  C   UNL     1     -19.808  31.228  -2.016  1.00  0.00     0.062 A 
ATOM     11  C   UNL     1     -18.603  31.184  -2.730  1.00  0.00     0.022 A 
ENDROOT
BRANCH   9  12
ATOM     12  O   UNL     1     -22.082  32.043  -1.791  1.00  0.00    -0.504 OA
ATOM     13  H   UNL     1     -22.106  32.241  -0.797  1.00  0.00     0.293 HD
ENDBRANCH   9  12
BRANCH   8  14
ATOM     14  O   UNL     1     -21.818  33.476  -4.160  1.00  0.00    -0.504 OA
ATOM     15  H   UNL     1     -21.985  33.601  -5.151  1.00  0.00     0.293 HD
ENDBRANCH   8  14
TORSDOF 2
ENDMDL
MODEL 8
REMARK VINA RESULT:    -4.853      1.780      4.531
REMARK INTER + INTRA:          -5.137
REMARK INTER:                  -5.137
REMARK INTRA:                   0.000
REMARK UNBOUND:                 0.000
REMARK SMILES O=c1ccc2cc(O)c(O)cc2o1
REMARK SMILES IDX 4 1 3 2 2 3 1 4 13 5 12 6 11 7 9 8 7 9 6 10 5 11 8 12 10 14
REMARK H PARENT 8 13 10 15
REMARK Flexibility Score: inf
ROOT
ATOM      1  C   UNL     1     -21.455  30.080  -1.463  1.00  0.00     0.019 A 
ATOM      2  C   UNL     1     -22.835  29.917  -1.343  1.00  0.00     0.094 A 
ATOM      3  C   UNL     1     -23.682  30.730  -2.105  1.00  0.00     0.336 A 
ATOM      4  O   UNL     1     -24.930  30.598  -2.011  1.00  0.00    -0.246 OA
ATOM      5  O   UNL     1     -23.176  31.642  -2.932  1.00  0.00    -0.423 OA
ATOM      6  C   UNL     1     -21.866  31.829  -3.075  1.00  0.00     0.142 A 
ATOM      7  C   UNL     1     -21.392  32.804  -3.959  1.00  0.00     0.098 A 
ATOM      8  C   UNL     1     -20.012  33.005  -4.114  1.00  0.00     0.161 A 
ATOM      9  C   UNL     1     -19.103  32.228  -3.382  1.00  0.00     0.158 A 
ATOM     10  C   UNL     1     -19.573  31.248  -2.494  1.00  0.00     0.062 A 
ATOM     11  C   UNL     1     -20.951  31.046  -2.338  1.00  0.00     0.022 A 
ENDROOT
BRANCH   9  12
ATOM     12  O   UNL     1     -17.735  32.434  -3.543  1.00  0.00    -0.504 OA
ATOM     13  H   UNL     1     -17.061  31.706  -3.334  1.00  0.00     0.293 HD
ENDBRANCH   9  12
BRANCH   8  14
ATOM     14  O   UNL     1     -19.537  33.976  -4.994  1.00  0.00    -0.504 OA
ATOM     15  H   UNL     1     -18.926  33.737  -5.767  1.00  0.00     0.293 HD
ENDBRANCH   8  14
TORSDOF 2
ENDMDL
MODEL 9
REMARK VINA RESULT:    -4.748      2.646      5.117
REMARK INTER + INTRA:          -5.026
REMARK INTER:                  -5.026
REMARK INTRA:                   0.000
REMARK UNBOUND:                 0.000
REMARK SMILES O=c1ccc2cc(O)c(O)cc2o1
REMARK SMILES IDX 4 1 3 2 2 3 1 4 13 5 12 6 11 7 9 8 7 9 6 10 5 11 8 12 10 14
REMARK H PARENT 8 13 10 15
REMARK Flexibility Score: inf
ROOT
ATOM      1  C   UNL     1     -18.525  30.735  -1.618  1.00  0.00     0.019 A 
ATOM      2  C   UNL     1     -19.689  30.337  -0.962  1.00  0.00     0.094 A 
ATOM      3  C   UNL     1     -20.921  30.513  -1.601  1.00  0.00     0.336 A 
ATOM      4  O   UNL     1     -21.983  30.160  -1.025  1.00  0.00    -0.246 OA
ATOM      5  O   UNL     1     -20.979  31.051  -2.817  1.00  0.00    -0.423 OA
ATOM      6  C   UNL     1     -19.893  31.444  -3.477  1.00  0.00     0.142 A 
ATOM      7  C   UNL     1     -20.014  32.005  -4.753  1.00  0.00     0.098 A 
ATOM      8  C   UNL     1     -18.872  32.421  -5.454  1.00  0.00     0.161 A 
ATOM      9  C   UNL     1     -17.603  32.275  -4.875  1.00  0.00     0.158 A 
ATOM     10  C   UNL     1     -17.474  31.714  -3.596  1.00  0.00     0.062 A 
ATOM     11  C   UNL     1     -18.614  31.298  -2.895  1.00  0.00     0.022 A 
ENDROOT
BRANCH   9  12
ATOM     12  O   UNL     1     -16.474  32.691  -5.579  1.00  0.00    -0.504 OA
ATOM     13  H   UNL     1     -16.121  33.638  -5.504  1.00  0.00     0.293 HD
ENDBRANCH   9  12
BRANCH   8  14
ATOM     14  O   UNL     1     -18.991  32.979  -6.725  1.00  0.00    -0.504 OA
ATOM     15  H   UNL     1     -19.890  33.265  -7.096  1.00  0.00     0.293 HD
ENDBRANCH   8  14
TORSDOF 2
ENDMDL
