MODEL 1
REMARK VINA RESULT:    -1.593      0.000      0.000
REMARK INTER + INTRA:          -1.811
REMARK INTER:                  -1.779
REMARK INTRA:                  -0.032
REMARK UNBOUND:                -0.032
REMARK SMILES CCCC(=O)[O-]
REMARK SMILES IDX 3 1 4 2 5 3 6 4 2 5 1 6
REMARK H PARENT
REMARK Flexibility Score: inf
ROOT
ATOM      1  C   UNL     1      24.497  27.964  13.854  1.00  0.00     0.052 C 
ENDROOT
BRANCH   1   2
ATOM      2  C   UNL     1      25.040  28.099  15.245  1.00  0.00     0.041 C 
ATOM      3  O   UNL     1      24.572  28.968  16.026  1.00  0.00    -0.550 OA
ATOM      4  O   UNL     1      26.039  27.241  15.687  1.00  0.00    -0.550 OA
ENDBRANCH   1   2
BRANCH   1   5
ATOM      5  C   UNL     1      25.246  28.864  12.862  1.00  0.00     0.003 C 
ATOM      6  C   UNL     1      24.372  30.001  12.334  1.00  0.00     0.004 C 
ENDBRANCH   1   5
TORSDOF 2
ENDMDL
MODEL 2
REMARK VINA RESULT:    -1.593      2.161      3.383
REMARK INTER + INTRA:          -1.811
REMARK INTER:                  -1.776
REMARK INTRA:                  -0.034
REMARK UNBOUND:                -0.032
REMARK SMILES CCCC(=O)[O-]
REMARK SMILES IDX 3 1 4 2 5 3 6 4 2 5 1 6
REMARK H PARENT
REMARK Flexibility Score: inf
ROOT
ATOM      1  C   UNL     1      23.889  28.451  14.064  1.00  0.00     0.052 C 
ENDROOT
BRANCH   1   2
ATOM      2  C   UNL     1      24.853  29.071  13.099  1.00  0.00     0.041 C 
ATOM      3  O   UNL     1      26.024  28.618  12.995  1.00  0.00    -0.550 OA
ATOM      4  O   UNL     1      24.448  30.125  12.291  1.00  0.00    -0.550 OA
ENDBRANCH   1   2
BRANCH   1   5
ATOM      5  C   UNL     1      24.151  28.911  15.504  1.00  0.00     0.003 C 
ATOM      6  C   UNL     1      24.986  27.904  16.294  1.00  0.00     0.004 C 
ENDBRANCH   1   5
TORSDOF 2
ENDMDL
MODEL 3
REMARK VINA RESULT:    -1.580      2.302      3.137
REMARK INTER + INTRA:          -1.796
REMARK INTER:                  -1.751
REMARK INTRA:                  -0.045
REMARK UNBOUND:                -0.032
REMARK SMILES CCCC(=O)[O-]
REMARK SMILES IDX 3 1 4 2 5 3 6 4 2 5 1 6
REMARK H PARENT
REMARK Flexibility Score: inf
ROOT
ATOM      1  C   UNL     1      24.054  28.591  14.198  1.00  0.00     0.052 C 
ENDROOT
BRANCH   1   2
ATOM      2  C   UNL     1      24.939  29.126  13.113  1.00  0.00     0.041 C 
ATOM      3  O   UNL     1      26.093  28.652  12.946  1.00  0.00    -0.550 OA
ATOM      4  O   UNL     1      24.475  30.124  12.266  1.00  0.00    -0.550 OA
ENDBRANCH   1   2
BRANCH   1   5
ATOM      5  C   UNL     1      23.761  27.097  14.008  1.00  0.00     0.003 C 
ATOM      6  C   UNL     1      23.229  26.783  12.610  1.00  0.00     0.004 C 
ENDBRANCH   1   5
TORSDOF 2
ENDMDL
MODEL 4
REMARK VINA RESULT:    -1.559     27.332     27.915
REMARK INTER + INTRA:          -1.773
REMARK INTER:                  -1.749
REMARK INTRA:                  -0.024
REMARK UNBOUND:                -0.032
REMARK SMILES CCCC(=O)[O-]
REMARK SMILES IDX 3 1 4 2 5 3 6 4 2 5 1 6
REMARK H PARENT
REMARK Flexibility Score: inf
ROOT
ATOM      1  C   UNL     1       7.313  12.025  27.552  1.00  0.00     0.052 C 
ENDROOT
BRANCH   1   2
ATOM      2  C   UNL     1       7.519  10.597  27.147  1.00  0.00     0.041 C 
ATOM      3  O   UNL     1       6.639   9.996  26.477  1.00  0.00    -0.550 OA
ATOM      4  O   UNL     1       8.697   9.942  27.482  1.00  0.00    -0.550 OA
ENDBRANCH   1   2
BRANCH   1   5
ATOM      5  C   UNL     1       5.891  12.507  27.236  1.00  0.00     0.003 C 
ATOM      6  C   UNL     1       5.875  13.894  26.596  1.00  0.00     0.004 C 
ENDBRANCH   1   5
TORSDOF 2
ENDMDL
MODEL 5
REMARK VINA RESULT:    -1.505     27.303     27.880
REMARK INTER + INTRA:          -1.713
REMARK INTER:                  -1.641
REMARK INTRA:                  -0.072
REMARK UNBOUND:                -0.032
REMARK SMILES CCCC(=O)[O-]
REMARK SMILES IDX 3 1 4 2 5 3 6 4 2 5 1 6
REMARK H PARENT
REMARK Flexibility Score: inf
ROOT
ATOM      1  C   UNL     1       6.884  10.161  26.631  1.00  0.00     0.052 C 
ENDROOT
BRANCH   1   2
ATOM      2  C   UNL     1       7.067  10.505  25.184  1.00  0.00     0.041 C 
ATOM      3  O   UNL     1       8.192  10.880  24.760  1.00  0.00    -0.550 OA
ATOM      4  O   UNL     1       6.004  10.379  24.299  1.00  0.00    -0.550 OA
ENDBRANCH   1   2
BRANCH   1   5
ATOM      5  C   UNL     1       7.069  11.387  27.535  1.00  0.00     0.003 C 
ATOM      6  C   UNL     1       6.111  12.522  27.177  1.00  0.00     0.004 C 
ENDBRANCH   1   5
TORSDOF 2
ENDMDL
MODEL 6
REMARK VINA RESULT:    -1.501     26.554     27.325
REMARK INTER + INTRA:          -1.708
REMARK INTER:                  -1.679
REMARK INTRA:                  -0.029
REMARK UNBOUND:                -0.032
REMARK SMILES CCCC(=O)[O-]
REMARK SMILES IDX 3 1 4 2 5 3 6 4 2 5 1 6
REMARK H PARENT
REMARK Flexibility Score: inf
ROOT
ATOM      1  C   UNL     1       6.210  12.446  27.221  1.00  0.00     0.052 C 
ENDROOT
BRANCH   1   2
ATOM      2  C   UNL     1       7.001  13.718  27.168  1.00  0.00     0.041 C 
ATOM      3  O   UNL     1       8.259  13.680  27.129  1.00  0.00    -0.550 OA
ATOM      4  O   UNL     1       6.347  14.942  27.126  1.00  0.00    -0.550 OA
ENDBRANCH   1   2
BRANCH   1   5
ATOM      5  C   UNL     1       7.100  11.236  27.538  1.00  0.00     0.003 C 
ATOM      6  C   UNL     1       6.904  10.093  26.543  1.00  0.00     0.004 C 
ENDBRANCH   1   5
TORSDOF 2
ENDMDL
MODEL 7
REMARK VINA RESULT:    -1.476      1.621      2.439
REMARK INTER + INTRA:          -1.680
REMARK INTER:                  -1.626
REMARK INTRA:                  -0.054
REMARK UNBOUND:                -0.032
REMARK SMILES CCCC(=O)[O-]
REMARK SMILES IDX 3 1 4 2 5 3 6 4 2 5 1 6
REMARK H PARENT
REMARK Flexibility Score: inf
ROOT
ATOM      1  C   UNL     1      24.698  29.366  12.781  1.00  0.00     0.052 C 
ENDROOT
BRANCH   1   2
ATOM      2  C   UNL     1      24.335  29.261  14.231  1.00  0.00     0.041 C 
ATOM      3  O   UNL     1      24.937  28.444  14.977  1.00  0.00    -0.550 OA
ATOM      4  O   UNL     1      23.356  30.089  14.765  1.00  0.00    -0.550 OA
ENDBRANCH   1   2
BRANCH   1   5
ATOM      5  C   UNL     1      23.587  28.817  11.876  1.00  0.00     0.003 C 
ATOM      6  C   UNL     1      23.538  27.290  11.875  1.00  0.00     0.004 C 
ENDBRANCH   1   5
TORSDOF 2
ENDMDL
MODEL 8
REMARK VINA RESULT:    -1.449     27.359     27.728
REMARK INTER + INTRA:          -1.650
REMARK INTER:                  -1.624
REMARK INTRA:                  -0.027
REMARK UNBOUND:                -0.032
REMARK SMILES CCCC(=O)[O-]
REMARK SMILES IDX 3 1 4 2 5 3 6 4 2 5 1 6
REMARK H PARENT
REMARK Flexibility Score: inf
ROOT
ATOM      1  C   UNL     1       7.375  11.002  28.001  1.00  0.00     0.052 C 
ENDROOT
BRANCH   1   2
ATOM      2  C   UNL     1       8.795  10.615  27.721  1.00  0.00     0.041 C 
ATOM      3  O   UNL     1       9.267  10.734  26.559  1.00  0.00    -0.550 OA
ATOM      4  O   UNL     1       9.606  10.155  28.750  1.00  0.00    -0.550 OA
ENDBRANCH   1   2
BRANCH   1   5
ATOM      5  C   UNL     1       6.622  11.370  26.715  1.00  0.00     0.003 C 
ATOM      6  C   UNL     1       5.875  12.697  26.838  1.00  0.00     0.004 C 
ENDBRANCH   1   5
TORSDOF 2
ENDMDL
