MODEL 1
REMARK VINA RESULT:     4.224      0.000      0.000
REMARK INTER + INTRA:           5.927
REMARK INTER:                   6.447
REMARK INTRA:                  -0.521
REMARK UNBOUND:                -0.521
REMARK SMILES CCCCCCCCCCC(=O)[O-]
REMARK SMILES IDX 7 1 8 2 9 3 10 4 11 5 12 6 13 7 6 8 5 9 4 10 3 11 2 12 1 13
REMARK H PARENT
REMARK Flexibility Score: inf
ROOT
ATOM      1  C   UNL     1     -13.111  18.961 -10.466  1.00  0.00     0.000 C 
ENDROOT
BRANCH   1   2
ATOM      2  C   UNL     1     -13.084  18.475 -11.924  1.00  0.00     0.000 C 
BRANCH   2   3
ATOM      3  C   UNL     1     -13.020  19.636 -12.932  1.00  0.00     0.006 C 
BRANCH   3   4
ATOM      4  C   UNL     1     -11.619  19.798 -13.539  1.00  0.00     0.053 C 
BRANCH   4   5
ATOM      5  C   UNL     1     -11.559  19.289 -14.947  1.00  0.00     0.041 C 
ATOM      6  O   UNL     1     -12.350  18.386 -15.328  1.00  0.00    -0.550 OA
ATOM      7  O   UNL     1     -10.650  19.832 -15.845  1.00  0.00    -0.550 OA
ENDBRANCH   4   5
ENDBRANCH   3   4
ENDBRANCH   2   3
ENDBRANCH   1   2
BRANCH   1   8
ATOM      8  C   UNL     1     -12.486  17.951  -9.492  1.00  0.00     0.000 C 
BRANCH   8   9
ATOM      9  C   UNL     1     -13.023  18.153  -8.071  1.00  0.00    -0.000 C 
BRANCH   9  10
ATOM     10  C   UNL     1     -13.645  19.548  -7.907  1.00  0.00    -0.000 C 
BRANCH  10  11
ATOM     11  C   UNL     1     -13.058  20.313  -6.703  1.00  0.00    -0.000 C 
BRANCH  11  12
ATOM     12  C   UNL     1     -11.961  21.320  -7.089  1.00  0.00    -0.003 C 
ATOM     13  C   UNL     1     -11.903  21.597  -8.590  1.00  0.00     0.004 C 
ENDBRANCH  11  12
ENDBRANCH  10  11
ENDBRANCH   9  10
ENDBRANCH   8   9
ENDBRANCH   1   8
TORSDOF 9
ENDMDL
MODEL 2
REMARK VINA RESULT:     4.905      3.547      6.594
REMARK INTER + INTRA:           6.965
REMARK INTER:                   7.334
REMARK INTRA:                  -0.369
REMARK UNBOUND:                -0.521
REMARK SMILES CCCCCCCCCCC(=O)[O-]
REMARK SMILES IDX 7 1 8 2 9 3 10 4 11 5 12 6 13 7 6 8 5 9 4 10 3 11 2 12 1 13
REMARK H PARENT
REMARK Flexibility Score: inf
ROOT
ATOM      1  C   UNL     1     -12.771  17.876 -10.811  1.00  0.00     0.000 C 
ENDROOT
BRANCH   1   2
ATOM      2  C   UNL     1     -12.780  18.064  -9.286  1.00  0.00     0.000 C 
BRANCH   2   3
ATOM      3  C   UNL     1     -13.455  19.379  -8.856  1.00  0.00     0.006 C 
BRANCH   3   4
ATOM      4  C   UNL     1     -13.124  19.752  -7.405  1.00  0.00     0.053 C 
BRANCH   4   5
ATOM      5  C   UNL     1     -12.327  21.019  -7.323  1.00  0.00     0.041 C 
ATOM      6  O   UNL     1     -12.341  21.707  -6.268  1.00  0.00    -0.550 OA
ATOM      7  O   UNL     1     -11.550  21.423  -8.399  1.00  0.00    -0.550 OA
ENDBRANCH   4   5
ENDBRANCH   3   4
ENDBRANCH   2   3
ENDBRANCH   1   2
BRANCH   1   8
ATOM      8  C   UNL     1     -13.118  19.165 -11.570  1.00  0.00     0.000 C 
BRANCH   8   9
ATOM      9  C   UNL     1     -13.024  18.953 -13.085  1.00  0.00    -0.000 C 
BRANCH   9  10
ATOM     10  C   UNL     1     -11.993  19.902 -13.714  1.00  0.00    -0.000 C 
BRANCH  10  11
ATOM     11  C   UNL     1     -10.899  19.145 -14.494  1.00  0.00    -0.000 C 
BRANCH  11  12
ATOM     12  C   UNL     1     -10.983  19.338 -16.018  1.00  0.00    -0.003 C 
ATOM     13  C   UNL     1     -10.256  20.591 -16.503  1.00  0.00     0.004 C 
ENDBRANCH  11  12
ENDBRANCH  10  11
ENDBRANCH   9  10
ENDBRANCH   8   9
ENDBRANCH   1   8
TORSDOF 9
ENDMDL
MODEL 3
REMARK VINA RESULT:     4.994      3.487      6.141
REMARK INTER + INTRA:           7.101
REMARK INTER:                   6.945
REMARK INTRA:                   0.156
REMARK UNBOUND:                -0.521
REMARK SMILES CCCCCCCCCCC(=O)[O-]
REMARK SMILES IDX 7 1 8 2 9 3 10 4 11 5 12 6 13 7 6 8 5 9 4 10 3 11 2 12 1 13
REMARK H PARENT
REMARK Flexibility Score: inf
ROOT
ATOM      1  C   UNL     1     -12.302  17.863  -9.388  1.00  0.00     0.000 C 
ENDROOT
BRANCH   1   2
ATOM      2  C   UNL     1     -13.245  17.913  -8.175  1.00  0.00     0.000 C 
BRANCH   2   3
ATOM      3  C   UNL     1     -13.661  19.349  -7.808  1.00  0.00     0.006 C 
BRANCH   3   4
ATOM      4  C   UNL     1     -12.852  20.400  -8.580  1.00  0.00     0.053 C 
BRANCH   4   5
ATOM      5  C   UNL     1     -11.994  21.223  -7.669  1.00  0.00     0.041 C 
ATOM      6  O   UNL     1     -12.379  21.479  -6.497  1.00  0.00    -0.550 OA
ATOM      7  O   UNL     1     -10.758  21.683  -8.103  1.00  0.00    -0.550 OA
ENDBRANCH   4   5
ENDBRANCH   3   4
ENDBRANCH   2   3
ENDBRANCH   1   2
BRANCH   1   8
ATOM      8  C   UNL     1     -13.057  17.817 -10.724  1.00  0.00     0.000 C 
BRANCH   8   9
ATOM      9  C   UNL     1     -13.051  19.190 -11.405  1.00  0.00    -0.000 C 
BRANCH   9  10
ATOM     10  C   UNL     1     -13.117  19.050 -12.934  1.00  0.00    -0.000 C 
BRANCH  10  11
ATOM     11  C   UNL     1     -11.960  19.786 -13.640  1.00  0.00    -0.000 C 
BRANCH  11  12
ATOM     12  C   UNL     1     -11.312  18.971 -14.772  1.00  0.00    -0.003 C 
ATOM     13  C   UNL     1     -10.674  19.846 -15.850  1.00  0.00     0.004 C 
ENDBRANCH  11  12
ENDBRANCH  10  11
ENDBRANCH   9  10
ENDBRANCH   8   9
ENDBRANCH   1   8
TORSDOF 9
ENDMDL
