MODEL 1
REMARK VINA RESULT:    -4.459      0.000      0.000
REMARK INTER + INTRA:         -10.194
REMARK INTER:                  -8.108
REMARK INTRA:                  -2.086
REMARK UNBOUND:                -2.086
REMARK SMILES CCCCCCCCCCCCCCCC(=O)[O-]
REMARK SMILES IDX 9 1 10 2 11 3 12 4 13 5 14 6 15 7 16 8 17 9 18 10 8 11 7 12
REMARK SMILES IDX 6 13 5 14 4 15 3 16 2 17 1 18
REMARK H PARENT
REMARK Flexibility Score: inf
ROOT
ATOM      1  C   UNL     1      -4.613   7.706  23.392  1.00  0.00     0.000 C 
ENDROOT
BRANCH   1   2
ATOM      2  C   UNL     1      -4.210   7.316  24.826  1.00  0.00     0.000 C 
BRANCH   2   3
ATOM      3  C   UNL     1      -4.524   8.420  25.848  1.00  0.00     0.000 C 
BRANCH   3   4
ATOM      4  C   UNL     1      -4.943   7.857  27.215  1.00  0.00     0.000 C 
BRANCH   4   5
ATOM      5  C   UNL     1      -5.685   6.522  27.054  1.00  0.00     0.000 C 
BRANCH   5   6
ATOM      6  C   UNL     1      -6.208   5.965  28.392  1.00  0.00     0.006 C 
BRANCH   6   7
ATOM      7  C   UNL     1      -6.539   7.039  29.441  1.00  0.00     0.053 C 
BRANCH   7   8
ATOM      8  C   UNL     1      -5.859   6.776  30.749  1.00  0.00     0.041 C 
ATOM      9  O   UNL     1      -5.672   7.716  31.566  1.00  0.00    -0.550 OA
ATOM     10  O   UNL     1      -5.461   5.486  31.080  1.00  0.00    -0.550 OA
ENDBRANCH   7   8
ENDBRANCH   6   7
ENDBRANCH   5   6
ENDBRANCH   4   5
ENDBRANCH   3   4
ENDBRANCH   2   3
ENDBRANCH   1   2
BRANCH   1  11
ATOM     11  C   UNL     1      -3.884   8.963  22.892  1.00  0.00     0.000 C 
BRANCH  11  12
ATOM     12  C   UNL     1      -4.838   9.973  22.231  1.00  0.00    -0.000 C 
BRANCH  12  13
ATOM     13  C   UNL     1      -5.338  11.051  23.210  1.00  0.00    -0.000 C 
BRANCH  13  14
ATOM     14  C   UNL     1      -6.719  10.774  23.838  1.00  0.00    -0.000 C 
BRANCH  14  15
ATOM     15  C   UNL     1      -7.575   9.725  23.101  1.00  0.00    -0.000 C 
BRANCH  15  16
ATOM     16  C   UNL     1      -8.319   8.732  24.017  1.00  0.00    -0.000 C 
BRANCH  16  17
ATOM     17  C   UNL     1      -8.083   8.940  25.523  1.00  0.00    -0.003 C 
ATOM     18  C   UNL     1      -9.036   8.120  26.393  1.00  0.00     0.004 C 
ENDBRANCH  16  17
ENDBRANCH  15  16
ENDBRANCH  14  15
ENDBRANCH  13  14
ENDBRANCH  12  13
ENDBRANCH  11  12
ENDBRANCH   1  11
TORSDOF 14
ENDMDL
MODEL 2
REMARK VINA RESULT:    -4.447      1.298      2.296
REMARK INTER + INTRA:         -10.173
REMARK INTER:                  -8.442
REMARK INTRA:                  -1.730
REMARK UNBOUND:                -2.086
REMARK SMILES CCCCCCCCCCCCCCCC(=O)[O-]
REMARK SMILES IDX 9 1 10 2 11 3 12 4 13 5 14 6 15 7 16 8 17 9 18 10 8 11 7 12
REMARK SMILES IDX 6 13 5 14 4 15 3 16 2 17 1 18
REMARK H PARENT
REMARK Flexibility Score: inf
ROOT
ATOM      1  C   UNL     1      -5.688   7.621  23.318  1.00  0.00     0.000 C 
ENDROOT
BRANCH   1   2
ATOM      2  C   UNL     1      -4.377   7.347  24.077  1.00  0.00     0.000 C 
BRANCH   2   3
ATOM      3  C   UNL     1      -4.211   8.246  25.312  1.00  0.00     0.000 C 
BRANCH   3   4
ATOM      4  C   UNL     1      -4.063   7.442  26.612  1.00  0.00     0.000 C 
BRANCH   4   5
ATOM      5  C   UNL     1      -4.235   8.349  27.840  1.00  0.00     0.000 C 
BRANCH   5   6
ATOM      6  C   UNL     1      -4.245   7.564  29.165  1.00  0.00     0.006 C 
BRANCH   6   7
ATOM      7  C   UNL     1      -5.474   7.826  30.049  1.00  0.00     0.053 C 
BRANCH   7   8
ATOM      8  C   UNL     1      -5.631   6.788  31.117  1.00  0.00     0.041 C 
ATOM      9  O   UNL     1      -5.972   5.614  30.815  1.00  0.00    -0.550 OA
ATOM     10  O   UNL     1      -5.367   7.108  32.444  1.00  0.00    -0.550 OA
ENDBRANCH   7   8
ENDBRANCH   6   7
ENDBRANCH   5   6
ENDBRANCH   4   5
ENDBRANCH   3   4
ENDBRANCH   2   3
ENDBRANCH   1   2
BRANCH   1  11
ATOM     11  C   UNL     1      -5.676   8.969  22.579  1.00  0.00     0.000 C 
BRANCH  11  12
ATOM     12  C   UNL     1      -6.741   9.943  23.111  1.00  0.00    -0.000 C 
BRANCH  12  13
ATOM     13  C   UNL     1      -7.938   9.222  23.758  1.00  0.00    -0.000 C 
BRANCH  13  14
ATOM     14  C   UNL     1      -7.990   9.292  25.298  1.00  0.00    -0.000 C 
BRANCH  14  15
ATOM     15  C   UNL     1      -8.578   8.046  25.991  1.00  0.00    -0.000 C 
BRANCH  15  16
ATOM     16  C   UNL     1      -7.572   7.234  26.832  1.00  0.00    -0.000 C 
BRANCH  16  17
ATOM     17  C   UNL     1      -8.199   6.396  27.960  1.00  0.00    -0.003 C 
ATOM     18  C   UNL     1      -9.077   7.223  28.898  1.00  0.00     0.004 C 
ENDBRANCH  16  17
ENDBRANCH  15  16
ENDBRANCH  14  15
ENDBRANCH  13  14
ENDBRANCH  12  13
ENDBRANCH  11  12
ENDBRANCH   1  11
TORSDOF 14
ENDMDL
MODEL 3
REMARK VINA RESULT:    -4.362     15.639     18.134
REMARK INTER + INTRA:         -10.018
REMARK INTER:                  -8.236
REMARK INTRA:                  -1.781
REMARK UNBOUND:                -2.086
REMARK SMILES CCCCCCCCCCCCCCCC(=O)[O-]
REMARK SMILES IDX 9 1 10 2 11 3 12 4 13 5 14 6 15 7 16 8 17 9 18 10 8 11 7 12
REMARK SMILES IDX 6 13 5 14 4 15 3 16 2 17 1 18
REMARK H PARENT
REMARK Flexibility Score: inf
ROOT
ATOM      1  C   UNL     1     -18.859   1.244  27.451  1.00  0.00     0.000 C 
ENDROOT
BRANCH   1   2
ATOM      2  C   UNL     1     -20.391   1.386  27.383  1.00  0.00     0.000 C 
BRANCH   2   3
ATOM      3  C   UNL     1     -21.013   0.529  26.270  1.00  0.00     0.000 C 
BRANCH   3   4
ATOM      4  C   UNL     1     -22.376  -0.058  26.668  1.00  0.00     0.000 C 
BRANCH   4   5
ATOM      5  C   UNL     1     -22.816   0.464  28.044  1.00  0.00     0.000 C 
BRANCH   5   6
ATOM      6  C   UNL     1     -23.813  -0.476  28.748  1.00  0.00     0.006 C 
BRANCH   6   7
ATOM      7  C   UNL     1     -23.258  -1.163  30.005  1.00  0.00     0.053 C 
BRANCH   7   8
ATOM      8  C   UNL     1     -22.989  -2.619  29.779  1.00  0.00     0.041 C 
ATOM      9  O   UNL     1     -23.182  -3.130  28.644  1.00  0.00    -0.550 OA
ATOM     10  O   UNL     1     -22.491  -3.404  30.812  1.00  0.00    -0.550 OA
ENDBRANCH   7   8
ENDBRANCH   6   7
ENDBRANCH   5   6
ENDBRANCH   4   5
ENDBRANCH   3   4
ENDBRANCH   2   3
ENDBRANCH   1   2
BRANCH   1  11
ATOM     11  C   UNL     1     -18.411   0.075  28.343  1.00  0.00     0.000 C 
BRANCH  11  12
ATOM     12  C   UNL     1     -19.431  -0.247  29.449  1.00  0.00    -0.000 C 
BRANCH  12  13
ATOM     13  C   UNL     1     -19.443  -1.737  29.835  1.00  0.00    -0.000 C 
BRANCH  13  14
ATOM     14  C   UNL     1     -18.183  -2.529  29.430  1.00  0.00    -0.000 C 
BRANCH  14  15
ATOM     15  C   UNL     1     -17.172  -2.777  30.567  1.00  0.00    -0.000 C 
BRANCH  15  16
ATOM     16  C   UNL     1     -16.619  -1.501  31.236  1.00  0.00    -0.000 C 
BRANCH  16  17
ATOM     17  C   UNL     1     -17.055  -1.295  32.697  1.00  0.00    -0.003 C 
ATOM     18  C   UNL     1     -17.783  -2.507  33.277  1.00  0.00     0.004 C 
ENDBRANCH  16  17
ENDBRANCH  15  16
ENDBRANCH  14  15
ENDBRANCH  13  14
ENDBRANCH  12  13
ENDBRANCH  11  12
ENDBRANCH   1  11
TORSDOF 14
ENDMDL
MODEL 4
REMARK VINA RESULT:    -4.358      2.182      3.411
REMARK INTER + INTRA:         -10.010
REMARK INTER:                  -8.618
REMARK INTRA:                  -1.392
REMARK UNBOUND:                -2.086
REMARK SMILES CCCCCCCCCCCCCCCC(=O)[O-]
REMARK SMILES IDX 9 1 10 2 11 3 12 4 13 5 14 6 15 7 16 8 17 9 18 10 8 11 7 12
REMARK SMILES IDX 6 13 5 14 4 15 3 16 2 17 1 18
REMARK H PARENT
REMARK Flexibility Score: inf
ROOT
ATOM      1  C   UNL     1      -5.600   6.523  26.649  1.00  0.00     0.000 C 
ENDROOT
BRANCH   1   2
ATOM      2  C   UNL     1      -5.514   7.546  27.797  1.00  0.00     0.000 C 
BRANCH   2   3
ATOM      3  C   UNL     1      -5.941   6.954  29.149  1.00  0.00     0.000 C 
BRANCH   3   4
ATOM      4  C   UNL     1      -4.752   6.426  29.965  1.00  0.00     0.000 C 
BRANCH   4   5
ATOM      5  C   UNL     1      -5.204   5.970  31.361  1.00  0.00     0.000 C 
BRANCH   5   6
ATOM      6  C   UNL     1      -5.003   4.460  31.589  1.00  0.00     0.006 C 
BRANCH   6   7
ATOM      7  C   UNL     1      -3.919   4.114  32.622  1.00  0.00     0.053 C 
BRANCH   7   8
ATOM      8  C   UNL     1      -4.459   4.095  34.019  1.00  0.00     0.041 C 
ATOM      9  O   UNL     1      -4.802   3.007  34.552  1.00  0.00    -0.550 OA
ATOM     10  O   UNL     1      -4.550   5.276  34.746  1.00  0.00    -0.550 OA
ENDBRANCH   7   8
ENDBRANCH   6   7
ENDBRANCH   5   6
ENDBRANCH   4   5
ENDBRANCH   3   4
ENDBRANCH   2   3
ENDBRANCH   1   2
BRANCH   1  11
ATOM     11  C   UNL     1      -4.964   7.037  25.348  1.00  0.00     0.000 C 
BRANCH  11  12
ATOM     12  C   UNL     1      -4.278   8.403  25.527  1.00  0.00    -0.000 C 
BRANCH  12  13
ATOM     13  C   UNL     1      -4.571   9.374  24.369  1.00  0.00    -0.000 C 
BRANCH  13  14
ATOM     14  C   UNL     1      -5.389   8.778  23.205  1.00  0.00    -0.000 C 
BRANCH  14  15
ATOM     15  C   UNL     1      -6.780   9.408  22.993  1.00  0.00    -0.000 C 
BRANCH  15  16
ATOM     16  C   UNL     1      -7.921   8.750  23.796  1.00  0.00    -0.000 C 
BRANCH  16  17
ATOM     17  C   UNL     1      -8.029   9.208  25.262  1.00  0.00    -0.003 C 
ATOM     18  C   UNL     1      -8.879   8.269  26.117  1.00  0.00     0.004 C 
ENDBRANCH  16  17
ENDBRANCH  15  16
ENDBRANCH  14  15
ENDBRANCH  13  14
ENDBRANCH  12  13
ENDBRANCH  11  12
ENDBRANCH   1  11
TORSDOF 14
ENDMDL
MODEL 5
REMARK VINA RESULT:    -4.356      2.217      4.530
REMARK INTER + INTRA:         -10.008
REMARK INTER:                  -8.297
REMARK INTRA:                  -1.711
REMARK UNBOUND:                -2.086
REMARK SMILES CCCCCCCCCCCCCCCC(=O)[O-]
REMARK SMILES IDX 9 1 10 2 11 3 12 4 13 5 14 6 15 7 16 8 17 9 18 10 8 11 7 12
REMARK SMILES IDX 6 13 5 14 4 15 3 16 2 17 1 18
REMARK H PARENT
REMARK Flexibility Score: inf
ROOT
ATOM      1  C   UNL     1      -7.771   6.234  28.106  1.00  0.00     0.000 C 
ENDROOT
BRANCH   1   2
ATOM      2  C   UNL     1      -6.922   5.994  29.368  1.00  0.00     0.000 C 
BRANCH   2   3
ATOM      3  C   UNL     1      -6.685   7.281  30.173  1.00  0.00     0.000 C 
BRANCH   3   4
ATOM      4  C   UNL     1      -5.234   7.415  30.659  1.00  0.00     0.000 C 
BRANCH   4   5
ATOM      5  C   UNL     1      -4.531   6.049  30.669  1.00  0.00     0.000 C 
BRANCH   5   6
ATOM      6  C   UNL     1      -3.917   5.704  32.039  1.00  0.00     0.006 C 
BRANCH   6   7
ATOM      7  C   UNL     1      -4.202   4.272  32.519  1.00  0.00     0.053 C 
BRANCH   7   8
ATOM      8  C   UNL     1      -4.544   4.225  33.976  1.00  0.00     0.041 C 
ATOM      9  O   UNL     1      -4.437   5.259  34.687  1.00  0.00    -0.550 OA
ATOM     10  O   UNL     1      -5.016   3.047  34.543  1.00  0.00    -0.550 OA
ENDBRANCH   7   8
ENDBRANCH   6   7
ENDBRANCH   5   6
ENDBRANCH   4   5
ENDBRANCH   3   4
ENDBRANCH   2   3
ENDBRANCH   1   2
BRANCH   1  11
ATOM     11  C   UNL     1      -6.960   6.847  26.954  1.00  0.00     0.000 C 
BRANCH  11  12
ATOM     12  C   UNL     1      -5.623   6.121  26.722  1.00  0.00    -0.000 C 
BRANCH  12  13
ATOM     13  C   UNL     1      -4.406   7.055  26.850  1.00  0.00    -0.000 C 
BRANCH  13  14
ATOM     14  C   UNL     1      -4.670   8.528  26.478  1.00  0.00    -0.000 C 
BRANCH  14  15
ATOM     15  C   UNL     1      -4.605   8.845  24.971  1.00  0.00    -0.000 C 
BRANCH  15  16
ATOM     16  C   UNL     1      -5.799   9.652  24.423  1.00  0.00    -0.000 C 
BRANCH  16  17
ATOM     17  C   UNL     1      -6.816   8.833  23.609  1.00  0.00    -0.003 C 
ATOM     18  C   UNL     1      -6.190   7.616  22.928  1.00  0.00     0.004 C 
ENDBRANCH  16  17
ENDBRANCH  15  16
ENDBRANCH  14  15
ENDBRANCH  13  14
ENDBRANCH  12  13
ENDBRANCH  11  12
ENDBRANCH   1  11
TORSDOF 14
ENDMDL
MODEL 6
REMARK VINA RESULT:    -4.339     15.403     17.285
REMARK INTER + INTRA:          -9.976
REMARK INTER:                  -8.019
REMARK INTRA:                  -1.957
REMARK UNBOUND:                -2.086
REMARK SMILES CCCCCCCCCCCCCCCC(=O)[O-]
REMARK SMILES IDX 9 1 10 2 11 3 12 4 13 5 14 6 15 7 16 8 17 9 18 10 8 11 7 12
REMARK SMILES IDX 6 13 5 14 4 15 3 16 2 17 1 18
REMARK H PARENT
REMARK Flexibility Score: inf
ROOT
ATOM      1  C   UNL     1     -18.964   0.412  27.113  1.00  0.00     0.000 C 
ENDROOT
BRANCH   1   2
ATOM      2  C   UNL     1     -19.594   1.008  28.385  1.00  0.00     0.000 C 
BRANCH   2   3
ATOM      3  C   UNL     1     -19.437   0.090  29.607  1.00  0.00     0.000 C 
BRANCH   3   4
ATOM      4  C   UNL     1     -18.419  -1.035  29.374  1.00  0.00     0.000 C 
BRANCH   4   5
ATOM      5  C   UNL     1     -19.054  -2.411  29.629  1.00  0.00     0.000 C 
BRANCH   5   6
ATOM      6  C   UNL     1     -18.265  -3.252  30.651  1.00  0.00     0.006 C 
BRANCH   6   7
ATOM      7  C   UNL     1     -16.924  -2.636  31.079  1.00  0.00     0.053 C 
BRANCH   7   8
ATOM      8  C   UNL     1     -16.961  -2.130  32.488  1.00  0.00     0.041 C 
ATOM      9  O   UNL     1     -16.647  -2.889  33.443  1.00  0.00    -0.550 OA
ATOM     10  O   UNL     1     -17.309  -0.810  32.744  1.00  0.00    -0.550 OA
ENDBRANCH   7   8
ENDBRANCH   6   7
ENDBRANCH   5   6
ENDBRANCH   4   5
ENDBRANCH   3   4
ENDBRANCH   2   3
ENDBRANCH   1   2
BRANCH   1  11
ATOM     11  C   UNL     1     -20.006   0.085  26.032  1.00  0.00     0.000 C 
BRANCH  11  12
ATOM     12  C   UNL     1     -21.350   0.793  26.277  1.00  0.00    -0.000 C 
BRANCH  12  13
ATOM     13  C   UNL     1     -22.554  -0.016  25.760  1.00  0.00    -0.000 C 
BRANCH  13  14
ATOM     14  C   UNL     1     -23.675  -0.253  26.792  1.00  0.00    -0.000 C 
BRANCH  14  15
ATOM     15  C   UNL     1     -23.524   0.526  28.114  1.00  0.00    -0.000 C 
BRANCH  15  16
ATOM     16  C   UNL     1     -23.194  -0.340  29.347  1.00  0.00    -0.000 C 
BRANCH  16  17
ATOM     17  C   UNL     1     -22.632  -1.736  29.026  1.00  0.00    -0.003 C 
ATOM     18  C   UNL     1     -22.617  -2.664  30.239  1.00  0.00     0.004 C 
ENDBRANCH  16  17
ENDBRANCH  15  16
ENDBRANCH  14  15
ENDBRANCH  13  14
ENDBRANCH  12  13
ENDBRANCH  11  12
ENDBRANCH   1  11
TORSDOF 14
ENDMDL
MODEL 7
REMARK VINA RESULT:    -4.297      2.849      5.927
REMARK INTER + INTRA:          -9.900
REMARK INTER:                  -7.932
REMARK INTRA:                  -1.968
REMARK UNBOUND:                -2.086
REMARK SMILES CCCCCCCCCCCCCCCC(=O)[O-]
REMARK SMILES IDX 9 1 10 2 11 3 12 4 13 5 14 6 15 7 16 8 17 9 18 10 8 11 7 12
REMARK SMILES IDX 6 13 5 14 4 15 3 16 2 17 1 18
REMARK H PARENT
REMARK Flexibility Score: inf
ROOT
ATOM      1  C   UNL     1      -4.945   7.469  25.465  1.00  0.00     0.000 C 
ENDROOT
BRANCH   1   2
ATOM      2  C   UNL     1      -4.042   8.075  24.375  1.00  0.00     0.000 C 
BRANCH   2   3
ATOM      3  C   UNL     1      -4.722   8.113  22.998  1.00  0.00     0.000 C 
BRANCH   3   4
ATOM      4  C   UNL     1      -4.593   9.481  22.312  1.00  0.00     0.000 C 
BRANCH   4   5
ATOM      5  C   UNL     1      -5.053  10.609  23.247  1.00  0.00     0.000 C 
BRANCH   5   6
ATOM      6  C   UNL     1      -6.585  10.768  23.283  1.00  0.00     0.006 C 
BRANCH   6   7
ATOM      7  C   UNL     1      -7.243  10.280  24.584  1.00  0.00     0.053 C 
BRANCH   7   8
ATOM      8  C   UNL     1      -8.088   9.064  24.365  1.00  0.00     0.041 C 
ATOM      9  O   UNL     1      -8.486   8.383  25.347  1.00  0.00    -0.550 OA
ATOM     10  O   UNL     1      -8.466   8.701  23.078  1.00  0.00    -0.550 OA
ENDBRANCH   7   8
ENDBRANCH   6   7
ENDBRANCH   5   6
ENDBRANCH   4   5
ENDBRANCH   3   4
ENDBRANCH   2   3
ENDBRANCH   1   2
BRANCH   1  11
ATOM     11  C   UNL     1      -4.947   8.296  26.760  1.00  0.00     0.000 C 
BRANCH  11  12
ATOM     12  C   UNL     1      -3.878   7.825  27.761  1.00  0.00    -0.000 C 
BRANCH  12  13
ATOM     13  C   UNL     1      -4.066   8.429  29.165  1.00  0.00    -0.000 C 
BRANCH  13  14
ATOM     14  C   UNL     1      -4.182   7.401  30.309  1.00  0.00    -0.000 C 
BRANCH  14  15
ATOM     15  C   UNL     1      -5.322   6.374  30.154  1.00  0.00    -0.000 C 
BRANCH  15  16
ATOM     16  C   UNL     1      -6.729   6.983  29.987  1.00  0.00    -0.000 C 
BRANCH  16  17
ATOM     17  C   UNL     1      -7.478   6.546  28.716  1.00  0.00    -0.003 C 
ATOM     18  C   UNL     1      -6.832   5.342  28.030  1.00  0.00     0.004 C 
ENDBRANCH  16  17
ENDBRANCH  15  16
ENDBRANCH  14  15
ENDBRANCH  13  14
ENDBRANCH  12  13
ENDBRANCH  11  12
ENDBRANCH   1  11
TORSDOF 14
ENDMDL
MODEL 8
REMARK VINA RESULT:    -4.263      1.754      2.696
REMARK INTER + INTRA:          -9.839
REMARK INTER:                  -8.020
REMARK INTRA:                  -1.819
REMARK UNBOUND:                -2.086
REMARK SMILES CCCCCCCCCCCCCCCC(=O)[O-]
REMARK SMILES IDX 9 1 10 2 11 3 12 4 13 5 14 6 15 7 16 8 17 9 18 10 8 11 7 12
REMARK SMILES IDX 6 13 5 14 4 15 3 16 2 17 1 18
REMARK H PARENT
REMARK Flexibility Score: inf
ROOT
ATOM      1  C   UNL     1      -4.392   8.301  26.126  1.00  0.00     0.000 C 
ENDROOT
BRANCH   1   2
ATOM      2  C   UNL     1      -4.058   7.715  27.510  1.00  0.00     0.000 C 
BRANCH   2   3
ATOM      3  C   UNL     1      -4.112   8.770  28.626  1.00  0.00     0.000 C 
BRANCH   3   4
ATOM      4  C   UNL     1      -4.635   8.200  29.953  1.00  0.00     0.000 C 
BRANCH   4   5
ATOM      5  C   UNL     1      -4.588   6.664  29.947  1.00  0.00     0.000 C 
BRANCH   5   6
ATOM      6  C   UNL     1      -5.970   6.023  30.169  1.00  0.00     0.006 C 
BRANCH   6   7
ATOM      7  C   UNL     1      -7.157   6.952  29.866  1.00  0.00     0.053 C 
BRANCH   7   8
ATOM      8  C   UNL     1      -7.835   6.597  28.579  1.00  0.00     0.041 C 
ATOM      9  O   UNL     1      -9.031   6.937  28.378  1.00  0.00    -0.550 OA
ATOM     10  O   UNL     1      -7.136   5.920  27.587  1.00  0.00    -0.550 OA
ENDBRANCH   7   8
ENDBRANCH   6   7
ENDBRANCH   5   6
ENDBRANCH   4   5
ENDBRANCH   3   4
ENDBRANCH   2   3
ENDBRANCH   1   2
BRANCH   1  11
ATOM     11  C   UNL     1      -4.873   7.233  25.130  1.00  0.00     0.000 C 
BRANCH  11  12
ATOM     12  C   UNL     1      -4.498   7.572  23.676  1.00  0.00    -0.000 C 
BRANCH  12  13
ATOM     13  C   UNL     1      -4.271   9.079  23.454  1.00  0.00    -0.000 C 
BRANCH  13  14
ATOM     14  C   UNL     1      -5.091   9.702  22.307  1.00  0.00    -0.000 C 
BRANCH  14  15
ATOM     15  C   UNL     1      -6.161  10.722  22.746  1.00  0.00    -0.000 C 
BRANCH  15  16
ATOM     16  C   UNL     1      -6.902  10.367  24.051  1.00  0.00    -0.000 C 
BRANCH  16  17
ATOM     17  C   UNL     1      -7.882   9.186  23.939  1.00  0.00    -0.003 C 
ATOM     18  C   UNL     1      -8.341   8.663  25.300  1.00  0.00     0.004 C 
ENDBRANCH  16  17
ENDBRANCH  15  16
ENDBRANCH  14  15
ENDBRANCH  13  14
ENDBRANCH  12  13
ENDBRANCH  11  12
ENDBRANCH   1  11
TORSDOF 14
ENDMDL
MODEL 9
REMARK VINA RESULT:    -4.228     15.302     17.688
REMARK INTER + INTRA:          -9.774
REMARK INTER:                  -7.763
REMARK INTRA:                  -2.011
REMARK UNBOUND:                -2.086
REMARK SMILES CCCCCCCCCCCCCCCC(=O)[O-]
REMARK SMILES IDX 9 1 10 2 11 3 12 4 13 5 14 6 15 7 16 8 17 9 18 10 8 11 7 12
REMARK SMILES IDX 6 13 5 14 4 15 3 16 2 17 1 18
REMARK H PARENT
REMARK Flexibility Score: inf
ROOT
ATOM      1  C   UNL     1     -20.971   0.873  26.474  1.00  0.00     0.000 C 
ENDROOT
BRANCH   1   2
ATOM      2  C   UNL     1     -19.626   0.128  26.387  1.00  0.00     0.000 C 
BRANCH   2   3
ATOM      3  C   UNL     1     -18.772   0.305  27.652  1.00  0.00     0.000 C 
BRANCH   3   4
ATOM      4  C   UNL     1     -19.607   0.697  28.879  1.00  0.00     0.000 C 
BRANCH   4   5
ATOM      5  C   UNL     1     -19.322  -0.243  30.061  1.00  0.00     0.000 C 
BRANCH   5   6
ATOM      6  C   UNL     1     -18.182  -1.236  29.771  1.00  0.00     0.006 C 
BRANCH   6   7
ATOM      7  C   UNL     1     -17.998  -2.321  30.844  1.00  0.00     0.053 C 
BRANCH   7   8
ATOM      8  C   UNL     1     -17.341  -1.787  32.079  1.00  0.00     0.041 C 
ATOM      9  O   UNL     1     -17.771  -2.112  33.217  1.00  0.00    -0.550 OA
ATOM     10  O   UNL     1     -16.232  -0.956  31.974  1.00  0.00    -0.550 OA
ENDBRANCH   7   8
ENDBRANCH   6   7
ENDBRANCH   5   6
ENDBRANCH   4   5
ENDBRANCH   3   4
ENDBRANCH   2   3
ENDBRANCH   1   2
BRANCH   1  11
ATOM     11  C   UNL     1     -22.090   0.170  25.690  1.00  0.00     0.000 C 
BRANCH  11  12
ATOM     12  C   UNL     1     -23.308  -0.161  26.570  1.00  0.00    -0.000 C 
BRANCH  12  13
ATOM     13  C   UNL     1     -23.238   0.501  27.958  1.00  0.00    -0.000 C 
BRANCH  13  14
ATOM     14  C   UNL     1     -23.187  -0.478  29.149  1.00  0.00    -0.000 C 
BRANCH  14  15
ATOM     15  C   UNL     1     -22.435  -1.797  28.880  1.00  0.00    -0.000 C 
BRANCH  15  16
ATOM     16  C   UNL     1     -22.118  -2.634  30.136  1.00  0.00    -0.000 C 
BRANCH  16  17
ATOM     17  C   UNL     1     -21.762  -4.106  29.862  1.00  0.00    -0.003 C 
ATOM     18  C   UNL     1     -20.876  -4.715  30.947  1.00  0.00     0.004 C 
ENDBRANCH  16  17
ENDBRANCH  15  16
ENDBRANCH  14  15
ENDBRANCH  13  14
ENDBRANCH  12  13
ENDBRANCH  11  12
ENDBRANCH   1  11
TORSDOF 14
ENDMDL
