MODEL 1
REMARK VINA RESULT:     6.447      0.000      0.000
REMARK INTER + INTRA:          15.332
REMARK INTER:                  11.159
REMARK INTRA:                   4.173
REMARK UNBOUND:                 4.173
REMARK SMILES OC[C@@H]1O[C@@H](O)[C@H](O)[C@@H](O)[C@H]1O[C@@H]1O[C@H](CO)[C@@H](O[C@H]2O[C@H](CO)[C@H](O)[C@H](O)[C@@H]2O)[C@@H](O)[C@H]1O
REMARK SMILES IDX 18 1 15 2 14 3 13 4 33 5 31 6 19 7 20 8 22 9 25 10 21 11
REMARK SMILES IDX 27 12 29 13 23 14 24 15 26 17 28 19 30 21 16 23 17 24 32 26
REMARK SMILES IDX 34 28 12 30 11 31 3 32 9 33 4 34 7 35 5 36 2 37 1 38 10 40
REMARK SMILES IDX 8 42 6 44
REMARK H PARENT 24 16 26 18 28 20 30 22 17 25 32 27 34 29 1 39 10 41 8 43 6 45
REMARK Flexibility Score: inf
ROOT
ATOM      1  C   UNL     1       6.283  -7.069  10.215  1.00  0.00     0.184 C 
ATOM      2  C   UNL     1       6.682  -6.460   8.822  1.00  0.00     0.178 C 
ATOM      3  O   UNL     1       6.463  -7.409   7.875  1.00  0.00    -0.341 OA
ATOM      4  C   UNL     1       7.501  -8.407   8.102  1.00  0.00     0.282 C 
ATOM      5  C   UNL     1       6.708  -9.428   8.956  1.00  0.00     0.202 C 
ATOM      6  C   UNL     1       6.141  -8.694  10.296  1.00  0.00     0.180 C 
ENDROOT
BRANCH   1   7
ATOM      7  O   UNL     1       5.273  -6.244  10.747  1.00  0.00    -0.341 OA
BRANCH   7   8
ATOM      8  C   UNL     1       4.107  -6.066   9.951  1.00  0.00     0.282 C 
ATOM      9  C   UNL     1       3.675  -4.323  11.397  1.00  0.00     0.178 C 
ATOM     10  C   UNL     1       4.059  -3.253  10.323  1.00  0.00     0.177 C 
ATOM     11  O   UNL     1       3.074  -5.510  10.773  1.00  0.00    -0.341 OA
ATOM     12  C   UNL     1       4.879  -3.840   9.115  1.00  0.00     0.179 C 
ATOM     13  C   UNL     1       4.234  -5.182   8.760  1.00  0.00     0.202 C 
BRANCH   9  14
ATOM     14  C   UNL     1       2.909  -3.943  12.737  1.00  0.00     0.191 C 
BRANCH  14  15
ATOM     15  O   UNL     1       3.560  -3.003  13.523  1.00  0.00    -0.394 OA
ATOM     16  H   UNL     1       4.319  -2.611  12.973  1.00  0.00     0.210 HD
ENDBRANCH  14  15
ENDBRANCH   9  14
BRANCH  10  17
ATOM     17  O   UNL     1       2.880  -2.542   9.956  1.00  0.00    -0.387 OA
ATOM     18  H   UNL     1       2.366  -3.152   9.317  1.00  0.00     0.211 HD
ENDBRANCH  10  17
BRANCH  12  19
ATOM     19  O   UNL     1       5.068  -3.065   7.881  1.00  0.00    -0.387 OA
ATOM     20  H   UNL     1       5.609  -3.664   7.264  1.00  0.00     0.211 HD
ENDBRANCH  12  19
BRANCH  13  21
ATOM     21  O   UNL     1       2.943  -5.072   8.243  1.00  0.00    -0.385 OA
ATOM     22  H   UNL     1       3.015  -4.544   7.375  1.00  0.00     0.211 HD
ENDBRANCH  13  21
ENDBRANCH   7   8
ENDBRANCH   1   7
BRANCH   2  23
ATOM     23  C   UNL     1       7.825  -5.502   8.350  1.00  0.00     0.191 C 
BRANCH  23  24
ATOM     24  O   UNL     1       8.953  -6.165   7.892  1.00  0.00    -0.394 OA
ATOM     25  H   UNL     1       9.667  -5.908   8.523  1.00  0.00     0.210 HD
ENDBRANCH  23  24
ENDBRANCH   2  23
BRANCH   6  26
ATOM     26  O   UNL     1       4.871  -9.171  10.806  1.00  0.00    -0.387 OA
ATOM     27  H   UNL     1       4.778 -10.103  10.509  1.00  0.00     0.211 HD
ENDBRANCH   6  26
BRANCH   5  28
ATOM     28  O   UNL     1       5.758 -10.125   8.155  1.00  0.00    -0.385 OA
ATOM     29  H   UNL     1       5.954  -9.847   7.201  1.00  0.00     0.211 HD
ENDBRANCH   5  28
BRANCH   4  30
ATOM     30  O   UNL     1       8.657  -8.020   8.871  1.00  0.00    -0.341 OA
BRANCH  30  31
ATOM     31  C   UNL     1       8.997  -8.739  10.099  1.00  0.00     0.184 C 
ATOM     32  C   UNL     1      10.448  -9.316  10.156  1.00  0.00     0.178 C 
ATOM     33  C   UNL     1       8.610  -8.058  11.395  1.00  0.00     0.180 C 
ATOM     34  O   UNL     1      10.663 -10.125  11.340  1.00  0.00    -0.342 OA
ATOM     35  C   UNL     1       8.881  -8.941  12.661  1.00  0.00     0.201 C 
ATOM     36  C   UNL     1      10.368  -9.406  12.577  1.00  0.00     0.279 C 
BRANCH  32  37
ATOM     37  C   UNL     1      10.905 -10.109   8.809  1.00  0.00     0.191 C 
BRANCH  37  38
ATOM     38  O   UNL     1      11.950  -9.403   8.001  1.00  0.00    -0.394 OA
ATOM     39  H   UNL     1      12.734  -9.533   8.605  1.00  0.00     0.210 HD
ENDBRANCH  37  38
ENDBRANCH  32  37
BRANCH  33  40
ATOM     40  O   UNL     1       9.257  -6.799  11.558  1.00  0.00    -0.387 OA
ATOM     41  H   UNL     1      10.301  -6.715  11.397  1.00  0.00     0.211 HD
ENDBRANCH  33  40
BRANCH  35  42
ATOM     42  O   UNL     1       7.999 -10.037  12.748  1.00  0.00    -0.385 OA
ATOM     43  H   UNL     1       8.295 -10.566  13.597  1.00  0.00     0.211 HD
ENDBRANCH  35  42
BRANCH  36  44
ATOM     44  O   UNL     1      11.224  -8.314  12.654  1.00  0.00    -0.366 OA
ATOM     45  H   UNL     1      12.173  -8.651  12.609  1.00  0.00     0.213 HD
ENDBRANCH  36  44
ENDBRANCH  30  31
ENDBRANCH   4  30
TORSDOF 18
ENDMDL
