MODEL 1
REMARK VINA RESULT:    -3.346      0.000      0.000
REMARK INTER + INTRA:          -4.027
REMARK INTER:                  -3.933
REMARK INTRA:                  -0.094
REMARK UNBOUND:                -0.094
REMARK SMILES O=C([O-])CCC(=O)[O-]
REMARK SMILES IDX 4 1 2 2 1 3 3 4 5 5 6 6 7 7 8 8
REMARK H PARENT
REMARK Flexibility Score: inf
ROOT
ATOM      1  C   UNL     1      17.528 -37.947  29.735  1.00  0.00     0.059 C 
ENDROOT
BRANCH   1   2
ATOM      2  C   UNL     1      18.957 -38.344  29.952  1.00  0.00     0.042 C 
ATOM      3  O   UNL     1      19.758 -38.383  28.983  1.00  0.00    -0.550 OA
ATOM      4  O   UNL     1      19.391 -38.710  31.220  1.00  0.00    -0.550 OA
ENDBRANCH   1   2
BRANCH   1   5
ATOM      5  C   UNL     1      16.685 -39.123  29.232  1.00  0.00     0.059 C 
BRANCH   5   6
ATOM      6  C   UNL     1      16.356 -38.985  27.777  1.00  0.00     0.042 C 
ATOM      7  O   UNL     1      17.279 -38.883  26.926  1.00  0.00    -0.550 OA
ATOM      8  O   UNL     1      15.033 -39.012  27.357  1.00  0.00    -0.550 OA
ENDBRANCH   5   6
ENDBRANCH   1   5
TORSDOF 3
ENDMDL
MODEL 2
REMARK VINA RESULT:    -3.268     10.945     11.616
REMARK INTER + INTRA:          -3.935
REMARK INTER:                  -3.855
REMARK INTRA:                  -0.080
REMARK UNBOUND:                -0.094
REMARK SMILES O=C([O-])CCC(=O)[O-]
REMARK SMILES IDX 4 1 2 2 1 3 3 4 5 5 6 6 7 7 8 8
REMARK H PARENT
REMARK Flexibility Score: inf
ROOT
ATOM      1  C   UNL     1      12.879 -31.430  22.672  1.00  0.00     0.059 C 
ENDROOT
BRANCH   1   2
ATOM      2  C   UNL     1      13.754 -31.561  21.462  1.00  0.00     0.042 C 
ATOM      3  O   UNL     1      14.783 -30.846  21.344  1.00  0.00    -0.550 OA
ATOM      4  O   UNL     1      13.410 -32.446  20.448  1.00  0.00    -0.550 OA
ENDBRANCH   1   2
BRANCH   1   5
ATOM      5  C   UNL     1      13.516 -30.527  23.733  1.00  0.00     0.059 C 
BRANCH   5   6
ATOM      6  C   UNL     1      12.635 -29.363  24.070  1.00  0.00     0.042 C 
ATOM      7  O   UNL     1      12.983 -28.542  24.959  1.00  0.00    -0.550 OA
ATOM      8  O   UNL     1      11.451 -29.162  23.373  1.00  0.00    -0.550 OA
ENDBRANCH   5   6
ENDBRANCH   1   5
TORSDOF 3
ENDMDL
MODEL 3
REMARK VINA RESULT:    -3.249     16.102     16.580
REMARK INTER + INTRA:          -3.913
REMARK INTER:                  -3.837
REMARK INTRA:                  -0.077
REMARK UNBOUND:                -0.094
REMARK SMILES O=C([O-])CCC(=O)[O-]
REMARK SMILES IDX 4 1 2 2 1 3 3 4 5 5 6 6 7 7 8 8
REMARK H PARENT
REMARK Flexibility Score: inf
ROOT
ATOM      1  C   UNL     1      23.268 -25.130  19.475  1.00  0.00     0.059 C 
ENDROOT
BRANCH   1   2
ATOM      2  C   UNL     1      23.791 -24.109  20.439  1.00  0.00     0.042 C 
ATOM      3  O   UNL     1      24.728 -23.340  20.101  1.00  0.00    -0.550 OA
ATOM      4  O   UNL     1      23.267 -24.034  21.724  1.00  0.00    -0.550 OA
ENDBRANCH   1   2
BRANCH   1   5
ATOM      5  C   UNL     1      22.176 -25.998  20.109  1.00  0.00     0.059 C 
BRANCH   5   6
ATOM      6  C   UNL     1      22.704 -27.340  20.516  1.00  0.00     0.042 C 
ATOM      7  O   UNL     1      23.927 -27.485  20.782  1.00  0.00    -0.550 OA
ATOM      8  O   UNL     1      21.840 -28.420  20.642  1.00  0.00    -0.550 OA
ENDBRANCH   5   6
ENDBRANCH   1   5
TORSDOF 3
ENDMDL
MODEL 4
REMARK VINA RESULT:    -3.242     16.078     16.718
REMARK INTER + INTRA:          -3.904
REMARK INTER:                  -3.821
REMARK INTRA:                  -0.083
REMARK UNBOUND:                -0.094
REMARK SMILES O=C([O-])CCC(=O)[O-]
REMARK SMILES IDX 4 1 2 2 1 3 3 4 5 5 6 6 7 7 8 8
REMARK H PARENT
REMARK Flexibility Score: inf
ROOT
ATOM      1  C   UNL     1      22.123 -25.972  20.106  1.00  0.00     0.059 C 
ENDROOT
BRANCH   1   2
ATOM      2  C   UNL     1      22.577 -27.329  20.552  1.00  0.00     0.042 C 
ATOM      3  O   UNL     1      21.754 -28.278  20.631  1.00  0.00    -0.550 OA
ATOM      4  O   UNL     1      23.902 -27.533  20.918  1.00  0.00    -0.550 OA
ENDBRANCH   1   2
BRANCH   1   5
ATOM      5  C   UNL     1      23.274 -25.163  19.499  1.00  0.00     0.059 C 
BRANCH   5   6
ATOM      6  C   UNL     1      23.801 -24.143  20.462  1.00  0.00     0.042 C 
ATOM      7  O   UNL     1      24.716 -23.353  20.109  1.00  0.00    -0.550 OA
ATOM      8  O   UNL     1      23.254 -24.039  21.734  1.00  0.00    -0.550 OA
ENDBRANCH   5   6
ENDBRANCH   1   5
TORSDOF 3
ENDMDL
MODEL 5
REMARK VINA RESULT:    -3.235     16.331     16.796
REMARK INTER + INTRA:          -3.896
REMARK INTER:                  -3.791
REMARK INTRA:                  -0.106
REMARK UNBOUND:                -0.094
REMARK SMILES O=C([O-])CCC(=O)[O-]
REMARK SMILES IDX 4 1 2 2 1 3 3 4 5 5 6 6 7 7 8 8
REMARK H PARENT
REMARK Flexibility Score: inf
ROOT
ATOM      1  C   UNL     1      23.132 -24.623  21.435  1.00  0.00     0.059 C 
ENDROOT
BRANCH   1   2
ATOM      2  C   UNL     1      23.848 -24.312  20.156  1.00  0.00     0.042 C 
ATOM      3  O   UNL     1      24.710 -23.396  20.120  1.00  0.00    -0.550 OA
ATOM      4  O   UNL     1      23.533 -25.009  18.996  1.00  0.00    -0.550 OA
ENDBRANCH   1   2
BRANCH   1   5
ATOM      5  C   UNL     1      22.321 -25.919  21.327  1.00  0.00     0.059 C 
BRANCH   5   6
ATOM      6  C   UNL     1      20.859 -25.642  21.144  1.00  0.00     0.042 C 
ATOM      7  O   UNL     1      20.319 -25.813  20.020  1.00  0.00    -0.550 OA
ATOM      8  O   UNL     1      20.087 -25.237  22.225  1.00  0.00    -0.550 OA
ENDBRANCH   5   6
ENDBRANCH   1   5
TORSDOF 3
ENDMDL
MODEL 6
REMARK VINA RESULT:    -3.231     10.794     11.381
REMARK INTER + INTRA:          -3.892
REMARK INTER:                  -3.800
REMARK INTRA:                  -0.092
REMARK UNBOUND:                -0.094
REMARK SMILES O=C([O-])CCC(=O)[O-]
REMARK SMILES IDX 4 1 2 2 1 3 3 4 5 5 6 6 7 7 8 8
REMARK H PARENT
REMARK Flexibility Score: inf
ROOT
ATOM      1  C   UNL     1      13.775 -30.433  23.897  1.00  0.00     0.059 C 
ENDROOT
BRANCH   1   2
ATOM      2  C   UNL     1      12.727 -29.379  24.094  1.00  0.00     0.042 C 
ATOM      3  O   UNL     1      12.842 -28.537  25.023  1.00  0.00    -0.550 OA
ATOM      4  O   UNL     1      11.605 -29.354  23.276  1.00  0.00    -0.550 OA
ENDBRANCH   1   2
BRANCH   1   5
ATOM      5  C   UNL     1      13.252 -31.596  23.048  1.00  0.00     0.059 C 
BRANCH   5   6
ATOM      6  C   UNL     1      13.834 -31.578  21.667  1.00  0.00     0.042 C 
ATOM      7  O   UNL     1      13.361 -32.326  20.771  1.00  0.00    -0.550 OA
ATOM      8  O   UNL     1      14.871 -30.707  21.360  1.00  0.00    -0.550 OA
ENDBRANCH   5   6
ENDBRANCH   1   5
TORSDOF 3
ENDMDL
MODEL 7
REMARK VINA RESULT:    -3.228     15.963     16.402
REMARK INTER + INTRA:          -3.888
REMARK INTER:                  -3.856
REMARK INTRA:                  -0.033
REMARK UNBOUND:                -0.094
REMARK SMILES O=C([O-])CCC(=O)[O-]
REMARK SMILES IDX 4 1 2 2 1 3 3 4 5 5 6 6 7 7 8 8
REMARK H PARENT
REMARK Flexibility Score: inf
ROOT
ATOM      1  C   UNL     1      22.604 -25.249  20.825  1.00  0.00     0.059 C 
ENDROOT
BRANCH   1   2
ATOM      2  C   UNL     1      23.566 -24.702  19.814  1.00  0.00     0.042 C 
ATOM      3  O   UNL     1      23.627 -25.204  18.662  1.00  0.00    -0.550 OA
ATOM      4  O   UNL     1      24.422 -23.664  20.160  1.00  0.00    -0.550 OA
ENDBRANCH   1   2
BRANCH   1   5
ATOM      5  C   UNL     1      21.322 -25.764  20.163  1.00  0.00     0.059 C 
BRANCH   5   6
ATOM      6  C   UNL     1      20.338 -26.262  21.177  1.00  0.00     0.042 C 
ATOM      7  O   UNL     1      19.978 -25.520  22.128  1.00  0.00    -0.550 OA
ATOM      8  O   UNL     1      19.788 -27.531  21.048  1.00  0.00    -0.550 OA
ENDBRANCH   5   6
ENDBRANCH   1   5
TORSDOF 3
ENDMDL
MODEL 8
REMARK VINA RESULT:    -3.206     15.490     16.129
REMARK INTER + INTRA:          -3.862
REMARK INTER:                  -3.739
REMARK INTRA:                  -0.123
REMARK UNBOUND:                -0.094
REMARK SMILES O=C([O-])CCC(=O)[O-]
REMARK SMILES IDX 4 1 2 2 1 3 3 4 5 5 6 6 7 7 8 8
REMARK H PARENT
REMARK Flexibility Score: inf
ROOT
ATOM      1  C   UNL     1      20.928 -25.951  20.199  1.00  0.00     0.059 C 
ENDROOT
BRANCH   1   2
ATOM      2  C   UNL     1      20.680 -27.293  20.817  1.00  0.00     0.042 C 
ATOM      3  O   UNL     1      19.559 -27.561  21.323  1.00  0.00    -0.550 OA
ATOM      4  O   UNL     1      21.701 -28.234  20.869  1.00  0.00    -0.550 OA
ENDBRANCH   1   2
BRANCH   1   5
ATOM      5  C   UNL     1      22.181 -25.285  20.779  1.00  0.00     0.059 C 
BRANCH   5   6
ATOM      6  C   UNL     1      23.263 -25.156  19.751  1.00  0.00     0.042 C 
ATOM      7  O   UNL     1      23.417 -26.051  18.877  1.00  0.00    -0.550 OA
ATOM      8  O   UNL     1      24.075 -24.030  19.732  1.00  0.00    -0.550 OA
ENDBRANCH   5   6
ENDBRANCH   1   5
TORSDOF 3
ENDMDL
MODEL 9
REMARK VINA RESULT:    -3.164     16.311     16.988
REMARK INTER + INTRA:          -3.813
REMARK INTER:                  -3.706
REMARK INTRA:                  -0.107
REMARK UNBOUND:                -0.094
REMARK SMILES O=C([O-])CCC(=O)[O-]
REMARK SMILES IDX 4 1 2 2 1 3 3 4 5 5 6 6 7 7 8 8
REMARK H PARENT
REMARK Flexibility Score: inf
ROOT
ATOM      1  C   UNL     1      22.630 -25.729  20.135  1.00  0.00     0.059 C 
ENDROOT
BRANCH   1   2
ATOM      2  C   UNL     1      23.036 -27.136  20.453  1.00  0.00     0.042 C 
ATOM      3  O   UNL     1      24.252 -27.430  20.588  1.00  0.00    -0.550 OA
ATOM      4  O   UNL     1      22.071 -28.131  20.561  1.00  0.00    -0.550 OA
ENDBRANCH   1   2
BRANCH   1   5
ATOM      5  C   UNL     1      22.997 -24.766  21.269  1.00  0.00     0.059 C 
BRANCH   5   6
ATOM      6  C   UNL     1      24.005 -23.750  20.826  1.00  0.00     0.042 C 
ATOM      7  O   UNL     1      24.489 -23.803  19.665  1.00  0.00    -0.550 OA
ATOM      8  O   UNL     1      24.377 -22.721  21.681  1.00  0.00    -0.550 OA
ENDBRANCH   5   6
ENDBRANCH   1   5
TORSDOF 3
ENDMDL
