MODEL 1
REMARK VINA RESULT:    -4.161      0.000      0.000
REMARK INTER + INTRA:          -4.662
REMARK INTER:                  -4.647
REMARK INTRA:                  -0.015
REMARK UNBOUND:                -0.015
REMARK SMILES CCCC(=O)[O-]
REMARK SMILES IDX 3 1 4 2 5 3 6 4 2 5 1 6
REMARK H PARENT
REMARK Flexibility Score: inf
ROOT
ATOM      1  C   UNL     1     -22.818  70.483  81.358  1.00  0.00     0.052 C 
ENDROOT
BRANCH   1   2
ATOM      2  C   UNL     1     -21.968  69.253  81.460  1.00  0.00     0.041 C 
ATOM      3  O   UNL     1     -22.037  68.519  82.481  1.00  0.00    -0.550 OA
ATOM      4  O   UNL     1     -21.076  68.937  80.444  1.00  0.00    -0.550 OA
ENDBRANCH   1   2
BRANCH   1   5
ATOM      5  C   UNL     1     -23.260  70.751  79.914  1.00  0.00     0.003 C 
ATOM      6  C   UNL     1     -24.211  69.676  79.387  1.00  0.00     0.004 C 
ENDBRANCH   1   5
TORSDOF 2
ENDMDL
MODEL 2
REMARK VINA RESULT:    -4.099      2.108      3.021
REMARK INTER + INTRA:          -4.593
REMARK INTER:                  -4.590
REMARK INTRA:                  -0.003
REMARK UNBOUND:                -0.015
REMARK SMILES CCCC(=O)[O-]
REMARK SMILES IDX 3 1 4 2 5 3 6 4 2 5 1 6
REMARK H PARENT
REMARK Flexibility Score: inf
ROOT
ATOM      1  C   UNL     1     -22.910  70.370  81.566  1.00  0.00     0.052 C 
ENDROOT
BRANCH   1   2
ATOM      2  C   UNL     1     -23.392  70.430  80.149  1.00  0.00     0.041 C 
ATOM      3  O   UNL     1     -22.926  71.293  79.358  1.00  0.00    -0.550 OA
ATOM      4  O   UNL     1     -24.381  69.559  79.711  1.00  0.00    -0.550 OA
ENDBRANCH   1   2
BRANCH   1   5
ATOM      5  C   UNL     1     -22.144  69.073  81.851  1.00  0.00     0.003 C 
ATOM      6  C   UNL     1     -21.222  68.675  80.699  1.00  0.00     0.004 C 
ENDBRANCH   1   5
TORSDOF 2
ENDMDL
MODEL 3
REMARK VINA RESULT:    -3.969      1.659      2.048
REMARK INTER + INTRA:          -4.449
REMARK INTER:                  -4.543
REMARK INTRA:                   0.095
REMARK UNBOUND:                -0.015
REMARK SMILES CCCC(=O)[O-]
REMARK SMILES IDX 3 1 4 2 5 3 6 4 2 5 1 6
REMARK H PARENT
REMARK Flexibility Score: inf
ROOT
ATOM      1  C   UNL     1     -22.894  70.278  79.878  1.00  0.00     0.052 C 
ENDROOT
BRANCH   1   2
ATOM      2  C   UNL     1     -22.724  70.373  81.364  1.00  0.00     0.041 C 
ATOM      3  O   UNL     1     -23.324  71.270  82.014  1.00  0.00    -0.550 OA
ATOM      4  O   UNL     1     -21.876  69.494  82.025  1.00  0.00    -0.550 OA
ENDBRANCH   1   2
BRANCH   1   5
ATOM      5  C   UNL     1     -23.796  69.103  79.482  1.00  0.00     0.003 C 
ATOM      6  C   UNL     1     -23.083  67.756  79.601  1.00  0.00     0.004 C 
ENDBRANCH   1   5
TORSDOF 2
ENDMDL
MODEL 4
REMARK VINA RESULT:    -3.185      9.795     10.364
REMARK INTER + INTRA:          -3.572
REMARK INTER:                  -3.534
REMARK INTRA:                  -0.038
REMARK UNBOUND:                -0.015
REMARK SMILES CCCC(=O)[O-]
REMARK SMILES IDX 3 1 4 2 5 3 6 4 2 5 1 6
REMARK H PARENT
REMARK Flexibility Score: inf
ROOT
ATOM      1  C   UNL     1     -30.712  66.024  85.728  1.00  0.00     0.052 C 
ENDROOT
BRANCH   1   2
ATOM      2  C   UNL     1     -31.044  67.317  86.408  1.00  0.00     0.041 C 
ATOM      3  O   UNL     1     -32.198  67.511  86.873  1.00  0.00    -0.550 OA
ATOM      4  O   UNL     1     -30.089  68.322  86.498  1.00  0.00    -0.550 OA
ENDBRANCH   1   2
BRANCH   1   5
ATOM      5  C   UNL     1     -29.629  65.245  86.484  1.00  0.00     0.003 C 
ATOM      6  C   UNL     1     -28.286  65.257  85.754  1.00  0.00     0.004 C 
ENDBRANCH   1   5
TORSDOF 2
ENDMDL
MODEL 5
REMARK VINA RESULT:    -3.180      6.999      7.566
REMARK INTER + INTRA:          -3.567
REMARK INTER:                  -3.531
REMARK INTRA:                  -0.036
REMARK UNBOUND:                -0.015
REMARK SMILES CCCC(=O)[O-]
REMARK SMILES IDX 3 1 4 2 5 3 6 4 2 5 1 6
REMARK H PARENT
REMARK Flexibility Score: inf
ROOT
ATOM      1  C   UNL     1     -27.806  66.840  84.835  1.00  0.00     0.052 C 
ENDROOT
BRANCH   1   2
ATOM      2  C   UNL     1     -27.575  68.037  85.706  1.00  0.00     0.041 C 
ATOM      3  O   UNL     1     -26.460  68.623  85.694  1.00  0.00    -0.550 OA
ATOM      4  O   UNL     1     -28.579  68.483  86.556  1.00  0.00    -0.550 OA
ENDBRANCH   1   2
BRANCH   1   5
ATOM      5  C   UNL     1     -28.666  67.183  83.613  1.00  0.00     0.003 C 
ATOM      6  C   UNL     1     -30.142  66.848  83.827  1.00  0.00     0.004 C 
ENDBRANCH   1   5
TORSDOF 2
ENDMDL
MODEL 6
REMARK VINA RESULT:    -3.169      9.213      9.815
REMARK INTER + INTRA:          -3.555
REMARK INTER:                  -3.518
REMARK INTRA:                  -0.038
REMARK UNBOUND:                -0.015
REMARK SMILES CCCC(=O)[O-]
REMARK SMILES IDX 3 1 4 2 5 3 6 4 2 5 1 6
REMARK H PARENT
REMARK Flexibility Score: inf
ROOT
ATOM      1  C   UNL     1     -30.627  66.366  85.393  1.00  0.00     0.052 C 
ENDROOT
BRANCH   1   2
ATOM      2  C   UNL     1     -31.024  67.435  86.365  1.00  0.00     0.041 C 
ATOM      3  O   UNL     1     -32.192  67.462  86.834  1.00  0.00    -0.550 OA
ATOM      4  O   UNL     1     -30.114  68.421  86.725  1.00  0.00    -0.550 OA
ENDBRANCH   1   2
BRANCH   1   5
ATOM      5  C   UNL     1     -30.446  66.924  83.976  1.00  0.00     0.003 C 
ATOM      6  C   UNL     1     -28.974  67.116  83.609  1.00  0.00     0.004 C 
ENDBRANCH   1   5
TORSDOF 2
ENDMDL
MODEL 7
REMARK VINA RESULT:    -3.151      9.011      9.573
REMARK INTER + INTRA:          -3.535
REMARK INTER:                  -3.466
REMARK INTRA:                  -0.069
REMARK UNBOUND:                -0.015
REMARK SMILES CCCC(=O)[O-]
REMARK SMILES IDX 3 1 4 2 5 3 6 4 2 5 1 6
REMARK H PARENT
REMARK Flexibility Score: inf
ROOT
ATOM      1  C   UNL     1     -29.265  65.535  86.481  1.00  0.00     0.052 C 
ENDROOT
BRANCH   1   2
ATOM      2  C   UNL     1     -30.357  66.419  85.961  1.00  0.00     0.041 C 
ATOM      3  O   UNL     1     -31.109  66.017  85.033  1.00  0.00    -0.550 OA
ATOM      4  O   UNL     1     -30.521  67.699  86.475  1.00  0.00    -0.550 OA
ENDBRANCH   1   2
BRANCH   1   5
ATOM      5  C   UNL     1     -28.168  65.309  85.433  1.00  0.00     0.003 C 
ATOM      6  C   UNL     1     -27.389  66.586  85.121  1.00  0.00     0.004 C 
ENDBRANCH   1   5
TORSDOF 2
ENDMDL
MODEL 8
REMARK VINA RESULT:    -3.144      9.086      9.692
REMARK INTER + INTRA:          -3.526
REMARK INTER:                  -3.472
REMARK INTRA:                  -0.054
REMARK UNBOUND:                -0.015
REMARK SMILES CCCC(=O)[O-]
REMARK SMILES IDX 3 1 4 2 5 3 6 4 2 5 1 6
REMARK H PARENT
REMARK Flexibility Score: inf
ROOT
ATOM      1  C   UNL     1     -31.000  66.005  85.079  1.00  0.00     0.052 C 
ENDROOT
BRANCH   1   2
ATOM      2  C   UNL     1     -30.233  64.934  85.792  1.00  0.00     0.041 C 
ATOM      3  O   UNL     1     -29.524  65.222  86.792  1.00  0.00    -0.550 OA
ATOM      4  O   UNL     1     -30.272  63.625  85.330  1.00  0.00    -0.550 OA
ENDBRANCH   1   2
BRANCH   1   5
ATOM      5  C   UNL     1     -30.395  66.322  83.706  1.00  0.00     0.003 C 
ATOM      6  C   UNL     1     -29.123  67.163  83.811  1.00  0.00     0.004 C 
ENDBRANCH   1   5
TORSDOF 2
ENDMDL
MODEL 9
REMARK VINA RESULT:    -3.141      7.395      7.912
REMARK INTER + INTRA:          -3.523
REMARK INTER:                  -3.488
REMARK INTRA:                  -0.035
REMARK UNBOUND:                -0.015
REMARK SMILES CCCC(=O)[O-]
REMARK SMILES IDX 3 1 4 2 5 3 6 4 2 5 1 6
REMARK H PARENT
REMARK Flexibility Score: inf
ROOT
ATOM      1  C   UNL     1     -28.553  66.719  83.723  1.00  0.00     0.052 C 
ENDROOT
BRANCH   1   2
ATOM      2  C   UNL     1     -28.614  65.606  82.723  1.00  0.00     0.041 C 
ATOM      3  O   UNL     1     -29.230  64.542  82.997  1.00  0.00    -0.550 OA
ATOM      4  O   UNL     1     -27.962  65.729  81.503  1.00  0.00    -0.550 OA
ENDBRANCH   1   2
BRANCH   1   5
ATOM      5  C   UNL     1     -27.555  66.419  84.848  1.00  0.00     0.003 C 
ATOM      6  C   UNL     1     -28.241  65.904  86.113  1.00  0.00     0.004 C 
ENDBRANCH   1   5
TORSDOF 2
ENDMDL
