MODEL 1
REMARK VINA RESULT:    18.320      0.000      0.000
REMARK INTER + INTRA:          31.850
REMARK INTER:                  28.494
REMARK INTRA:                   3.356
REMARK UNBOUND:                 3.356
REMARK SMILES C[C@]12C[C@]3(O)O[C@H](O1)[C@@]1(COC(=O)c4ccccc4)[C@@H]3C[C@]12O[C@@H]1O[C@H](CO)[C@H](O)[C@H](O)[C@H]1O
REMARK SMILES IDX 1 1 2 2 3 3 4 4 20 5 21 6 22 7 9 8 7 9 8 10 6 11 23 12 24 13
REMARK SMILES IDX 33 14 25 15 31 16 26 17 29 18 34 19 32 21 27 23 28 24 30 26
REMARK SMILES IDX 5 28 10 30 11 31 12 32 13 33 14 34 15 35 19 36 16 37 18 38
REMARK SMILES IDX 17 39
REMARK H PARENT 34 20 32 22 28 25 30 27 5 29
REMARK Flexibility Score: inf
ROOT
ATOM      1  C   UNL     1      20.113  27.390  32.493  1.00  0.00     0.046 C 
ATOM      2  C   UNL     1      20.520  25.935  32.267  1.00  0.00     0.104 C 
ATOM      3  C   UNL     1      21.589  25.811  31.119  1.00  0.00     0.104 C 
ATOM      4  C   UNL     1      21.926  24.279  31.097  1.00  0.00     0.175 C 
ATOM      5  C   UNL     1      22.232  23.762  32.541  1.00  0.00     0.070 C 
ATOM      6  C   UNL     1      22.565  24.890  33.530  1.00  0.00     0.050 C 
ATOM      7  C   UNL     1      21.040  25.194  33.557  1.00  0.00     0.115 C 
ATOM      8  C   UNL     1      20.808  23.761  33.074  1.00  0.00     0.096 C 
ATOM      9  C   UNL     1      19.890  23.840  31.867  1.00  0.00     0.267 C 
ATOM     10  O   UNL     1      19.410  25.173  31.839  1.00  0.00    -0.342 OA
ATOM     11  O   UNL     1      20.725  23.624  30.739  1.00  0.00    -0.320 OA
ENDROOT
BRANCH   7  12
ATOM     12  O   UNL     1      20.294  25.462  34.746  1.00  0.00    -0.339 OA
BRANCH  12  13
ATOM     13  C   UNL     1      19.373  26.542  34.692  1.00  0.00     0.282 C 
ATOM     14  C   UNL     1      17.952  26.069  34.292  1.00  0.00     0.202 C 
ATOM     15  O   UNL     1      19.413  27.235  35.938  1.00  0.00    -0.341 OA
ATOM     16  C   UNL     1      16.902  26.859  35.091  1.00  0.00     0.179 C 
ATOM     17  C   UNL     1      18.626  26.642  36.965  1.00  0.00     0.178 C 
ATOM     18  C   UNL     1      17.107  26.597  36.595  1.00  0.00     0.177 C 
BRANCH  14  19
ATOM     19  O   UNL     1      17.767  26.261  32.913  1.00  0.00    -0.385 OA
ATOM     20  H   UNL     1      18.650  26.135  32.481  1.00  0.00     0.211 HD
ENDBRANCH  14  19
BRANCH  16  21
ATOM     21  O   UNL     1      15.588  26.554  34.691  1.00  0.00    -0.387 OA
ATOM     22  H   UNL     1      15.078  26.266  35.494  1.00  0.00     0.211 HD
ENDBRANCH  16  21
BRANCH  17  23
ATOM     23  C   UNL     1      19.235  25.306  37.451  1.00  0.00     0.191 C 
BRANCH  23  24
ATOM     24  O   UNL     1      20.486  25.533  38.051  1.00  0.00    -0.394 OA
ATOM     25  H   UNL     1      20.617  26.516  38.096  1.00  0.00     0.210 HD
ENDBRANCH  23  24
ENDBRANCH  17  23
BRANCH  18  26
ATOM     26  O   UNL     1      16.542  25.358  36.953  1.00  0.00    -0.387 OA
ATOM     27  H   UNL     1      16.718  24.726  36.209  1.00  0.00     0.211 HD
ENDBRANCH  18  26
ENDBRANCH  12  13
ENDBRANCH   7  12
BRANCH   4  28
ATOM     28  O   UNL     1      22.945  23.970  30.186  1.00  0.00    -0.365 OA
ATOM     29  H   UNL     1      22.529  23.420  29.470  1.00  0.00     0.214 HD
ENDBRANCH   4  28
BRANCH   8  30
ATOM     30  C   UNL     1      20.489  22.712  34.160  1.00  0.00     0.249 C 
BRANCH  30  31
ATOM     31  O   UNL     1      21.685  22.177  34.733  1.00  0.00    -0.461 OA
BRANCH  31  32
ATOM     32  C   UNL     1      21.843  21.813  36.079  1.00  0.00     0.338 C 
ATOM     33  O   UNL     1      21.569  22.663  36.968  1.00  0.00    -0.246 OA
BRANCH  32  34
ATOM     34  C   UNL     1      22.306  20.470  36.494  1.00  0.00     0.060 A 
ATOM     35  C   UNL     1      21.946  19.943  37.746  1.00  0.00     0.015 A 
ATOM     36  C   UNL     1      23.148  19.726  35.653  1.00  0.00     0.015 A 
ATOM     37  C   UNL     1      22.372  18.666  38.124  1.00  0.00     0.001 A 
ATOM     38  C   UNL     1      23.575  18.450  36.034  1.00  0.00     0.001 A 
ATOM     39  C   UNL     1      23.178  17.915  37.264  1.00  0.00     0.000 A 
ENDBRANCH  32  34
ENDBRANCH  31  32
ENDBRANCH  30  31
ENDBRANCH   8  30
TORSDOF 12
ENDMDL
