MODEL 1
REMARK VINA RESULT:    -5.693      0.000      0.000
REMARK INTER + INTRA:          -6.218
REMARK INTER:                  -6.192
REMARK INTRA:                  -0.026
REMARK UNBOUND:                -0.026
REMARK SMILES COc1ccccc1O
REMARK SMILES IDX 3 1 4 2 5 3 6 4 7 5 8 6 2 7 1 8 9 9
REMARK H PARENT 9 10
REMARK Flexibility Score: inf
ROOT
ATOM      1  C   UNL     1      32.973  27.527  16.836  1.00  0.00     0.160 A 
ATOM      2  C   UNL     1      33.302  27.076  18.131  1.00  0.00     0.050 A 
ATOM      3  C   UNL     1      33.780  25.778  18.327  1.00  0.00     0.004 A 
ATOM      4  C   UNL     1      33.936  24.917  17.239  1.00  0.00     0.004 A 
ATOM      5  C   UNL     1      33.614  25.352  15.952  1.00  0.00     0.050 A 
ATOM      6  C   UNL     1      33.134  26.651  15.744  1.00  0.00     0.157 A 
ENDROOT
BRANCH   1   7
ATOM      7  O   UNL     1      32.489  28.824  16.600  1.00  0.00    -0.493 OA
ATOM      8  C   UNL     1      31.919  29.666  17.596  1.00  0.00     0.278 C 
ENDBRANCH   1   7
BRANCH   6   9
ATOM      9  O   UNL     1      32.822  27.053  14.445  1.00  0.00    -0.504 OA
ATOM     10  H   UNL     1      33.520  27.426  13.813  1.00  0.00     0.293 HD
ENDBRANCH   6   9
TORSDOF 2
ENDMDL
MODEL 2
REMARK VINA RESULT:    -5.605      1.847      2.912
REMARK INTER + INTRA:          -6.122
REMARK INTER:                  -6.097
REMARK INTRA:                  -0.026
REMARK UNBOUND:                -0.026
REMARK SMILES COc1ccccc1O
REMARK SMILES IDX 3 1 4 2 5 3 6 4 7 5 8 6 2 7 1 8 9 9
REMARK H PARENT 9 10
REMARK Flexibility Score: inf
ROOT
ATOM      1  C   UNL     1      33.287  25.947  17.055  1.00  0.00     0.160 A 
ATOM      2  C   UNL     1      33.143  27.147  17.781  1.00  0.00     0.050 A 
ATOM      3  C   UNL     1      33.503  27.204  19.130  1.00  0.00     0.004 A 
ATOM      4  C   UNL     1      34.009  26.070  19.768  1.00  0.00     0.004 A 
ATOM      5  C   UNL     1      34.156  24.876  19.060  1.00  0.00     0.050 A 
ATOM      6  C   UNL     1      33.799  24.808  17.708  1.00  0.00     0.157 A 
ENDROOT
BRANCH   1   7
ATOM      7  O   UNL     1      32.937  25.851  15.698  1.00  0.00    -0.493 OA
ATOM      8  C   UNL     1      32.692  26.967  14.848  1.00  0.00     0.278 C 
ENDBRANCH   1   7
BRANCH   6   9
ATOM      9  O   UNL     1      33.959  23.600  17.030  1.00  0.00    -0.504 OA
ATOM     10  H   UNL     1      34.790  23.390  16.489  1.00  0.00     0.293 HD
ENDBRANCH   6   9
TORSDOF 2
ENDMDL
MODEL 3
REMARK VINA RESULT:    -5.496      1.371      2.841
REMARK INTER + INTRA:          -6.004
REMARK INTER:                  -5.979
REMARK INTRA:                  -0.026
REMARK UNBOUND:                -0.026
REMARK SMILES COc1ccccc1O
REMARK SMILES IDX 3 1 4 2 5 3 6 4 7 5 8 6 2 7 1 8 9 9
REMARK H PARENT 9 10
REMARK Flexibility Score: inf
ROOT
ATOM      1  C   UNL     1      33.290  26.879  17.208  1.00  0.00     0.160 A 
ATOM      2  C   UNL     1      33.733  25.541  17.170  1.00  0.00     0.050 A 
ATOM      3  C   UNL     1      34.107  24.888  18.347  1.00  0.00     0.004 A 
ATOM      4  C   UNL     1      34.044  25.557  19.571  1.00  0.00     0.004 A 
ATOM      5  C   UNL     1      33.606  26.882  19.621  1.00  0.00     0.050 A 
ATOM      6  C   UNL     1      33.229  27.546  18.448  1.00  0.00     0.157 A 
ENDROOT
BRANCH   1   7
ATOM      7  O   UNL     1      32.906  27.569  16.047  1.00  0.00    -0.493 OA
ATOM      8  C   UNL     1      32.643  26.950  14.792  1.00  0.00     0.278 C 
ENDBRANCH   1   7
BRANCH   6   9
ATOM      9  O   UNL     1      32.797  28.870  18.534  1.00  0.00    -0.504 OA
ATOM     10  H   UNL     1      31.817  29.123  18.474  1.00  0.00     0.293 HD
ENDBRANCH   6   9
TORSDOF 2
ENDMDL
MODEL 4
REMARK VINA RESULT:    -5.427      1.905      3.469
REMARK INTER + INTRA:          -5.929
REMARK INTER:                  -5.891
REMARK INTRA:                  -0.037
REMARK UNBOUND:                -0.026
REMARK SMILES COc1ccccc1O
REMARK SMILES IDX 3 1 4 2 5 3 6 4 7 5 8 6 2 7 1 8 9 9
REMARK H PARENT 9 10
REMARK Flexibility Score: inf
ROOT
ATOM      1  C   UNL     1      33.398  26.105  18.016  1.00  0.00     0.160 A 
ATOM      2  C   UNL     1      33.583  25.201  16.949  1.00  0.00     0.050 A 
ATOM      3  C   UNL     1      33.416  25.624  15.628  1.00  0.00     0.004 A 
ATOM      4  C   UNL     1      33.064  26.948  15.355  1.00  0.00     0.004 A 
ATOM      5  C   UNL     1      32.878  27.852  16.403  1.00  0.00     0.050 A 
ATOM      6  C   UNL     1      33.043  27.439  17.730  1.00  0.00     0.157 A 
ENDROOT
BRANCH   1   7
ATOM      7  O   UNL     1      33.557  25.717  19.356  1.00  0.00    -0.493 OA
ATOM      8  C   UNL     1      34.752  25.163  19.898  1.00  0.00     0.278 C 
ENDBRANCH   1   7
BRANCH   6   9
ATOM      9  O   UNL     1      32.850  28.367  18.753  1.00  0.00    -0.504 OA
ATOM     10  H   UNL     1      32.325  29.223  18.613  1.00  0.00     0.293 HD
ENDBRANCH   6   9
TORSDOF 2
ENDMDL
MODEL 5
REMARK VINA RESULT:    -5.419      1.312      2.366
REMARK INTER + INTRA:          -5.920
REMARK INTER:                  -5.889
REMARK INTRA:                  -0.031
REMARK UNBOUND:                -0.026
REMARK SMILES COc1ccccc1O
REMARK SMILES IDX 3 1 4 2 5 3 6 4 7 5 8 6 2 7 1 8 9 9
REMARK H PARENT 9 10
REMARK Flexibility Score: inf
ROOT
ATOM      1  C   UNL     1      32.934  27.886  16.782  1.00  0.00     0.160 A 
ATOM      2  C   UNL     1      32.871  27.294  15.504  1.00  0.00     0.050 A 
ATOM      3  C   UNL     1      33.214  25.950  15.331  1.00  0.00     0.004 A 
ATOM      4  C   UNL     1      33.622  25.185  16.425  1.00  0.00     0.004 A 
ATOM      5  C   UNL     1      33.688  25.760  17.695  1.00  0.00     0.050 A 
ATOM      6  C   UNL     1      33.346  27.105  17.880  1.00  0.00     0.157 A 
ENDROOT
BRANCH   1   7
ATOM      7  O   UNL     1      32.597  29.233  16.996  1.00  0.00    -0.493 OA
ATOM      8  C   UNL     1      31.462  29.880  16.429  1.00  0.00     0.278 C 
ENDBRANCH   1   7
BRANCH   6   9
ATOM      9  O   UNL     1      33.424  27.649  19.163  1.00  0.00    -0.504 OA
ATOM     10  H   UNL     1      32.704  28.258  19.536  1.00  0.00     0.293 HD
ENDBRANCH   6   9
TORSDOF 2
ENDMDL
MODEL 6
REMARK VINA RESULT:    -5.403      1.420      2.463
REMARK INTER + INTRA:          -5.903
REMARK INTER:                  -5.878
REMARK INTRA:                  -0.025
REMARK UNBOUND:                -0.026
REMARK SMILES COc1ccccc1O
REMARK SMILES IDX 3 1 4 2 5 3 6 4 7 5 8 6 2 7 1 8 9 9
REMARK H PARENT 9 10
REMARK Flexibility Score: inf
ROOT
ATOM      1  C   UNL     1      33.262  27.185  17.804  1.00  0.00     0.160 A 
ATOM      2  C   UNL     1      33.630  25.833  17.640  1.00  0.00     0.050 A 
ATOM      3  C   UNL     1      33.623  25.248  16.371  1.00  0.00     0.004 A 
ATOM      4  C   UNL     1      33.251  26.000  15.255  1.00  0.00     0.004 A 
ATOM      5  C   UNL     1      32.886  27.339  15.405  1.00  0.00     0.050 A 
ATOM      6  C   UNL     1      32.890  27.935  16.671  1.00  0.00     0.157 A 
ENDROOT
BRANCH   1   7
ATOM      7  O   UNL     1      33.258  27.807  19.062  1.00  0.00    -0.493 OA
ATOM      8  C   UNL     1      33.597  27.159  20.284  1.00  0.00     0.278 C 
ENDBRANCH   1   7
BRANCH   6   9
ATOM      9  O   UNL     1      32.519  29.275  16.785  1.00  0.00    -0.504 OA
ATOM     10  H   UNL     1      32.050  29.772  16.036  1.00  0.00     0.293 HD
ENDBRANCH   6   9
TORSDOF 2
ENDMDL
MODEL 7
REMARK VINA RESULT:    -5.314      3.715      5.066
REMARK INTER + INTRA:          -5.806
REMARK INTER:                  -5.771
REMARK INTRA:                  -0.035
REMARK UNBOUND:                -0.026
REMARK SMILES COc1ccccc1O
REMARK SMILES IDX 3 1 4 2 5 3 6 4 7 5 8 6 2 7 1 8 9 9
REMARK H PARENT 9 10
REMARK Flexibility Score: inf
ROOT
ATOM      1  C   UNL     1      34.794  26.131  21.074  1.00  0.00     0.160 A 
ATOM      2  C   UNL     1      35.027  25.001  20.262  1.00  0.00     0.050 A 
ATOM      3  C   UNL     1      34.327  24.836  19.064  1.00  0.00     0.004 A 
ATOM      4  C   UNL     1      33.391  25.791  18.662  1.00  0.00     0.004 A 
ATOM      5  C   UNL     1      33.153  26.914  19.457  1.00  0.00     0.050 A 
ATOM      6  C   UNL     1      33.849  27.089  20.659  1.00  0.00     0.157 A 
ENDROOT
BRANCH   1   7
ATOM      7  O   UNL     1      35.478  26.331  22.284  1.00  0.00    -0.493 OA
ATOM      8  C   UNL     1      36.719  27.019  22.405  1.00  0.00     0.278 C 
ENDBRANCH   1   7
BRANCH   6   9
ATOM      9  O   UNL     1      33.586  28.222  21.429  1.00  0.00    -0.504 OA
ATOM     10  H   UNL     1      32.971  28.197  22.235  1.00  0.00     0.293 HD
ENDBRANCH   6   9
TORSDOF 2
ENDMDL
MODEL 8
REMARK VINA RESULT:    -5.312      1.991      2.639
REMARK INTER + INTRA:          -5.803
REMARK INTER:                  -5.763
REMARK INTRA:                  -0.041
REMARK UNBOUND:                -0.026
REMARK SMILES COc1ccccc1O
REMARK SMILES IDX 3 1 4 2 5 3 6 4 7 5 8 6 2 7 1 8 9 9
REMARK H PARENT 9 10
REMARK Flexibility Score: inf
ROOT
ATOM      1  C   UNL     1      33.225  27.295  17.724  1.00  0.00     0.160 A 
ATOM      2  C   UNL     1      32.841  27.916  16.518  1.00  0.00     0.050 A 
ATOM      3  C   UNL     1      32.934  27.225  15.307  1.00  0.00     0.004 A 
ATOM      4  C   UNL     1      33.411  25.913  15.284  1.00  0.00     0.004 A 
ATOM      5  C   UNL     1      33.794  25.288  16.472  1.00  0.00     0.050 A 
ATOM      6  C   UNL     1      33.704  25.970  17.690  1.00  0.00     0.157 A 
ENDROOT
BRANCH   1   7
ATOM      7  O   UNL     1      33.145  27.957  18.960  1.00  0.00    -0.493 OA
ATOM      8  C   UNL     1      31.932  28.397  19.562  1.00  0.00     0.278 C 
ENDBRANCH   1   7
BRANCH   6   9
ATOM      9  O   UNL     1      34.096  25.316  18.858  1.00  0.00    -0.504 OA
ATOM     10  H   UNL     1      34.682  24.489  18.844  1.00  0.00     0.293 HD
ENDBRANCH   6   9
TORSDOF 2
ENDMDL
MODEL 9
REMARK VINA RESULT:    -5.222      2.700      3.899
REMARK INTER + INTRA:          -5.705
REMARK INTER:                  -5.660
REMARK INTRA:                  -0.045
REMARK UNBOUND:                -0.026
REMARK SMILES COc1ccccc1O
REMARK SMILES IDX 3 1 4 2 5 3 6 4 7 5 8 6 2 7 1 8 9 9
REMARK H PARENT 9 10
REMARK Flexibility Score: inf
ROOT
ATOM      1  C   UNL     1      33.322  27.263  19.524  1.00  0.00     0.160 A 
ATOM      2  C   UNL     1      33.339  26.315  18.480  1.00  0.00     0.050 A 
ATOM      3  C   UNL     1      34.059  25.126  18.618  1.00  0.00     0.004 A 
ATOM      4  C   UNL     1      34.767  24.868  19.794  1.00  0.00     0.004 A 
ATOM      5  C   UNL     1      34.756  25.798  20.834  1.00  0.00     0.050 A 
ATOM      6  C   UNL     1      34.039  26.993  20.707  1.00  0.00     0.157 A 
ENDROOT
BRANCH   1   7
ATOM      7  O   UNL     1      32.610  28.469  19.422  1.00  0.00    -0.493 OA
ATOM      8  C   UNL     1      31.224  28.615  19.714  1.00  0.00     0.278 C 
ENDBRANCH   1   7
BRANCH   6   9
ATOM      9  O   UNL     1      34.050  27.901  21.765  1.00  0.00    -0.504 OA
ATOM     10  H   UNL     1      33.204  28.170  22.256  1.00  0.00     0.293 HD
ENDBRANCH   6   9
TORSDOF 2
ENDMDL
