MODEL 1
REMARK VINA RESULT:    -3.874      0.000      0.000
REMARK INTER + INTRA:          -4.241
REMARK INTER:                  -4.213
REMARK INTRA:                  -0.028
REMARK UNBOUND:                -0.028
REMARK SMILES O=C([O-])c1ccc(O)cc1
REMARK SMILES IDX 4 1 5 2 10 3 6 4 9 5 7 6 2 7 1 8 3 9 8 10
REMARK H PARENT 8 11
REMARK Flexibility Score: inf
ROOT
ATOM      1  C   UNL     1     -22.438  24.777  11.179  1.00  0.00    -0.003 A 
ATOM      2  C   UNL     1     -22.008  24.071  10.043  1.00  0.00     0.014 A 
ATOM      3  C   UNL     1     -22.995  26.059  11.016  1.00  0.00     0.014 A 
ATOM      4  C   UNL     1     -22.133  24.635   8.769  1.00  0.00     0.047 A 
ATOM      5  C   UNL     1     -23.118  26.620   9.741  1.00  0.00     0.047 A 
ATOM      6  C   UNL     1     -22.687  25.909   8.614  1.00  0.00     0.115 A 
ENDROOT
BRANCH   1   7
ATOM      7  C   UNL     1     -22.305  24.178  12.526  1.00  0.00     0.071 C 
ATOM      8  O   UNL     1     -23.324  23.787  13.156  1.00  0.00    -0.545 OA
ATOM      9  O   UNL     1     -21.054  24.039  13.114  1.00  0.00    -0.545 OA
ENDBRANCH   1   7
BRANCH   6  10
ATOM     10  O   UNL     1     -22.804  26.459   7.339  1.00  0.00    -0.508 OA
ATOM     11  H   UNL     1     -21.996  26.598   6.746  1.00  0.00     0.293 HD
ENDBRANCH   6  10
TORSDOF 2
ENDMDL
MODEL 2
REMARK VINA RESULT:    -3.773      1.450      4.498
REMARK INTER + INTRA:          -4.132
REMARK INTER:                  -4.097
REMARK INTRA:                  -0.035
REMARK UNBOUND:                -0.028
REMARK SMILES O=C([O-])c1ccc(O)cc1
REMARK SMILES IDX 4 1 5 2 10 3 6 4 9 5 7 6 2 7 1 8 3 9 8 10
REMARK H PARENT 8 11
REMARK Flexibility Score: inf
ROOT
ATOM      1  C   UNL     1     -23.682  26.076   8.897  1.00  0.00    -0.003 A 
ATOM      2  C   UNL     1     -24.053  24.722   8.836  1.00  0.00     0.014 A 
ATOM      3  C   UNL     1     -23.068  26.564  10.065  1.00  0.00     0.014 A 
ATOM      4  C   UNL     1     -23.813  23.872   9.921  1.00  0.00     0.047 A 
ATOM      5  C   UNL     1     -22.830  25.712  11.148  1.00  0.00     0.047 A 
ATOM      6  C   UNL     1     -23.202  24.364  11.079  1.00  0.00     0.115 A 
ENDROOT
BRANCH   1   7
ATOM      7  C   UNL     1     -23.937  26.973   7.748  1.00  0.00     0.071 C 
ATOM      8  O   UNL     1     -24.125  26.498   6.595  1.00  0.00    -0.545 OA
ATOM      9  O   UNL     1     -23.973  28.350   7.923  1.00  0.00    -0.545 OA
ENDBRANCH   1   7
BRANCH   6  10
ATOM     10  O   UNL     1     -22.969  23.506  12.152  1.00  0.00    -0.508 OA
ATOM     11  H   UNL     1     -22.798  22.518  12.012  1.00  0.00     0.293 HD
ENDBRANCH   6  10
TORSDOF 2
ENDMDL
MODEL 3
REMARK VINA RESULT:    -3.449     10.464     11.992
REMARK INTER + INTRA:          -3.779
REMARK INTER:                  -3.749
REMARK INTRA:                  -0.030
REMARK UNBOUND:                -0.028
REMARK SMILES O=C([O-])c1ccc(O)cc1
REMARK SMILES IDX 4 1 5 2 10 3 6 4 9 5 7 6 2 7 1 8 3 9 8 10
REMARK H PARENT 8 11
REMARK Flexibility Score: inf
ROOT
ATOM      1  C   UNL     1     -20.268  30.140  21.586  1.00  0.00    -0.003 A 
ATOM      2  C   UNL     1     -21.671  30.104  21.663  1.00  0.00     0.014 A 
ATOM      3  C   UNL     1     -19.627  29.522  20.496  1.00  0.00     0.014 A 
ATOM      4  C   UNL     1     -22.418  29.463  20.669  1.00  0.00     0.047 A 
ATOM      5  C   UNL     1     -20.378  28.882  19.505  1.00  0.00     0.047 A 
ATOM      6  C   UNL     1     -21.775  28.851  19.588  1.00  0.00     0.115 A 
ENDROOT
BRANCH   1   7
ATOM      7  C   UNL     1     -19.480  30.819  22.638  1.00  0.00     0.071 C 
ATOM      8  O   UNL     1     -19.762  31.996  22.991  1.00  0.00    -0.545 OA
ATOM      9  O   UNL     1     -18.417  30.169  23.253  1.00  0.00    -0.545 OA
ENDBRANCH   1   7
BRANCH   6  10
ATOM     10  O   UNL     1     -22.532  28.216  18.607  1.00  0.00    -0.508 OA
ATOM     11  H   UNL     1     -22.259  28.236  17.632  1.00  0.00     0.293 HD
ENDBRANCH   6  10
TORSDOF 2
ENDMDL
MODEL 4
REMARK VINA RESULT:    -3.437     10.488     11.944
REMARK INTER + INTRA:          -3.766
REMARK INTER:                  -3.736
REMARK INTRA:                  -0.030
REMARK UNBOUND:                -0.028
REMARK SMILES O=C([O-])c1ccc(O)cc1
REMARK SMILES IDX 4 1 5 2 10 3 6 4 9 5 7 6 2 7 1 8 3 9 8 10
REMARK H PARENT 8 11
REMARK Flexibility Score: inf
ROOT
ATOM      1  C   UNL     1     -20.253  30.148  21.610  1.00  0.00    -0.003 A 
ATOM      2  C   UNL     1     -19.623  29.528  20.517  1.00  0.00     0.014 A 
ATOM      3  C   UNL     1     -21.657  30.127  21.690  1.00  0.00     0.014 A 
ATOM      4  C   UNL     1     -20.382  28.898  19.526  1.00  0.00     0.047 A 
ATOM      5  C   UNL     1     -22.413  29.497  20.697  1.00  0.00     0.047 A 
ATOM      6  C   UNL     1     -21.778  28.881  19.612  1.00  0.00     0.115 A 
ENDROOT
BRANCH   1   7
ATOM      7  C   UNL     1     -19.446  30.813  22.657  1.00  0.00     0.071 C 
ATOM      8  O   UNL     1     -19.711  31.991  23.018  1.00  0.00    -0.545 OA
ATOM      9  O   UNL     1     -18.385  30.147  23.258  1.00  0.00    -0.545 OA
ENDBRANCH   1   7
BRANCH   6  10
ATOM     10  O   UNL     1     -22.521  28.250  18.617  1.00  0.00    -0.508 OA
ATOM     11  H   UNL     1     -22.159  28.134  17.679  1.00  0.00     0.293 HD
ENDBRANCH   6  10
TORSDOF 2
ENDMDL
MODEL 5
REMARK VINA RESULT:    -3.316     10.235     11.875
REMARK INTER + INTRA:          -3.635
REMARK INTER:                  -3.599
REMARK INTRA:                  -0.036
REMARK UNBOUND:                -0.028
REMARK SMILES O=C([O-])c1ccc(O)cc1
REMARK SMILES IDX 4 1 5 2 10 3 6 4 9 5 7 6 2 7 1 8 3 9 8 10
REMARK H PARENT 8 11
REMARK Flexibility Score: inf
ROOT
ATOM      1  C   UNL     1     -18.706  28.342  21.820  1.00  0.00    -0.003 A 
ATOM      2  C   UNL     1     -19.253  27.149  21.315  1.00  0.00     0.014 A 
ATOM      3  C   UNL     1     -19.160  29.571  21.308  1.00  0.00     0.014 A 
ATOM      4  C   UNL     1     -20.234  27.185  20.320  1.00  0.00     0.047 A 
ATOM      5  C   UNL     1     -20.141  29.604  20.312  1.00  0.00     0.047 A 
ATOM      6  C   UNL     1     -20.681  28.411  19.815  1.00  0.00     0.115 A 
ENDROOT
BRANCH   1   7
ATOM      7  C   UNL     1     -17.668  28.300  22.874  1.00  0.00     0.071 C 
ATOM      8  O   UNL     1     -17.323  27.203  23.390  1.00  0.00    -0.545 OA
ATOM      9  O   UNL     1     -17.059  29.471  23.309  1.00  0.00    -0.545 OA
ENDBRANCH   1   7
BRANCH   6  10
ATOM     10  O   UNL     1     -21.658  28.432  18.823  1.00  0.00    -0.508 OA
ATOM     11  H   UNL     1     -22.568  28.011  18.967  1.00  0.00     0.293 HD
ENDBRANCH   6  10
TORSDOF 2
ENDMDL
MODEL 6
REMARK VINA RESULT:    -3.278      3.124      5.901
REMARK INTER + INTRA:          -3.593
REMARK INTER:                  -3.565
REMARK INTRA:                  -0.028
REMARK UNBOUND:                -0.028
REMARK SMILES O=C([O-])c1ccc(O)cc1
REMARK SMILES IDX 4 1 5 2 10 3 6 4 9 5 7 6 2 7 1 8 3 9 8 10
REMARK H PARENT 8 11
REMARK Flexibility Score: inf
ROOT
ATOM      1  C   UNL     1     -21.337  23.672  13.554  1.00  0.00    -0.003 A 
ATOM      2  C   UNL     1     -21.931  23.250  14.756  1.00  0.00     0.014 A 
ATOM      3  C   UNL     1     -19.987  24.071  13.563  1.00  0.00     0.014 A 
ATOM      4  C   UNL     1     -21.191  23.227  15.942  1.00  0.00     0.047 A 
ATOM      5  C   UNL     1     -19.250  24.047  14.751  1.00  0.00     0.047 A 
ATOM      6  C   UNL     1     -19.850  23.625  15.945  1.00  0.00     0.115 A 
ENDROOT
BRANCH   1   7
ATOM      7  C   UNL     1     -22.122  23.695  12.300  1.00  0.00     0.071 C 
ATOM      8  O   UNL     1     -21.876  22.875  11.376  1.00  0.00    -0.545 OA
ATOM      9  O   UNL     1     -23.142  24.623  12.125  1.00  0.00    -0.545 OA
ENDBRANCH   1   7
BRANCH   6  10
ATOM     10  O   UNL     1     -19.126  23.597  17.134  1.00  0.00    -0.508 OA
ATOM     11  H   UNL     1     -19.587  23.597  18.035  1.00  0.00     0.293 HD
ENDBRANCH   6  10
TORSDOF 2
ENDMDL
MODEL 7
REMARK VINA RESULT:    -3.247      3.761      5.546
REMARK INTER + INTRA:          -3.559
REMARK INTER:                  -3.527
REMARK INTRA:                  -0.033
REMARK UNBOUND:                -0.028
REMARK SMILES O=C([O-])c1ccc(O)cc1
REMARK SMILES IDX 4 1 5 2 10 3 6 4 9 5 7 6 2 7 1 8 3 9 8 10
REMARK H PARENT 8 11
REMARK Flexibility Score: inf
ROOT
ATOM      1  C   UNL     1     -20.227  23.632  15.830  1.00  0.00    -0.003 A 
ATOM      2  C   UNL     1     -21.544  23.223  15.553  1.00  0.00     0.014 A 
ATOM      3  C   UNL     1     -19.416  24.081  14.772  1.00  0.00     0.014 A 
ATOM      4  C   UNL     1     -22.038  23.262  14.246  1.00  0.00     0.047 A 
ATOM      5  C   UNL     1     -19.913  24.119  13.465  1.00  0.00     0.047 A 
ATOM      6  C   UNL     1     -21.225  23.709  13.198  1.00  0.00     0.115 A 
ENDROOT
BRANCH   1   7
ATOM      7  C   UNL     1     -19.708  23.589  17.214  1.00  0.00     0.071 C 
ATOM      8  O   UNL     1     -18.501  23.301  17.437  1.00  0.00    -0.545 OA
ATOM      9  O   UNL     1     -20.544  23.866  18.289  1.00  0.00    -0.545 OA
ENDBRANCH   1   7
BRANCH   6  10
ATOM     10  O   UNL     1     -21.731  23.743  11.901  1.00  0.00    -0.508 OA
ATOM     11  H   UNL     1     -21.190  24.119  11.132  1.00  0.00     0.293 HD
ENDBRANCH   6  10
TORSDOF 2
ENDMDL
MODEL 8
REMARK VINA RESULT:    -3.246      1.405      4.327
REMARK INTER + INTRA:          -3.558
REMARK INTER:                  -3.522
REMARK INTRA:                  -0.036
REMARK UNBOUND:                -0.028
REMARK SMILES O=C([O-])c1ccc(O)cc1
REMARK SMILES IDX 4 1 5 2 10 3 6 4 9 5 7 6 2 7 1 8 3 9 8 10
REMARK H PARENT 8 11
REMARK Flexibility Score: inf
ROOT
ATOM      1  C   UNL     1     -22.546  24.629  10.452  1.00  0.00    -0.003 A 
ATOM      2  C   UNL     1     -21.529  24.032  11.217  1.00  0.00     0.014 A 
ATOM      3  C   UNL     1     -23.830  24.766  11.012  1.00  0.00     0.014 A 
ATOM      4  C   UNL     1     -21.790  23.582  12.515  1.00  0.00     0.047 A 
ATOM      5  C   UNL     1     -24.088  24.315  12.310  1.00  0.00     0.047 A 
ATOM      6  C   UNL     1     -23.069  23.722  13.066  1.00  0.00     0.115 A 
ENDROOT
BRANCH   1   7
ATOM      7  C   UNL     1     -22.266  25.103   9.079  1.00  0.00     0.071 C 
ATOM      8  O   UNL     1     -21.193  24.787   8.498  1.00  0.00    -0.545 OA
ATOM      9  O   UNL     1     -23.183  25.905   8.410  1.00  0.00    -0.545 OA
ENDBRANCH   1   7
BRANCH   6  10
ATOM     10  O   UNL     1     -23.315  23.269  14.360  1.00  0.00    -0.508 OA
ATOM     11  H   UNL     1     -22.798  23.628  15.153  1.00  0.00     0.293 HD
ENDBRANCH   6  10
TORSDOF 2
ENDMDL
MODEL 9
REMARK VINA RESULT:    -3.182     18.910     19.931
REMARK INTER + INTRA:          -3.489
REMARK INTER:                  -3.461
REMARK INTRA:                  -0.028
REMARK UNBOUND:                -0.028
REMARK SMILES O=C([O-])c1ccc(O)cc1
REMARK SMILES IDX 4 1 5 2 10 3 6 4 9 5 7 6 2 7 1 8 3 9 8 10
REMARK H PARENT 8 11
REMARK Flexibility Score: inf
ROOT
ATOM      1  C   UNL     1     -21.005  40.975  21.262  1.00  0.00    -0.003 A 
ATOM      2  C   UNL     1     -20.138  41.667  20.399  1.00  0.00     0.014 A 
ATOM      3  C   UNL     1     -20.605  40.745  22.592  1.00  0.00     0.014 A 
ATOM      4  C   UNL     1     -18.896  42.121  20.856  1.00  0.00     0.047 A 
ATOM      5  C   UNL     1     -19.363  41.200  23.045  1.00  0.00     0.047 A 
ATOM      6  C   UNL     1     -18.505  41.889  22.179  1.00  0.00     0.115 A 
ENDROOT
BRANCH   1   7
ATOM      7  C   UNL     1     -22.318  40.497  20.776  1.00  0.00     0.071 C 
ATOM      8  O   UNL     1     -22.550  39.263  20.668  1.00  0.00    -0.545 OA
ATOM      9  O   UNL     1     -23.314  41.402  20.431  1.00  0.00    -0.545 OA
ENDBRANCH   1   7
BRANCH   6  10
ATOM     10  O   UNL     1     -17.265  42.346  22.620  1.00  0.00    -0.508 OA
ATOM     11  H   UNL     1     -16.556  42.663  21.971  1.00  0.00     0.293 HD
ENDBRANCH   6  10
TORSDOF 2
ENDMDL
