MODEL 1
REMARK VINA RESULT:    -3.908      0.000      0.000
REMARK INTER + INTRA:          -8.446
REMARK INTER:                  -6.650
REMARK INTRA:                  -1.796
REMARK UNBOUND:                -1.796
REMARK SMILES CCCCCCCCCCCCCC(=O)[O-]
REMARK SMILES IDX 8 1 9 2 10 3 11 4 12 5 13 6 14 7 15 8 16 9 7 10 6 11 5 12
REMARK SMILES IDX 4 13 3 14 2 15 1 16
REMARK H PARENT
REMARK Flexibility Score: inf
ROOT
ATOM      1  C   UNL     1     113.381 109.951 121.252  1.00  0.00     0.000 C 
ENDROOT
BRANCH   1   2
ATOM      2  C   UNL     1     112.030 109.706 121.951  1.00  0.00     0.000 C 
BRANCH   2   3
ATOM      3  C   UNL     1     111.449 110.921 122.696  1.00  0.00     0.000 C 
BRANCH   3   4
ATOM      4  C   UNL     1     111.960 112.262 122.149  1.00  0.00     0.000 C 
BRANCH   4   5
ATOM      5  C   UNL     1     110.911 112.922 121.246  1.00  0.00     0.006 C 
BRANCH   5   6
ATOM      6  C   UNL     1     111.151 112.572 119.775  1.00  0.00     0.053 C 
BRANCH   6   7
ATOM      7  C   UNL     1     110.001 111.788 119.227  1.00  0.00     0.041 C 
ATOM      8  O   UNL     1     108.981 112.382 118.791  1.00  0.00    -0.550 OA
ATOM      9  O   UNL     1     110.077 110.403 119.151  1.00  0.00    -0.550 OA
ENDBRANCH   6   7
ENDBRANCH   5   6
ENDBRANCH   4   5
ENDBRANCH   3   4
ENDBRANCH   2   3
ENDBRANCH   1   2
BRANCH   1  10
ATOM     10  C   UNL     1     114.556 109.254 121.957  1.00  0.00     0.000 C 
BRANCH  10  11
ATOM     11  C   UNL     1     115.850 110.084 121.908  1.00  0.00    -0.000 C 
BRANCH  11  12
ATOM     12  C   UNL     1     115.734 111.410 122.676  1.00  0.00    -0.000 C 
BRANCH  12  13
ATOM     13  C   UNL     1     116.176 112.590 121.802  1.00  0.00    -0.000 C 
BRANCH  13  14
ATOM     14  C   UNL     1     114.967 113.423 121.351  1.00  0.00    -0.000 C 
BRANCH  14  15
ATOM     15  C   UNL     1     114.916 113.614 119.827  1.00  0.00    -0.003 C 
ATOM     16  C   UNL     1     115.293 112.348 119.059  1.00  0.00     0.004 C 
ENDBRANCH  14  15
ENDBRANCH  13  14
ENDBRANCH  12  13
ENDBRANCH  11  12
ENDBRANCH  10  11
ENDBRANCH   1  10
TORSDOF 12
ENDMDL
MODEL 2
REMARK VINA RESULT:    -3.776      1.982      3.726
REMARK INTER + INTRA:          -8.221
REMARK INTER:                  -7.074
REMARK INTRA:                  -1.146
REMARK UNBOUND:                -1.796
REMARK SMILES CCCCCCCCCCCCCC(=O)[O-]
REMARK SMILES IDX 8 1 9 2 10 3 11 4 12 5 13 6 14 7 15 8 16 9 7 10 6 11 5 12
REMARK SMILES IDX 4 13 3 14 2 15 1 16
REMARK H PARENT
REMARK Flexibility Score: inf
ROOT
ATOM      1  C   UNL     1     111.925 112.450 121.388  1.00  0.00     0.000 C 
ENDROOT
BRANCH   1   2
ATOM      2  C   UNL     1     110.614 112.750 120.637  1.00  0.00     0.000 C 
BRANCH   2   3
ATOM      3  C   UNL     1     110.605 112.345 119.151  1.00  0.00     0.000 C 
BRANCH   3   4
ATOM      4  C   UNL     1     109.207 112.411 118.520  1.00  0.00     0.000 C 
BRANCH   4   5
ATOM      5  C   UNL     1     108.383 111.168 118.879  1.00  0.00     0.006 C 
BRANCH   5   6
ATOM      6  C   UNL     1     109.208 109.890 118.700  1.00  0.00     0.053 C 
BRANCH   6   7
ATOM      7  C   UNL     1     108.314 108.693 118.635  1.00  0.00     0.041 C 
ATOM      8  O   UNL     1     107.315 108.606 119.396  1.00  0.00    -0.550 OA
ATOM      9  O   UNL     1     108.554 107.696 117.698  1.00  0.00    -0.550 OA
ENDBRANCH   6   7
ENDBRANCH   5   6
ENDBRANCH   4   5
ENDBRANCH   3   4
ENDBRANCH   2   3
ENDBRANCH   1   2
BRANCH   1  10
ATOM     10  C   UNL     1     111.759 111.375 122.475  1.00  0.00     0.000 C 
BRANCH  10  11
ATOM     11  C   UNL     1     111.964 109.951 121.931  1.00  0.00    -0.000 C 
BRANCH  11  12
ATOM     12  C   UNL     1     113.118 109.861 120.921  1.00  0.00    -0.000 C 
BRANCH  12  13
ATOM     13  C   UNL     1     114.350 109.203 121.554  1.00  0.00    -0.000 C 
BRANCH  13  14
ATOM     14  C   UNL     1     115.538 110.175 121.585  1.00  0.00    -0.000 C 
BRANCH  14  15
ATOM     15  C   UNL     1     115.453 111.175 122.748  1.00  0.00    -0.003 C 
ATOM     16  C   UNL     1     116.563 112.225 122.709  1.00  0.00     0.004 C 
ENDBRANCH  14  15
ENDBRANCH  13  14
ENDBRANCH  12  13
ENDBRANCH  11  12
ENDBRANCH  10  11
ENDBRANCH   1  10
TORSDOF 12
ENDMDL
MODEL 3
REMARK VINA RESULT:    -3.725      1.699      3.171
REMARK INTER + INTRA:          -8.134
REMARK INTER:                  -6.353
REMARK INTRA:                  -1.781
REMARK UNBOUND:                -1.796
REMARK SMILES CCCCCCCCCCCCCC(=O)[O-]
REMARK SMILES IDX 8 1 9 2 10 3 11 4 12 5 13 6 14 7 15 8 16 9 7 10 6 11 5 12
REMARK SMILES IDX 4 13 3 14 2 15 1 16
REMARK H PARENT
REMARK Flexibility Score: inf
ROOT
ATOM      1  C   UNL     1     115.402 111.414 122.745  1.00  0.00     0.000 C 
ENDROOT
BRANCH   1   2
ATOM      2  C   UNL     1     115.692 109.992 122.230  1.00  0.00     0.000 C 
BRANCH   2   3
ATOM      3  C   UNL     1     114.468 109.229 121.692  1.00  0.00     0.000 C 
BRANCH   3   4
ATOM      4  C   UNL     1     113.452 110.141 120.991  1.00  0.00     0.000 C 
BRANCH   4   5
ATOM      5  C   UNL     1     112.072 110.036 121.652  1.00  0.00     0.006 C 
BRANCH   5   6
ATOM      6  C   UNL     1     111.807 111.235 122.567  1.00  0.00     0.053 C 
BRANCH   6   7
ATOM      7  C   UNL     1     111.595 112.476 121.759  1.00  0.00     0.041 C 
ATOM      8  O   UNL     1     112.284 113.505 121.986  1.00  0.00    -0.550 OA
ATOM      9  O   UNL     1     110.672 112.480 120.722  1.00  0.00    -0.550 OA
ENDBRANCH   6   7
ENDBRANCH   5   6
ENDBRANCH   4   5
ENDBRANCH   3   4
ENDBRANCH   2   3
ENDBRANCH   1   2
BRANCH   1  10
ATOM     10  C   UNL     1     116.566 112.388 122.502  1.00  0.00     0.000 C 
BRANCH  10  11
ATOM     11  C   UNL     1     116.389 113.207 121.212  1.00  0.00    -0.000 C 
BRANCH  11  12
ATOM     12  C   UNL     1     116.979 112.507 119.978  1.00  0.00    -0.000 C 
BRANCH  12  13
ATOM     13  C   UNL     1     115.917 112.330 118.887  1.00  0.00    -0.000 C 
BRANCH  13  14
ATOM     14  C   UNL     1     114.668 113.170 119.195  1.00  0.00    -0.000 C 
BRANCH  14  15
ATOM     15  C   UNL     1     113.414 112.648 118.477  1.00  0.00    -0.003 C 
ATOM     16  C   UNL     1     113.741 111.678 117.343  1.00  0.00     0.004 C 
ENDBRANCH  14  15
ENDBRANCH  13  14
ENDBRANCH  12  13
ENDBRANCH  11  12
ENDBRANCH  10  11
ENDBRANCH   1  10
TORSDOF 12
ENDMDL
MODEL 4
REMARK VINA RESULT:    -3.695      2.018      3.557
REMARK INTER + INTRA:          -8.082
REMARK INTER:                  -6.160
REMARK INTRA:                  -1.922
REMARK UNBOUND:                -1.796
REMARK SMILES CCCCCCCCCCCCCC(=O)[O-]
REMARK SMILES IDX 8 1 9 2 10 3 11 4 12 5 13 6 14 7 15 8 16 9 7 10 6 11 5 12
REMARK SMILES IDX 4 13 3 14 2 15 1 16
REMARK H PARENT
REMARK Flexibility Score: inf
ROOT
ATOM      1  C   UNL     1     114.887 111.090 118.642  1.00  0.00     0.000 C 
ENDROOT
BRANCH   1   2
ATOM      2  C   UNL     1     113.760 110.221 119.232  1.00  0.00     0.000 C 
BRANCH   2   3
ATOM      3  C   UNL     1     114.176 109.325 120.412  1.00  0.00     0.000 C 
BRANCH   3   4
ATOM      4  C   UNL     1     113.448 109.674 121.718  1.00  0.00     0.000 C 
BRANCH   4   5
ATOM      5  C   UNL     1     112.223 110.556 121.445  1.00  0.00     0.006 C 
BRANCH   5   6
ATOM      6  C   UNL     1     112.178 111.748 122.405  1.00  0.00     0.053 C 
BRANCH   6   7
ATOM      7  C   UNL     1     111.777 112.993 121.679  1.00  0.00     0.041 C 
ATOM      8  O   UNL     1     112.243 114.108 122.029  1.00  0.00    -0.550 OA
ATOM      9  O   UNL     1     110.928 112.915 120.582  1.00  0.00    -0.550 OA
ENDBRANCH   6   7
ENDBRANCH   5   6
ENDBRANCH   4   5
ENDBRANCH   3   4
ENDBRANCH   2   3
ENDBRANCH   1   2
BRANCH   1  10
ATOM     10  C   UNL     1     114.950 112.493 119.267  1.00  0.00     0.000 C 
BRANCH  10  11
ATOM     11  C   UNL     1     116.095 112.634 120.285  1.00  0.00    -0.000 C 
BRANCH  11  12
ATOM     12  C   UNL     1     115.591 112.767 121.730  1.00  0.00    -0.000 C 
BRANCH  12  13
ATOM     13  C   UNL     1     116.499 112.001 122.700  1.00  0.00    -0.000 C 
BRANCH  13  14
ATOM     14  C   UNL     1     116.987 110.686 122.074  1.00  0.00    -0.000 C 
BRANCH  14  15
ATOM     15  C   UNL     1     118.494 110.463 122.270  1.00  0.00    -0.003 C 
ATOM     16  C   UNL     1     119.317 111.728 122.027  1.00  0.00     0.004 C 
ENDBRANCH  14  15
ENDBRANCH  13  14
ENDBRANCH  12  13
ENDBRANCH  11  12
ENDBRANCH  10  11
ENDBRANCH   1  10
TORSDOF 12
ENDMDL
MODEL 5
REMARK VINA RESULT:    -3.578      2.103      4.686
REMARK INTER + INTRA:          -7.883
REMARK INTER:                  -5.946
REMARK INTRA:                  -1.937
REMARK UNBOUND:                -1.796
REMARK SMILES CCCCCCCCCCCCCC(=O)[O-]
REMARK SMILES IDX 8 1 9 2 10 3 11 4 12 5 13 6 14 7 15 8 16 9 7 10 6 11 5 12
REMARK SMILES IDX 4 13 3 14 2 15 1 16
REMARK H PARENT
REMARK Flexibility Score: inf
ROOT
ATOM      1  C   UNL     1     116.563 112.400 122.062  1.00  0.00     0.000 C 
ENDROOT
BRANCH   1   2
ATOM      2  C   UNL     1     115.911 113.211 120.926  1.00  0.00     0.000 C 
BRANCH   2   3
ATOM      3  C   UNL     1     115.937 112.536 119.543  1.00  0.00     0.000 C 
BRANCH   3   4
ATOM      4  C   UNL     1     117.075 111.516 119.393  1.00  0.00     0.000 C 
BRANCH   4   5
ATOM      5  C   UNL     1     116.608 110.283 118.610  1.00  0.00     0.006 C 
BRANCH   5   6
ATOM      6  C   UNL     1     115.295 110.565 117.872  1.00  0.00     0.053 C 
BRANCH   6   7
ATOM      7  C   UNL     1     114.384 109.381 117.950  1.00  0.00     0.041 C 
ATOM      8  O   UNL     1     113.185 109.480 117.580  1.00  0.00    -0.550 OA
ATOM      9  O   UNL     1     114.873 108.156 118.384  1.00  0.00    -0.550 OA
ENDBRANCH   6   7
ENDBRANCH   5   6
ENDBRANCH   4   5
ENDBRANCH   3   4
ENDBRANCH   2   3
ENDBRANCH   1   2
BRANCH   1  10
ATOM     10  C   UNL     1     115.579 111.440 122.751  1.00  0.00     0.000 C 
BRANCH  10  11
ATOM     11  C   UNL     1     115.808 109.973 122.349  1.00  0.00    -0.000 C 
BRANCH  11  12
ATOM     12  C   UNL     1     114.572 109.337 121.695  1.00  0.00    -0.000 C 
BRANCH  12  13
ATOM     13  C   UNL     1     113.540 110.407 121.318  1.00  0.00    -0.000 C 
BRANCH  13  14
ATOM     14  C   UNL     1     112.203 110.158 122.033  1.00  0.00    -0.000 C 
BRANCH  14  15
ATOM     15  C   UNL     1     111.510 111.461 122.459  1.00  0.00    -0.003 C 
ATOM     16  C   UNL     1     112.281 112.709 122.031  1.00  0.00     0.004 C 
ENDBRANCH  14  15
ENDBRANCH  13  14
ENDBRANCH  12  13
ENDBRANCH  11  12
ENDBRANCH  10  11
ENDBRANCH   1  10
TORSDOF 12
ENDMDL
MODEL 6
REMARK VINA RESULT:    -3.551      2.021      3.536
REMARK INTER + INTRA:          -7.838
REMARK INTER:                  -5.688
REMARK INTRA:                  -2.149
REMARK UNBOUND:                -1.796
REMARK SMILES CCCCCCCCCCCCCC(=O)[O-]
REMARK SMILES IDX 8 1 9 2 10 3 11 4 12 5 13 6 14 7 15 8 16 9 7 10 6 11 5 12
REMARK SMILES IDX 4 13 3 14 2 15 1 16
REMARK H PARENT
REMARK Flexibility Score: inf
ROOT
ATOM      1  C   UNL     1     115.731 110.084 121.887  1.00  0.00     0.000 C 
ENDROOT
BRANCH   1   2
ATOM      2  C   UNL     1     115.587 111.328 122.784  1.00  0.00     0.000 C 
BRANCH   2   3
ATOM      3  C   UNL     1     116.093 112.643 122.164  1.00  0.00     0.000 C 
BRANCH   3   4
ATOM      4  C   UNL     1     115.287 113.075 120.931  1.00  0.00     0.000 C 
BRANCH   4   5
ATOM      5  C   UNL     1     113.874 113.521 121.327  1.00  0.00     0.006 C 
BRANCH   5   6
ATOM      6  C   UNL     1     112.812 112.653 120.644  1.00  0.00     0.053 C 
BRANCH   6   7
ATOM      7  C   UNL     1     111.647 112.435 121.556  1.00  0.00     0.041 C 
ATOM      8  O   UNL     1     111.743 111.641 122.528  1.00  0.00    -0.550 OA
ATOM      9  O   UNL     1     110.471 113.149 121.364  1.00  0.00    -0.550 OA
ENDBRANCH   6   7
ENDBRANCH   5   6
ENDBRANCH   4   5
ENDBRANCH   3   4
ENDBRANCH   2   3
ENDBRANCH   1   2
BRANCH   1  10
ATOM     10  C   UNL     1     114.386 109.396 121.599  1.00  0.00     0.000 C 
BRANCH  10  11
ATOM     11  C   UNL     1     114.097 109.274 120.093  1.00  0.00    -0.000 C 
BRANCH  11  12
ATOM     12  C   UNL     1     115.337 109.544 119.227  1.00  0.00    -0.000 C 
BRANCH  12  13
ATOM     13  C   UNL     1     115.037 110.596 118.153  1.00  0.00    -0.000 C 
BRANCH  13  14
ATOM     14  C   UNL     1     116.275 111.459 117.867  1.00  0.00    -0.000 C 
BRANCH  14  15
ATOM     15  C   UNL     1     117.475 111.080 118.748  1.00  0.00    -0.003 C 
ATOM     16  C   UNL     1     118.580 112.136 118.730  1.00  0.00     0.004 C 
ENDBRANCH  14  15
ENDBRANCH  13  14
ENDBRANCH  12  13
ENDBRANCH  11  12
ENDBRANCH  10  11
ENDBRANCH   1  10
TORSDOF 12
ENDMDL
MODEL 7
REMARK VINA RESULT:    -3.540      1.937      4.002
REMARK INTER + INTRA:          -7.820
REMARK INTER:                  -5.723
REMARK INTRA:                  -2.097
REMARK UNBOUND:                -1.796
REMARK SMILES CCCCCCCCCCCCCC(=O)[O-]
REMARK SMILES IDX 8 1 9 2 10 3 11 4 12 5 13 6 14 7 15 8 16 9 7 10 6 11 5 12
REMARK SMILES IDX 4 13 3 14 2 15 1 16
REMARK H PARENT
REMARK Flexibility Score: inf
ROOT
ATOM      1  C   UNL     1     117.700 112.267 120.267  1.00  0.00     0.000 C 
ENDROOT
BRANCH   1   2
ATOM      2  C   UNL     1     117.284 113.684 120.704  1.00  0.00     0.000 C 
BRANCH   2   3
ATOM      3  C   UNL     1     115.825 114.063 120.389  1.00  0.00     0.000 C 
BRANCH   3   4
ATOM      4  C   UNL     1     115.119 113.038 119.490  1.00  0.00     0.000 C 
BRANCH   4   5
ATOM      5  C   UNL     1     113.616 112.985 119.793  1.00  0.00     0.006 C 
BRANCH   5   6
ATOM      6  C   UNL     1     113.344 113.260 121.275  1.00  0.00     0.053 C 
BRANCH   6   7
ATOM      7  C   UNL     1     112.009 112.713 121.673  1.00  0.00     0.041 C 
ATOM      8  O   UNL     1     111.906 111.964 122.679  1.00  0.00    -0.550 OA
ATOM      9  O   UNL     1     110.871 113.072 120.962  1.00  0.00    -0.550 OA
ENDBRANCH   6   7
ENDBRANCH   5   6
ENDBRANCH   4   5
ENDBRANCH   3   4
ENDBRANCH   2   3
ENDBRANCH   1   2
BRANCH   1  10
ATOM     10  C   UNL     1     117.986 111.333 121.454  1.00  0.00     0.000 C 
BRANCH  10  11
ATOM     11  C   UNL     1     117.259 111.773 122.737  1.00  0.00    -0.000 C 
BRANCH  11  12
ATOM     12  C   UNL     1     115.848 111.179 122.854  1.00  0.00    -0.000 C 
BRANCH  12  13
ATOM     13  C   UNL     1     115.716 109.908 122.005  1.00  0.00    -0.000 C 
BRANCH  13  14
ATOM     14  C   UNL     1     114.255 109.670 121.595  1.00  0.00    -0.000 C 
BRANCH  14  15
ATOM     15  C   UNL     1     114.115 109.263 120.120  1.00  0.00    -0.003 C 
ATOM     16  C   UNL     1     115.375 109.550 119.304  1.00  0.00     0.004 C 
ENDBRANCH  14  15
ENDBRANCH  13  14
ENDBRANCH  12  13
ENDBRANCH  11  12
ENDBRANCH  10  11
ENDBRANCH   1  10
TORSDOF 12
ENDMDL
MODEL 8
REMARK VINA RESULT:    -3.515      1.026      1.844
REMARK INTER + INTRA:          -7.777
REMARK INTER:                  -5.942
REMARK INTRA:                  -1.834
REMARK UNBOUND:                -1.796
REMARK SMILES CCCCCCCCCCCCCC(=O)[O-]
REMARK SMILES IDX 8 1 9 2 10 3 11 4 12 5 13 6 14 7 15 8 16 9 7 10 6 11 5 12
REMARK SMILES IDX 4 13 3 14 2 15 1 16
REMARK H PARENT
REMARK Flexibility Score: inf
ROOT
ATOM      1  C   UNL     1     114.963 110.082 121.278  1.00  0.00     0.000 C 
ENDROOT
BRANCH   1   2
ATOM      2  C   UNL     1     113.491 110.386 120.941  1.00  0.00     0.000 C 
BRANCH   2   3
ATOM      3  C   UNL     1     112.471 109.933 122.001  1.00  0.00     0.000 C 
BRANCH   3   4
ATOM      4  C   UNL     1     111.685 111.101 122.616  1.00  0.00     0.000 C 
BRANCH   4   5
ATOM      5  C   UNL     1     112.003 112.416 121.895  1.00  0.00     0.006 C 
BRANCH   5   6
ATOM      6  C   UNL     1     110.752 112.993 121.225  1.00  0.00     0.053 C 
BRANCH   6   7
ATOM      7  C   UNL     1     110.634 112.498 119.818  1.00  0.00     0.041 C 
ATOM      8  O   UNL     1     111.600 112.619 119.021  1.00  0.00    -0.550 OA
ATOM      9  O   UNL     1     109.474 111.856 119.402  1.00  0.00    -0.550 OA
ENDBRANCH   6   7
ENDBRANCH   5   6
ENDBRANCH   4   5
ENDBRANCH   3   4
ENDBRANCH   2   3
ENDBRANCH   1   2
BRANCH   1  10
ATOM     10  C   UNL     1     115.413 110.705 122.610  1.00  0.00     0.000 C 
BRANCH  10  11
ATOM     11  C   UNL     1     115.732 112.205 122.480  1.00  0.00    -0.000 C 
BRANCH  11  12
ATOM     12  C   UNL     1     116.130 112.605 121.051  1.00  0.00    -0.000 C 
BRANCH  12  13
ATOM     13  C   UNL     1     115.210 113.709 120.515  1.00  0.00    -0.000 C 
BRANCH  13  14
ATOM     14  C   UNL     1     115.123 113.655 118.982  1.00  0.00    -0.000 C 
BRANCH  14  15
ATOM     15  C   UNL     1     115.747 112.379 118.399  1.00  0.00    -0.003 C 
ATOM     16  C   UNL     1     114.729 111.497 117.678  1.00  0.00     0.004 C 
ENDBRANCH  14  15
ENDBRANCH  13  14
ENDBRANCH  12  13
ENDBRANCH  11  12
ENDBRANCH  10  11
ENDBRANCH   1  10
TORSDOF 12
ENDMDL
MODEL 9
REMARK VINA RESULT:    -3.505      1.038      2.504
REMARK INTER + INTRA:          -7.759
REMARK INTER:                  -6.364
REMARK INTRA:                  -1.395
REMARK UNBOUND:                -1.796
REMARK SMILES CCCCCCCCCCCCCC(=O)[O-]
REMARK SMILES IDX 8 1 9 2 10 3 11 4 12 5 13 6 14 7 15 8 16 9 7 10 6 11 5 12
REMARK SMILES IDX 4 13 3 14 2 15 1 16
REMARK H PARENT
REMARK Flexibility Score: inf
ROOT
ATOM      1  C   UNL     1     111.549 111.124 122.552  1.00  0.00     0.000 C 
ENDROOT
BRANCH   1   2
ATOM      2  C   UNL     1     112.214 112.439 122.105  1.00  0.00     0.000 C 
BRANCH   2   3
ATOM      3  C   UNL     1     111.320 113.372 121.268  1.00  0.00     0.000 C 
BRANCH   3   4
ATOM      4  C   UNL     1     110.376 112.612 120.325  1.00  0.00     0.000 C 
BRANCH   4   5
ATOM      5  C   UNL     1     111.083 112.251 119.014  1.00  0.00     0.006 C 
BRANCH   5   6
ATOM      6  C   UNL     1     110.919 110.762 118.692  1.00  0.00     0.053 C 
BRANCH   6   7
ATOM      7  C   UNL     1     109.761 110.549 117.769  1.00  0.00     0.041 C 
ATOM      8  O   UNL     1     109.649 109.469 117.133  1.00  0.00    -0.550 OA
ATOM      9  O   UNL     1     108.779 111.524 117.650  1.00  0.00    -0.550 OA
ENDBRANCH   6   7
ENDBRANCH   5   6
ENDBRANCH   4   5
ENDBRANCH   3   4
ENDBRANCH   2   3
ENDBRANCH   1   2
BRANCH   1  10
ATOM     10  C   UNL     1     112.260 109.877 122.001  1.00  0.00     0.000 C 
BRANCH  10  11
ATOM     11  C   UNL     1     113.570 110.219 121.271  1.00  0.00    -0.000 C 
BRANCH  11  12
ATOM     12  C   UNL     1     114.714 109.256 121.623  1.00  0.00    -0.000 C 
BRANCH  12  13
ATOM     13  C   UNL     1     115.837 109.988 122.368  1.00  0.00    -0.000 C 
BRANCH  13  14
ATOM     14  C   UNL     1     115.529 111.487 122.492  1.00  0.00    -0.000 C 
BRANCH  14  15
ATOM     15  C   UNL     1     116.373 112.344 121.536  1.00  0.00    -0.003 C 
ATOM     16  C   UNL     1     115.559 113.440 120.849  1.00  0.00     0.004 C 
ENDBRANCH  14  15
ENDBRANCH  13  14
ENDBRANCH  12  13
ENDBRANCH  11  12
ENDBRANCH  10  11
ENDBRANCH   1  10
TORSDOF 12
ENDMDL
