MODEL 1
REMARK VINA RESULT:    -4.684      0.000      0.000
REMARK INTER + INTRA:          -7.160
REMARK INTER:                  -6.875
REMARK INTRA:                  -0.285
REMARK UNBOUND:                -0.285
REMARK SMILES O=C([O-])CCCCCCCC(=O)[O-]
REMARK SMILES IDX 7 1 6 2 5 3 4 4 2 5 1 6 3 7 8 8 9 9 10 10 11 11 12 12 13 13
REMARK H PARENT
REMARK Flexibility Score: inf
ROOT
ATOM      1  C   UNL     1     -29.672 -21.712 -21.259  1.00  0.00     0.000 C 
ENDROOT
BRANCH   1   2
ATOM      2  C   UNL     1     -31.161 -21.980 -21.544  1.00  0.00     0.000 C 
BRANCH   2   3
ATOM      3  C   UNL     1     -31.645 -21.322 -22.845  1.00  0.00     0.006 C 
BRANCH   3   4
ATOM      4  C   UNL     1     -30.523 -21.281 -23.887  1.00  0.00     0.053 C 
BRANCH   4   5
ATOM      5  C   UNL     1     -31.074 -20.948 -25.237  1.00  0.00     0.041 C 
ATOM      6  O   UNL     1     -31.201 -19.746 -25.591  1.00  0.00    -0.550 OA
ATOM      7  O   UNL     1     -31.495 -21.963 -26.087  1.00  0.00    -0.550 OA
ENDBRANCH   4   5
ENDBRANCH   3   4
ENDBRANCH   2   3
ENDBRANCH   1   2
BRANCH   1   8
ATOM      8  C   UNL     1     -28.795 -22.973 -21.115  1.00  0.00     0.000 C 
BRANCH   8   9
ATOM      9  C   UNL     1     -28.089 -23.125 -19.756  1.00  0.00     0.006 C 
BRANCH   9  10
ATOM     10  C   UNL     1     -28.633 -22.164 -18.691  1.00  0.00     0.053 C 
BRANCH  10  11
ATOM     11  C   UNL     1     -28.242 -22.625 -17.323  1.00  0.00     0.041 C 
ATOM     12  O   UNL     1     -27.031 -22.830 -17.045  1.00  0.00    -0.550 OA
ATOM     13  O   UNL     1     -29.219 -22.878 -16.369  1.00  0.00    -0.550 OA
ENDBRANCH  10  11
ENDBRANCH   9  10
ENDBRANCH   8   9
ENDBRANCH   1   8
TORSDOF 8
ENDMDL
MODEL 2
REMARK VINA RESULT:    -4.683      0.438      7.203
REMARK INTER + INTRA:          -7.158
REMARK INTER:                  -6.907
REMARK INTRA:                  -0.252
REMARK UNBOUND:                -0.285
REMARK SMILES O=C([O-])CCCCCCCC(=O)[O-]
REMARK SMILES IDX 7 1 6 2 5 3 4 4 2 5 1 6 3 7 8 8 9 9 10 10 11 11 12 12 13 13
REMARK H PARENT
REMARK Flexibility Score: inf
ROOT
ATOM      1  C   UNL     1     -30.093 -21.502 -21.183  1.00  0.00     0.000 C 
ENDROOT
BRANCH   1   2
ATOM      2  C   UNL     1     -29.666 -22.963 -20.949  1.00  0.00     0.000 C 
BRANCH   2   3
ATOM      3  C   UNL     1     -28.544 -23.095 -19.907  1.00  0.00     0.006 C 
BRANCH   3   4
ATOM      4  C   UNL     1     -28.715 -22.063 -18.787  1.00  0.00     0.053 C 
BRANCH   4   5
ATOM      5  C   UNL     1     -28.312 -22.649 -17.470  1.00  0.00     0.041 C 
ATOM      6  O   UNL     1     -29.150 -22.743 -16.535  1.00  0.00    -0.550 OA
ATOM      7  O   UNL     1     -26.998 -23.045 -17.259  1.00  0.00    -0.550 OA
ENDBRANCH   4   5
ENDBRANCH   3   4
ENDBRANCH   2   3
ENDBRANCH   1   2
BRANCH   1   8
ATOM      8  C   UNL     1     -31.590 -21.299 -21.493  1.00  0.00     0.000 C 
BRANCH   8   9
ATOM      9  C   UNL     1     -31.909 -20.918 -22.950  1.00  0.00     0.006 C 
BRANCH   9  10
ATOM     10  C   UNL     1     -30.802 -21.331 -23.929  1.00  0.00     0.053 C 
BRANCH  10  11
ATOM     11  C   UNL     1     -31.202 -21.008 -25.334  1.00  0.00     0.041 C 
ATOM     12  O   UNL     1     -31.283 -19.810 -25.711  1.00  0.00    -0.550 OA
ATOM     13  O   UNL     1     -31.534 -22.030 -26.214  1.00  0.00    -0.550 OA
ENDBRANCH  10  11
ENDBRANCH   9  10
ENDBRANCH   8   9
ENDBRANCH   1   8
TORSDOF 8
ENDMDL
MODEL 3
REMARK VINA RESULT:    -4.630      0.570      1.382
REMARK INTER + INTRA:          -7.081
REMARK INTER:                  -6.783
REMARK INTRA:                  -0.298
REMARK UNBOUND:                -0.285
REMARK SMILES O=C([O-])CCCCCCCC(=O)[O-]
REMARK SMILES IDX 7 1 6 2 5 3 4 4 2 5 1 6 3 7 8 8 9 9 10 10 11 11 12 12 13 13
REMARK H PARENT
REMARK Flexibility Score: inf
ROOT
ATOM      1  C   UNL     1     -29.002 -22.279 -22.110  1.00  0.00     0.000 C 
ENDROOT
BRANCH   1   2
ATOM      2  C   UNL     1     -30.524 -22.176 -21.897  1.00  0.00     0.000 C 
BRANCH   2   3
ATOM      3  C   UNL     1     -31.258 -21.594 -23.114  1.00  0.00     0.006 C 
BRANCH   3   4
ATOM      4  C   UNL     1     -30.274 -21.282 -24.247  1.00  0.00     0.053 C 
BRANCH   4   5
ATOM      5  C   UNL     1     -31.009 -21.055 -25.530  1.00  0.00     0.041 C 
ATOM      6  O   UNL     1     -31.359 -22.032 -26.242  1.00  0.00    -0.550 OA
ATOM      7  O   UNL     1     -31.264 -19.760 -25.965  1.00  0.00    -0.550 OA
ENDBRANCH   4   5
ENDBRANCH   3   4
ENDBRANCH   2   3
ENDBRANCH   1   2
BRANCH   1   8
ATOM      8  C   UNL     1     -28.235 -23.032 -21.004  1.00  0.00     0.000 C 
BRANCH   8   9
ATOM      9  C   UNL     1     -28.964 -23.124 -19.652  1.00  0.00     0.006 C 
BRANCH   9  10
ATOM     10  C   UNL     1     -28.439 -22.115 -18.623  1.00  0.00     0.053 C 
BRANCH  10  11
ATOM     11  C   UNL     1     -28.272 -22.769 -17.288  1.00  0.00     0.041 C 
ATOM     12  O   UNL     1     -29.283 -23.086 -16.607  1.00  0.00    -0.550 OA
ATOM     13  O   UNL     1     -27.001 -22.983 -16.773  1.00  0.00    -0.550 OA
ENDBRANCH  10  11
ENDBRANCH   9  10
ENDBRANCH   8   9
ENDBRANCH   1   8
TORSDOF 8
ENDMDL
MODEL 4
REMARK VINA RESULT:    -4.300      0.834      7.271
REMARK INTER + INTRA:          -6.595
REMARK INTER:                  -6.289
REMARK INTRA:                  -0.306
REMARK UNBOUND:                -0.285
REMARK SMILES O=C([O-])CCCCCCCC(=O)[O-]
REMARK SMILES IDX 7 1 6 2 5 3 4 4 2 5 1 6 3 7 8 8 9 9 10 10 11 11 12 12 13 13
REMARK H PARENT
REMARK Flexibility Score: inf
ROOT
ATOM      1  C   UNL     1     -30.195 -22.857 -20.824  1.00  0.00     0.000 C 
ENDROOT
BRANCH   1   2
ATOM      2  C   UNL     1     -29.503 -21.565 -20.354  1.00  0.00     0.000 C 
BRANCH   2   3
ATOM      3  C   UNL     1     -28.373 -21.828 -19.346  1.00  0.00     0.006 C 
BRANCH   3   4
ATOM      4  C   UNL     1     -28.624 -23.125 -18.571  1.00  0.00     0.053 C 
BRANCH   4   5
ATOM      5  C   UNL     1     -28.384 -22.915 -17.109  1.00  0.00     0.041 C 
ATOM      6  O   UNL     1     -27.210 -22.877 -16.658  1.00  0.00    -0.550 OA
ATOM      7  O   UNL     1     -29.460 -22.810 -16.236  1.00  0.00    -0.550 OA
ENDBRANCH   4   5
ENDBRANCH   3   4
ENDBRANCH   2   3
ENDBRANCH   1   2
BRANCH   1   8
ATOM      8  C   UNL     1     -30.964 -22.740 -22.156  1.00  0.00     0.000 C 
BRANCH   8   9
ATOM      9  C   UNL     1     -30.419 -21.685 -23.134  1.00  0.00     0.006 C 
BRANCH   9  10
ATOM     10  C   UNL     1     -31.528 -20.858 -23.797  1.00  0.00     0.053 C 
BRANCH  10  11
ATOM     11  C   UNL     1     -31.191 -20.589 -25.230  1.00  0.00     0.041 C 
ATOM     12  O   UNL     1     -30.993 -19.409 -25.624  1.00  0.00    -0.550 OA
ATOM     13  O   UNL     1     -31.146 -21.635 -26.142  1.00  0.00    -0.550 OA
ENDBRANCH  10  11
ENDBRANCH   9  10
ENDBRANCH   8   9
ENDBRANCH   1   8
TORSDOF 8
ENDMDL
MODEL 5
REMARK VINA RESULT:    -3.834      2.699      6.431
REMARK INTER + INTRA:          -5.912
REMARK INTER:                  -5.505
REMARK INTRA:                  -0.407
REMARK UNBOUND:                -0.285
REMARK SMILES O=C([O-])CCCCCCCC(=O)[O-]
REMARK SMILES IDX 7 1 6 2 5 3 4 4 2 5 1 6 3 7 8 8 9 9 10 10 11 11 12 12 13 13
REMARK H PARENT
REMARK Flexibility Score: inf
ROOT
ATOM      1  C   UNL     1     -31.577 -21.375 -21.394  1.00  0.00     0.000 C 
ENDROOT
BRANCH   1   2
ATOM      2  C   UNL     1     -31.109 -22.842 -21.418  1.00  0.00     0.000 C 
BRANCH   2   3
ATOM      3  C   UNL     1     -29.825 -23.070 -20.606  1.00  0.00     0.006 C 
BRANCH   3   4
ATOM      4  C   UNL     1     -28.802 -21.962 -20.878  1.00  0.00     0.053 C 
BRANCH   4   5
ATOM      5  C   UNL     1     -28.009 -22.273 -22.108  1.00  0.00     0.041 C 
ATOM      6  O   UNL     1     -27.083 -23.125 -22.067  1.00  0.00    -0.550 OA
ATOM      7  O   UNL     1     -28.260 -21.587 -23.290  1.00  0.00    -0.550 OA
ENDBRANCH   4   5
ENDBRANCH   3   4
ENDBRANCH   2   3
ENDBRANCH   1   2
BRANCH   1   8
ATOM      8  C   UNL     1     -31.999 -20.800 -22.762  1.00  0.00     0.000 C 
BRANCH   8   9
ATOM      9  C   UNL     1     -31.331 -21.461 -23.981  1.00  0.00     0.006 C 
BRANCH   9  10
ATOM     10  C   UNL     1     -31.916 -20.978 -25.314  1.00  0.00     0.053 C 
BRANCH  10  11
ATOM     11  C   UNL     1     -31.247 -21.670 -26.459  1.00  0.00     0.041 C 
ATOM     12  O   UNL     1     -30.251 -21.144 -27.023  1.00  0.00    -0.550 OA
ATOM     13  O   UNL     1     -31.753 -22.871 -26.937  1.00  0.00    -0.550 OA
ENDBRANCH  10  11
ENDBRANCH   9  10
ENDBRANCH   8   9
ENDBRANCH   1   8
TORSDOF 8
ENDMDL
MODEL 6
REMARK VINA RESULT:    -3.311      2.333      2.855
REMARK INTER + INTRA:          -5.144
REMARK INTER:                  -4.784
REMARK INTRA:                  -0.359
REMARK UNBOUND:                -0.285
REMARK SMILES O=C([O-])CCCCCCCC(=O)[O-]
REMARK SMILES IDX 7 1 6 2 5 3 4 4 2 5 1 6 3 7 8 8 9 9 10 10 11 11 12 12 13 13
REMARK H PARENT
REMARK Flexibility Score: inf
ROOT
ATOM      1  C   UNL     1     -28.551 -21.343 -23.223  1.00  0.00     0.000 C 
ENDROOT
BRANCH   1   2
ATOM      2  C   UNL     1     -29.756 -21.674 -24.123  1.00  0.00     0.000 C 
BRANCH   2   3
ATOM      3  C   UNL     1     -30.624 -20.444 -24.432  1.00  0.00     0.006 C 
BRANCH   3   4
ATOM      4  C   UNL     1     -32.090 -20.707 -24.075  1.00  0.00     0.053 C 
BRANCH   4   5
ATOM      5  C   UNL     1     -32.337 -20.414 -22.628  1.00  0.00     0.041 C 
ATOM      6  O   UNL     1     -32.901 -19.342 -22.285  1.00  0.00    -0.550 OA
ATOM      7  O   UNL     1     -31.898 -21.303 -21.654  1.00  0.00    -0.550 OA
ENDBRANCH   4   5
ENDBRANCH   3   4
ENDBRANCH   2   3
ENDBRANCH   1   2
BRANCH   1   8
ATOM      8  C   UNL     1     -27.568 -22.508 -22.992  1.00  0.00     0.000 C 
BRANCH   8   9
ATOM      9  C   UNL     1     -27.607 -23.125 -21.582  1.00  0.00     0.006 C 
BRANCH   9  10
ATOM     10  C   UNL     1     -28.998 -23.051 -20.939  1.00  0.00     0.053 C 
BRANCH  10  11
ATOM     11  C   UNL     1     -28.954 -22.225 -19.693  1.00  0.00     0.041 C 
ATOM     12  O   UNL     1     -28.752 -22.770 -18.577  1.00  0.00    -0.550 OA
ATOM     13  O   UNL     1     -29.186 -20.857 -19.758  1.00  0.00    -0.550 OA
ENDBRANCH  10  11
ENDBRANCH   9  10
ENDBRANCH   8   9
ENDBRANCH   1   8
TORSDOF 8
ENDMDL
MODEL 7
REMARK VINA RESULT:    -3.273      2.233      5.993
REMARK INTER + INTRA:          -5.088
REMARK INTER:                  -4.819
REMARK INTRA:                  -0.269
REMARK UNBOUND:                -0.285
REMARK SMILES O=C([O-])CCCCCCCC(=O)[O-]
REMARK SMILES IDX 7 1 6 2 5 3 4 4 2 5 1 6 3 7 8 8 9 9 10 10 11 11 12 12 13 13
REMARK H PARENT
REMARK Flexibility Score: inf
ROOT
ATOM      1  C   UNL     1     -28.929 -20.939 -23.804  1.00  0.00     0.000 C 
ENDROOT
BRANCH   1   2
ATOM      2  C   UNL     1     -28.275 -22.085 -23.011  1.00  0.00     0.000 C 
BRANCH   2   3
ATOM      3  C   UNL     1     -29.180 -22.629 -21.895  1.00  0.00     0.006 C 
BRANCH   3   4
ATOM      4  C   UNL     1     -28.347 -23.125 -20.709  1.00  0.00     0.053 C 
BRANCH   4   5
ATOM      5  C   UNL     1     -28.691 -22.358 -19.471  1.00  0.00     0.041 C 
ATOM      6  O   UNL     1     -29.155 -21.191 -19.556  1.00  0.00    -0.550 OA
ATOM      7  O   UNL     1     -28.454 -22.915 -18.220  1.00  0.00    -0.550 OA
ENDBRANCH   4   5
ENDBRANCH   3   4
ENDBRANCH   2   3
ENDBRANCH   1   2
BRANCH   1   8
ATOM      8  C   UNL     1     -30.086 -21.361 -24.732  1.00  0.00     0.000 C 
BRANCH   8   9
ATOM      9  C   UNL     1     -31.458 -20.758 -24.381  1.00  0.00     0.006 C 
BRANCH   9  10
ATOM     10  C   UNL     1     -31.930 -21.134 -22.971  1.00  0.00     0.053 C 
BRANCH  10  11
ATOM     11  C   UNL     1     -32.573 -19.959 -22.305  1.00  0.00     0.041 C 
ATOM     12  O   UNL     1     -33.448 -19.286 -22.912  1.00  0.00    -0.550 OA
ATOM     13  O   UNL     1     -32.172 -19.575 -21.032  1.00  0.00    -0.550 OA
ENDBRANCH  10  11
ENDBRANCH   9  10
ENDBRANCH   8   9
ENDBRANCH   1   8
TORSDOF 8
ENDMDL
