MODEL 1
REMARK VINA RESULT:    -6.773      0.000      0.000
REMARK INTER + INTRA:          -6.971
REMARK INTER:                  -6.971
REMARK INTRA:                   0.000
REMARK UNBOUND:                 0.000
REMARK SMILES C=C1CCC[C@@]2(C)C[C@]3(O)OC(=O)C(C)=C3C[C@H]12
REMARK SMILES IDX 15 1 14 2 16 3 17 4 18 5 2 6 1 7 3 8 4 9 5 10 6 11 8 12 9 13
REMARK SMILES IDX 11 14 12 15 13 16 7 17 10 18
REMARK H PARENT 10 19
REMARK Flexibility Score: inf
ROOT
ATOM      1  C   UNL     1      48.512  44.434  31.433  1.00  0.00     0.052 C 
ATOM      2  C   UNL     1      48.367  43.804  32.784  1.00  0.00     0.040 C 
ATOM      3  C   UNL     1      48.378  44.434  33.957  1.00  0.00     0.012 C 
ATOM      4  C   UNL     1      48.556  45.908  34.162  1.00  0.00     0.047 C 
ATOM      5  C   UNL     1      48.974  46.192  35.629  1.00  0.00     0.025 C 
ATOM      6  C   UNL     1      49.371  47.643  35.912  1.00  0.00    -0.073 C 
ATOM      7  C   UNL     1      49.179  48.651  35.038  1.00  0.00     0.008 C 
ATOM      8  C   UNL     1      49.832  47.964  37.315  1.00  0.00     0.031 C 
ATOM      9  C   UNL     1      50.918  46.989  37.771  1.00  0.00     0.005 C 
ATOM     10  C   UNL     1      50.481  45.528  37.577  1.00  0.00     0.008 C 
ATOM     11  C   UNL     1      50.094  45.196  36.105  1.00  0.00    -0.019 C 
ATOM     12  C   UNL     1      49.586  43.702  36.050  1.00  0.00     0.092 C 
ATOM     13  C   UNL     1      48.387  43.454  35.100  1.00  0.00     0.235 C 
ATOM     14  O   UNL     1      48.484  42.188  34.444  1.00  0.00    -0.426 OA
ATOM     15  C   UNL     1      48.449  42.390  33.077  1.00  0.00     0.336 C 
ATOM     16  O   UNL     1      48.513  41.465  32.227  1.00  0.00    -0.246 OA
ATOM     17  C   UNL     1      51.353  45.319  35.202  1.00  0.00     0.012 C 
ENDROOT
BRANCH  13  18
ATOM     18  O   UNL     1      47.167  43.546  35.793  1.00  0.00    -0.353 OA
ATOM     19  H   UNL     1      47.217  44.360  36.358  1.00  0.00     0.215 HD
ENDBRANCH  13  18
TORSDOF 1
ENDMDL
MODEL 2
REMARK VINA RESULT:    -6.284      1.600      3.041
REMARK INTER + INTRA:          -6.468
REMARK INTER:                  -6.468
REMARK INTRA:                   0.000
REMARK UNBOUND:                 0.000
REMARK SMILES C=C1CCC[C@@]2(C)C[C@]3(O)OC(=O)C(C)=C3C[C@H]12
REMARK SMILES IDX 15 1 14 2 16 3 17 4 18 5 2 6 1 7 3 8 4 9 5 10 6 11 8 12 9 13
REMARK SMILES IDX 11 14 12 15 13 16 7 17 10 18
REMARK H PARENT 10 19
REMARK Flexibility Score: inf
ROOT
ATOM      1  C   UNL     1      47.442  42.103  35.904  1.00  0.00     0.052 C 
ATOM      2  C   UNL     1      47.762  43.015  34.760  1.00  0.00     0.040 C 
ATOM      3  C   UNL     1      48.713  43.945  34.732  1.00  0.00     0.012 C 
ATOM      4  C   UNL     1      49.649  44.282  35.854  1.00  0.00     0.047 C 
ATOM      5  C   UNL     1      50.271  45.684  35.623  1.00  0.00     0.025 C 
ATOM      6  C   UNL     1      51.097  46.218  36.796  1.00  0.00    -0.073 C 
ATOM      7  C   UNL     1      51.448  45.471  37.860  1.00  0.00     0.008 C 
ATOM      8  C   UNL     1      51.687  47.602  36.642  1.00  0.00     0.031 C 
ATOM      9  C   UNL     1      50.619  48.606  36.206  1.00  0.00     0.005 C 
ATOM     10  C   UNL     1      49.853  48.113  34.969  1.00  0.00     0.008 C 
ATOM     11  C   UNL     1      49.179  46.725  35.178  1.00  0.00    -0.019 C 
ATOM     12  C   UNL     1      48.500  46.292  33.821  1.00  0.00     0.092 C 
ATOM     13  C   UNL     1      48.618  44.783  33.484  1.00  0.00     0.235 C 
ATOM     14  O   UNL     1      47.436  44.288  32.850  1.00  0.00    -0.426 OA
ATOM     15  C   UNL     1      46.942  43.230  33.589  1.00  0.00     0.336 C 
ATOM     16  O   UNL     1      45.909  42.581  33.284  1.00  0.00    -0.246 OA
ATOM     17  C   UNL     1      48.071  46.850  36.262  1.00  0.00     0.012 C 
ENDROOT
BRANCH  13  18
ATOM     18  O   UNL     1      49.740  44.532  32.677  1.00  0.00    -0.353 OA
ATOM     19  H   UNL     1      50.510  44.991  33.102  1.00  0.00     0.215 HD
ENDBRANCH  13  18
TORSDOF 1
ENDMDL
MODEL 3
REMARK VINA RESULT:    -6.179     11.564     12.728
REMARK INTER + INTRA:          -6.360
REMARK INTER:                  -6.360
REMARK INTRA:                   0.000
REMARK UNBOUND:                 0.000
REMARK SMILES C=C1CCC[C@@]2(C)C[C@]3(O)OC(=O)C(C)=C3C[C@H]12
REMARK SMILES IDX 15 1 14 2 16 3 17 4 18 5 2 6 1 7 3 8 4 9 5 10 6 11 8 12 9 13
REMARK SMILES IDX 11 14 12 15 13 16 7 17 10 18
REMARK H PARENT 10 19
REMARK Flexibility Score: inf
ROOT
ATOM      1  C   UNL     1      50.703  43.712  46.427  1.00  0.00     0.052 C 
ATOM      2  C   UNL     1      49.432  42.921  46.472  1.00  0.00     0.040 C 
ATOM      3  C   UNL     1      48.194  43.409  46.426  1.00  0.00     0.012 C 
ATOM      4  C   UNL     1      47.822  44.858  46.338  1.00  0.00     0.047 C 
ATOM      5  C   UNL     1      46.345  45.053  46.770  1.00  0.00     0.025 C 
ATOM      6  C   UNL     1      45.905  46.513  46.904  1.00  0.00    -0.073 C 
ATOM      7  C   UNL     1      46.648  47.555  46.483  1.00  0.00     0.008 C 
ATOM      8  C   UNL     1      44.488  46.760  47.369  1.00  0.00     0.031 C 
ATOM      9  C   UNL     1      44.183  45.965  48.640  1.00  0.00     0.005 C 
ATOM     10  C   UNL     1      44.535  44.479  48.473  1.00  0.00     0.008 C 
ATOM     11  C   UNL     1      46.023  44.242  48.079  1.00  0.00    -0.019 C 
ATOM     12  C   UNL     1      46.239  42.695  47.856  1.00  0.00     0.092 C 
ATOM     13  C   UNL     1      47.175  42.328  46.676  1.00  0.00     0.235 C 
ATOM     14  O   UNL     1      47.979  41.185  46.973  1.00  0.00    -0.426 OA
ATOM     15  C   UNL     1      49.311  41.526  46.831  1.00  0.00     0.336 C 
ATOM     16  O   UNL     1      50.265  40.729  47.022  1.00  0.00    -0.246 OA
ATOM     17  C   UNL     1      46.943  44.702  49.245  1.00  0.00     0.012 C 
ENDROOT
BRANCH  13  18
ATOM     18  O   UNL     1      46.441  42.109  45.499  1.00  0.00    -0.353 OA
ATOM     19  H   UNL     1      45.962  42.955  45.296  1.00  0.00     0.215 HD
ENDBRANCH  13  18
TORSDOF 1
ENDMDL
MODEL 4
REMARK VINA RESULT:    -6.084      2.478      5.135
REMARK INTER + INTRA:          -6.262
REMARK INTER:                  -6.262
REMARK INTRA:                   0.000
REMARK UNBOUND:                 0.000
REMARK SMILES C=C1CCC[C@@]2(C)C[C@]3(O)OC(=O)C(C)=C3C[C@H]12
REMARK SMILES IDX 15 1 14 2 16 3 17 4 18 5 2 6 1 7 3 8 4 9 5 10 6 11 8 12 9 13
REMARK SMILES IDX 11 14 12 15 13 16 7 17 10 18
REMARK H PARENT 10 19
REMARK Flexibility Score: inf
ROOT
ATOM      1  C   UNL     1      49.376  49.037  35.423  1.00  0.00     0.052 C 
ATOM      2  C   UNL     1      50.184  47.828  35.780  1.00  0.00     0.040 C 
ATOM      3  C   UNL     1      50.142  46.641  35.177  1.00  0.00     0.012 C 
ATOM      4  C   UNL     1      49.258  46.270  34.025  1.00  0.00     0.047 C 
ATOM      5  C   UNL     1      49.154  44.726  33.913  1.00  0.00     0.025 C 
ATOM      6  C   UNL     1      48.128  44.227  32.892  1.00  0.00    -0.073 C 
ATOM      7  C   UNL     1      47.511  45.030  32.004  1.00  0.00     0.008 C 
ATOM      8  C   UNL     1      47.952  42.730  32.777  1.00  0.00     0.031 C 
ATOM      9  C   UNL     1      47.727  42.098  34.151  1.00  0.00     0.005 C 
ATOM     10  C   UNL     1      48.812  42.523  35.152  1.00  0.00     0.008 C 
ATOM     11  C   UNL     1      48.918  44.068  35.321  1.00  0.00    -0.019 C 
ATOM     12  C   UNL     1      50.115  44.380  36.302  1.00  0.00     0.092 C 
ATOM     13  C   UNL     1      50.961  45.622  35.926  1.00  0.00     0.235 C 
ATOM     14  O   UNL     1      51.394  46.339  37.083  1.00  0.00    -0.426 OA
ATOM     15  C   UNL     1      50.956  47.647  36.989  1.00  0.00     0.336 C 
ATOM     16  O   UNL     1      51.182  48.529  37.857  1.00  0.00    -0.246 OA
ATOM     17  C   UNL     1      47.607  44.605  35.962  1.00  0.00     0.012 C 
ENDROOT
BRANCH  13  18
ATOM     18  O   UNL     1      52.069  45.260  35.141  1.00  0.00    -0.353 OA
ATOM     19  H   UNL     1      52.873  45.642  35.581  1.00  0.00     0.215 HD
ENDBRANCH  13  18
TORSDOF 1
ENDMDL
MODEL 5
REMARK VINA RESULT:    -6.035      4.683      6.860
REMARK INTER + INTRA:          -6.212
REMARK INTER:                  -6.212
REMARK INTRA:                   0.000
REMARK UNBOUND:                 0.000
REMARK SMILES C=C1CCC[C@@]2(C)C[C@]3(O)OC(=O)C(C)=C3C[C@H]12
REMARK SMILES IDX 15 1 14 2 16 3 17 4 18 5 2 6 1 7 3 8 4 9 5 10 6 11 8 12 9 13
REMARK SMILES IDX 11 14 12 15 13 16 7 17 10 18
REMARK H PARENT 10 19
REMARK Flexibility Score: inf
ROOT
ATOM      1  C   UNL     1      50.173  52.557  35.486  1.00  0.00     0.052 C 
ATOM      2  C   UNL     1      51.387  51.681  35.538  1.00  0.00     0.040 C 
ATOM      3  C   UNL     1      51.418  50.360  35.376  1.00  0.00     0.012 C 
ATOM      4  C   UNL     1      50.234  49.476  35.126  1.00  0.00     0.047 C 
ATOM      5  C   UNL     1      50.593  48.003  35.455  1.00  0.00     0.025 C 
ATOM      6  C   UNL     1      49.409  47.033  35.421  1.00  0.00    -0.073 C 
ATOM      7  C   UNL     1      48.193  47.360  34.941  1.00  0.00     0.008 C 
ATOM      8  C   UNL     1      49.695  45.593  35.780  1.00  0.00     0.031 C 
ATOM      9  C   UNL     1      50.456  45.501  37.104  1.00  0.00     0.005 C 
ATOM     10  C   UNL     1      51.699  46.403  37.104  1.00  0.00     0.008 C 
ATOM     11  C   UNL     1      51.372  47.898  36.817  1.00  0.00    -0.019 C 
ATOM     12  C   UNL     1      52.728  48.703  36.760  1.00  0.00     0.092 C 
ATOM     13  C   UNL     1      52.787  49.808  35.675  1.00  0.00     0.235 C 
ATOM     14  O   UNL     1      53.510  50.956  36.127  1.00  0.00    -0.426 OA
ATOM     15  C   UNL     1      52.693  52.066  36.025  1.00  0.00     0.336 C 
ATOM     16  O   UNL     1      53.045  53.230  36.346  1.00  0.00    -0.246 OA
ATOM     17  C   UNL     1      50.513  48.468  37.982  1.00  0.00     0.012 C 
ENDROOT
BRANCH  13  18
ATOM     18  O   UNL     1      53.354  49.319  34.486  1.00  0.00    -0.353 OA
ATOM     19  H   UNL     1      54.337  49.299  34.621  1.00  0.00     0.215 HD
ENDBRANCH  13  18
TORSDOF 1
ENDMDL
MODEL 6
REMARK VINA RESULT:    -5.913     13.003     15.131
REMARK INTER + INTRA:          -6.086
REMARK INTER:                  -6.086
REMARK INTRA:                   0.000
REMARK UNBOUND:                 0.000
REMARK SMILES C=C1CCC[C@@]2(C)C[C@]3(O)OC(=O)C(C)=C3C[C@H]12
REMARK SMILES IDX 15 1 14 2 16 3 17 4 18 5 2 6 1 7 3 8 4 9 5 10 6 11 8 12 9 13
REMARK SMILES IDX 11 14 12 15 13 16 7 17 10 18
REMARK H PARENT 10 19
REMARK Flexibility Score: inf
ROOT
ATOM      1  C   UNL     1      47.753  40.417  46.382  1.00  0.00     0.052 C 
ATOM      2  C   UNL     1      49.198  40.089  46.603  1.00  0.00     0.040 C 
ATOM      3  C   UNL     1      49.740  38.873  46.619  1.00  0.00     0.012 C 
ATOM      4  C   UNL     1      49.005  37.579  46.436  1.00  0.00     0.047 C 
ATOM      5  C   UNL     1      49.862  36.403  46.973  1.00  0.00     0.025 C 
ATOM      6  C   UNL     1      49.140  35.053  47.015  1.00  0.00    -0.073 C 
ATOM      7  C   UNL     1      47.940  34.833  46.444  1.00  0.00     0.008 C 
ATOM      8  C   UNL     1      49.915  33.882  47.575  1.00  0.00     0.031 C 
ATOM      9  C   UNL     1      50.530  34.230  48.931  1.00  0.00     0.005 C 
ATOM     10  C   UNL     1      51.336  35.537  48.866  1.00  0.00     0.008 C 
ATOM     11  C   UNL     1      50.495  36.750  48.370  1.00  0.00    -0.019 C 
ATOM     12  C   UNL     1      51.447  38.005  48.266  1.00  0.00     0.092 C 
ATOM     13  C   UNL     1      51.183  38.927  47.048  1.00  0.00     0.235 C 
ATOM     14  O   UNL     1      51.374  40.305  47.374  1.00  0.00    -0.426 OA
ATOM     15  C   UNL     1      50.212  40.997  47.091  1.00  0.00     0.336 C 
ATOM     16  O   UNL     1      50.067  42.233  47.270  1.00  0.00    -0.246 OA
ATOM     17  C   UNL     1      49.383  37.064  49.410  1.00  0.00     0.012 C 
ENDROOT
BRANCH  13  18
ATOM     18  O   UNL     1      51.998  38.571  45.960  1.00  0.00    -0.353 OA
ATOM     19  H   UNL     1      52.429  39.405  45.637  1.00  0.00     0.215 HD
ENDBRANCH  13  18
TORSDOF 1
ENDMDL
MODEL 7
REMARK VINA RESULT:    -5.795     11.329     12.817
REMARK INTER + INTRA:          -5.964
REMARK INTER:                  -5.964
REMARK INTRA:                   0.000
REMARK UNBOUND:                 0.000
REMARK SMILES C=C1CCC[C@@]2(C)C[C@]3(O)OC(=O)C(C)=C3C[C@H]12
REMARK SMILES IDX 15 1 14 2 16 3 17 4 18 5 2 6 1 7 3 8 4 9 5 10 6 11 8 12 9 13
REMARK SMILES IDX 11 14 12 15 13 16 7 17 10 18
REMARK H PARENT 10 19
REMARK Flexibility Score: inf
ROOT
ATOM      1  C   UNL     1      46.814  46.623  45.665  1.00  0.00     0.052 C 
ATOM      2  C   UNL     1      46.506  45.603  46.717  1.00  0.00     0.040 C 
ATOM      3  C   UNL     1      47.243  44.539  47.028  1.00  0.00     0.012 C 
ATOM      4  C   UNL     1      48.529  44.136  46.371  1.00  0.00     0.047 C 
ATOM      5  C   UNL     1      48.832  42.644  46.670  1.00  0.00     0.025 C 
ATOM      6  C   UNL     1      50.020  42.066  45.896  1.00  0.00    -0.073 C 
ATOM      7  C   UNL     1      50.876  42.818  45.178  1.00  0.00     0.008 C 
ATOM      8  C   UNL     1      50.329  40.602  46.114  1.00  0.00     0.031 C 
ATOM      9  C   UNL     1      49.075  39.746  45.935  1.00  0.00     0.005 C 
ATOM     10  C   UNL     1      47.908  40.270  46.786  1.00  0.00     0.008 C 
ATOM     11  C   UNL     1      47.548  41.755  46.484  1.00  0.00    -0.019 C 
ATOM     12  C   UNL     1      46.401  42.199  47.472  1.00  0.00     0.092 C 
ATOM     13  C   UNL     1      46.525  43.648  48.009  1.00  0.00     0.235 C 
ATOM     14  O   UNL     1      45.248  44.275  48.143  1.00  0.00    -0.426 OA
ATOM     15  C   UNL     1      45.241  45.440  47.400  1.00  0.00     0.336 C 
ATOM     16  O   UNL     1      44.256  46.218  47.319  1.00  0.00    -0.246 OA
ATOM     17  C   UNL     1      47.012  41.867  45.029  1.00  0.00     0.012 C 
ENDROOT
BRANCH  13  18
ATOM     18  O   UNL     1      47.207  43.675  49.237  1.00  0.00    -0.353 OA
ATOM     19  H   UNL     1      47.700  42.817  49.312  1.00  0.00     0.215 HD
ENDBRANCH  13  18
TORSDOF 1
ENDMDL
MODEL 8
REMARK VINA RESULT:    -5.635      2.994      4.919
REMARK INTER + INTRA:          -5.800
REMARK INTER:                  -5.800
REMARK INTRA:                   0.000
REMARK UNBOUND:                 0.000
REMARK SMILES C=C1CCC[C@@]2(C)C[C@]3(O)OC(=O)C(C)=C3C[C@H]12
REMARK SMILES IDX 15 1 14 2 16 3 17 4 18 5 2 6 1 7 3 8 4 9 5 10 6 11 8 12 9 13
REMARK SMILES IDX 11 14 12 15 13 16 7 17 10 18
REMARK H PARENT 10 19
REMARK Flexibility Score: inf
ROOT
ATOM      1  C   UNL     1      49.219  43.988  35.423  1.00  0.00     0.052 C 
ATOM      2  C   UNL     1      49.824  45.357  35.464  1.00  0.00     0.040 C 
ATOM      3  C   UNL     1      50.906  45.724  36.147  1.00  0.00     0.012 C 
ATOM      4  C   UNL     1      51.730  44.839  37.033  1.00  0.00     0.047 C 
ATOM      5  C   UNL     1      52.591  45.703  37.992  1.00  0.00     0.025 C 
ATOM      6  C   UNL     1      53.332  44.912  39.073  1.00  0.00    -0.073 C 
ATOM      7  C   UNL     1      53.420  43.567  39.083  1.00  0.00     0.008 C 
ATOM      8  C   UNL     1      54.148  45.709  40.065  1.00  0.00     0.031 C 
ATOM      9  C   UNL     1      53.318  46.842  40.670  1.00  0.00     0.005 C 
ATOM     10  C   UNL     1      52.650  47.696  39.582  1.00  0.00     0.008 C 
ATOM     11  C   UNL     1      51.744  46.868  38.623  1.00  0.00    -0.019 C 
ATOM     12  C   UNL     1      51.186  47.834  37.507  1.00  0.00     0.092 C 
ATOM     13  C   UNL     1      51.106  47.216  36.088  1.00  0.00     0.235 C 
ATOM     14  O   UNL     1      49.954  47.671  35.376  1.00  0.00    -0.426 OA
ATOM     15  C   UNL     1      49.207  46.575  34.987  1.00  0.00     0.336 C 
ATOM     16  O   UNL     1      48.132  46.650  34.338  1.00  0.00    -0.246 OA
ATOM     17  C   UNL     1      50.539  46.296  39.423  1.00  0.00     0.012 C 
ENDROOT
BRANCH  13  18
ATOM     18  O   UNL     1      52.270  47.493  35.350  1.00  0.00    -0.353 OA
ATOM     19  H   UNL     1      52.246  48.460  35.125  1.00  0.00     0.215 HD
ENDBRANCH  13  18
TORSDOF 1
ENDMDL
MODEL 9
REMARK VINA RESULT:    -5.632      3.566      5.812
REMARK INTER + INTRA:          -5.796
REMARK INTER:                  -5.796
REMARK INTRA:                   0.000
REMARK UNBOUND:                 0.000
REMARK SMILES C=C1CCC[C@@]2(C)C[C@]3(O)OC(=O)C(C)=C3C[C@H]12
REMARK SMILES IDX 15 1 14 2 16 3 17 4 18 5 2 6 1 7 3 8 4 9 5 10 6 11 8 12 9 13
REMARK SMILES IDX 11 14 12 15 13 16 7 17 10 18
REMARK H PARENT 10 19
REMARK Flexibility Score: inf
ROOT
ATOM      1  C   UNL     1      54.816  47.494  39.351  1.00  0.00     0.052 C 
ATOM      2  C   UNL     1      54.137  46.358  38.651  1.00  0.00     0.040 C 
ATOM      3  C   UNL     1      53.256  46.454  37.657  1.00  0.00     0.012 C 
ATOM      4  C   UNL     1      52.752  47.727  37.048  1.00  0.00     0.047 C 
ATOM      5  C   UNL     1      51.434  47.458  36.274  1.00  0.00     0.025 C 
ATOM      6  C   UNL     1      50.722  48.715  35.768  1.00  0.00    -0.073 C 
ATOM      7  C   UNL     1      51.275  49.943  35.790  1.00  0.00     0.008 C 
ATOM      8  C   UNL     1      49.408  48.513  35.048  1.00  0.00     0.031 C 
ATOM      9  C   UNL     1      48.467  47.628  35.866  1.00  0.00     0.005 C 
ATOM     10  C   UNL     1      49.151  46.320  36.294  1.00  0.00     0.008 C 
ATOM     11  C   UNL     1      50.458  46.552  37.110  1.00  0.00    -0.019 C 
ATOM     12  C   UNL     1      51.108  45.147  37.416  1.00  0.00     0.092 C 
ATOM     13  C   UNL     1      52.656  45.111  37.332  1.00  0.00     0.235 C 
ATOM     14  O   UNL     1      53.220  44.253  38.326  1.00  0.00    -0.426 OA
ATOM     15  C   UNL     1      54.112  44.981  39.091  1.00  0.00     0.336 C 
ATOM     16  O   UNL     1      54.773  44.502  40.048  1.00  0.00    -0.246 OA
ATOM     17  C   UNL     1      50.104  47.233  38.462  1.00  0.00     0.012 C 
ENDROOT
BRANCH  13  18
ATOM     18  O   UNL     1      53.083  44.715  36.054  1.00  0.00    -0.353 OA
ATOM     19  H   UNL     1      54.038  44.454  36.136  1.00  0.00     0.215 HD
ENDBRANCH  13  18
TORSDOF 1
ENDMDL
