MODEL 1
REMARK VINA RESULT:    -7.198      0.000      0.000
REMARK INTER + INTRA:         -11.264
REMARK INTER:                  -9.934
REMARK INTRA:                  -1.331
REMARK UNBOUND:                -1.331
REMARK SMILES CC[C@@H](CC[C@H](C)[C@H]1CC[C@@H]2C3=CC[C@H]4C[C@@H](O)CC[C@@]4(C)[C@@H]3CC[C@@]21C)C(C)C
REMARK SMILES IDX 5 1 4 2 3 3 2 4 1 5 28 6 29 7 30 8 6 9 7 10 8 11 9 12 26 13
REMARK SMILES IDX 10 14 11 15 25 16 27 17 12 18 24 19 23 20 13 21 21 22 14 23
REMARK SMILES IDX 15 24 20 25 22 26 16 27 19 28 17 29 18 30
REMARK H PARENT 18 31
REMARK Flexibility Score: inf
ROOT
ATOM      1  C   UNL     1     110.826 116.169 126.383  1.00  0.00     0.004 C 
ENDROOT
BRANCH   1   2
ATOM      2  C   UNL     1     110.222 115.571 125.091  1.00  0.00     0.004 C 
BRANCH   2   3
ATOM      3  C   UNL     1     111.146 115.758 123.856  1.00  0.00    -0.009 C 
BRANCH   3   4
ATOM      4  C   UNL     1     110.391 116.193 122.562  1.00  0.00     0.000 C 
ATOM      5  C   UNL     1     109.160 117.087 122.759  1.00  0.00     0.004 C 
ENDBRANCH   3   4
BRANCH   3   6
ATOM      6  C   UNL     1     112.123 114.547 123.676  1.00  0.00    -0.014 C 
ATOM      7  C   UNL     1     113.470 114.703 124.396  1.00  0.00     0.007 C 
ATOM      8  C   UNL     1     111.470 113.208 124.063  1.00  0.00     0.007 C 
ENDBRANCH   3   6
ENDBRANCH   2   3
ENDBRANCH   1   2
BRANCH   1   9
ATOM      9  C   UNL     1     110.668 117.715 126.533  1.00  0.00    -0.011 C 
ATOM     10  C   UNL     1     109.223 118.105 126.142  1.00  0.00     0.008 C 
BRANCH   9  11
ATOM     11  C   UNL     1     111.795 118.553 125.792  1.00  0.00    -0.002 C 
ATOM     12  C   UNL     1     111.234 119.567 124.775  1.00  0.00     0.005 C 
ATOM     13  C   UNL     1     112.672 119.484 126.711  1.00  0.00    -0.023 C 
ATOM     14  C   UNL     1     110.961 120.851 125.550  1.00  0.00     0.009 C 
ATOM     15  C   UNL     1     111.791 120.760 126.838  1.00  0.00     0.021 C 
ATOM     16  C   UNL     1     114.071 119.764 126.025  1.00  0.00     0.008 C 
ATOM     17  C   UNL     1     112.964 118.923 128.125  1.00  0.00     0.012 C 
ATOM     18  C   UNL     1     112.583 122.026 127.128  1.00  0.00    -0.067 C 
ATOM     19  C   UNL     1     114.253 121.179 125.459  1.00  0.00     0.009 C 
ATOM     20  C   UNL     1     113.962 122.250 126.533  1.00  0.00     0.021 C 
ATOM     21  C   UNL     1     112.107 122.936 127.990  1.00  0.00    -0.027 C 
ATOM     22  C   UNL     1     114.168 123.752 126.059  1.00  0.00    -0.023 C 
ATOM     23  C   UNL     1     112.958 124.110 128.366  1.00  0.00     0.031 C 
ATOM     24  C   UNL     1     113.532 124.780 127.102  1.00  0.00     0.002 C 
ATOM     25  C   UNL     1     115.698 124.015 125.908  1.00  0.00     0.010 C 
ATOM     26  C   UNL     1     113.492 123.979 124.678  1.00  0.00     0.012 C 
ATOM     27  C   UNL     1     114.494 125.913 127.528  1.00  0.00     0.036 C 
ATOM     28  C   UNL     1     116.054 125.476 125.565  1.00  0.00     0.032 C 
ATOM     29  C   UNL     1     115.198 126.522 126.310  1.00  0.00     0.114 C 
BRANCH  29  30
ATOM     30  O   UNL     1     116.017 127.589 126.716  1.00  0.00    -0.393 OA
ATOM     31  H   UNL     1     116.518 127.890 125.913  1.00  0.00     0.210 HD
ENDBRANCH  29  30
ENDBRANCH   9  11
ENDBRANCH   1   9
TORSDOF 7
ENDMDL
MODEL 2
REMARK VINA RESULT:    -7.190      0.743      1.527
REMARK INTER + INTRA:         -11.254
REMARK INTER:                  -9.402
REMARK INTRA:                  -1.852
REMARK UNBOUND:                -1.331
REMARK SMILES CC[C@@H](CC[C@H](C)[C@H]1CC[C@@H]2C3=CC[C@H]4C[C@@H](O)CC[C@@]4(C)[C@@H]3CC[C@@]21C)C(C)C
REMARK SMILES IDX 5 1 4 2 3 3 2 4 1 5 28 6 29 7 30 8 6 9 7 10 8 11 9 12 26 13
REMARK SMILES IDX 10 14 11 15 25 16 27 17 12 18 24 19 23 20 13 21 21 22 14 23
REMARK SMILES IDX 15 24 20 25 22 26 16 27 19 28 17 29 18 30
REMARK H PARENT 18 31
REMARK Flexibility Score: inf
ROOT
ATOM      1  C   UNL     1     110.489 116.711 126.518  1.00  0.00     0.004 C 
ENDROOT
BRANCH   1   2
ATOM      2  C   UNL     1     110.279 115.710 125.358  1.00  0.00     0.004 C 
BRANCH   2   3
ATOM      3  C   UNL     1     111.616 115.134 124.816  1.00  0.00    -0.009 C 
BRANCH   3   4
ATOM      4  C   UNL     1     112.874 115.604 125.610  1.00  0.00     0.000 C 
ATOM      5  C   UNL     1     113.964 116.319 124.800  1.00  0.00     0.004 C 
ENDBRANCH   3   4
BRANCH   3   6
ATOM      6  C   UNL     1     111.722 115.284 123.260  1.00  0.00    -0.014 C 
ATOM      7  C   UNL     1     111.865 113.959 122.501  1.00  0.00     0.007 C 
ATOM      8  C   UNL     1     110.561 116.106 122.673  1.00  0.00     0.007 C 
ENDBRANCH   3   6
ENDBRANCH   2   3
ENDBRANCH   1   2
BRANCH   1   9
ATOM      9  C   UNL     1     110.281 118.212 126.141  1.00  0.00    -0.011 C 
ATOM     10  C   UNL     1     109.058 118.322 125.201  1.00  0.00     0.008 C 
BRANCH   9  11
ATOM     11  C   UNL     1     111.591 118.926 125.597  1.00  0.00    -0.002 C 
ATOM     12  C   UNL     1     111.308 119.959 124.486  1.00  0.00     0.005 C 
ATOM     13  C   UNL     1     112.380 119.801 126.643  1.00  0.00    -0.023 C 
ATOM     14  C   UNL     1     111.026 121.282 125.189  1.00  0.00     0.009 C 
ATOM     15  C   UNL     1     111.612 121.152 126.602  1.00  0.00     0.021 C 
ATOM     16  C   UNL     1     113.896 119.937 126.206  1.00  0.00     0.008 C 
ATOM     17  C   UNL     1     112.373 119.254 128.092  1.00  0.00     0.012 C 
ATOM     18  C   UNL     1     112.455 122.350 127.010  1.00  0.00    -0.067 C 
ATOM     19  C   UNL     1     114.301 121.314 125.664  1.00  0.00     0.009 C 
ATOM     20  C   UNL     1     113.930 122.435 126.660  1.00  0.00     0.021 C 
ATOM     21  C   UNL     1     111.924 123.322 127.766  1.00  0.00    -0.027 C 
ATOM     22  C   UNL     1     114.351 123.899 126.212  1.00  0.00    -0.023 C 
ATOM     23  C   UNL     1     112.803 124.425 128.271  1.00  0.00     0.031 C 
ATOM     24  C   UNL     1     113.644 125.008 127.118  1.00  0.00     0.002 C 
ATOM     25  C   UNL     1     115.903 124.021 126.325  1.00  0.00     0.010 C 
ATOM     26  C   UNL     1     113.945 124.149 124.733  1.00  0.00     0.012 C 
ATOM     27  C   UNL     1     114.619 126.062 127.691  1.00  0.00     0.036 C 
ATOM     28  C   UNL     1     116.445 125.435 126.031  1.00  0.00     0.032 C 
ATOM     29  C   UNL     1     115.574 126.573 126.606  1.00  0.00     0.114 C 
BRANCH  29  30
ATOM     30  O   UNL     1     116.406 127.573 127.136  1.00  0.00    -0.393 OA
ATOM     31  H   UNL     1     117.234 127.581 126.586  1.00  0.00     0.210 HD
ENDBRANCH  29  30
ENDBRANCH   9  11
ENDBRANCH   1   9
TORSDOF 7
ENDMDL
MODEL 3
REMARK VINA RESULT:    -6.979      1.616      2.797
REMARK INTER + INTRA:         -10.962
REMARK INTER:                  -9.741
REMARK INTRA:                  -1.221
REMARK UNBOUND:                -1.331
REMARK SMILES CC[C@@H](CC[C@H](C)[C@H]1CC[C@@H]2C3=CC[C@H]4C[C@@H](O)CC[C@@]4(C)[C@@H]3CC[C@@]21C)C(C)C
REMARK SMILES IDX 5 1 4 2 3 3 2 4 1 5 28 6 29 7 30 8 6 9 7 10 8 11 9 12 26 13
REMARK SMILES IDX 10 14 11 15 25 16 27 17 12 18 24 19 23 20 13 21 21 22 14 23
REMARK SMILES IDX 15 24 20 25 22 26 16 27 19 28 17 29 18 30
REMARK H PARENT 18 31
REMARK Flexibility Score: inf
ROOT
ATOM      1  C   UNL     1     110.560 117.076 125.592  1.00  0.00     0.004 C 
ENDROOT
BRANCH   1   2
ATOM      2  C   UNL     1     110.955 115.994 126.623  1.00  0.00     0.004 C 
BRANCH   2   3
ATOM      3  C   UNL     1     111.610 116.595 127.898  1.00  0.00    -0.009 C 
BRANCH   3   4
ATOM      4  C   UNL     1     113.094 116.160 128.109  1.00  0.00     0.000 C 
ATOM      5  C   UNL     1     113.963 116.064 126.848  1.00  0.00     0.004 C 
ENDBRANCH   3   4
BRANCH   3   6
ATOM      6  C   UNL     1     110.688 116.431 129.153  1.00  0.00    -0.014 C 
ATOM      7  C   UNL     1     109.278 115.913 128.844  1.00  0.00     0.007 C 
ATOM      8  C   UNL     1     111.340 115.568 130.248  1.00  0.00     0.007 C 
ENDBRANCH   3   6
ENDBRANCH   2   3
ENDBRANCH   1   2
BRANCH   1   9
ATOM      9  C   UNL     1     110.694 118.548 126.093  1.00  0.00    -0.011 C 
ATOM     10  C   UNL     1     109.382 119.302 125.775  1.00  0.00     0.008 C 
BRANCH   9  11
ATOM     11  C   UNL     1     112.009 119.283 125.590  1.00  0.00    -0.002 C 
ATOM     12  C   UNL     1     111.747 120.298 124.459  1.00  0.00     0.005 C 
ATOM     13  C   UNL     1     112.742 120.183 126.655  1.00  0.00    -0.023 C 
ATOM     14  C   UNL     1     111.415 121.623 125.136  1.00  0.00     0.009 C 
ATOM     15  C   UNL     1     111.950 121.519 126.571  1.00  0.00     0.021 C 
ATOM     16  C   UNL     1     114.270 120.344 126.273  1.00  0.00     0.008 C 
ATOM     17  C   UNL     1     112.692 119.651 128.109  1.00  0.00     0.012 C 
ATOM     18  C   UNL     1     112.755 122.737 126.997  1.00  0.00    -0.067 C 
ATOM     19  C   UNL     1     114.668 121.724 125.732  1.00  0.00     0.009 C 
ATOM     20  C   UNL     1     114.239 122.847 126.701  1.00  0.00     0.021 C 
ATOM     21  C   UNL     1     112.178 123.706 127.723  1.00  0.00    -0.027 C 
ATOM     22  C   UNL     1     114.649 124.315 126.253  1.00  0.00    -0.023 C 
ATOM     23  C   UNL     1     113.016 124.831 128.248  1.00  0.00     0.031 C 
ATOM     24  C   UNL     1     113.887 125.418 127.120  1.00  0.00     0.002 C 
ATOM     25  C   UNL     1     116.192 124.468 126.422  1.00  0.00     0.010 C 
ATOM     26  C   UNL     1     114.293 124.542 124.757  1.00  0.00     0.012 C 
ATOM     27  C   UNL     1     114.820 126.497 127.718  1.00  0.00     0.036 C 
ATOM     28  C   UNL     1     116.718 125.889 126.133  1.00  0.00     0.032 C 
ATOM     29  C   UNL     1     115.805 127.016 126.663  1.00  0.00     0.114 C 
BRANCH  29  30
ATOM     30  O   UNL     1     116.597 128.037 127.212  1.00  0.00    -0.393 OA
ATOM     31  H   UNL     1     117.491 127.644 127.392  1.00  0.00     0.210 HD
ENDBRANCH  29  30
ENDBRANCH   9  11
ENDBRANCH   1   9
TORSDOF 7
ENDMDL
MODEL 4
REMARK VINA RESULT:    -6.970      3.261      9.777
REMARK INTER + INTRA:         -10.949
REMARK INTER:                 -10.068
REMARK INTRA:                  -0.881
REMARK UNBOUND:                -1.331
REMARK SMILES CC[C@@H](CC[C@H](C)[C@H]1CC[C@@H]2C3=CC[C@H]4C[C@@H](O)CC[C@@]4(C)[C@@H]3CC[C@@]21C)C(C)C
REMARK SMILES IDX 5 1 4 2 3 3 2 4 1 5 28 6 29 7 30 8 6 9 7 10 8 11 9 12 26 13
REMARK SMILES IDX 10 14 11 15 25 16 27 17 12 18 24 19 23 20 13 21 21 22 14 23
REMARK SMILES IDX 15 24 20 25 22 26 16 27 19 28 17 29 18 30
REMARK H PARENT 18 31
REMARK Flexibility Score: inf
ROOT
ATOM      1  C   UNL     1     116.172 126.278 125.878  1.00  0.00     0.004 C 
ENDROOT
BRANCH   1   2
ATOM      2  C   UNL     1     116.253 127.713 126.446  1.00  0.00     0.004 C 
BRANCH   2   3
ATOM      3  C   UNL     1     116.581 128.771 125.356  1.00  0.00    -0.009 C 
BRANCH   3   4
ATOM      4  C   UNL     1     118.109 128.981 125.120  1.00  0.00     0.000 C 
ATOM      5  C   UNL     1     118.737 130.216 125.779  1.00  0.00     0.004 C 
ENDBRANCH   3   4
BRANCH   3   6
ATOM      6  C   UNL     1     115.756 130.087 125.560  1.00  0.00    -0.014 C 
ATOM      7  C   UNL     1     115.456 130.857 124.268  1.00  0.00     0.007 C 
ATOM      8  C   UNL     1     114.454 129.844 126.345  1.00  0.00     0.007 C 
ENDBRANCH   3   6
ENDBRANCH   2   3
ENDBRANCH   1   2
BRANCH   1   9
ATOM      9  C   UNL     1     114.851 125.511 126.205  1.00  0.00    -0.011 C 
ATOM     10  C   UNL     1     114.146 126.220 127.384  1.00  0.00     0.008 C 
BRANCH   9  11
ATOM     11  C   UNL     1     115.047 123.947 126.404  1.00  0.00    -0.002 C 
ATOM     12  C   UNL     1     114.385 123.407 127.689  1.00  0.00     0.005 C 
ATOM     13  C   UNL     1     114.391 123.029 125.305  1.00  0.00    -0.023 C 
ATOM     14  C   UNL     1     112.949 123.056 127.320  1.00  0.00     0.009 C 
ATOM     15  C   UNL     1     112.918 122.918 125.792  1.00  0.00     0.021 C 
ATOM     16  C   UNL     1     115.132 121.631 125.251  1.00  0.00     0.008 C 
ATOM     17  C   UNL     1     114.412 123.609 123.869  1.00  0.00     0.012 C 
ATOM     18  C   UNL     1     112.210 121.658 125.320  1.00  0.00    -0.067 C 
ATOM     19  C   UNL     1     114.346 120.449 125.836  1.00  0.00     0.009 C 
ATOM     20  C   UNL     1     112.947 120.338 125.191  1.00  0.00     0.021 C 
ATOM     21  C   UNL     1     110.928 121.711 124.928  1.00  0.00    -0.027 C 
ATOM     22  C   UNL     1     112.069 119.114 125.696  1.00  0.00    -0.023 C 
ATOM     23  C   UNL     1     110.287 120.492 124.341  1.00  0.00     0.031 C 
ATOM     24  C   UNL     1     110.547 119.267 125.240  1.00  0.00     0.002 C 
ATOM     25  C   UNL     1     112.677 117.799 125.114  1.00  0.00     0.010 C 
ATOM     26  C   UNL     1     112.106 119.027 127.247  1.00  0.00     0.012 C 
ATOM     27  C   UNL     1     109.971 118.008 124.551  1.00  0.00     0.036 C 
ATOM     28  C   UNL     1     111.852 116.534 125.428  1.00  0.00     0.032 C 
ATOM     29  C   UNL     1     110.325 116.741 125.339  1.00  0.00     0.114 C 
BRANCH  29  30
ATOM     30  O   UNL     1     109.739 115.620 124.729  1.00  0.00    -0.393 OA
ATOM     31  H   UNL     1     110.328 114.845 124.922  1.00  0.00     0.210 HD
ENDBRANCH  29  30
ENDBRANCH   9  11
ENDBRANCH   1   9
TORSDOF 7
ENDMDL
MODEL 5
REMARK VINA RESULT:    -6.886      1.950      3.846
REMARK INTER + INTRA:         -10.834
REMARK INTER:                 -10.062
REMARK INTRA:                  -0.772
REMARK UNBOUND:                -1.331
REMARK SMILES CC[C@@H](CC[C@H](C)[C@H]1CC[C@@H]2C3=CC[C@H]4C[C@@H](O)CC[C@@]4(C)[C@@H]3CC[C@@]21C)C(C)C
REMARK SMILES IDX 5 1 4 2 3 3 2 4 1 5 28 6 29 7 30 8 6 9 7 10 8 11 9 12 26 13
REMARK SMILES IDX 10 14 11 15 25 16 27 17 12 18 24 19 23 20 13 21 21 22 14 23
REMARK SMILES IDX 15 24 20 25 22 26 16 27 19 28 17 29 18 30
REMARK H PARENT 18 31
REMARK Flexibility Score: inf
ROOT
ATOM      1  C   UNL     1     110.704 116.372 127.062  1.00  0.00     0.004 C 
ENDROOT
BRANCH   1   2
ATOM      2  C   UNL     1     110.155 116.000 128.459  1.00  0.00     0.004 C 
BRANCH   2   3
ATOM      3  C   UNL     1     111.278 115.855 129.523  1.00  0.00    -0.009 C 
BRANCH   3   4
ATOM      4  C   UNL     1     110.811 116.163 130.979  1.00  0.00     0.000 C 
ATOM      5  C   UNL     1     109.605 117.101 131.124  1.00  0.00     0.004 C 
ENDBRANCH   3   4
BRANCH   3   6
ATOM      6  C   UNL     1     112.592 116.585 129.081  1.00  0.00    -0.014 C 
ATOM      7  C   UNL     1     112.996 117.764 129.976  1.00  0.00     0.007 C 
ATOM      8  C   UNL     1     113.774 115.614 128.922  1.00  0.00     0.007 C 
ENDBRANCH   3   6
ENDBRANCH   2   3
ENDBRANCH   1   2
BRANCH   1   9
ATOM      9  C   UNL     1     109.630 116.857 126.038  1.00  0.00    -0.011 C 
ATOM     10  C   UNL     1     109.636 115.899 124.823  1.00  0.00     0.008 C 
BRANCH   9  11
ATOM     11  C   UNL     1     109.748 118.395 125.660  1.00  0.00    -0.002 C 
ATOM     12  C   UNL     1     109.467 119.339 126.846  1.00  0.00     0.005 C 
ATOM     13  C   UNL     1     111.175 118.881 125.204  1.00  0.00    -0.023 C 
ATOM     14  C   UNL     1     110.797 119.540 127.563  1.00  0.00     0.009 C 
ATOM     15  C   UNL     1     111.890 119.148 126.560  1.00  0.00     0.021 C 
ATOM     16  C   UNL     1     111.047 120.179 124.306  1.00  0.00     0.008 C 
ATOM     17  C   UNL     1     111.992 117.846 124.392  1.00  0.00     0.012 C 
ATOM     18  C   UNL     1     113.012 120.170 126.471  1.00  0.00    -0.067 C 
ATOM     19  C   UNL     1     111.486 121.487 124.978  1.00  0.00     0.009 C 
ATOM     20  C   UNL     1     112.918 121.369 125.544  1.00  0.00     0.021 C 
ATOM     21  C   UNL     1     114.151 119.983 127.154  1.00  0.00    -0.027 C 
ATOM     22  C   UNL     1     113.486 122.689 126.220  1.00  0.00    -0.023 C 
ATOM     23  C   UNL     1     115.295 120.928 126.951  1.00  0.00     0.031 C 
ATOM     24  C   UNL     1     114.809 122.386 127.061  1.00  0.00     0.002 C 
ATOM     25  C   UNL     1     113.787 123.728 125.095  1.00  0.00     0.010 C 
ATOM     26  C   UNL     1     112.428 123.300 127.181  1.00  0.00     0.012 C 
ATOM     27  C   UNL     1     115.987 123.333 126.735  1.00  0.00     0.036 C 
ATOM     28  C   UNL     1     114.457 125.022 125.599  1.00  0.00     0.032 C 
ATOM     29  C   UNL     1     115.522 124.794 126.694  1.00  0.00     0.114 C 
BRANCH  29  30
ATOM     30  O   UNL     1     116.620 125.638 126.459  1.00  0.00    -0.393 OA
ATOM     31  H   UNL     1     117.053 125.322 125.623  1.00  0.00     0.210 HD
ENDBRANCH  29  30
ENDBRANCH   9  11
ENDBRANCH   1   9
TORSDOF 7
ENDMDL
MODEL 6
REMARK VINA RESULT:    -6.858      1.464      2.852
REMARK INTER + INTRA:         -10.795
REMARK INTER:                  -9.759
REMARK INTRA:                  -1.036
REMARK UNBOUND:                -1.331
REMARK SMILES CC[C@@H](CC[C@H](C)[C@H]1CC[C@@H]2C3=CC[C@H]4C[C@@H](O)CC[C@@]4(C)[C@@H]3CC[C@@]21C)C(C)C
REMARK SMILES IDX 5 1 4 2 3 3 2 4 1 5 28 6 29 7 30 8 6 9 7 10 8 11 9 12 26 13
REMARK SMILES IDX 10 14 11 15 25 16 27 17 12 18 24 19 23 20 13 21 21 22 14 23
REMARK SMILES IDX 15 24 20 25 22 26 16 27 19 28 17 29 18 30
REMARK H PARENT 18 31
REMARK Flexibility Score: inf
ROOT
ATOM      1  C   UNL     1     109.544 116.725 126.092  1.00  0.00     0.004 C 
ENDROOT
BRANCH   1   2
ATOM      2  C   UNL     1     110.036 115.764 124.985  1.00  0.00     0.004 C 
BRANCH   2   3
ATOM      3  C   UNL     1     110.908 116.479 123.917  1.00  0.00    -0.009 C 
BRANCH   3   4
ATOM      4  C   UNL     1     110.092 117.056 122.719  1.00  0.00     0.000 C 
ATOM      5  C   UNL     1     110.005 118.585 122.627  1.00  0.00     0.004 C 
ENDBRANCH   3   4
BRANCH   3   6
ATOM      6  C   UNL     1     112.152 115.616 123.515  1.00  0.00    -0.014 C 
ATOM      7  C   UNL     1     113.500 116.334 123.664  1.00  0.00     0.007 C 
ATOM      8  C   UNL     1     112.190 114.266 124.252  1.00  0.00     0.007 C 
ENDBRANCH   3   6
ENDBRANCH   2   3
ENDBRANCH   1   2
BRANCH   1   9
ATOM      9  C   UNL     1     110.244 116.552 127.477  1.00  0.00    -0.011 C 
ATOM     10  C   UNL     1     109.241 115.907 128.462  1.00  0.00     0.008 C 
BRANCH   9  11
ATOM     11  C   UNL     1     110.935 117.875 128.019  1.00  0.00    -0.002 C 
ATOM     12  C   UNL     1     112.452 117.720 128.255  1.00  0.00     0.005 C 
ATOM     13  C   UNL     1     110.895 119.116 127.051  1.00  0.00    -0.023 C 
ATOM     14  C   UNL     1     113.131 118.055 126.932  1.00  0.00     0.009 C 
ATOM     15  C   UNL     1     112.108 118.854 126.114  1.00  0.00     0.021 C 
ATOM     16  C   UNL     1     111.033 120.458 127.880  1.00  0.00     0.008 C 
ATOM     17  C   UNL     1     109.608 119.241 126.198  1.00  0.00     0.012 C 
ATOM     18  C   UNL     1     112.691 120.116 125.498  1.00  0.00    -0.067 C 
ATOM     19  C   UNL     1     112.385 121.173 127.751  1.00  0.00     0.009 C 
ATOM     20  C   UNL     1     112.744 121.421 126.270  1.00  0.00     0.021 C 
ATOM     21  C   UNL     1     113.098 120.116 124.219  1.00  0.00    -0.027 C 
ATOM     22  C   UNL     1     114.107 122.200 126.030  1.00  0.00    -0.023 C 
ATOM     23  C   UNL     1     113.544 121.400 123.589  1.00  0.00     0.031 C 
ATOM     24  C   UNL     1     114.560 122.116 124.500  1.00  0.00     0.002 C 
ATOM     25  C   UNL     1     113.905 123.689 126.451  1.00  0.00     0.010 C 
ATOM     26  C   UNL     1     115.238 121.591 126.905  1.00  0.00     0.012 C 
ATOM     27  C   UNL     1     114.913 123.487 123.878  1.00  0.00     0.036 C 
ATOM     28  C   UNL     1     115.119 124.594 126.160  1.00  0.00     0.032 C 
ATOM     29  C   UNL     1     115.815 124.299 124.814  1.00  0.00     0.114 C 
BRANCH  29  30
ATOM     30  O   UNL     1     116.172 125.511 124.200  1.00  0.00    -0.393 OA
ATOM     31  H   UNL     1     116.789 125.979 124.822  1.00  0.00     0.210 HD
ENDBRANCH  29  30
ENDBRANCH   9  11
ENDBRANCH   1   9
TORSDOF 7
ENDMDL
MODEL 7
REMARK VINA RESULT:    -6.579      1.959      3.424
REMARK INTER + INTRA:         -10.409
REMARK INTER:                  -8.805
REMARK INTRA:                  -1.604
REMARK UNBOUND:                -1.331
REMARK SMILES CC[C@@H](CC[C@H](C)[C@H]1CC[C@@H]2C3=CC[C@H]4C[C@@H](O)CC[C@@]4(C)[C@@H]3CC[C@@]21C)C(C)C
REMARK SMILES IDX 5 1 4 2 3 3 2 4 1 5 28 6 29 7 30 8 6 9 7 10 8 11 9 12 26 13
REMARK SMILES IDX 10 14 11 15 25 16 27 17 12 18 24 19 23 20 13 21 21 22 14 23
REMARK SMILES IDX 15 24 20 25 22 26 16 27 19 28 17 29 18 30
REMARK H PARENT 18 31
REMARK Flexibility Score: inf
ROOT
ATOM      1  C   UNL     1     113.110 116.925 126.737  1.00  0.00     0.004 C 
ENDROOT
BRANCH   1   2
ATOM      2  C   UNL     1     111.896 116.415 127.546  1.00  0.00     0.004 C 
BRANCH   2   3
ATOM      3  C   UNL     1     111.389 117.455 128.583  1.00  0.00    -0.009 C 
BRANCH   3   4
ATOM      4  C   UNL     1     111.368 116.924 130.051  1.00  0.00     0.000 C 
ATOM      5  C   UNL     1     109.999 116.884 130.742  1.00  0.00     0.004 C 
ENDBRANCH   3   4
BRANCH   3   6
ATOM      6  C   UNL     1     110.063 118.144 128.111  1.00  0.00    -0.014 C 
ATOM      7  C   UNL     1     110.228 119.602 127.665  1.00  0.00     0.007 C 
ATOM      8  C   UNL     1     109.343 117.336 127.017  1.00  0.00     0.007 C 
ENDBRANCH   3   6
ENDBRANCH   2   3
ENDBRANCH   1   2
BRANCH   1   9
ATOM      9  C   UNL     1     112.800 118.087 125.741  1.00  0.00    -0.011 C 
ATOM     10  C   UNL     1     112.156 117.490 124.468  1.00  0.00     0.008 C 
BRANCH   9  11
ATOM     11  C   UNL     1     114.036 119.044 125.462  1.00  0.00    -0.002 C 
ATOM     12  C   UNL     1     113.883 119.879 124.174  1.00  0.00     0.005 C 
ATOM     13  C   UNL     1     114.288 120.169 126.535  1.00  0.00    -0.023 C 
ATOM     14  C   UNL     1     113.145 121.153 124.569  1.00  0.00     0.009 C 
ATOM     15  C   UNL     1     113.306 121.289 126.089  1.00  0.00     0.021 C 
ATOM     16  C   UNL     1     115.804 120.625 126.500  1.00  0.00     0.008 C 
ATOM     17  C   UNL     1     113.971 119.763 127.996  1.00  0.00     0.012 C 
ATOM     18  C   UNL     1     113.730 122.684 126.521  1.00  0.00    -0.067 C 
ATOM     19  C   UNL     1     116.059 122.007 125.883  1.00  0.00     0.009 C 
ATOM     20  C   UNL     1     115.192 123.088 126.565  1.00  0.00     0.021 C 
ATOM     21  C   UNL     1     112.814 123.563 126.955  1.00  0.00    -0.027 C 
ATOM     22  C   UNL     1     115.417 124.567 126.030  1.00  0.00    -0.023 C 
ATOM     23  C   UNL     1     113.262 124.883 127.503  1.00  0.00     0.031 C 
ATOM     24  C   UNL     1     114.265 125.548 126.539  1.00  0.00     0.002 C 
ATOM     25  C   UNL     1     116.809 125.065 126.529  1.00  0.00     0.010 C 
ATOM     26  C   UNL     1     115.418 124.584 124.476  1.00  0.00     0.012 C 
ATOM     27  C   UNL     1     114.793 126.850 127.184  1.00  0.00     0.036 C 
ATOM     28  C   UNL     1     117.111 126.537 126.180  1.00  0.00     0.032 C 
ATOM     29  C   UNL     1     115.897 127.479 126.326  1.00  0.00     0.114 C 
BRANCH  29  30
ATOM     30  O   UNL     1     116.315 128.691 126.900  1.00  0.00    -0.393 OA
ATOM     31  H   UNL     1     116.562 128.494 127.842  1.00  0.00     0.210 HD
ENDBRANCH  29  30
ENDBRANCH   9  11
ENDBRANCH   1   9
TORSDOF 7
ENDMDL
MODEL 8
REMARK VINA RESULT:    -6.326      1.465      3.432
REMARK INTER + INTRA:         -10.061
REMARK INTER:                  -9.424
REMARK INTRA:                  -0.637
REMARK UNBOUND:                -1.331
REMARK SMILES CC[C@@H](CC[C@H](C)[C@H]1CC[C@@H]2C3=CC[C@H]4C[C@@H](O)CC[C@@]4(C)[C@@H]3CC[C@@]21C)C(C)C
REMARK SMILES IDX 5 1 4 2 3 3 2 4 1 5 28 6 29 7 30 8 6 9 7 10 8 11 9 12 26 13
REMARK SMILES IDX 10 14 11 15 25 16 27 17 12 18 24 19 23 20 13 21 21 22 14 23
REMARK SMILES IDX 15 24 20 25 22 26 16 27 19 28 17 29 18 30
REMARK H PARENT 18 31
REMARK Flexibility Score: inf
ROOT
ATOM      1  C   UNL     1     110.747 114.589 124.750  1.00  0.00     0.004 C 
ENDROOT
BRANCH   1   2
ATOM      2  C   UNL     1     111.724 114.190 123.620  1.00  0.00     0.004 C 
BRANCH   2   3
ATOM      3  C   UNL     1     113.098 113.705 124.160  1.00  0.00    -0.009 C 
BRANCH   3   4
ATOM      4  C   UNL     1     114.237 114.763 124.030  1.00  0.00     0.000 C 
ATOM      5  C   UNL     1     114.108 115.765 122.875  1.00  0.00     0.004 C 
ENDBRANCH   3   4
BRANCH   3   6
ATOM      6  C   UNL     1     113.458 112.277 123.625  1.00  0.00    -0.014 C 
ATOM      7  C   UNL     1     113.097 112.039 122.153  1.00  0.00     0.007 C 
ATOM      8  C   UNL     1     114.934 111.917 123.871  1.00  0.00     0.007 C 
ENDBRANCH   3   6
ENDBRANCH   2   3
ENDBRANCH   1   2
BRANCH   1   9
ATOM      9  C   UNL     1     110.070 115.985 124.576  1.00  0.00    -0.011 C 
ATOM     10  C   UNL     1     110.447 116.548 123.186  1.00  0.00     0.008 C 
BRANCH   9  11
ATOM     11  C   UNL     1     110.335 116.985 125.781  1.00  0.00    -0.002 C 
ATOM     12  C   UNL     1     111.768 116.895 126.346  1.00  0.00     0.005 C 
ATOM     13  C   UNL     1     110.231 118.518 125.436  1.00  0.00    -0.023 C 
ATOM     14  C   UNL     1     112.617 117.856 125.523  1.00  0.00     0.009 C 
ATOM     15  C   UNL     1     111.638 118.830 124.853  1.00  0.00     0.021 C 
ATOM     16  C   UNL     1     109.904 119.349 126.744  1.00  0.00     0.008 C 
ATOM     17  C   UNL     1     109.151 118.881 124.387  1.00  0.00     0.012 C 
ATOM     18  C   UNL     1     112.053 120.286 124.997  1.00  0.00    -0.067 C 
ATOM     19  C   UNL     1     111.069 120.178 127.302  1.00  0.00     0.009 C 
ATOM     20  C   UNL     1     111.664 121.102 126.216  1.00  0.00     0.021 C 
ATOM     21  C   UNL     1     112.704 120.903 124.000  1.00  0.00    -0.027 C 
ATOM     22  C   UNL     1     112.849 122.040 126.707  1.00  0.00    -0.023 C 
ATOM     23  C   UNL     1     112.985 122.371 124.102  1.00  0.00     0.031 C 
ATOM     24  C   UNL     1     113.614 122.700 125.470  1.00  0.00     0.002 C 
ATOM     25  C   UNL     1     112.250 123.150 127.625  1.00  0.00     0.010 C 
ATOM     26  C   UNL     1     113.878 121.220 127.534  1.00  0.00     0.012 C 
ATOM     27  C   UNL     1     113.786 124.232 125.588  1.00  0.00     0.036 C 
ATOM     28  C   UNL     1     113.275 124.207 128.082  1.00  0.00     0.032 C 
ATOM     29  C   UNL     1     114.281 124.623 126.986  1.00  0.00     0.114 C 
BRANCH  29  30
ATOM     30  O   UNL     1     114.489 126.010 127.048  1.00  0.00    -0.393 OA
ATOM     31  H   UNL     1     114.229 126.301 127.961  1.00  0.00     0.210 HD
ENDBRANCH  29  30
ENDBRANCH   9  11
ENDBRANCH   1   9
TORSDOF 7
ENDMDL
MODEL 9
REMARK VINA RESULT:    -6.203      3.792      5.695
REMARK INTER + INTRA:          -9.892
REMARK INTER:                  -7.917
REMARK INTRA:                  -1.974
REMARK UNBOUND:                -1.331
REMARK SMILES CC[C@@H](CC[C@H](C)[C@H]1CC[C@@H]2C3=CC[C@H]4C[C@@H](O)CC[C@@]4(C)[C@@H]3CC[C@@]21C)C(C)C
REMARK SMILES IDX 5 1 4 2 3 3 2 4 1 5 28 6 29 7 30 8 6 9 7 10 8 11 9 12 26 13
REMARK SMILES IDX 10 14 11 15 25 16 27 17 12 18 24 19 23 20 13 21 21 22 14 23
REMARK SMILES IDX 15 24 20 25 22 26 16 27 19 28 17 29 18 30
REMARK H PARENT 18 31
REMARK Flexibility Score: inf
ROOT
ATOM      1  C   UNL     1     109.969 116.162 125.707  1.00  0.00     0.004 C 
ENDROOT
BRANCH   1   2
ATOM      2  C   UNL     1     109.961 115.818 127.215  1.00  0.00     0.004 C 
BRANCH   2   3
ATOM      3  C   UNL     1     109.687 117.059 128.109  1.00  0.00    -0.009 C 
BRANCH   3   4
ATOM      4  C   UNL     1     109.493 118.384 127.308  1.00  0.00     0.000 C 
ATOM      5  C   UNL     1     110.419 119.549 127.682  1.00  0.00     0.004 C 
ENDBRANCH   3   4
BRANCH   3   6
ATOM      6  C   UNL     1     110.701 117.149 129.300  1.00  0.00    -0.014 C 
ATOM      7  C   UNL     1     110.052 117.153 130.690  1.00  0.00     0.007 C 
ATOM      8  C   UNL     1     111.785 116.059 129.227  1.00  0.00     0.007 C 
ENDBRANCH   3   6
ENDBRANCH   2   3
ENDBRANCH   1   2
BRANCH   1   9
ATOM      9  C   UNL     1     111.370 116.089 125.020  1.00  0.00    -0.011 C 
ATOM     10  C   UNL     1     111.600 114.644 124.518  1.00  0.00     0.008 C 
BRANCH   9  11
ATOM     11  C   UNL     1     112.553 116.671 125.906  1.00  0.00    -0.002 C 
ATOM     12  C   UNL     1     113.751 115.707 126.035  1.00  0.00     0.005 C 
ATOM     13  C   UNL     1     113.252 117.967 125.349  1.00  0.00    -0.023 C 
ATOM     14  C   UNL     1     114.663 115.992 124.848  1.00  0.00     0.009 C 
ATOM     15  C   UNL     1     114.281 117.388 124.336  1.00  0.00     0.021 C 
ATOM     16  C   UNL     1     113.934 118.769 126.532  1.00  0.00     0.008 C 
ATOM     17  C   UNL     1     112.313 118.955 124.614  1.00  0.00     0.012 C 
ATOM     18  C   UNL     1     115.483 118.288 124.100  1.00  0.00    -0.067 C 
ATOM     19  C   UNL     1     115.466 118.699 126.575  1.00  0.00     0.009 C 
ATOM     20  C   UNL     1     116.080 119.119 125.221  1.00  0.00     0.021 C 
ATOM     21  C   UNL     1     115.990 118.427 122.866  1.00  0.00    -0.027 C 
ATOM     22  C   UNL     1     117.668 119.126 125.176  1.00  0.00    -0.023 C 
ATOM     23  C   UNL     1     117.088 119.418 122.629  1.00  0.00     0.031 C 
ATOM     24  C   UNL     1     118.204 119.240 123.676  1.00  0.00     0.002 C 
ATOM     25  C   UNL     1     118.180 120.331 126.025  1.00  0.00     0.010 C 
ATOM     26  C   UNL     1     118.231 117.816 125.795  1.00  0.00     0.012 C 
ATOM     27  C   UNL     1     119.264 120.348 123.474  1.00  0.00     0.036 C 
ATOM     28  C   UNL     1     119.708 120.531 125.974  1.00  0.00     0.032 C 
ATOM     29  C   UNL     1     120.326 120.299 124.578  1.00  0.00     0.114 C 
BRANCH  29  30
ATOM     30  O   UNL     1     121.309 121.273 124.337  1.00  0.00    -0.393 OA
ATOM     31  H   UNL     1     121.153 122.008 124.986  1.00  0.00     0.210 HD
ENDBRANCH  29  30
ENDBRANCH   9  11
ENDBRANCH   1   9
TORSDOF 7
ENDMDL
