MODEL 1
REMARK VINA RESULT:    -4.890      0.000      0.000
REMARK INTER + INTRA:          -5.193
REMARK INTER:                  -5.176
REMARK INTRA:                  -0.017
REMARK UNBOUND:                -0.017
REMARK SMILES O=C([O-])c1cccnc1
REMARK SMILES IDX 4 1 5 2 9 3 6 4 8 5 7 6 2 7 1 8 3 9
REMARK H PARENT
REMARK Flexibility Score: inf
ROOT
ATOM      1  C   UNL     1      44.255  29.135  -9.806  1.00  0.00     0.016 A 
ATOM      2  C   UNL     1      44.382  28.795 -11.161  1.00  0.00     0.013 A 
ATOM      3  C   UNL     1      45.337  29.768  -9.170  1.00  0.00     0.120 A 
ATOM      4  C   UNL     1      45.563  29.083 -11.849  1.00  0.00     0.021 A 
ATOM      5  N   UNL     1      46.476  30.038  -9.862  1.00  0.00    -0.264 NA
ATOM      6  C   UNL     1      46.610  29.713 -11.176  1.00  0.00     0.111 A 
ENDROOT
BRANCH   1   7
ATOM      7  C   UNL     1      43.009  28.834  -9.067  1.00  0.00     0.073 C 
ATOM      8  O   UNL     1      42.982  27.914  -8.207  1.00  0.00    -0.545 OA
ATOM      9  O   UNL     1      41.851  29.563  -9.313  1.00  0.00    -0.545 OA
ENDBRANCH   1   7
TORSDOF 1
ENDMDL
MODEL 2
REMARK VINA RESULT:    -4.506      3.103      4.331
REMARK INTER + INTRA:          -4.787
REMARK INTER:                  -4.764
REMARK INTRA:                  -0.022
REMARK UNBOUND:                -0.017
REMARK SMILES O=C([O-])c1cccnc1
REMARK SMILES IDX 4 1 5 2 9 3 6 4 8 5 7 6 2 7 1 8 3 9
REMARK H PARENT
REMARK Flexibility Score: inf
ROOT
ATOM      1  C   UNL     1      42.640  29.061  -8.971  1.00  0.00     0.016 A 
ATOM      2  C   UNL     1      42.170  30.153  -9.717  1.00  0.00     0.013 A 
ATOM      3  C   UNL     1      41.702  28.254  -8.304  1.00  0.00     0.120 A 
ATOM      4  C   UNL     1      40.801  30.420  -9.784  1.00  0.00     0.021 A 
ATOM      5  N   UNL     1      40.374  28.534  -8.386  1.00  0.00    -0.264 NA
ATOM      6  C   UNL     1      39.909  29.590  -9.105  1.00  0.00     0.111 A 
ENDROOT
BRANCH   1   7
ATOM      7  C   UNL     1      44.088  28.770  -8.892  1.00  0.00     0.073 C 
ATOM      8  O   UNL     1      44.935  29.694  -9.016  1.00  0.00    -0.545 OA
ATOM      9  O   UNL     1      44.534  27.470  -8.679  1.00  0.00    -0.545 OA
ENDBRANCH   1   7
TORSDOF 1
ENDMDL
MODEL 3
REMARK VINA RESULT:    -4.493      1.813      1.983
REMARK INTER + INTRA:          -4.772
REMARK INTER:                  -4.753
REMARK INTRA:                  -0.019
REMARK UNBOUND:                -0.017
REMARK SMILES O=C([O-])c1cccnc1
REMARK SMILES IDX 4 1 5 2 9 3 6 4 8 5 7 6 2 7 1 8 3 9
REMARK H PARENT
REMARK Flexibility Score: inf
ROOT
ATOM      1  C   UNL     1      43.774  28.794  -9.703  1.00  0.00     0.016 A 
ATOM      2  C   UNL     1      44.259  28.988 -11.005  1.00  0.00     0.013 A 
ATOM      3  C   UNL     1      44.215  27.668  -8.985  1.00  0.00     0.120 A 
ATOM      4  C   UNL     1      45.159  28.077 -11.562  1.00  0.00     0.021 A 
ATOM      5  N   UNL     1      45.092  26.795  -9.550  1.00  0.00    -0.264 NA
ATOM      6  C   UNL     1      45.569  26.975 -10.811  1.00  0.00     0.111 A 
ENDROOT
BRANCH   1   7
ATOM      7  C   UNL     1      42.820  29.752  -9.103  1.00  0.00     0.073 C 
ATOM      8  O   UNL     1      42.986  30.168  -7.926  1.00  0.00    -0.545 OA
ATOM      9  O   UNL     1      41.726  30.206  -9.832  1.00  0.00    -0.545 OA
ENDBRANCH   1   7
TORSDOF 1
ENDMDL
MODEL 4
REMARK VINA RESULT:    -4.460      2.497      2.980
REMARK INTER + INTRA:          -4.738
REMARK INTER:                  -4.721
REMARK INTRA:                  -0.017
REMARK UNBOUND:                -0.017
REMARK SMILES O=C([O-])c1cccnc1
REMARK SMILES IDX 4 1 5 2 9 3 6 4 8 5 7 6 2 7 1 8 3 9
REMARK H PARENT
REMARK Flexibility Score: inf
ROOT
ATOM      1  C   UNL     1      42.617  29.553  -9.156  1.00  0.00     0.016 A 
ATOM      2  C   UNL     1      43.600  29.325 -10.132  1.00  0.00     0.013 A 
ATOM      3  C   UNL     1      42.601  28.729  -8.017  1.00  0.00     0.120 A 
ATOM      4  C   UNL     1      44.532  28.300  -9.962  1.00  0.00     0.021 A 
ATOM      5  N   UNL     1      43.521  27.738  -7.875  1.00  0.00    -0.264 NA
ATOM      6  C   UNL     1      44.477  27.508  -8.814  1.00  0.00     0.111 A 
ENDROOT
BRANCH   1   7
ATOM      7  C   UNL     1      41.624  30.636  -9.326  1.00  0.00     0.073 C 
ATOM      8  O   UNL     1      40.659  30.500 -10.125  1.00  0.00    -0.545 OA
ATOM      9  O   UNL     1      41.742  31.819  -8.605  1.00  0.00    -0.545 OA
ENDBRANCH   1   7
TORSDOF 1
ENDMDL
MODEL 5
REMARK VINA RESULT:    -4.437      2.694      3.825
REMARK INTER + INTRA:          -4.713
REMARK INTER:                  -4.695
REMARK INTRA:                  -0.018
REMARK UNBOUND:                -0.017
REMARK SMILES O=C([O-])c1cccnc1
REMARK SMILES IDX 4 1 5 2 9 3 6 4 8 5 7 6 2 7 1 8 3 9
REMARK H PARENT
REMARK Flexibility Score: inf
ROOT
ATOM      1  C   UNL     1      44.299  28.802  -9.844  1.00  0.00     0.016 A 
ATOM      2  C   UNL     1      43.094  29.521  -9.843  1.00  0.00     0.013 A 
ATOM      3  C   UNL     1      44.505  27.840  -8.840  1.00  0.00     0.120 A 
ATOM      4  C   UNL     1      42.132  29.276  -8.861  1.00  0.00     0.021 A 
ATOM      5  N   UNL     1      43.552  27.620  -7.895  1.00  0.00    -0.264 NA
ATOM      6  C   UNL     1      42.381  28.310  -7.886  1.00  0.00     0.111 A 
ENDROOT
BRANCH   1   7
ATOM      7  C   UNL     1      45.326  29.054 -10.878  1.00  0.00     0.073 C 
ATOM      8  O   UNL     1      45.039  28.962 -12.101  1.00  0.00    -0.545 OA
ATOM      9  O   UNL     1      46.623  29.397 -10.513  1.00  0.00    -0.545 OA
ENDBRANCH   1   7
TORSDOF 1
ENDMDL
MODEL 6
REMARK VINA RESULT:    -4.424      3.082      3.677
REMARK INTER + INTRA:          -4.700
REMARK INTER:                  -4.676
REMARK INTRA:                  -0.024
REMARK UNBOUND:                -0.017
REMARK SMILES O=C([O-])c1cccnc1
REMARK SMILES IDX 4 1 5 2 9 3 6 4 8 5 7 6 2 7 1 8 3 9
REMARK H PARENT
REMARK Flexibility Score: inf
ROOT
ATOM      1  C   UNL     1      45.169  26.829 -10.207  1.00  0.00     0.016 A 
ATOM      2  C   UNL     1      44.983  27.665 -11.319  1.00  0.00     0.013 A 
ATOM      3  C   UNL     1      44.688  27.259  -8.958  1.00  0.00     0.120 A 
ATOM      4  C   UNL     1      44.334  28.893 -11.172  1.00  0.00     0.021 A 
ATOM      5  N   UNL     1      44.060  28.459  -8.841  1.00  0.00    -0.264 NA
ATOM      6  C   UNL     1      43.874  29.277  -9.912  1.00  0.00     0.111 A 
ENDROOT
BRANCH   1   7
ATOM      7  C   UNL     1      45.855  25.526 -10.351  1.00  0.00     0.073 C 
ATOM      8  O   UNL     1      45.892  24.713  -9.390  1.00  0.00    -0.545 OA
ATOM      9  O   UNL     1      46.468  25.182 -11.551  1.00  0.00    -0.545 OA
ENDBRANCH   1   7
TORSDOF 1
ENDMDL
MODEL 7
REMARK VINA RESULT:    -4.258      3.280      3.641
REMARK INTER + INTRA:          -4.524
REMARK INTER:                  -4.502
REMARK INTRA:                  -0.022
REMARK UNBOUND:                -0.017
REMARK SMILES O=C([O-])c1cccnc1
REMARK SMILES IDX 4 1 5 2 9 3 6 4 8 5 7 6 2 7 1 8 3 9
REMARK H PARENT
REMARK Flexibility Score: inf
ROOT
ATOM      1  C   UNL     1      44.826  27.285 -10.306  1.00  0.00     0.016 A 
ATOM      2  C   UNL     1      45.275  26.220 -11.101  1.00  0.00     0.013 A 
ATOM      3  C   UNL     1      44.725  27.089  -8.917  1.00  0.00     0.120 A 
ATOM      4  C   UNL     1      45.611  24.998 -10.512  1.00  0.00     0.021 A 
ATOM      5  N   UNL     1      45.059  25.890  -8.369  1.00  0.00    -0.264 NA
ATOM      6  C   UNL     1      45.495  24.851  -9.130  1.00  0.00     0.111 A 
ENDROOT
BRANCH   1   7
ATOM      7  C   UNL     1      44.467  28.583 -10.918  1.00  0.00     0.073 C 
ATOM      8  O   UNL     1      43.587  29.316 -10.395  1.00  0.00    -0.545 OA
ATOM      9  O   UNL     1      45.097  29.011 -12.081  1.00  0.00    -0.545 OA
ENDBRANCH   1   7
TORSDOF 1
ENDMDL
MODEL 8
REMARK VINA RESULT:    -4.046     13.188     13.800
REMARK INTER + INTRA:          -4.299
REMARK INTER:                  -4.275
REMARK INTRA:                  -0.023
REMARK UNBOUND:                -0.017
REMARK SMILES O=C([O-])c1cccnc1
REMARK SMILES IDX 4 1 5 2 9 3 6 4 8 5 7 6 2 7 1 8 3 9
REMARK H PARENT
REMARK Flexibility Score: inf
ROOT
ATOM      1  C   UNL     1      32.284  28.866 -16.139  1.00  0.00     0.016 A 
ATOM      2  C   UNL     1      33.070  27.768 -15.759  1.00  0.00     0.013 A 
ATOM      3  C   UNL     1      32.332  29.293 -17.478  1.00  0.00     0.120 A 
ATOM      4  C   UNL     1      33.877  27.123 -16.700  1.00  0.00     0.021 A 
ATOM      5  N   UNL     1      33.125  28.648 -18.375  1.00  0.00    -0.264 NA
ATOM      6  C   UNL     1      33.890  27.582 -18.018  1.00  0.00     0.111 A 
ENDROOT
BRANCH   1   7
ATOM      7  C   UNL     1      31.427  29.557 -15.151  1.00  0.00     0.073 C 
ATOM      8  O   UNL     1      30.883  30.657 -15.434  1.00  0.00    -0.545 OA
ATOM      9  O   UNL     1      31.211  29.000 -13.896  1.00  0.00    -0.545 OA
ENDBRANCH   1   7
TORSDOF 1
ENDMDL
MODEL 9
REMARK VINA RESULT:    -3.977      3.078      3.843
REMARK INTER + INTRA:          -4.226
REMARK INTER:                  -4.204
REMARK INTRA:                  -0.022
REMARK UNBOUND:                -0.017
REMARK SMILES O=C([O-])c1cccnc1
REMARK SMILES IDX 4 1 5 2 9 3 6 4 8 5 7 6 2 7 1 8 3 9
REMARK H PARENT
REMARK Flexibility Score: inf
ROOT
ATOM      1  C   UNL     1      45.261  26.569  -9.969  1.00  0.00     0.016 A 
ATOM      2  C   UNL     1      44.493  27.381  -9.120  1.00  0.00     0.013 A 
ATOM      3  C   UNL     1      45.528  27.026 -11.272  1.00  0.00     0.120 A 
ATOM      4  C   UNL     1      44.010  28.610  -9.573  1.00  0.00     0.021 A 
ATOM      5  N   UNL     1      45.046  28.228 -11.689  1.00  0.00    -0.264 NA
ATOM      6  C   UNL     1      44.301  29.022 -10.874  1.00  0.00     0.111 A 
ENDROOT
BRANCH   1   7
ATOM      7  C   UNL     1      45.777  25.265  -9.501  1.00  0.00     0.073 C 
ATOM      8  O   UNL     1      46.795  24.750 -10.034  1.00  0.00    -0.545 OA
ATOM      9  O   UNL     1      45.144  24.589  -8.463  1.00  0.00    -0.545 OA
ENDBRANCH   1   7
TORSDOF 1
ENDMDL
