MODEL 1
REMARK VINA RESULT:    -6.875      0.000      0.000
REMARK INTER + INTRA:         -12.789
REMARK INTER:                 -11.296
REMARK INTRA:                  -1.494
REMARK UNBOUND:                -1.494
REMARK SMILES C[C@H]1O[C@H](OC[C@@H]2O[C@@H](Oc3c(-c4ccc(O)c(O)c4)oc4cc(O)cc(O)c4c3=O)[C@@H](O)[C@H](O)[C@@H]2O)[C@@H](O)[C@H](O)[C@@H]1O
REMARK SMILES IDX 7 1 36 2 34 3 32 4 9 5 8 6 6 7 5 8 4 9 1 10 2 11 42 12 3 13
REMARK SMILES IDX 40 14 38 15 43 16 41 18 39 20 37 22 35 24 10 26 11 27 12 28
REMARK SMILES IDX 30 29 21 30 29 31 31 32 22 33 27 34 23 35 26 36 24 37 13 38
REMARK SMILES IDX 20 39 14 40 18 41 15 42 16 43 19 44 17 46 28 48 25 50 33 52
REMARK H PARENT 43 17 41 19 39 21 37 23 35 25 19 45 17 47 28 49 25 51 33 53
REMARK Flexibility Score: inf
ROOT
ATOM      1  C   UNL     1     147.455 150.939 151.210  1.00  0.00     0.180 C 
ATOM      2  C   UNL     1     148.118 151.178 152.568  1.00  0.00     0.177 C 
ATOM      3  C   UNL     1     148.844 149.924 153.213  1.00  0.00     0.180 C 
ATOM      4  C   UNL     1     150.004 149.603 152.071  1.00  0.00     0.214 C 
ATOM      5  C   UNL     1     149.227 149.391 150.714  1.00  0.00     0.339 C 
ATOM      6  O   UNL     1     148.446 150.509 150.239  1.00  0.00    -0.332 OA
ENDROOT
BRANCH   1   7
ATOM      7  C   UNL     1     146.005 150.243 150.991  1.00  0.00     0.198 C 
BRANCH   7   8
ATOM      8  O   UNL     1     145.725 148.941 151.607  1.00  0.00    -0.347 OA
BRANCH   8   9
ATOM      9  C   UNL     1     144.849 147.924 150.906  1.00  0.00     0.281 C 
ATOM     10  C   UNL     1     141.967 146.730 151.615  1.00  0.00     0.041 C 
ATOM     11  C   UNL     1     142.608 147.331 150.285  1.00  0.00     0.150 C 
ATOM     12  C   UNL     1     142.996 146.111 149.362  1.00  0.00     0.174 C 
ATOM     13  O   UNL     1     143.586 148.348 150.375  1.00  0.00    -0.344 OA
ATOM     14  C   UNL     1     144.328 145.516 149.862  1.00  0.00     0.179 C 
ATOM     15  C   UNL     1     145.422 146.643 149.988  1.00  0.00     0.202 C 
BRANCH  12  16
ATOM     16  O   UNL     1     143.047 146.628 148.010  1.00  0.00    -0.388 OA
ATOM     17  H   UNL     1     144.001 146.590 147.478  1.00  0.00     0.211 HD
ENDBRANCH  12  16
BRANCH  14  18
ATOM     18  O   UNL     1     144.644 144.265 149.241  1.00  0.00    -0.387 OA
ATOM     19  H   UNL     1     145.289 143.823 149.873  1.00  0.00     0.211 HD
ENDBRANCH  14  18
BRANCH  15  20
ATOM     20  O   UNL     1     146.705 146.209 150.401  1.00  0.00    -0.385 OA
ATOM     21  H   UNL     1     146.605 145.246 150.721  1.00  0.00     0.211 HD
ENDBRANCH  15  20
ENDBRANCH   8   9
ENDBRANCH   7   8
ENDBRANCH   1   7
BRANCH   2  22
ATOM     22  O   UNL     1     147.393 152.187 153.344  1.00  0.00    -0.387 OA
ATOM     23  H   UNL     1     146.811 151.603 153.880  1.00  0.00     0.211 HD
ENDBRANCH   2  22
BRANCH   3  24
ATOM     24  O   UNL     1     148.236 148.618 153.202  1.00  0.00    -0.387 OA
ATOM     25  H   UNL     1     147.332 148.827 153.553  1.00  0.00     0.211 HD
ENDBRANCH   3  24
BRANCH   5  26
ATOM     26  O   UNL     1     150.175 149.191 149.703  1.00  0.00    -0.454 OA
BRANCH  26  27
ATOM     27  C   UNL     1     150.417 148.138 148.775  1.00  0.00     0.214 A 
ATOM     28  C   UNL     1     151.782 147.939 148.409  1.00  0.00     0.180 A 
ATOM     29  C   UNL     1     149.456 147.360 148.146  1.00  0.00     0.239 A 
ATOM     30  O   UNL     1     152.159 146.736 147.946  1.00  0.00    -0.452 OA
ATOM     31  C   UNL     1     149.932 146.327 147.271  1.00  0.00     0.111 A 
ATOM     32  O   UNL     1     148.225 147.531 148.288  1.00  0.00    -0.285 OA
ATOM     33  C   UNL     1     151.287 145.971 147.325  1.00  0.00     0.146 A 
ATOM     34  C   UNL     1     149.086 145.686 146.311  1.00  0.00     0.134 A 
ATOM     35  C   UNL     1     151.789 144.870 146.623  1.00  0.00     0.094 A 
ATOM     36  C   UNL     1     149.600 144.620 145.586  1.00  0.00     0.093 A 
ATOM     37  C   UNL     1     150.902 144.220 145.697  1.00  0.00     0.123 A 
BRANCH  28  38
ATOM     38  C   UNL     1     152.747 149.033 148.493  1.00  0.00     0.025 A 
ATOM     39  C   UNL     1     152.735 149.940 149.573  1.00  0.00     0.062 A 
ATOM     40  C   UNL     1     154.005 148.736 147.901  1.00  0.00     0.016 A 
ATOM     41  C   UNL     1     153.934 150.549 149.995  1.00  0.00     0.158 A 
ATOM     42  C   UNL     1     155.132 149.340 148.288  1.00  0.00     0.051 A 
ATOM     43  C   UNL     1     155.136 150.211 149.387  1.00  0.00     0.157 A 
BRANCH  41  44
ATOM     44  O   UNL     1     153.843 151.585 150.990  1.00  0.00    -0.504 OA
ATOM     45  H   UNL     1     153.209 152.358 150.911  1.00  0.00     0.293 HD
ENDBRANCH  41  44
BRANCH  43  46
ATOM     46  O   UNL     1     156.437 150.665 149.803  1.00  0.00    -0.504 OA
ATOM     47  H   UNL     1     157.081 150.005 150.203  1.00  0.00     0.293 HD
ENDBRANCH  43  46
ENDBRANCH  28  38
BRANCH  34  48
ATOM     48  O   UNL     1     147.796 146.126 146.097  1.00  0.00    -0.507 OA
ATOM     49  H   UNL     1     147.332 146.791 146.721  1.00  0.00     0.293 HD
ENDBRANCH  34  48
BRANCH  37  50
ATOM     50  O   UNL     1     151.432 143.249 144.786  1.00  0.00    -0.508 OA
ATOM     51  H   UNL     1     152.018 143.551 143.984  1.00  0.00     0.293 HD
ENDBRANCH  37  50
ENDBRANCH  26  27
ENDBRANCH   5  26
BRANCH   4  52
ATOM     52  O   UNL     1     151.063 150.584 151.895  1.00  0.00    -0.384 OA
ATOM     53  H   UNL     1     150.575 151.407 152.168  1.00  0.00     0.211 HD
ENDBRANCH   4  52
TORSDOF 16
ENDMDL
MODEL 2
REMARK VINA RESULT:    -5.661      1.358      5.097
REMARK INTER + INTRA:         -10.795
REMARK INTER:                  -9.020
REMARK INTRA:                  -1.775
REMARK UNBOUND:                -1.494
REMARK SMILES C[C@H]1O[C@H](OC[C@@H]2O[C@@H](Oc3c(-c4ccc(O)c(O)c4)oc4cc(O)cc(O)c4c3=O)[C@@H](O)[C@H](O)[C@@H]2O)[C@@H](O)[C@H](O)[C@@H]1O
REMARK SMILES IDX 7 1 36 2 34 3 32 4 9 5 8 6 6 7 5 8 4 9 1 10 2 11 42 12 3 13
REMARK SMILES IDX 40 14 38 15 43 16 41 18 39 20 37 22 35 24 10 26 11 27 12 28
REMARK SMILES IDX 30 29 21 30 29 31 31 32 22 33 27 34 23 35 26 36 24 37 13 38
REMARK SMILES IDX 20 39 14 40 18 41 15 42 16 43 19 44 17 46 28 48 25 50 33 52
REMARK H PARENT 43 17 41 19 39 21 37 23 35 25 19 45 17 47 28 49 25 51 33 53
REMARK Flexibility Score: inf
ROOT
ATOM      1  C   UNL     1     146.526 147.835 150.520  1.00  0.00     0.180 C 
ATOM      2  C   UNL     1     145.903 149.047 151.214  1.00  0.00     0.177 C 
ATOM      3  C   UNL     1     146.881 149.899 152.128  1.00  0.00     0.180 C 
ATOM      4  C   UNL     1     148.001 150.405 151.013  1.00  0.00     0.214 C 
ATOM      5  C   UNL     1     148.568 149.093 150.345  1.00  0.00     0.339 C 
ATOM      6  O   UNL     1     147.612 148.260 149.654  1.00  0.00    -0.332 OA
ENDROOT
BRANCH   1   7
ATOM      7  C   UNL     1     146.795 146.397 151.221  1.00  0.00     0.198 C 
BRANCH   7   8
ATOM      8  O   UNL     1     146.078 145.209 150.742  1.00  0.00    -0.347 OA
BRANCH   8   9
ATOM      9  C   UNL     1     144.723 145.337 150.078  1.00  0.00     0.281 C 
ATOM     10  C   UNL     1     141.875 144.050 150.761  1.00  0.00     0.041 C 
ATOM     11  C   UNL     1     142.358 145.532 150.424  1.00  0.00     0.150 C 
ATOM     12  C   UNL     1     141.979 145.815 148.918  1.00  0.00     0.174 C 
ATOM     13  O   UNL     1     143.652 145.952 150.805  1.00  0.00    -0.344 OA
ATOM     14  C   UNL     1     143.035 145.151 148.011  1.00  0.00     0.179 C 
ATOM     15  C   UNL     1     144.485 145.594 148.438  1.00  0.00     0.202 C 
BRANCH  12  16
ATOM     16  O   UNL     1     141.902 147.254 148.784  1.00  0.00    -0.388 OA
ATOM     17  H   UNL     1     142.836 147.820 148.734  1.00  0.00     0.211 HD
ENDBRANCH  12  16
BRANCH  14  18
ATOM     18  O   UNL     1     142.656 145.147 146.629  1.00  0.00    -0.387 OA
ATOM     19  H   UNL     1     141.882 144.507 146.580  1.00  0.00     0.211 HD
ENDBRANCH  14  18
BRANCH  15  20
ATOM     20  O   UNL     1     145.541 145.079 147.648  1.00  0.00    -0.385 OA
ATOM     21  H   UNL     1     145.760 144.151 148.010  1.00  0.00     0.211 HD
ENDBRANCH  15  20
ENDBRANCH   8   9
ENDBRANCH   7   8
ENDBRANCH   1   7
BRANCH   2  22
ATOM     22  O   UNL     1     144.492 148.813 151.531  1.00  0.00    -0.387 OA
ATOM     23  H   UNL     1     144.520 148.902 152.510  1.00  0.00     0.211 HD
ENDBRANCH   2  22
BRANCH   3  24
ATOM     24  O   UNL     1     147.814 149.264 153.022  1.00  0.00    -0.387 OA
ATOM     25  H   UNL     1     147.207 148.682 153.549  1.00  0.00     0.211 HD
ENDBRANCH   3  24
BRANCH   5  26
ATOM     26  O   UNL     1     149.466 149.476 149.340  1.00  0.00    -0.454 OA
BRANCH  26  27
ATOM     27  C   UNL     1     150.886 149.556 149.268  1.00  0.00     0.214 A 
ATOM     28  C   UNL     1     151.513 148.616 148.397  1.00  0.00     0.180 A 
ATOM     29  C   UNL     1     151.701 150.392 150.017  1.00  0.00     0.239 A 
ATOM     30  O   UNL     1     152.731 148.900 147.908  1.00  0.00    -0.452 OA
ATOM     31  C   UNL     1     153.110 150.328 149.752  1.00  0.00     0.111 A 
ATOM     32  O   UNL     1     151.274 151.163 150.904  1.00  0.00    -0.285 OA
ATOM     33  C   UNL     1     153.547 149.673 148.592  1.00  0.00     0.146 A 
ATOM     34  C   UNL     1     154.085 150.859 150.655  1.00  0.00     0.134 A 
ATOM     35  C   UNL     1     154.885 149.708 148.185  1.00  0.00     0.094 A 
ATOM     36  C   UNL     1     155.417 150.855 150.267  1.00  0.00     0.093 A 
ATOM     37  C   UNL     1     155.835 150.288 149.096  1.00  0.00     0.123 A 
BRANCH  28  38
ATOM     38  C   UNL     1     150.866 147.347 148.074  1.00  0.00     0.025 A 
ATOM     39  C   UNL     1     149.603 147.306 147.447  1.00  0.00     0.062 A 
ATOM     40  C   UNL     1     151.777 146.295 147.780  1.00  0.00     0.016 A 
ATOM     41  C   UNL     1     149.270 146.226 146.604  1.00  0.00     0.158 A 
ATOM     42  C   UNL     1     151.442 145.261 147.003  1.00  0.00     0.051 A 
ATOM     43  C   UNL     1     150.205 145.234 146.344  1.00  0.00     0.157 A 
BRANCH  41  44
ATOM     44  O   UNL     1     147.916 146.150 146.120  1.00  0.00    -0.504 OA
ATOM     45  H   UNL     1     147.353 145.326 146.213  1.00  0.00     0.293 HD
ENDBRANCH  41  44
BRANCH  43  46
ATOM     46  O   UNL     1     150.034 144.151 145.410  1.00  0.00    -0.504 OA
ATOM     47  H   UNL     1     150.839 143.780 144.937  1.00  0.00     0.293 HD
ENDBRANCH  43  46
ENDBRANCH  28  38
BRANCH  34  48
ATOM     48  O   UNL     1     153.713 151.351 151.890  1.00  0.00    -0.507 OA
ATOM     49  H   UNL     1     152.741 151.361 152.208  1.00  0.00     0.293 HD
ENDBRANCH  34  48
BRANCH  37  50
ATOM     50  O   UNL     1     157.236 150.134 148.836  1.00  0.00    -0.508 OA
ATOM     51  H   UNL     1     157.868 150.956 148.875  1.00  0.00     0.293 HD
ENDBRANCH  37  50
ENDBRANCH  26  27
ENDBRANCH   5  26
BRANCH   4  52
ATOM     52  O   UNL     1     147.557 151.338 149.990  1.00  0.00    -0.384 OA
ATOM     53  H   UNL     1     146.662 151.574 150.357  1.00  0.00     0.211 HD
ENDBRANCH   4  52
TORSDOF 16
ENDMDL
MODEL 3
REMARK VINA RESULT:    -5.504      3.039      6.500
REMARK INTER + INTRA:         -10.537
REMARK INTER:                 -11.779
REMARK INTRA:                   1.242
REMARK UNBOUND:                -1.494
REMARK SMILES C[C@H]1O[C@H](OC[C@@H]2O[C@@H](Oc3c(-c4ccc(O)c(O)c4)oc4cc(O)cc(O)c4c3=O)[C@@H](O)[C@H](O)[C@@H]2O)[C@@H](O)[C@H](O)[C@@H]1O
REMARK SMILES IDX 7 1 36 2 34 3 32 4 9 5 8 6 6 7 5 8 4 9 1 10 2 11 42 12 3 13
REMARK SMILES IDX 40 14 38 15 43 16 41 18 39 20 37 22 35 24 10 26 11 27 12 28
REMARK SMILES IDX 30 29 21 30 29 31 31 32 22 33 27 34 23 35 26 36 24 37 13 38
REMARK SMILES IDX 20 39 14 40 18 41 15 42 16 43 19 44 17 46 28 48 25 50 33 52
REMARK H PARENT 43 17 41 19 39 21 37 23 35 25 19 45 17 47 28 49 25 51 33 53
REMARK Flexibility Score: inf
ROOT
ATOM      1  C   UNL     1     148.680 151.043 153.017  1.00  0.00     0.180 C 
ATOM      2  C   UNL     1     147.211 150.743 152.714  1.00  0.00     0.177 C 
ATOM      3  C   UNL     1     146.832 150.623 151.179  1.00  0.00     0.180 C 
ATOM      4  C   UNL     1     147.774 149.338 150.716  1.00  0.00     0.214 C 
ATOM      5  C   UNL     1     149.257 149.735 151.083  1.00  0.00     0.339 C 
ATOM      6  O   UNL     1     149.525 149.992 152.479  1.00  0.00    -0.332 OA
ENDROOT
BRANCH   1   7
ATOM      7  C   UNL     1     149.365 152.513 152.942  1.00  0.00     0.198 C 
BRANCH   7   8
ATOM      8  O   UNL     1     150.502 152.830 153.814  1.00  0.00    -0.347 OA
BRANCH   8   9
ATOM      9  C   UNL     1     150.510 154.094 154.648  1.00  0.00     0.281 C 
ATOM     10  C   UNL     1     148.766 156.771 154.494  1.00  0.00     0.041 C 
ATOM     11  C   UNL     1     149.171 155.792 155.686  1.00  0.00     0.150 C 
ATOM     12  C   UNL     1     150.346 156.485 156.480  1.00  0.00     0.174 C 
ATOM     13  O   UNL     1     149.353 154.414 155.431  1.00  0.00    -0.344 OA
ATOM     14  C   UNL     1     151.663 156.263 155.708  1.00  0.00     0.179 C 
ATOM     15  C   UNL     1     151.868 154.733 155.398  1.00  0.00     0.202 C 
BRANCH  12  16
ATOM     16  O   UNL     1     150.332 155.908 157.808  1.00  0.00    -0.388 OA
ATOM     17  H   UNL     1     150.804 154.933 157.953  1.00  0.00     0.211 HD
ENDBRANCH  12  16
BRANCH  14  18
ATOM     18  O   UNL     1     152.745 157.051 156.219  1.00  0.00    -0.387 OA
ATOM     19  H   UNL     1     153.475 156.387 156.408  1.00  0.00     0.211 HD
ENDBRANCH  14  18
BRANCH  15  20
ATOM     20  O   UNL     1     153.068 154.399 154.725  1.00  0.00    -0.385 OA
ATOM     21  H   UNL     1     153.804 154.982 155.122  1.00  0.00     0.211 HD
ENDBRANCH  15  20
ENDBRANCH   8   9
ENDBRANCH   7   8
ENDBRANCH   1   7
BRANCH   2  22
ATOM     22  O   UNL     1     146.329 151.328 153.726  1.00  0.00    -0.387 OA
ATOM     23  H   UNL     1     146.037 150.511 154.191  1.00  0.00     0.211 HD
ENDBRANCH   2  22
BRANCH   3  24
ATOM     24  O   UNL     1     147.338 151.557 150.206  1.00  0.00    -0.387 OA
ATOM     25  H   UNL     1     146.759 151.353 149.427  1.00  0.00     0.211 HD
ENDBRANCH   3  24
BRANCH   5  26
ATOM     26  O   UNL     1     150.081 148.645 150.778  1.00  0.00    -0.454 OA
BRANCH  26  27
ATOM     27  C   UNL     1     150.259 147.841 149.616  1.00  0.00     0.214 A 
ATOM     28  C   UNL     1     151.525 147.961 148.970  1.00  0.00     0.180 A 
ATOM     29  C   UNL     1     149.301 147.032 149.022  1.00  0.00     0.239 A 
ATOM     30  O   UNL     1     151.956 146.952 148.196  1.00  0.00    -0.452 OA
ATOM     31  C   UNL     1     149.713 146.280 147.871  1.00  0.00     0.111 A 
ATOM     32  O   UNL     1     148.119 146.950 149.422  1.00  0.00    -0.285 OA
ATOM     33  C   UNL     1     151.083 146.169 147.596  1.00  0.00     0.146 A 
ATOM     34  C   UNL     1     148.776 145.685 146.968  1.00  0.00     0.134 A 
ATOM     35  C   UNL     1     151.568 145.325 146.592  1.00  0.00     0.094 A 
ATOM     36  C   UNL     1     149.262 144.881 145.947  1.00  0.00     0.093 A 
ATOM     37  C   UNL     1     150.599 144.707 145.727  1.00  0.00     0.123 A 
BRANCH  28  38
ATOM     38  C   UNL     1     152.325 149.176 149.109  1.00  0.00     0.025 A 
ATOM     39  C   UNL     1     152.312 149.930 150.301  1.00  0.00     0.062 A 
ATOM     40  C   UNL     1     153.532 149.159 148.358  1.00  0.00     0.016 A 
ATOM     41  C   UNL     1     153.452 150.666 150.682  1.00  0.00     0.158 A 
ATOM     42  C   UNL     1     154.598 149.883 148.711  1.00  0.00     0.051 A 
ATOM     43  C   UNL     1     154.608 150.602 149.915  1.00  0.00     0.157 A 
BRANCH  41  44
ATOM     44  O   UNL     1     153.332 151.544 151.816  1.00  0.00    -0.504 OA
ATOM     45  H   UNL     1     153.379 152.542 151.736  1.00  0.00     0.293 HD
ENDBRANCH  41  44
BRANCH  43  46
ATOM     46  O   UNL     1     155.870 151.202 150.258  1.00  0.00    -0.504 OA
ATOM     47  H   UNL     1     156.021 152.175 150.058  1.00  0.00     0.293 HD
ENDBRANCH  43  46
ENDBRANCH  28  38
BRANCH  34  48
ATOM     48  O   UNL     1     147.422 145.917 147.097  1.00  0.00    -0.507 OA
ATOM     49  H   UNL     1     146.749 145.666 146.368  1.00  0.00     0.293 HD
ENDBRANCH  34  48
BRANCH  37  50
ATOM     50  O   UNL     1     151.048 144.032 144.545  1.00  0.00    -0.508 OA
ATOM     51  H   UNL     1     152.015 143.659 144.492  1.00  0.00     0.293 HD
ENDBRANCH  37  50
ENDBRANCH  26  27
ENDBRANCH   5  26
BRANCH   4  52
ATOM     52  O   UNL     1     147.452 148.034 151.272  1.00  0.00    -0.384 OA
ATOM     53  H   UNL     1     148.318 147.569 151.122  1.00  0.00     0.211 HD
ENDBRANCH   4  52
TORSDOF 16
ENDMDL
MODEL 4
REMARK VINA RESULT:    -5.442      3.084      7.980
REMARK INTER + INTRA:         -10.436
REMARK INTER:                  -9.375
REMARK INTRA:                  -1.061
REMARK UNBOUND:                -1.494
REMARK SMILES C[C@H]1O[C@H](OC[C@@H]2O[C@@H](Oc3c(-c4ccc(O)c(O)c4)oc4cc(O)cc(O)c4c3=O)[C@@H](O)[C@H](O)[C@@H]2O)[C@@H](O)[C@H](O)[C@@H]1O
REMARK SMILES IDX 7 1 36 2 34 3 32 4 9 5 8 6 6 7 5 8 4 9 1 10 2 11 42 12 3 13
REMARK SMILES IDX 40 14 38 15 43 16 41 18 39 20 37 22 35 24 10 26 11 27 12 28
REMARK SMILES IDX 30 29 21 30 29 31 31 32 22 33 27 34 23 35 26 36 24 37 13 38
REMARK SMILES IDX 20 39 14 40 18 41 15 42 16 43 19 44 17 46 28 48 25 50 33 52
REMARK H PARENT 43 17 41 19 39 21 37 23 35 25 19 45 17 47 28 49 25 51 33 53
REMARK Flexibility Score: inf
ROOT
ATOM      1  C   UNL     1     148.350 150.873 153.075  1.00  0.00     0.180 C 
ATOM      2  C   UNL     1     146.937 150.393 152.738  1.00  0.00     0.177 C 
ATOM      3  C   UNL     1     146.521 150.488 151.210  1.00  0.00     0.180 C 
ATOM      4  C   UNL     1     147.638 149.480 150.511  1.00  0.00     0.214 C 
ATOM      5  C   UNL     1     149.051 150.045 150.928  1.00  0.00     0.339 C 
ATOM      6  O   UNL     1     149.331 150.090 152.344  1.00  0.00    -0.332 OA
ENDROOT
BRANCH   1   7
ATOM      7  C   UNL     1     148.787 152.426 153.262  1.00  0.00     0.198 C 
BRANCH   7   8
ATOM      8  O   UNL     1     150.057 152.749 153.921  1.00  0.00    -0.347 OA
BRANCH   8   9
ATOM      9  C   UNL     1     150.240 154.063 154.651  1.00  0.00     0.281 C 
ATOM     10  C   UNL     1     148.533 156.769 154.647  1.00  0.00     0.041 C 
ATOM     11  C   UNL     1     149.143 155.858 155.804  1.00  0.00     0.150 C 
ATOM     12  C   UNL     1     150.456 156.570 156.315  1.00  0.00     0.174 C 
ATOM     13  O   UNL     1     149.255 154.462 155.614  1.00  0.00    -0.344 OA
ATOM     14  C   UNL     1     151.600 156.266 155.326  1.00  0.00     0.179 C 
ATOM     15  C   UNL     1     151.723 154.714 155.088  1.00  0.00     0.202 C 
BRANCH  12  16
ATOM     16  O   UNL     1     150.686 156.080 157.658  1.00  0.00    -0.388 OA
ATOM     17  H   UNL     1     151.456 155.319 157.806  1.00  0.00     0.211 HD
ENDBRANCH  12  16
BRANCH  14  18
ATOM     18  O   UNL     1     152.769 157.056 155.571  1.00  0.00    -0.387 OA
ATOM     19  H   UNL     1     152.418 157.982 155.745  1.00  0.00     0.211 HD
ENDBRANCH  14  18
BRANCH  15  20
ATOM     20  O   UNL     1     152.770 154.307 154.226  1.00  0.00    -0.385 OA
ATOM     21  H   UNL     1     152.497 153.409 153.828  1.00  0.00     0.211 HD
ENDBRANCH  15  20
ENDBRANCH   8   9
ENDBRANCH   7   8
ENDBRANCH   1   7
BRANCH   2  22
ATOM     22  O   UNL     1     146.015 150.634 153.849  1.00  0.00    -0.387 OA
ATOM     23  H   UNL     1     145.319 149.971 153.640  1.00  0.00     0.211 HD
ENDBRANCH   2  22
BRANCH   3  24
ATOM     24  O   UNL     1     146.831 151.651 150.419  1.00  0.00    -0.387 OA
ATOM     25  H   UNL     1     146.284 151.482 149.609  1.00  0.00     0.211 HD
ENDBRANCH   3  24
BRANCH   5  26
ATOM     26  O   UNL     1     150.027 149.178 150.421  1.00  0.00    -0.454 OA
BRANCH  26  27
ATOM     27  C   UNL     1     151.370 149.357 149.984  1.00  0.00     0.214 A 
ATOM     28  C   UNL     1     151.755 148.595 148.841  1.00  0.00     0.180 A 
ATOM     29  C   UNL     1     152.342 150.126 150.608  1.00  0.00     0.239 A 
ATOM     30  O   UNL     1     152.785 149.023 148.094  1.00  0.00    -0.452 OA
ATOM     31  C   UNL     1     153.625 150.191 149.969  1.00  0.00     0.111 A 
ATOM     32  O   UNL     1     152.158 150.732 151.687  1.00  0.00    -0.285 OA
ATOM     33  C   UNL     1     153.741 149.740 148.646  1.00  0.00     0.146 A 
ATOM     34  C   UNL     1     154.798 150.648 150.649  1.00  0.00     0.134 A 
ATOM     35  C   UNL     1     154.914 149.918 147.907  1.00  0.00     0.094 A 
ATOM     36  C   UNL     1     155.972 150.784 149.923  1.00  0.00     0.093 A 
ATOM     37  C   UNL     1     156.065 150.420 148.609  1.00  0.00     0.123 A 
BRANCH  28  38
ATOM     38  C   UNL     1     151.072 147.347 148.508  1.00  0.00     0.025 A 
ATOM     39  C   UNL     1     149.700 147.327 148.181  1.00  0.00     0.062 A 
ATOM     40  C   UNL     1     151.908 146.382 147.883  1.00  0.00     0.016 A 
ATOM     41  C   UNL     1     149.200 146.345 147.301  1.00  0.00     0.158 A 
ATOM     42  C   UNL     1     151.421 145.438 147.073  1.00  0.00     0.051 A 
ATOM     43  C   UNL     1     150.067 145.436 146.710  1.00  0.00     0.157 A 
BRANCH  41  44
ATOM     44  O   UNL     1     147.773 146.268 147.128  1.00  0.00    -0.504 OA
ATOM     45  H   UNL     1     147.188 147.081 147.087  1.00  0.00     0.293 HD
ENDBRANCH  41  44
BRANCH  43  46
ATOM     46  O   UNL     1     149.705 144.470 145.706  1.00  0.00    -0.504 OA
ATOM     47  H   UNL     1     150.025 143.522 145.799  1.00  0.00     0.293 HD
ENDBRANCH  43  46
ENDBRANCH  28  38
BRANCH  34  48
ATOM     48  O   UNL     1     154.770 150.930 152.000  1.00  0.00    -0.507 OA
ATOM     49  H   UNL     1     155.237 151.748 152.400  1.00  0.00     0.293 HD
ENDBRANCH  34  48
BRANCH  37  50
ATOM     50  O   UNL     1     157.344 150.395 147.962  1.00  0.00    -0.508 OA
ATOM     51  H   UNL     1     158.123 150.976 148.324  1.00  0.00     0.293 HD
ENDBRANCH  37  50
ENDBRANCH  26  27
ENDBRANCH   5  26
BRANCH   4  52
ATOM     52  O   UNL     1     147.552 148.063 150.823  1.00  0.00    -0.384 OA
ATOM     53  H   UNL     1     146.563 147.963 150.875  1.00  0.00     0.211 HD
ENDBRANCH   4  52
TORSDOF 16
ENDMDL
MODEL 5
REMARK VINA RESULT:    -4.735      1.952      7.511
REMARK INTER + INTRA:          -9.274
REMARK INTER:                  -8.473
REMARK INTRA:                  -0.801
REMARK UNBOUND:                -1.494
REMARK SMILES C[C@H]1O[C@H](OC[C@@H]2O[C@@H](Oc3c(-c4ccc(O)c(O)c4)oc4cc(O)cc(O)c4c3=O)[C@@H](O)[C@H](O)[C@@H]2O)[C@@H](O)[C@H](O)[C@@H]1O
REMARK SMILES IDX 7 1 36 2 34 3 32 4 9 5 8 6 6 7 5 8 4 9 1 10 2 11 42 12 3 13
REMARK SMILES IDX 40 14 38 15 43 16 41 18 39 20 37 22 35 24 10 26 11 27 12 28
REMARK SMILES IDX 30 29 21 30 29 31 31 32 22 33 27 34 23 35 26 36 24 37 13 38
REMARK SMILES IDX 20 39 14 40 18 41 15 42 16 43 19 44 17 46 28 48 25 50 33 52
REMARK H PARENT 43 17 41 19 39 21 37 23 35 25 19 45 17 47 28 49 25 51 33 53
REMARK Flexibility Score: inf
ROOT
ATOM      1  C   UNL     1     151.840 146.396 148.602  1.00  0.00     0.180 C 
ATOM      2  C   UNL     1     152.853 147.454 148.161  1.00  0.00     0.177 C 
ATOM      3  C   UNL     1     152.264 148.674 147.335  1.00  0.00     0.180 C 
ATOM      4  C   UNL     1     151.213 149.329 148.439  1.00  0.00     0.214 C 
ATOM      5  C   UNL     1     150.228 148.164 148.843  1.00  0.00     0.339 C 
ATOM      6  O   UNL     1     150.827 146.999 149.450  1.00  0.00    -0.332 OA
ENDROOT
BRANCH   1   7
ATOM      7  C   UNL     1     151.258 145.212 147.657  1.00  0.00     0.198 C 
BRANCH   7   8
ATOM      8  O   UNL     1     151.615 145.177 146.234  1.00  0.00    -0.347 OA
BRANCH   8   9
ATOM      9  C   UNL     1     151.166 144.032 145.350  1.00  0.00     0.281 C 
ATOM     10  C   UNL     1     152.372 142.815 142.648  1.00  0.00     0.041 C 
ATOM     11  C   UNL     1     151.869 142.167 144.016  1.00  0.00     0.150 C 
ATOM     12  C   UNL     1     150.426 141.582 143.752  1.00  0.00     0.174 C 
ATOM     13  O   UNL     1     152.013 142.882 145.226  1.00  0.00    -0.344 OA
ATOM     14  C   UNL     1     149.408 142.740 143.802  1.00  0.00     0.179 C 
ATOM     15  C   UNL     1     149.571 143.559 145.138  1.00  0.00     0.202 C 
BRANCH  12  16
ATOM     16  O   UNL     1     150.214 140.561 144.756  1.00  0.00    -0.388 OA
ATOM     17  H   UNL     1     151.089 140.069 145.186  1.00  0.00     0.211 HD
ENDBRANCH  12  16
BRANCH  14  18
ATOM     18  O   UNL     1     148.107 142.354 143.343  1.00  0.00    -0.387 OA
ATOM     19  H   UNL     1     147.487 142.610 144.092  1.00  0.00     0.211 HD
ENDBRANCH  14  18
BRANCH  15  20
ATOM     20  O   UNL     1     148.659 144.627 145.317  1.00  0.00    -0.385 OA
ATOM     21  H   UNL     1     148.804 145.276 144.545  1.00  0.00     0.211 HD
ENDBRANCH  15  20
ENDBRANCH   8   9
ENDBRANCH   7   8
ENDBRANCH   1   7
BRANCH   2  22
ATOM     22  O   UNL     1     154.167 146.859 147.906  1.00  0.00    -0.387 OA
ATOM     23  H   UNL     1     154.462 146.695 148.830  1.00  0.00     0.211 HD
ENDBRANCH   2  22
BRANCH   3  24
ATOM     24  O   UNL     1     151.296 148.472 146.287  1.00  0.00    -0.387 OA
ATOM     25  H   UNL     1     151.481 147.530 146.037  1.00  0.00     0.211 HD
ENDBRANCH   3  24
BRANCH   5  26
ATOM     26  O   UNL     1     149.367 148.654 149.834  1.00  0.00    -0.454 OA
BRANCH  26  27
ATOM     27  C   UNL     1     148.015 148.379 150.185  1.00  0.00     0.214 A 
ATOM     28  C   UNL     1     147.488 149.150 151.264  1.00  0.00     0.180 A 
ATOM     29  C   UNL     1     147.209 147.390 149.640  1.00  0.00     0.239 A 
ATOM     30  O   UNL     1     146.158 149.310 151.356  1.00  0.00    -0.452 OA
ATOM     31  C   UNL     1     145.860 147.316 150.123  1.00  0.00     0.111 A 
ATOM     32  O   UNL     1     147.604 146.569 148.783  1.00  0.00    -0.285 OA
ATOM     33  C   UNL     1     145.353 148.389 150.870  1.00  0.00     0.146 A 
ATOM     34  C   UNL     1     145.034 146.165 149.917  1.00  0.00     0.134 A 
ATOM     35  C   UNL     1     144.005 148.461 151.237  1.00  0.00     0.094 A 
ATOM     36  C   UNL     1     143.707 146.224 150.319  1.00  0.00     0.093 A 
ATOM     37  C   UNL     1     143.190 147.305 150.977  1.00  0.00     0.123 A 
BRANCH  28  38
ATOM     38  C   UNL     1     148.372 149.723 152.277  1.00  0.00     0.025 A 
ATOM     39  C   UNL     1     149.775 149.675 152.138  1.00  0.00     0.062 A 
ATOM     40  C   UNL     1     147.819 150.843 152.956  1.00  0.00     0.016 A 
ATOM     41  C   UNL     1     150.573 150.690 152.702  1.00  0.00     0.158 A 
ATOM     42  C   UNL     1     148.585 151.785 153.513  1.00  0.00     0.051 A 
ATOM     43  C   UNL     1     149.976 151.767 153.344  1.00  0.00     0.157 A 
BRANCH  41  44
ATOM     44  O   UNL     1     152.001 150.511 152.673  1.00  0.00    -0.504 OA
ATOM     45  H   UNL     1     152.536 150.284 153.490  1.00  0.00     0.293 HD
ENDBRANCH  41  44
BRANCH  43  46
ATOM     46  O   UNL     1     150.668 152.924 153.851  1.00  0.00    -0.504 OA
ATOM     47  H   UNL     1     150.463 153.250 154.779  1.00  0.00     0.293 HD
ENDBRANCH  43  46
ENDBRANCH  28  38
BRANCH  34  48
ATOM     48  O   UNL     1     145.546 145.018 149.347  1.00  0.00    -0.507 OA
ATOM     49  H   UNL     1     145.050 144.498 148.618  1.00  0.00     0.293 HD
ENDBRANCH  34  48
BRANCH  37  50
ATOM     50  O   UNL     1     141.875 147.235 151.545  1.00  0.00    -0.508 OA
ATOM     51  H   UNL     1     141.247 146.443 151.309  1.00  0.00     0.293 HD
ENDBRANCH  37  50
ENDBRANCH  26  27
ENDBRANCH   5  26
BRANCH   4  52
ATOM     52  O   UNL     1     151.784 149.939 149.630  1.00  0.00    -0.384 OA
ATOM     53  H   UNL     1     152.751 149.871 149.405  1.00  0.00     0.211 HD
ENDBRANCH   4  52
TORSDOF 16
ENDMDL
MODEL 6
REMARK VINA RESULT:    -4.303      4.944      8.990
REMARK INTER + INTRA:          -8.563
REMARK INTER:                  -7.708
REMARK INTRA:                  -0.854
REMARK UNBOUND:                -1.494
REMARK SMILES C[C@H]1O[C@H](OC[C@@H]2O[C@@H](Oc3c(-c4ccc(O)c(O)c4)oc4cc(O)cc(O)c4c3=O)[C@@H](O)[C@H](O)[C@@H]2O)[C@@H](O)[C@H](O)[C@@H]1O
REMARK SMILES IDX 7 1 36 2 34 3 32 4 9 5 8 6 6 7 5 8 4 9 1 10 2 11 42 12 3 13
REMARK SMILES IDX 40 14 38 15 43 16 41 18 39 20 37 22 35 24 10 26 11 27 12 28
REMARK SMILES IDX 30 29 21 30 29 31 31 32 22 33 27 34 23 35 26 36 24 37 13 38
REMARK SMILES IDX 20 39 14 40 18 41 15 42 16 43 19 44 17 46 28 48 25 50 33 52
REMARK H PARENT 43 17 41 19 39 21 37 23 35 25 19 45 17 47 28 49 25 51 33 53
REMARK Flexibility Score: inf
ROOT
ATOM      1  C   UNL     1     148.994 154.903 154.652  1.00  0.00     0.180 C 
ATOM      2  C   UNL     1     150.407 155.328 155.058  1.00  0.00     0.177 C 
ATOM      3  C   UNL     1     151.272 154.228 155.805  1.00  0.00     0.180 C 
ATOM      4  C   UNL     1     151.352 153.043 154.647  1.00  0.00     0.214 C 
ATOM      5  C   UNL     1     149.858 152.688 154.286  1.00  0.00     0.339 C 
ATOM      6  O   UNL     1     149.054 153.764 153.753  1.00  0.00    -0.332 OA
ENDROOT
BRANCH   1   7
ATOM      7  C   UNL     1     147.712 154.863 155.647  1.00  0.00     0.198 C 
BRANCH   7   8
ATOM      8  O   UNL     1     147.884 155.193 157.066  1.00  0.00    -0.347 OA
BRANCH   8   9
ATOM      9  C   UNL     1     148.210 156.606 157.500  1.00  0.00     0.281 C 
ATOM     10  C   UNL     1     147.895 159.425 156.020  1.00  0.00     0.041 C 
ATOM     11  C   UNL     1     147.506 158.899 157.474  1.00  0.00     0.150 C 
ATOM     12  C   UNL     1     148.604 159.435 158.473  1.00  0.00     0.174 C 
ATOM     13  O   UNL     1     147.140 157.547 157.656  1.00  0.00    -0.344 OA
ATOM     14  C   UNL     1     149.852 158.534 158.365  1.00  0.00     0.179 C 
ATOM     15  C   UNL     1     149.455 157.021 158.545  1.00  0.00     0.202 C 
BRANCH  12  16
ATOM     16  O   UNL     1     147.990 159.442 159.784  1.00  0.00    -0.388 OA
ATOM     17  H   UNL     1     147.856 158.487 160.298  1.00  0.00     0.211 HD
ENDBRANCH  12  16
BRANCH  14  18
ATOM     18  O   UNL     1     150.987 159.073 159.053  1.00  0.00    -0.387 OA
ATOM     19  H   UNL     1     151.377 158.291 159.550  1.00  0.00     0.211 HD
ENDBRANCH  14  18
BRANCH  15  20
ATOM     20  O   UNL     1     150.528 156.097 158.506  1.00  0.00    -0.385 OA
ATOM     21  H   UNL     1     151.030 156.260 157.634  1.00  0.00     0.211 HD
ENDBRANCH  15  20
ENDBRANCH   8   9
ENDBRANCH   7   8
ENDBRANCH   1   7
BRANCH   2  22
ATOM     22  O   UNL     1     150.463 156.758 155.369  1.00  0.00    -0.387 OA
ATOM     23  H   UNL     1     150.729 156.716 156.315  1.00  0.00     0.211 HD
ENDBRANCH   2  22
BRANCH   3  24
ATOM     24  O   UNL     1     150.704 153.406 156.843  1.00  0.00    -0.387 OA
ATOM     25  H   UNL     1     151.517 153.158 157.355  1.00  0.00     0.211 HD
ENDBRANCH   3  24
BRANCH   5  26
ATOM     26  O   UNL     1     149.878 151.742 153.254  1.00  0.00    -0.454 OA
BRANCH  26  27
ATOM     27  C   UNL     1     148.893 150.884 152.686  1.00  0.00     0.214 A 
ATOM     28  C   UNL     1     149.360 149.994 151.674  1.00  0.00     0.180 A 
ATOM     29  C   UNL     1     147.534 150.896 152.965  1.00  0.00     0.239 A 
ATOM     30  O   UNL     1     148.664 148.872 151.428  1.00  0.00    -0.452 OA
ATOM     31  C   UNL     1     146.729 149.914 152.298  1.00  0.00     0.111 A 
ATOM     32  O   UNL     1     146.992 151.720 153.735  1.00  0.00    -0.285 OA
ATOM     33  C   UNL     1     147.368 148.842 151.659  1.00  0.00     0.146 A 
ATOM     34  C   UNL     1     145.304 150.017 152.218  1.00  0.00     0.134 A 
ATOM     35  C   UNL     1     146.650 147.765 151.129  1.00  0.00     0.094 A 
ATOM     36  C   UNL     1     144.596 148.965 151.654  1.00  0.00     0.093 A 
ATOM     37  C   UNL     1     145.217 147.879 151.101  1.00  0.00     0.123 A 
BRANCH  28  38
ATOM     38  C   UNL     1     150.548 150.311 150.886  1.00  0.00     0.025 A 
ATOM     39  C   UNL     1     151.749 150.721 151.503  1.00  0.00     0.062 A 
ATOM     40  C   UNL     1     150.653 149.569 149.678  1.00  0.00     0.016 A 
ATOM     41  C   UNL     1     152.987 150.431 150.895  1.00  0.00     0.158 A 
ATOM     42  C   UNL     1     151.829 149.324 149.095  1.00  0.00     0.051 A 
ATOM     43  C   UNL     1     153.028 149.691 149.721  1.00  0.00     0.157 A 
BRANCH  41  44
ATOM     44  O   UNL     1     154.169 151.010 151.479  1.00  0.00    -0.504 OA
ATOM     45  H   UNL     1     154.967 151.278 150.934  1.00  0.00     0.293 HD
ENDBRANCH  41  44
BRANCH  43  46
ATOM     46  O   UNL     1     154.225 149.225 149.071  1.00  0.00    -0.504 OA
ATOM     47  H   UNL     1     154.398 148.237 149.012  1.00  0.00     0.293 HD
ENDBRANCH  43  46
ENDBRANCH  28  38
BRANCH  34  48
ATOM     48  O   UNL     1     144.647 151.141 152.674  1.00  0.00    -0.507 OA
ATOM     49  H   UNL     1     143.692 151.374 152.390  1.00  0.00     0.293 HD
ENDBRANCH  34  48
BRANCH  37  50
ATOM     50  O   UNL     1     144.453 146.920 150.358  1.00  0.00    -0.508 OA
ATOM     51  H   UNL     1     144.859 145.992 150.132  1.00  0.00     0.293 HD
ENDBRANCH  37  50
ENDBRANCH  26  27
ENDBRANCH   5  26
BRANCH   4  52
ATOM     52  O   UNL     1     152.105 153.335 153.438  1.00  0.00    -0.384 OA
ATOM     53  H   UNL     1     151.823 152.565 152.875  1.00  0.00     0.211 HD
ENDBRANCH   4  52
TORSDOF 16
ENDMDL
MODEL 7
REMARK VINA RESULT:    -4.258      7.388     12.040
REMARK INTER + INTRA:          -8.490
REMARK INTER:                  -7.904
REMARK INTRA:                  -0.586
REMARK UNBOUND:                -1.494
REMARK SMILES C[C@H]1O[C@H](OC[C@@H]2O[C@@H](Oc3c(-c4ccc(O)c(O)c4)oc4cc(O)cc(O)c4c3=O)[C@@H](O)[C@H](O)[C@@H]2O)[C@@H](O)[C@H](O)[C@@H]1O
REMARK SMILES IDX 7 1 36 2 34 3 32 4 9 5 8 6 6 7 5 8 4 9 1 10 2 11 42 12 3 13
REMARK SMILES IDX 40 14 38 15 43 16 41 18 39 20 37 22 35 24 10 26 11 27 12 28
REMARK SMILES IDX 30 29 21 30 29 31 31 32 22 33 27 34 23 35 26 36 24 37 13 38
REMARK SMILES IDX 20 39 14 40 18 41 15 42 16 43 19 44 17 46 28 48 25 50 33 52
REMARK H PARENT 43 17 41 19 39 21 37 23 35 25 19 45 17 47 28 49 25 51 33 53
REMARK Flexibility Score: inf
ROOT
ATOM      1  C   UNL     1     146.529 154.381 156.185  1.00  0.00     0.180 C 
ATOM      2  C   UNL     1     145.985 154.262 157.610  1.00  0.00     0.177 C 
ATOM      3  C   UNL     1     147.058 153.952 158.736  1.00  0.00     0.180 C 
ATOM      4  C   UNL     1     148.039 155.285 158.619  1.00  0.00     0.214 C 
ATOM      5  C   UNL     1     148.531 155.329 157.121  1.00  0.00     0.339 C 
ATOM      6  O   UNL     1     147.505 155.454 156.112  1.00  0.00    -0.332 OA
ENDROOT
BRANCH   1   7
ATOM      7  C   UNL     1     146.885 153.128 155.217  1.00  0.00     0.198 C 
BRANCH   7   8
ATOM      8  O   UNL     1     145.820 152.492 154.431  1.00  0.00    -0.347 OA
BRANCH   8   9
ATOM      9  C   UNL     1     146.150 151.466 153.367  1.00  0.00     0.281 C 
ATOM     10  C   UNL     1     147.839 151.659 150.657  1.00  0.00     0.041 C 
ATOM     11  C   UNL     1     147.831 150.629 151.875  1.00  0.00     0.150 C 
ATOM     12  C   UNL     1     147.031 149.354 151.401  1.00  0.00     0.174 C 
ATOM     13  O   UNL     1     147.518 151.083 153.175  1.00  0.00    -0.344 OA
ATOM     14  C   UNL     1     145.521 149.652 151.504  1.00  0.00     0.179 C 
ATOM     15  C   UNL     1     145.161 150.179 152.944  1.00  0.00     0.202 C 
BRANCH  12  16
ATOM     16  O   UNL     1     147.479 148.261 152.239  1.00  0.00    -0.388 OA
ATOM     17  H   UNL     1     146.750 147.784 152.899  1.00  0.00     0.211 HD
ENDBRANCH  12  16
BRANCH  14  18
ATOM     18  O   UNL     1     144.713 148.648 150.877  1.00  0.00    -0.387 OA
ATOM     19  H   UNL     1     143.811 148.741 151.310  1.00  0.00     0.211 HD
ENDBRANCH  14  18
BRANCH  15  20
ATOM     20  O   UNL     1     143.790 150.449 153.174  1.00  0.00    -0.385 OA
ATOM     21  H   UNL     1     143.428 149.688 153.746  1.00  0.00     0.211 HD
ENDBRANCH  15  20
ENDBRANCH   8   9
ENDBRANCH   7   8
ENDBRANCH   1   7
BRANCH   2  22
ATOM     22  O   UNL     1     144.621 153.727 157.616  1.00  0.00    -0.387 OA
ATOM     23  H   UNL     1     144.131 154.506 157.268  1.00  0.00     0.211 HD
ENDBRANCH   2  22
BRANCH   3  24
ATOM     24  O   UNL     1     148.091 152.969 158.537  1.00  0.00    -0.387 OA
ATOM     25  H   UNL     1     148.079 152.499 159.410  1.00  0.00     0.211 HD
ENDBRANCH   3  24
BRANCH   5  26
ATOM     26  O   UNL     1     149.304 156.486 156.957  1.00  0.00    -0.454 OA
BRANCH  26  27
ATOM     27  C   UNL     1     150.586 156.887 157.430  1.00  0.00     0.214 A 
ATOM     28  C   UNL     1     150.597 158.021 158.296  1.00  0.00     0.180 A 
ATOM     29  C   UNL     1     151.806 156.337 157.065  1.00  0.00     0.239 A 
ATOM     30  O   UNL     1     151.631 158.182 159.139  1.00  0.00    -0.452 OA
ATOM     31  C   UNL     1     152.975 156.878 157.697  1.00  0.00     0.111 A 
ATOM     32  O   UNL     1     151.929 155.428 156.214  1.00  0.00    -0.285 OA
ATOM     33  C   UNL     1     152.813 157.693 158.826  1.00  0.00     0.146 A 
ATOM     34  C   UNL     1     154.294 156.661 157.185  1.00  0.00     0.134 A 
ATOM     35  C   UNL     1     153.903 158.125 159.588  1.00  0.00     0.094 A 
ATOM     36  C   UNL     1     155.373 157.126 157.923  1.00  0.00     0.093 A 
ATOM     37  C   UNL     1     155.217 157.853 159.069  1.00  0.00     0.123 A 
BRANCH  28  38
ATOM     38  C   UNL     1     149.529 159.016 158.241  1.00  0.00     0.025 A 
ATOM     39  C   UNL     1     148.832 159.278 157.043  1.00  0.00     0.062 A 
ATOM     40  C   UNL     1     148.812 159.158 159.461  1.00  0.00     0.016 A 
ATOM     41  C   UNL     1     147.490 159.708 157.089  1.00  0.00     0.158 A 
ATOM     42  C   UNL     1     147.550 159.595 159.495  1.00  0.00     0.051 A 
ATOM     43  C   UNL     1     146.837 159.818 158.309  1.00  0.00     0.157 A 
BRANCH  41  44
ATOM     44  O   UNL     1     146.878 160.117 155.852  1.00  0.00    -0.504 OA
ATOM     45  H   UNL     1     146.690 159.477 155.103  1.00  0.00     0.293 HD
ENDBRANCH  41  44
BRANCH  43  46
ATOM     46  O   UNL     1     145.441 160.124 158.483  1.00  0.00    -0.504 OA
ATOM     47  H   UNL     1     145.094 161.017 158.180  1.00  0.00     0.293 HD
ENDBRANCH  43  46
ENDBRANCH  28  38
BRANCH  34  48
ATOM     48  O   UNL     1     154.489 156.018 155.980  1.00  0.00    -0.507 OA
ATOM     49  H   UNL     1     154.506 156.517 155.087  1.00  0.00     0.293 HD
ENDBRANCH  34  48
BRANCH  37  50
ATOM     50  O   UNL     1     156.353 158.477 159.681  1.00  0.00    -0.508 OA
ATOM     51  H   UNL     1     157.239 158.581 159.151  1.00  0.00     0.293 HD
ENDBRANCH  37  50
ENDBRANCH  26  27
ENDBRANCH   5  26
BRANCH   4  52
ATOM     52  O   UNL     1     147.474 156.570 159.001  1.00  0.00    -0.384 OA
ATOM     53  H   UNL     1     146.559 156.469 158.623  1.00  0.00     0.211 HD
ENDBRANCH   4  52
TORSDOF 16
ENDMDL
MODEL 8
REMARK VINA RESULT:    -4.145      2.473      6.588
REMARK INTER + INTRA:          -8.305
REMARK INTER:                  -8.018
REMARK INTRA:                  -0.287
REMARK UNBOUND:                -1.494
REMARK SMILES C[C@H]1O[C@H](OC[C@@H]2O[C@@H](Oc3c(-c4ccc(O)c(O)c4)oc4cc(O)cc(O)c4c3=O)[C@@H](O)[C@H](O)[C@@H]2O)[C@@H](O)[C@H](O)[C@@H]1O
REMARK SMILES IDX 7 1 36 2 34 3 32 4 9 5 8 6 6 7 5 8 4 9 1 10 2 11 42 12 3 13
REMARK SMILES IDX 40 14 38 15 43 16 41 18 39 20 37 22 35 24 10 26 11 27 12 28
REMARK SMILES IDX 30 29 21 30 29 31 31 32 22 33 27 34 23 35 26 36 24 37 13 38
REMARK SMILES IDX 20 39 14 40 18 41 15 42 16 43 19 44 17 46 28 48 25 50 33 52
REMARK H PARENT 43 17 41 19 39 21 37 23 35 25 19 45 17 47 28 49 25 51 33 53
REMARK Flexibility Score: inf
ROOT
ATOM      1  C   UNL     1     147.336 145.480 147.582  1.00  0.00     0.180 C 
ATOM      2  C   UNL     1     148.329 145.198 146.454  1.00  0.00     0.177 C 
ATOM      3  C   UNL     1     148.692 146.433 145.527  1.00  0.00     0.180 C 
ATOM      4  C   UNL     1     149.374 147.469 146.628  1.00  0.00     0.214 C 
ATOM      5  C   UNL     1     148.287 147.682 147.752  1.00  0.00     0.339 C 
ATOM      6  O   UNL     1     147.865 146.502 148.469  1.00  0.00    -0.332 OA
ENDROOT
BRANCH   1   7
ATOM      7  C   UNL     1     145.724 145.562 147.406  1.00  0.00     0.198 C 
BRANCH   7   8
ATOM      8  O   UNL     1     144.852 144.894 148.380  1.00  0.00    -0.347 OA
BRANCH   8   9
ATOM      9  C   UNL     1     144.482 143.435 148.215  1.00  0.00     0.281 C 
ATOM     10  C   UNL     1     144.162 141.587 145.624  1.00  0.00     0.041 C 
ATOM     11  C   UNL     1     144.917 141.403 147.016  1.00  0.00     0.150 C 
ATOM     12  C   UNL     1     144.018 140.469 147.915  1.00  0.00     0.174 C 
ATOM     13  O   UNL     1     145.456 142.531 147.676  1.00  0.00    -0.344 OA
ATOM     14  C   UNL     1     142.880 141.315 148.523  1.00  0.00     0.179 C 
ATOM     15  C   UNL     1     143.464 142.587 149.244  1.00  0.00     0.202 C 
BRANCH  12  16
ATOM     16  O   UNL     1     144.903 139.875 148.895  1.00  0.00    -0.388 OA
ATOM     17  H   UNL     1     144.546 139.010 149.459  1.00  0.00     0.211 HD
ENDBRANCH  12  16
BRANCH  14  18
ATOM     18  O   UNL     1     141.876 140.517 149.161  1.00  0.00    -0.387 OA
ATOM     19  H   UNL     1     141.442 140.007 148.412  1.00  0.00     0.211 HD
ENDBRANCH  14  18
BRANCH  15  20
ATOM     20  O   UNL     1     142.514 143.423 149.879  1.00  0.00    -0.385 OA
ATOM     21  H   UNL     1     141.853 143.721 149.162  1.00  0.00     0.211 HD
ENDBRANCH  15  20
ENDBRANCH   8   9
ENDBRANCH   7   8
ENDBRANCH   1   7
BRANCH   2  22
ATOM     22  O   UNL     1     148.201 143.823 145.964  1.00  0.00    -0.387 OA
ATOM     23  H   UNL     1     148.049 143.353 146.814  1.00  0.00     0.211 HD
ENDBRANCH   2  22
BRANCH   3  24
ATOM     24  O   UNL     1     147.677 147.339 145.054  1.00  0.00    -0.387 OA
ATOM     25  H   UNL     1     146.955 146.705 144.808  1.00  0.00     0.211 HD
ENDBRANCH   3  24
BRANCH   5  26
ATOM     26  O   UNL     1     148.850 148.494 148.745  1.00  0.00    -0.454 OA
BRANCH  26  27
ATOM     27  C   UNL     1     148.323 149.153 149.892  1.00  0.00     0.214 A 
ATOM     28  C   UNL     1     149.272 149.857 150.690  1.00  0.00     0.180 A 
ATOM     29  C   UNL     1     147.010 149.102 150.339  1.00  0.00     0.239 A 
ATOM     30  O   UNL     1     148.842 150.858 151.476  1.00  0.00    -0.452 OA
ATOM     31  C   UNL     1     146.692 149.877 151.504  1.00  0.00     0.111 A 
ATOM     32  O   UNL     1     146.120 148.411 149.796  1.00  0.00    -0.285 OA
ATOM     33  C   UNL     1     147.610 150.843 151.940  1.00  0.00     0.146 A 
ATOM     34  C   UNL     1     145.501 149.662 152.267  1.00  0.00     0.134 A 
ATOM     35  C   UNL     1     147.303 151.743 152.966  1.00  0.00     0.094 A 
ATOM     36  C   UNL     1     145.219 150.531 153.311  1.00  0.00     0.093 A 
ATOM     37  C   UNL     1     146.077 151.526 153.685  1.00  0.00     0.123 A 
BRANCH  28  38
ATOM     38  C   UNL     1     150.682 149.474 150.691  1.00  0.00     0.025 A 
ATOM     39  C   UNL     1     151.266 148.825 149.582  1.00  0.00     0.062 A 
ATOM     40  C   UNL     1     151.513 150.337 151.456  1.00  0.00     0.016 A 
ATOM     41  C   UNL     1     152.634 149.008 149.299  1.00  0.00     0.158 A 
ATOM     42  C   UNL     1     152.816 150.482 151.197  1.00  0.00     0.051 A 
ATOM     43  C   UNL     1     153.394 149.874 150.074  1.00  0.00     0.157 A 
BRANCH  41  44
ATOM     44  O   UNL     1     153.215 148.200 148.259  1.00  0.00    -0.504 OA
ATOM     45  H   UNL     1     153.107 148.410 147.285  1.00  0.00     0.293 HD
ENDBRANCH  41  44
BRANCH  43  46
ATOM     46  O   UNL     1     154.762 150.242 149.816  1.00  0.00    -0.504 OA
ATOM     47  H   UNL     1     155.414 149.534 149.527  1.00  0.00     0.293 HD
ENDBRANCH  43  46
ENDBRANCH  28  38
BRANCH  34  48
ATOM     48  O   UNL     1     144.658 148.606 151.982  1.00  0.00    -0.507 OA
ATOM     49  H   UNL     1     144.661 147.739 152.526  1.00  0.00     0.293 HD
ENDBRANCH  34  48
BRANCH  37  50
ATOM     50  O   UNL     1     145.834 152.265 154.889  1.00  0.00    -0.508 OA
ATOM     51  H   UNL     1     146.566 152.892 155.274  1.00  0.00     0.293 HD
ENDBRANCH  37  50
ENDBRANCH  26  27
ENDBRANCH   5  26
BRANCH   4  52
ATOM     52  O   UNL     1     150.641 147.078 147.223  1.00  0.00    -0.384 OA
ATOM     53  H   UNL     1     150.340 146.296 147.761  1.00  0.00     0.211 HD
ENDBRANCH   4  52
TORSDOF 16
ENDMDL
MODEL 9
REMARK VINA RESULT:    -3.958      2.149      5.736
REMARK INTER + INTRA:          -7.997
REMARK INTER:                  -7.467
REMARK INTRA:                  -0.530
REMARK UNBOUND:                -1.494
REMARK SMILES C[C@H]1O[C@H](OC[C@@H]2O[C@@H](Oc3c(-c4ccc(O)c(O)c4)oc4cc(O)cc(O)c4c3=O)[C@@H](O)[C@H](O)[C@@H]2O)[C@@H](O)[C@H](O)[C@@H]1O
REMARK SMILES IDX 7 1 36 2 34 3 32 4 9 5 8 6 6 7 5 8 4 9 1 10 2 11 42 12 3 13
REMARK SMILES IDX 40 14 38 15 43 16 41 18 39 20 37 22 35 24 10 26 11 27 12 28
REMARK SMILES IDX 30 29 21 30 29 31 31 32 22 33 27 34 23 35 26 36 24 37 13 38
REMARK SMILES IDX 20 39 14 40 18 41 15 42 16 43 19 44 17 46 28 48 25 50 33 52
REMARK H PARENT 43 17 41 19 39 21 37 23 35 25 19 45 17 47 28 49 25 51 33 53
REMARK Flexibility Score: inf
ROOT
ATOM      1  C   UNL     1     145.589 147.049 149.699  1.00  0.00     0.180 C 
ATOM      2  C   UNL     1     145.122 148.248 150.527  1.00  0.00     0.177 C 
ATOM      3  C   UNL     1     146.182 148.838 151.548  1.00  0.00     0.180 C 
ATOM      4  C   UNL     1     147.394 149.307 150.517  1.00  0.00     0.214 C 
ATOM      5  C   UNL     1     147.792 148.016 149.702  1.00  0.00     0.339 C 
ATOM      6  O   UNL     1     146.749 147.414 148.904  1.00  0.00    -0.332 OA
ENDROOT
BRANCH   1   7
ATOM      7  C   UNL     1     145.634 145.515 150.225  1.00  0.00     0.198 C 
BRANCH   7   8
ATOM      8  O   UNL     1     144.424 144.687 150.155  1.00  0.00    -0.347 OA
BRANCH   8   9
ATOM      9  C   UNL     1     144.363 143.480 149.243  1.00  0.00     0.281 C 
ATOM     10  C   UNL     1     145.654 140.562 149.465  1.00  0.00     0.041 C 
ATOM     11  C   UNL     1     144.188 141.090 149.128  1.00  0.00     0.150 C 
ATOM     12  C   UNL     1     144.008 140.999 147.562  1.00  0.00     0.174 C 
ATOM     13  O   UNL     1     143.722 142.287 149.715  1.00  0.00    -0.344 OA
ATOM     14  C   UNL     1     144.709 142.210 146.913  1.00  0.00     0.179 C 
ATOM     15  C   UNL     1     144.214 143.552 147.574  1.00  0.00     0.202 C 
BRANCH  12  16
ATOM     16  O   UNL     1     142.582 140.940 147.322  1.00  0.00    -0.388 OA
ATOM     17  H   UNL     1     142.236 140.749 146.303  1.00  0.00     0.211 HD
ENDBRANCH  12  16
BRANCH  14  18
ATOM     18  O   UNL     1     144.807 142.097 145.488  1.00  0.00    -0.387 OA
ATOM     19  H   UNL     1     143.930 141.694 145.205  1.00  0.00     0.211 HD
ENDBRANCH  14  18
BRANCH  15  20
ATOM     20  O   UNL     1     144.759 144.741 147.030  1.00  0.00    -0.385 OA
ATOM     21  H   UNL     1     144.352 144.859 146.103  1.00  0.00     0.211 HD
ENDBRANCH  15  20
ENDBRANCH   8   9
ENDBRANCH   7   8
ENDBRANCH   1   7
BRANCH   2  22
ATOM     22  O   UNL     1     143.684 148.181 150.794  1.00  0.00    -0.387 OA
ATOM     23  H   UNL     1     143.336 148.565 149.958  1.00  0.00     0.211 HD
ENDBRANCH   2  22
BRANCH   3  24
ATOM     24  O   UNL     1     146.991 147.976 152.371  1.00  0.00    -0.387 OA
ATOM     25  H   UNL     1     147.875 148.419 152.300  1.00  0.00     0.211 HD
ENDBRANCH   3  24
BRANCH   5  26
ATOM     26  O   UNL     1     148.763 148.383 148.763  1.00  0.00    -0.454 OA
BRANCH  26  27
ATOM     27  C   UNL     1     150.149 148.699 148.853  1.00  0.00     0.214 A 
ATOM     28  C   UNL     1     151.019 147.891 148.063  1.00  0.00     0.180 A 
ATOM     29  C   UNL     1     150.723 149.647 149.688  1.00  0.00     0.239 A 
ATOM     30  O   UNL     1     152.220 148.381 147.715  1.00  0.00    -0.452 OA
ATOM     31  C   UNL     1     152.144 149.823 149.586  1.00  0.00     0.111 A 
ATOM     32  O   UNL     1     150.075 150.322 150.518  1.00  0.00    -0.285 OA
ATOM     33  C   UNL     1     152.813 149.269 148.485  1.00  0.00     0.146 A 
ATOM     34  C   UNL     1     152.907 150.495 150.593  1.00  0.00     0.134 A 
ATOM     35  C   UNL     1     154.163 149.532 148.234  1.00  0.00     0.094 A 
ATOM     36  C   UNL     1     154.256 150.719 150.359  1.00  0.00     0.093 A 
ATOM     37  C   UNL     1     154.893 150.248 149.246  1.00  0.00     0.123 A 
BRANCH  28  38
ATOM     38  C   UNL     1     150.635 146.536 147.672  1.00  0.00     0.025 A 
ATOM     39  C   UNL     1     149.280 146.174 147.520  1.00  0.00     0.062 A 
ATOM     40  C   UNL     1     151.584 145.888 146.836  1.00  0.00     0.016 A 
ATOM     41  C   UNL     1     148.919 145.170 146.599  1.00  0.00     0.158 A 
ATOM     42  C   UNL     1     151.236 144.917 145.987  1.00  0.00     0.051 A 
ATOM     43  C   UNL     1     149.889 144.579 145.800  1.00  0.00     0.157 A 
BRANCH  41  44
ATOM     44  O   UNL     1     147.550 144.725 146.599  1.00  0.00    -0.504 OA
ATOM     45  H   UNL     1     147.261 143.859 146.185  1.00  0.00     0.293 HD
ENDBRANCH  41  44
BRANCH  43  46
ATOM     46  O   UNL     1     149.636 143.637 144.741  1.00  0.00    -0.504 OA
ATOM     47  H   UNL     1     150.338 142.955 144.513  1.00  0.00     0.293 HD
ENDBRANCH  43  46
ENDBRANCH  28  38
BRANCH  34  48
ATOM     48  O   UNL     1     152.321 150.898 151.775  1.00  0.00    -0.507 OA
ATOM     49  H   UNL     1     152.525 150.448 152.671  1.00  0.00     0.293 HD
ENDBRANCH  34  48
BRANCH  37  50
ATOM     50  O   UNL     1     156.321 150.333 149.148  1.00  0.00    -0.508 OA
ATOM     51  H   UNL     1     156.846 150.992 149.755  1.00  0.00     0.293 HD
ENDBRANCH  37  50
ENDBRANCH  26  27
ENDBRANCH   5  26
BRANCH   4  52
ATOM     52  O   UNL     1     147.115 150.407 149.609  1.00  0.00    -0.384 OA
ATOM     53  H   UNL     1     148.043 150.716 149.430  1.00  0.00     0.211 HD
ENDBRANCH   4  52
TORSDOF 16
ENDMDL
