MODEL 1
REMARK VINA RESULT:    -3.924      0.000      0.000
REMARK INTER + INTRA:          -5.788
REMARK INTER:                  -5.530
REMARK INTRA:                  -0.258
REMARK UNBOUND:                -0.258
REMARK SMILES C=CCCCCCCC(=O)[O-]
REMARK SMILES IDX 6 1 7 2 8 3 9 4 10 5 11 6 5 7 4 8 3 9 2 10 1 11
REMARK H PARENT
REMARK Flexibility Score: inf
ROOT
ATOM      1  C   UNL     1      -3.456  -4.416   3.582  1.00  0.00     0.000 C 
ENDROOT
BRANCH   1   2
ATOM      2  C   UNL     1      -4.115  -4.376   4.971  1.00  0.00     0.006 C 
BRANCH   2   3
ATOM      3  C   UNL     1      -5.480  -3.675   4.945  1.00  0.00     0.053 C 
BRANCH   3   4
ATOM      4  C   UNL     1      -5.931  -3.281   6.319  1.00  0.00     0.041 C 
ATOM      5  O   UNL     1      -6.257  -2.088   6.560  1.00  0.00    -0.550 OA
ATOM      6  O   UNL     1      -6.021  -4.235   7.323  1.00  0.00    -0.550 OA
ENDBRANCH   3   4
ENDBRANCH   2   3
ENDBRANCH   1   2
BRANCH   1   7
ATOM      7  C   UNL     1      -3.117  -5.845   3.126  1.00  0.00     0.000 C 
BRANCH   7   8
ATOM      8  C   UNL     1      -1.637  -6.201   3.344  1.00  0.00     0.004 C 
BRANCH   8   9
ATOM      9  C   UNL     1      -1.465  -7.591   3.973  1.00  0.00     0.027 C 
BRANCH   9  10
ATOM     10  C   UNL     1      -1.008  -7.521   5.406  1.00  0.00    -0.035 C 
ATOM     11  C   UNL     1      -0.186  -8.435   5.930  1.00  0.00     0.004 C 
ENDBRANCH   9  10
ENDBRANCH   8   9
ENDBRANCH   7   8
ENDBRANCH   1   7
TORSDOF 7
ENDMDL
MODEL 2
REMARK VINA RESULT:    -3.833     15.048     16.360
REMARK INTER + INTRA:          -5.658
REMARK INTER:                  -5.239
REMARK INTRA:                  -0.419
REMARK UNBOUND:                -0.258
REMARK SMILES C=CCCCCCCC(=O)[O-]
REMARK SMILES IDX 6 1 7 2 8 3 9 4 10 5 11 6 5 7 4 8 3 9 2 10 1 11
REMARK H PARENT
REMARK Flexibility Score: inf
ROOT
ATOM      1  C   UNL     1       4.638   6.607  -1.750  1.00  0.00     0.000 C 
ENDROOT
BRANCH   1   2
ATOM      2  C   UNL     1       5.837   6.537  -2.711  1.00  0.00     0.006 C 
BRANCH   2   3
ATOM      3  C   UNL     1       6.815   5.415  -2.335  1.00  0.00     0.053 C 
BRANCH   3   4
ATOM      4  C   UNL     1       7.864   5.214  -3.387  1.00  0.00     0.041 C 
ATOM      5  O   UNL     1       8.769   4.355  -3.221  1.00  0.00    -0.550 OA
ATOM      6  O   UNL     1       7.825   5.955  -4.561  1.00  0.00    -0.550 OA
ENDBRANCH   3   4
ENDBRANCH   2   3
ENDBRANCH   1   2
BRANCH   1   7
ATOM      7  C   UNL     1       3.290   6.653  -2.487  1.00  0.00     0.000 C 
BRANCH   7   8
ATOM      8  C   UNL     1       2.288   5.614  -1.955  1.00  0.00     0.004 C 
BRANCH   8   9
ATOM      9  C   UNL     1       2.898   4.738  -0.850  1.00  0.00     0.027 C 
BRANCH   9  10
ATOM     10  C   UNL     1       2.177   4.884   0.464  1.00  0.00    -0.035 C 
ATOM     11  C   UNL     1       2.821   5.207   1.589  1.00  0.00     0.004 C 
ENDBRANCH   9  10
ENDBRANCH   8   9
ENDBRANCH   7   8
ENDBRANCH   1   7
TORSDOF 7
ENDMDL
MODEL 3
REMARK VINA RESULT:    -3.821     12.707     14.071
REMARK INTER + INTRA:          -5.642
REMARK INTER:                  -5.372
REMARK INTRA:                  -0.270
REMARK UNBOUND:                -0.258
REMARK SMILES C=CCCCCCCC(=O)[O-]
REMARK SMILES IDX 6 1 7 2 8 3 9 4 10 5 11 6 5 7 4 8 3 9 2 10 1 11
REMARK H PARENT
REMARK Flexibility Score: inf
ROOT
ATOM      1  C   UNL     1       2.915   5.218   4.796  1.00  0.00     0.000 C 
ENDROOT
BRANCH   1   2
ATOM      2  C   UNL     1       4.182   4.351   4.712  1.00  0.00     0.006 C 
BRANCH   2   3
ATOM      3  C   UNL     1       4.379   3.490   5.968  1.00  0.00     0.053 C 
BRANCH   3   4
ATOM      4  C   UNL     1       5.762   3.628   6.528  1.00  0.00     0.041 C 
ATOM      5  O   UNL     1       6.695   2.900   6.097  1.00  0.00    -0.550 OA
ATOM      6  O   UNL     1       6.027   4.581   7.503  1.00  0.00    -0.550 OA
ENDBRANCH   3   4
ENDBRANCH   2   3
ENDBRANCH   1   2
BRANCH   1   7
ATOM      7  C   UNL     1       2.768   6.172   3.599  1.00  0.00     0.000 C 
BRANCH   7   8
ATOM      8  C   UNL     1       1.333   6.703   3.437  1.00  0.00     0.004 C 
BRANCH   8   9
ATOM      9  C   UNL     1       1.198   8.154   3.922  1.00  0.00     0.027 C 
BRANCH   9  10
ATOM     10  C   UNL     1       0.106   8.319   4.945  1.00  0.00    -0.035 C 
ATOM     11  C   UNL     1       0.375   8.470   6.245  1.00  0.00     0.004 C 
ENDBRANCH   9  10
ENDBRANCH   8   9
ENDBRANCH   7   8
ENDBRANCH   1   7
TORSDOF 7
ENDMDL
MODEL 4
REMARK VINA RESULT:    -3.817     14.188     15.475
REMARK INTER + INTRA:          -5.637
REMARK INTER:                  -5.189
REMARK INTRA:                  -0.448
REMARK UNBOUND:                -0.258
REMARK SMILES C=CCCCCCCC(=O)[O-]
REMARK SMILES IDX 6 1 7 2 8 3 9 4 10 5 11 6 5 7 4 8 3 9 2 10 1 11
REMARK H PARENT
REMARK Flexibility Score: inf
ROOT
ATOM      1  C   UNL     1       3.312   6.470  -2.457  1.00  0.00     0.000 C 
ENDROOT
BRANCH   1   2
ATOM      2  C   UNL     1       4.630   6.679  -1.693  1.00  0.00     0.006 C 
BRANCH   2   3
ATOM      3  C   UNL     1       5.856   6.552  -2.607  1.00  0.00     0.053 C 
BRANCH   3   4
ATOM      4  C   UNL     1       5.811   5.301  -3.431  1.00  0.00     0.041 C 
ATOM      5  O   UNL     1       5.832   4.173  -2.872  1.00  0.00    -0.550 OA
ATOM      6  O   UNL     1       5.715   5.381  -4.814  1.00  0.00    -0.550 OA
ENDBRANCH   3   4
ENDBRANCH   2   3
ENDBRANCH   1   2
BRANCH   1   7
ATOM      7  C   UNL     1       2.319   5.579  -1.693  1.00  0.00     0.000 C 
BRANCH   7   8
ATOM      8  C   UNL     1       2.954   4.900  -0.468  1.00  0.00     0.004 C 
BRANCH   8   9
ATOM      9  C   UNL     1       2.124   5.119   0.807  1.00  0.00     0.027 C 
BRANCH   9  10
ATOM     10  C   UNL     1       2.971   5.118   2.051  1.00  0.00    -0.035 C 
ATOM     11  C   UNL     1       2.858   6.070   2.982  1.00  0.00     0.004 C 
ENDBRANCH   9  10
ENDBRANCH   8   9
ENDBRANCH   7   8
ENDBRANCH   1   7
TORSDOF 7
ENDMDL
MODEL 5
REMARK VINA RESULT:    -3.816      6.788      7.824
REMARK INTER + INTRA:          -5.636
REMARK INTER:                  -5.283
REMARK INTRA:                  -0.353
REMARK UNBOUND:                -0.258
REMARK SMILES C=CCCCCCCC(=O)[O-]
REMARK SMILES IDX 6 1 7 2 8 3 9 4 10 5 11 6 5 7 4 8 3 9 2 10 1 11
REMARK H PARENT
REMARK Flexibility Score: inf
ROOT
ATOM      1  C   UNL     1      -4.514  -6.542  -1.959  1.00  0.00     0.000 C 
ENDROOT
BRANCH   1   2
ATOM      2  C   UNL     1      -5.465  -6.080  -3.076  1.00  0.00     0.006 C 
BRANCH   2   3
ATOM      3  C   UNL     1      -6.681  -5.323  -2.526  1.00  0.00     0.053 C 
BRANCH   3   4
ATOM      4  C   UNL     1      -7.794  -5.253  -3.527  1.00  0.00     0.041 C 
ATOM      5  O   UNL     1      -7.678  -5.822  -4.644  1.00  0.00    -0.550 OA
ATOM      6  O   UNL     1      -8.971  -4.586  -3.214  1.00  0.00    -0.550 OA
ENDBRANCH   3   4
ENDBRANCH   2   3
ENDBRANCH   1   2
BRANCH   1   7
ATOM      7  C   UNL     1      -3.034  -6.458  -2.367  1.00  0.00     0.000 C 
BRANCH   7   8
ATOM      8  C   UNL     1      -2.233  -5.480  -1.491  1.00  0.00     0.004 C 
BRANCH   8   9
ATOM      9  C   UNL     1      -3.055  -4.969  -0.298  1.00  0.00     0.027 C 
BRANCH   9  10
ATOM     10  C   UNL     1      -2.305  -5.074   1.004  1.00  0.00    -0.035 C 
ATOM     11  C   UNL     1      -2.938  -5.150   2.178  1.00  0.00     0.004 C 
ENDBRANCH   9  10
ENDBRANCH   8   9
ENDBRANCH   7   8
ENDBRANCH   1   7
TORSDOF 7
ENDMDL
MODEL 6
REMARK VINA RESULT:    -3.794      5.863      6.928
REMARK INTER + INTRA:          -5.605
REMARK INTER:                  -5.201
REMARK INTRA:                  -0.404
REMARK UNBOUND:                -0.258
REMARK SMILES C=CCCCCCCC(=O)[O-]
REMARK SMILES IDX 6 1 7 2 8 3 9 4 10 5 11 6 5 7 4 8 3 9 2 10 1 11
REMARK H PARENT
REMARK Flexibility Score: inf
ROOT
ATOM      1  C   UNL     1      -2.288  -5.384  -1.221  1.00  0.00     0.000 C 
ENDROOT
BRANCH   1   2
ATOM      2  C   UNL     1      -2.943  -6.295  -2.271  1.00  0.00     0.006 C 
BRANCH   2   3
ATOM      3  C   UNL     1      -4.421  -6.568  -1.961  1.00  0.00     0.053 C 
BRANCH   3   4
ATOM      4  C   UNL     1      -5.317  -6.134  -3.081  1.00  0.00     0.041 C 
ATOM      5  O   UNL     1      -4.897  -5.323  -3.948  1.00  0.00    -0.550 OA
ATOM      6  O   UNL     1      -6.602  -6.648  -3.185  1.00  0.00    -0.550 OA
ENDBRANCH   3   4
ENDBRANCH   2   3
ENDBRANCH   1   2
BRANCH   1   7
ATOM      7  C   UNL     1      -3.220  -5.076  -0.037  1.00  0.00     0.000 C 
BRANCH   7   8
ATOM      8  C   UNL     1      -2.454  -4.629   1.220  1.00  0.00     0.004 C 
BRANCH   8   9
ATOM      9  C   UNL     1      -2.905  -5.396   2.472  1.00  0.00     0.027 C 
BRANCH   9  10
ATOM     10  C   UNL     1      -1.804  -6.237   3.060  1.00  0.00    -0.035 C 
ATOM     11  C   UNL     1      -0.605  -6.335   2.477  1.00  0.00     0.004 C 
ENDBRANCH   9  10
ENDBRANCH   8   9
ENDBRANCH   7   8
ENDBRANCH   1   7
TORSDOF 7
ENDMDL
MODEL 7
REMARK VINA RESULT:    -3.768     12.815     13.990
REMARK INTER + INTRA:          -5.567
REMARK INTER:                  -5.250
REMARK INTRA:                  -0.317
REMARK UNBOUND:                -0.258
REMARK SMILES C=CCCCCCCC(=O)[O-]
REMARK SMILES IDX 6 1 7 2 8 3 9 4 10 5 11 6 5 7 4 8 3 9 2 10 1 11
REMARK H PARENT
REMARK Flexibility Score: inf
ROOT
ATOM      1  C   UNL     1       2.604   4.833   1.438  1.00  0.00     0.000 C 
ENDROOT
BRANCH   1   2
ATOM      2  C   UNL     1       3.015   5.824   2.541  1.00  0.00     0.006 C 
BRANCH   2   3
ATOM      3  C   UNL     1       1.973   5.904   3.665  1.00  0.00     0.053 C 
BRANCH   3   4
ATOM      4  C   UNL     1       0.992   7.013   3.439  1.00  0.00     0.041 C 
ATOM      5  O   UNL     1      -0.058   6.804   2.776  1.00  0.00    -0.550 OA
ATOM      6  O   UNL     1       1.221   8.269   3.987  1.00  0.00    -0.550 OA
ENDBRANCH   3   4
ENDBRANCH   2   3
ENDBRANCH   1   2
BRANCH   1   7
ATOM      7  C   UNL     1       3.336   5.087   0.110  1.00  0.00     0.000 C 
BRANCH   7   8
ATOM      8  C   UNL     1       2.381   5.500  -1.023  1.00  0.00     0.004 C 
BRANCH   8   9
ATOM      9  C   UNL     1       3.125   6.173  -2.187  1.00  0.00     0.027 C 
BRANCH   9  10
ATOM     10  C   UNL     1       4.475   6.699  -1.778  1.00  0.00    -0.035 C 
ATOM     11  C   UNL     1       5.563   6.506  -2.529  1.00  0.00     0.004 C 
ENDBRANCH   9  10
ENDBRANCH   8   9
ENDBRANCH   7   8
ENDBRANCH   1   7
TORSDOF 7
ENDMDL
MODEL 8
REMARK VINA RESULT:    -3.750     15.419     16.780
REMARK INTER + INTRA:          -5.542
REMARK INTER:                  -4.852
REMARK INTRA:                  -0.690
REMARK UNBOUND:                -0.258
REMARK SMILES C=CCCCCCCC(=O)[O-]
REMARK SMILES IDX 6 1 7 2 8 3 9 4 10 5 11 6 5 7 4 8 3 9 2 10 1 11
REMARK H PARENT
REMARK Flexibility Score: inf
ROOT
ATOM      1  C   UNL     1       5.798   6.636  -2.495  1.00  0.00     0.000 C 
ENDROOT
BRANCH   1   2
ATOM      2  C   UNL     1       6.744   5.424  -2.517  1.00  0.00     0.006 C 
BRANCH   2   3
ATOM      3  C   UNL     1       6.404   4.444  -3.648  1.00  0.00     0.053 C 
BRANCH   3   4
ATOM      4  C   UNL     1       6.676   5.034  -4.998  1.00  0.00     0.041 C 
ATOM      5  O   UNL     1       5.759   5.095  -5.859  1.00  0.00    -0.550 OA
ATOM      6  O   UNL     1       7.933   5.545  -5.295  1.00  0.00    -0.550 OA
ENDBRANCH   3   4
ENDBRANCH   2   3
ENDBRANCH   1   2
BRANCH   1   7
ATOM      7  C   UNL     1       4.514   6.373  -1.691  1.00  0.00     0.000 C 
BRANCH   7   8
ATOM      8  C   UNL     1       3.245   6.813  -2.440  1.00  0.00     0.004 C 
BRANCH   8   9
ATOM      9  C   UNL     1       2.204   5.686  -2.523  1.00  0.00     0.027 C 
BRANCH   9  10
ATOM     10  C   UNL     1       2.829   4.319  -2.441  1.00  0.00    -0.035 C 
ATOM     11  C   UNL     1       2.839   3.485  -3.485  1.00  0.00     0.004 C 
ENDBRANCH   9  10
ENDBRANCH   8   9
ENDBRANCH   7   8
ENDBRANCH   1   7
TORSDOF 7
ENDMDL
MODEL 9
REMARK VINA RESULT:    -3.712      4.889      6.576
REMARK INTER + INTRA:          -5.488
REMARK INTER:                  -5.105
REMARK INTRA:                  -0.383
REMARK UNBOUND:                -0.258
REMARK SMILES C=CCCCCCCC(=O)[O-]
REMARK SMILES IDX 6 1 7 2 8 3 9 4 10 5 11 6 5 7 4 8 3 9 2 10 1 11
REMARK H PARENT
REMARK Flexibility Score: inf
ROOT
ATOM      1  C   UNL     1      -2.987  -5.143   0.401  1.00  0.00     0.000 C 
ENDROOT
BRANCH   1   2
ATOM      2  C   UNL     1      -2.606  -4.733   1.834  1.00  0.00     0.006 C 
BRANCH   2   3
ATOM      3  C   UNL     1      -2.839  -5.867   2.842  1.00  0.00     0.053 C 
BRANCH   3   4
ATOM      4  C   UNL     1      -1.573  -6.607   3.153  1.00  0.00     0.041 C 
ATOM      5  O   UNL     1      -1.598  -7.614   3.908  1.00  0.00    -0.550 OA
ATOM      6  O   UNL     1      -0.372  -6.202   2.585  1.00  0.00    -0.550 OA
ENDBRANCH   3   4
ENDBRANCH   2   3
ENDBRANCH   1   2
BRANCH   1   7
ATOM      7  C   UNL     1      -1.772  -5.213  -0.538  1.00  0.00     0.000 C 
BRANCH   7   8
ATOM      8  C   UNL     1      -2.174  -5.356  -2.017  1.00  0.00     0.004 C 
BRANCH   8   9
ATOM      9  C   UNL     1      -3.215  -6.466  -2.226  1.00  0.00     0.027 C 
BRANCH   9  10
ATOM     10  C   UNL     1      -4.461  -5.965  -2.907  1.00  0.00    -0.035 C 
ATOM     11  C   UNL     1      -5.666  -6.475  -2.634  1.00  0.00     0.004 C 
ENDBRANCH   9  10
ENDBRANCH   8   9
ENDBRANCH   7   8
ENDBRANCH   1   7
TORSDOF 7
ENDMDL
