MODEL 1
REMARK VINA RESULT:    -4.185      0.000      0.000
REMARK INTER + INTRA:          -7.191
REMARK INTER:                  -6.386
REMARK INTRA:                  -0.805
REMARK UNBOUND:                -0.805
REMARK SMILES CCCCCCCCCCC(=O)[O-]
REMARK SMILES IDX 7 1 8 2 9 3 10 4 11 5 12 6 13 7 6 8 5 9 4 10 3 11 2 12 1 13
REMARK H PARENT
REMARK Flexibility Score: inf
ROOT
ATOM      1  C   UNL     1      11.106  15.879  23.126  1.00  0.00     0.000 C 
ENDROOT
BRANCH   1   2
ATOM      2  C   UNL     1      11.295  14.464  22.561  1.00  0.00     0.000 C 
BRANCH   2   3
ATOM      3  C   UNL     1      10.056  13.958  21.805  1.00  0.00     0.006 C 
BRANCH   3   4
ATOM      4  C   UNL     1      10.337  13.693  20.321  1.00  0.00     0.053 C 
BRANCH   4   5
ATOM      5  C   UNL     1      10.160  14.948  19.524  1.00  0.00     0.041 C 
ATOM      6  O   UNL     1      11.011  15.273  18.656  1.00  0.00    -0.550 OA
ATOM      7  O   UNL     1       9.028  15.733  19.708  1.00  0.00    -0.550 OA
ENDBRANCH   4   5
ENDBRANCH   3   4
ENDBRANCH   2   3
ENDBRANCH   1   2
BRANCH   1   8
ATOM      8  C   UNL     1       9.730  16.025  23.790  1.00  0.00     0.000 C 
BRANCH   8   9
ATOM      9  C   UNL     1       8.936  17.178  23.158  1.00  0.00    -0.000 C 
BRANCH   9  10
ATOM     10  C   UNL     1       9.778  18.022  22.188  1.00  0.00    -0.000 C 
BRANCH  10  11
ATOM     11  C   UNL     1       9.142  19.364  21.777  1.00  0.00    -0.000 C 
BRANCH  11  12
ATOM     12  C   UNL     1       9.392  20.506  22.784  1.00  0.00    -0.003 C 
ATOM     13  C   UNL     1      10.850  20.579  23.237  1.00  0.00     0.004 C 
ENDBRANCH  11  12
ENDBRANCH  10  11
ENDBRANCH   9  10
ENDBRANCH   8   9
ENDBRANCH   1   8
TORSDOF 9
ENDMDL
MODEL 2
REMARK VINA RESULT:    -4.119      3.016      5.742
REMARK INTER + INTRA:          -7.092
REMARK INTER:                  -6.406
REMARK INTRA:                  -0.686
REMARK UNBOUND:                -0.805
REMARK SMILES CCCCCCCCCCC(=O)[O-]
REMARK SMILES IDX 7 1 8 2 9 3 10 4 11 5 12 6 13 7 6 8 5 9 4 10 3 11 2 12 1 13
REMARK H PARENT
REMARK Flexibility Score: inf
ROOT
ATOM      1  C   UNL     1      10.675  15.323  23.835  1.00  0.00     0.000 C 
ENDROOT
BRANCH   1   2
ATOM      2  C   UNL     1      11.201  15.176  22.400  1.00  0.00     0.000 C 
BRANCH   2   3
ATOM      3  C   UNL     1      10.408  16.019  21.389  1.00  0.00     0.006 C 
BRANCH   3   4
ATOM      4  C   UNL     1       9.492  15.168  20.500  1.00  0.00     0.053 C 
BRANCH   4   5
ATOM      5  C   UNL     1      10.305  14.245  19.648  1.00  0.00     0.041 C 
ATOM      6  O   UNL     1      11.052  14.707  18.746  1.00  0.00    -0.550 OA
ATOM      7  O   UNL     1      10.274  12.876  19.882  1.00  0.00    -0.550 OA
ENDBRANCH   4   5
ENDBRANCH   3   4
ENDBRANCH   2   3
ENDBRANCH   1   2
BRANCH   1   8
ATOM      8  C   UNL     1       9.905  14.068  24.268  1.00  0.00     0.000 C 
BRANCH   8   9
ATOM      9  C   UNL     1      10.387  12.833  23.493  1.00  0.00    -0.000 C 
BRANCH   9  10
ATOM     10  C   UNL     1       9.541  11.582  23.777  1.00  0.00    -0.000 C 
BRANCH  10  11
ATOM     11  C   UNL     1       9.276  11.305  25.269  1.00  0.00    -0.000 C 
BRANCH  11  12
ATOM     12  C   UNL     1       9.177   9.804  25.616  1.00  0.00    -0.003 C 
ATOM     13  C   UNL     1       9.251   8.911  24.378  1.00  0.00     0.004 C 
ENDBRANCH  11  12
ENDBRANCH  10  11
ENDBRANCH   9  10
ENDBRANCH   8   9
ENDBRANCH   1   8
TORSDOF 9
ENDMDL
MODEL 3
REMARK VINA RESULT:    -4.091      3.451      6.292
REMARK INTER + INTRA:          -7.049
REMARK INTER:                  -6.590
REMARK INTRA:                  -0.459
REMARK UNBOUND:                -0.805
REMARK SMILES CCCCCCCCCCC(=O)[O-]
REMARK SMILES IDX 7 1 8 2 9 3 10 4 11 5 12 6 13 7 6 8 5 9 4 10 3 11 2 12 1 13
REMARK H PARENT
REMARK Flexibility Score: inf
ROOT
ATOM      1  C   UNL     1      11.020  13.539  22.840  1.00  0.00     0.000 C 
ENDROOT
BRANCH   1   2
ATOM      2  C   UNL     1      10.548  14.994  22.978  1.00  0.00     0.000 C 
BRANCH   2   3
ATOM      3  C   UNL     1      10.749  15.806  21.688  1.00  0.00     0.006 C 
BRANCH   3   4
ATOM      4  C   UNL     1       9.796  15.375  20.566  1.00  0.00     0.053 C 
BRANCH   4   5
ATOM      5  C   UNL     1      10.553  14.685  19.475  1.00  0.00     0.041 C 
ATOM      6  O   UNL     1      10.529  13.429  19.384  1.00  0.00    -0.550 OA
ATOM      7  O   UNL     1      11.246  15.431  18.530  1.00  0.00    -0.550 OA
ENDBRANCH   4   5
ENDBRANCH   3   4
ENDBRANCH   2   3
ENDBRANCH   1   2
BRANCH   1   8
ATOM      8  C   UNL     1       9.912  12.562  23.255  1.00  0.00     0.000 C 
BRANCH   8   9
ATOM      9  C   UNL     1       9.719  12.566  24.778  1.00  0.00    -0.000 C 
BRANCH   9  10
ATOM     10  C   UNL     1       9.324  11.187  25.334  1.00  0.00    -0.000 C 
BRANCH  10  11
ATOM     11  C   UNL     1       8.941  10.145  24.266  1.00  0.00    -0.000 C 
BRANCH  11  12
ATOM     12  C   UNL     1       9.370   8.705  24.618  1.00  0.00    -0.003 C 
ATOM     13  C   UNL     1       8.905   8.279  26.011  1.00  0.00     0.004 C 
ENDBRANCH  11  12
ENDBRANCH  10  11
ENDBRANCH   9  10
ENDBRANCH   8   9
ENDBRANCH   1   8
TORSDOF 9
ENDMDL
MODEL 4
REMARK VINA RESULT:    -3.994      1.518      2.302
REMARK INTER + INTRA:          -6.900
REMARK INTER:                  -5.898
REMARK INTRA:                  -1.002
REMARK UNBOUND:                -0.805
REMARK SMILES CCCCCCCCCCC(=O)[O-]
REMARK SMILES IDX 7 1 8 2 9 3 10 4 11 5 12 6 13 7 6 8 5 9 4 10 3 11 2 12 1 13
REMARK H PARENT
REMARK Flexibility Score: inf
ROOT
ATOM      1  C   UNL     1      10.504  13.681  23.758  1.00  0.00     0.000 C 
ENDROOT
BRANCH   1   2
ATOM      2  C   UNL     1       9.946  13.286  22.383  1.00  0.00     0.000 C 
BRANCH   2   3
ATOM      3  C   UNL     1       9.661  14.502  21.488  1.00  0.00     0.006 C 
BRANCH   3   4
ATOM      4  C   UNL     1      10.935  15.091  20.870  1.00  0.00     0.053 C 
BRANCH   4   5
ATOM      5  C   UNL     1      11.002  14.773  19.409  1.00  0.00     0.041 C 
ATOM      6  O   UNL     1      11.291  15.672  18.577  1.00  0.00    -0.550 OA
ATOM      7  O   UNL     1      10.791  13.471  18.972  1.00  0.00    -0.550 OA
ENDBRANCH   4   5
ENDBRANCH   3   4
ENDBRANCH   2   3
ENDBRANCH   1   2
BRANCH   1   8
ATOM      8  C   UNL     1       9.372  13.870  24.776  1.00  0.00     0.000 C 
BRANCH   8   9
ATOM      9  C   UNL     1       9.447  15.257  25.431  1.00  0.00    -0.000 C 
BRANCH   9  10
ATOM     10  C   UNL     1      10.389  16.217  24.687  1.00  0.00    -0.000 C 
BRANCH  10  11
ATOM     11  C   UNL     1       9.702  17.453  24.074  1.00  0.00    -0.000 C 
BRANCH  11  12
ATOM     12  C   UNL     1      10.522  18.133  22.958  1.00  0.00    -0.003 C 
ATOM     13  C   UNL     1       9.638  18.833  21.925  1.00  0.00     0.004 C 
ENDBRANCH  11  12
ENDBRANCH  10  11
ENDBRANCH   9  10
ENDBRANCH   8   9
ENDBRANCH   1   8
TORSDOF 9
ENDMDL
MODEL 5
REMARK VINA RESULT:    -3.816      2.468      4.830
REMARK INTER + INTRA:          -6.629
REMARK INTER:                  -5.711
REMARK INTRA:                  -0.919
REMARK UNBOUND:                -0.805
REMARK SMILES CCCCCCCCCCC(=O)[O-]
REMARK SMILES IDX 7 1 8 2 9 3 10 4 11 5 12 6 13 7 6 8 5 9 4 10 3 11 2 12 1 13
REMARK H PARENT
REMARK Flexibility Score: inf
ROOT
ATOM      1  C   UNL     1       9.526  16.525  25.051  1.00  0.00     0.000 C 
ENDROOT
BRANCH   1   2
ATOM      2  C   UNL     1       8.690  16.910  23.822  1.00  0.00     0.000 C 
BRANCH   2   3
ATOM      3  C   UNL     1       8.890  18.376  23.406  1.00  0.00     0.006 C 
BRANCH   3   4
ATOM      4  C   UNL     1       9.920  18.535  22.281  1.00  0.00     0.053 C 
BRANCH   4   5
ATOM      5  C   UNL     1      11.225  19.015  22.834  1.00  0.00     0.041 C 
ATOM      6  O   UNL     1      12.222  18.247  22.864  1.00  0.00    -0.550 OA
ATOM      7  O   UNL     1      11.353  20.328  23.271  1.00  0.00    -0.550 OA
ENDBRANCH   4   5
ENDBRANCH   3   4
ENDBRANCH   2   3
ENDBRANCH   1   2
BRANCH   1   8
ATOM      8  C   UNL     1      10.763  15.715  24.641  1.00  0.00     0.000 C 
BRANCH   8   9
ATOM      9  C   UNL     1      10.359  14.443  23.882  1.00  0.00    -0.000 C 
BRANCH   9  10
ATOM     10  C   UNL     1      10.999  14.351  22.487  1.00  0.00    -0.000 C 
BRANCH  10  11
ATOM     11  C   UNL     1      10.032  13.954  21.355  1.00  0.00    -0.000 C 
BRANCH  11  12
ATOM     12  C   UNL     1       9.828  15.056  20.294  1.00  0.00    -0.003 C 
ATOM     13  C   UNL     1      11.082  15.301  19.456  1.00  0.00     0.004 C 
ENDBRANCH  11  12
ENDBRANCH  10  11
ENDBRANCH   9  10
ENDBRANCH   8   9
ENDBRANCH   1   8
TORSDOF 9
ENDMDL
MODEL 6
REMARK VINA RESULT:    -3.650      3.925      6.513
REMARK INTER + INTRA:          -6.376
REMARK INTER:                  -5.743
REMARK INTRA:                  -0.633
REMARK UNBOUND:                -0.805
REMARK SMILES CCCCCCCCCCC(=O)[O-]
REMARK SMILES IDX 7 1 8 2 9 3 10 4 11 5 12 6 13 7 6 8 5 9 4 10 3 11 2 12 1 13
REMARK H PARENT
REMARK Flexibility Score: inf
ROOT
ATOM      1  C   UNL     1       9.664  12.835  24.588  1.00  0.00     0.000 C 
ENDROOT
BRANCH   1   2
ATOM      2  C   UNL     1       9.230  12.737  23.118  1.00  0.00     0.000 C 
BRANCH   2   3
ATOM      3  C   UNL     1       9.684  13.947  22.286  1.00  0.00     0.006 C 
BRANCH   3   4
ATOM      4  C   UNL     1      10.291  13.541  20.937  1.00  0.00     0.053 C 
BRANCH   4   5
ATOM      5  C   UNL     1      10.037  14.601  19.911  1.00  0.00     0.041 C 
ATOM      6  O   UNL     1       9.072  15.398  20.048  1.00  0.00    -0.550 OA
ATOM      7  O   UNL     1      10.896  14.739  18.828  1.00  0.00    -0.550 OA
ENDBRANCH   4   5
ENDBRANCH   3   4
ENDBRANCH   2   3
ENDBRANCH   1   2
BRANCH   1   8
ATOM      8  C   UNL     1       8.489  13.254  25.480  1.00  0.00     0.000 C 
BRANCH   8   9
ATOM      9  C   UNL     1       8.268  12.238  26.611  1.00  0.00    -0.000 C 
BRANCH   9  10
ATOM     10  C   UNL     1       9.140  10.980  26.461  1.00  0.00    -0.000 C 
BRANCH  10  11
ATOM     11  C   UNL     1       8.369   9.647  26.521  1.00  0.00    -0.000 C 
BRANCH  11  12
ATOM     12  C   UNL     1       8.919   8.566  25.568  1.00  0.00    -0.003 C 
ATOM     13  C   UNL     1       9.554   9.161  24.311  1.00  0.00     0.004 C 
ENDBRANCH  11  12
ENDBRANCH  10  11
ENDBRANCH   9  10
ENDBRANCH   8   9
ENDBRANCH   1   8
TORSDOF 9
ENDMDL
MODEL 7
REMARK VINA RESULT:    -3.641      3.798      5.140
REMARK INTER + INTRA:          -6.363
REMARK INTER:                  -5.434
REMARK INTRA:                  -0.928
REMARK UNBOUND:                -0.805
REMARK SMILES CCCCCCCCCCC(=O)[O-]
REMARK SMILES IDX 7 1 8 2 9 3 10 4 11 5 12 6 13 7 6 8 5 9 4 10 3 11 2 12 1 13
REMARK H PARENT
REMARK Flexibility Score: inf
ROOT
ATOM      1  C   UNL     1       8.960  14.295  24.384  1.00  0.00     0.000 C 
ENDROOT
BRANCH   1   2
ATOM      2  C   UNL     1      10.199  13.529  23.896  1.00  0.00     0.000 C 
BRANCH   2   3
ATOM      3  C   UNL     1       9.841  12.213  23.188  1.00  0.00     0.006 C 
BRANCH   3   4
ATOM      4  C   UNL     1       8.642  11.504  23.831  1.00  0.00     0.053 C 
BRANCH   4   5
ATOM      5  C   UNL     1       9.070  10.206  24.441  1.00  0.00     0.041 C 
ATOM      6  O   UNL     1       8.816   9.118  23.859  1.00  0.00    -0.550 OA
ATOM      7  O   UNL     1       9.792  10.200  25.627  1.00  0.00    -0.550 OA
ENDBRANCH   4   5
ENDBRANCH   3   4
ENDBRANCH   2   3
ENDBRANCH   1   2
BRANCH   1   8
ATOM      8  C   UNL     1       9.082  15.792  24.071  1.00  0.00     0.000 C 
BRANCH   8   9
ATOM      9  C   UNL     1      10.370  16.086  23.288  1.00  0.00    -0.000 C 
BRANCH   9  10
ATOM     10  C   UNL     1      10.099  16.655  21.886  1.00  0.00    -0.000 C 
BRANCH  10  11
ATOM     11  C   UNL     1      10.736  15.860  20.730  1.00  0.00    -0.000 C 
BRANCH  11  12
ATOM     12  C   UNL     1       9.731  14.998  19.938  1.00  0.00    -0.003 C 
ATOM     13  C   UNL     1      10.165  13.536  19.836  1.00  0.00     0.004 C 
ENDBRANCH  11  12
ENDBRANCH  10  11
ENDBRANCH   9  10
ENDBRANCH   8   9
ENDBRANCH   1   8
TORSDOF 9
ENDMDL
MODEL 8
REMARK VINA RESULT:    -3.616     10.814     12.134
REMARK INTER + INTRA:          -6.323
REMARK INTER:                  -5.870
REMARK INTRA:                  -0.453
REMARK UNBOUND:                -0.805
REMARK SMILES CCCCCCCCCCC(=O)[O-]
REMARK SMILES IDX 7 1 8 2 9 3 10 4 11 5 12 6 13 7 6 8 5 9 4 10 3 11 2 12 1 13
REMARK H PARENT
REMARK Flexibility Score: inf
ROOT
ATOM      1  C   UNL     1      20.633  18.227  26.968  1.00  0.00     0.000 C 
ENDROOT
BRANCH   1   2
ATOM      2  C   UNL     1      21.749  18.074  25.924  1.00  0.00     0.000 C 
BRANCH   2   3
ATOM      3  C   UNL     1      22.230  19.425  25.371  1.00  0.00     0.006 C 
BRANCH   3   4
ATOM      4  C   UNL     1      23.614  19.335  24.715  1.00  0.00     0.053 C 
BRANCH   4   5
ATOM      5  C   UNL     1      23.540  19.761  23.282  1.00  0.00     0.041 C 
ATOM      6  O   UNL     1      23.678  18.914  22.361  1.00  0.00    -0.550 OA
ATOM      7  O   UNL     1      23.270  21.086  22.964  1.00  0.00    -0.550 OA
ENDBRANCH   4   5
ENDBRANCH   3   4
ENDBRANCH   2   3
ENDBRANCH   1   2
BRANCH   1   8
ATOM      8  C   UNL     1      19.850  19.528  26.749  1.00  0.00     0.000 C 
BRANCH   8   9
ATOM      9  C   UNL     1      18.412  19.398  27.271  1.00  0.00    -0.000 C 
BRANCH   9  10
ATOM     10  C   UNL     1      18.166  18.078  28.019  1.00  0.00    -0.000 C 
BRANCH  10  11
ATOM     11  C   UNL     1      17.009  17.225  27.463  1.00  0.00    -0.000 C 
BRANCH  11  12
ATOM     12  C   UNL     1      15.865  16.994  28.472  1.00  0.00    -0.003 C 
ATOM     13  C   UNL     1      16.150  17.623  29.836  1.00  0.00     0.004 C 
ENDBRANCH  11  12
ENDBRANCH  10  11
ENDBRANCH   9  10
ENDBRANCH   8   9
ENDBRANCH   1   8
TORSDOF 9
ENDMDL
MODEL 9
REMARK VINA RESULT:    -3.575      1.759      3.069
REMARK INTER + INTRA:          -6.260
REMARK INTER:                  -5.406
REMARK INTRA:                  -0.855
REMARK UNBOUND:                -0.805
REMARK SMILES CCCCCCCCCCC(=O)[O-]
REMARK SMILES IDX 7 1 8 2 9 3 10 4 11 5 12 6 13 7 6 8 5 9 4 10 3 11 2 12 1 13
REMARK H PARENT
REMARK Flexibility Score: inf
ROOT
ATOM      1  C   UNL     1      10.663  18.329  22.308  1.00  0.00     0.000 C 
ENDROOT
BRANCH   1   2
ATOM      2  C   UNL     1       9.894  17.139  21.716  1.00  0.00     0.000 C 
BRANCH   2   3
ATOM      3  C   UNL     1      10.803  15.935  21.420  1.00  0.00     0.006 C 
BRANCH   3   4
ATOM      4  C   UNL     1      10.071  14.812  20.675  1.00  0.00     0.053 C 
BRANCH   4   5
ATOM      5  C   UNL     1      10.757  14.512  19.379  1.00  0.00     0.041 C 
ATOM      6  O   UNL     1      10.842  13.326  18.967  1.00  0.00    -0.550 OA
ATOM      7  O   UNL     1      11.259  15.549  18.603  1.00  0.00    -0.550 OA
ENDBRANCH   4   5
ENDBRANCH   3   4
ENDBRANCH   2   3
ENDBRANCH   1   2
BRANCH   1   8
ATOM      8  C   UNL     1       9.723  19.511  22.575  1.00  0.00     0.000 C 
BRANCH   8   9
ATOM      9  C   UNL     1       8.547  19.088  23.468  1.00  0.00    -0.000 C 
BRANCH   9  10
ATOM     10  C   UNL     1       8.700  19.565  24.921  1.00  0.00    -0.000 C 
BRANCH  10  11
ATOM     11  C   UNL     1       9.668  18.728  25.780  1.00  0.00    -0.000 C 
BRANCH  11  12
ATOM     12  C   UNL     1       9.280  17.237  25.882  1.00  0.00    -0.003 C 
ATOM     13  C   UNL     1      10.420  16.306  25.467  1.00  0.00     0.004 C 
ENDBRANCH  11  12
ENDBRANCH  10  11
ENDBRANCH   9  10
ENDBRANCH   8   9
ENDBRANCH   1   8
TORSDOF 9
ENDMDL
