MODEL 1
REMARK VINA RESULT:    -3.215      0.000      0.000
REMARK INTER + INTRA:          -3.744
REMARK INTER:                  -3.685
REMARK INTRA:                  -0.059
REMARK UNBOUND:                -0.059
REMARK SMILES CC(C)[C@@H]([NH3+])C(=O)[O-]
REMARK SMILES IDX 4 1 5 2 6 6 7 7 8 8 2 9 1 10 3 11
REMARK H PARENT 5 3 5 4 5 5
REMARK Flexibility Score: inf
ROOT
ATOM      1  C   UNL     1      24.754   5.217  14.371  1.00  0.00     0.230 C 
ENDROOT
BRANCH   1   2
ATOM      2  N   UNL     1      25.991   5.165  15.165  1.00  0.00    -0.350 N 
ATOM      3  H   UNL     1      26.688   4.534  14.709  1.00  0.00     0.345 HD
ATOM      4  H   UNL     1      25.794   4.770  16.114  1.00  0.00     0.345 HD
ATOM      5  H   UNL     1      26.402   6.121  15.274  1.00  0.00     0.345 HD
ENDBRANCH   1   2
BRANCH   1   6
ATOM      6  C   UNL     1      23.562   5.087  15.288  1.00  0.00     0.099 C 
ATOM      7  O   UNL     1      23.542   4.205  16.186  1.00  0.00    -0.544 OA
ATOM      8  O   UNL     1      22.482   5.950  15.149  1.00  0.00    -0.544 OA
ENDBRANCH   1   6
BRANCH   1   9
ATOM      9  C   UNL     1      24.663   6.523  13.523  1.00  0.00     0.047 C 
ATOM     10  C   UNL     1      25.583   7.627  14.070  1.00  0.00     0.014 C 
ATOM     11  C   UNL     1      25.019   6.256  12.049  1.00  0.00     0.014 C 
ENDBRANCH   1   9
TORSDOF 3
ENDMDL
MODEL 2
REMARK VINA RESULT:    -3.159      2.512      3.542
REMARK INTER + INTRA:          -3.680
REMARK INTER:                  -3.633
REMARK INTRA:                  -0.048
REMARK UNBOUND:                -0.059
REMARK SMILES CC(C)[C@@H]([NH3+])C(=O)[O-]
REMARK SMILES IDX 4 1 5 2 6 6 7 7 8 8 2 9 1 10 3 11
REMARK H PARENT 5 3 5 4 5 5
REMARK Flexibility Score: inf
ROOT
ATOM      1  C   UNL     1      24.730   5.779  14.006  1.00  0.00     0.230 C 
ENDROOT
BRANCH   1   2
ATOM      2  N   UNL     1      23.964   6.664  13.117  1.00  0.00    -0.350 N 
ATOM      3  H   UNL     1      23.074   6.957  13.577  1.00  0.00     0.345 HD
ATOM      4  H   UNL     1      23.704   6.157  12.239  1.00  0.00     0.345 HD
ATOM      5  H   UNL     1      24.525   7.511  12.865  1.00  0.00     0.345 HD
ENDBRANCH   1   2
BRANCH   1   6
ATOM      6  C   UNL     1      25.989   6.481  14.454  1.00  0.00     0.099 C 
ATOM      7  O   UNL     1      26.155   7.706  14.213  1.00  0.00    -0.544 OA
ATOM      8  O   UNL     1      26.969   5.778  15.143  1.00  0.00    -0.544 OA
ENDBRANCH   1   6
BRANCH   1   9
ATOM      9  C   UNL     1      23.885   5.317  15.234  1.00  0.00     0.047 C 
ATOM     10  C   UNL     1      22.434   5.821  15.153  1.00  0.00     0.014 C 
ATOM     11  C   UNL     1      23.879   3.783  15.360  1.00  0.00     0.014 C 
ENDBRANCH   1   9
TORSDOF 3
ENDMDL
MODEL 3
REMARK VINA RESULT:    -3.111      2.398      3.648
REMARK INTER + INTRA:          -3.625
REMARK INTER:                  -3.566
REMARK INTRA:                  -0.059
REMARK UNBOUND:                -0.059
REMARK SMILES CC(C)[C@@H]([NH3+])C(=O)[O-]
REMARK SMILES IDX 4 1 5 2 6 6 7 7 8 8 2 9 1 10 3 11
REMARK H PARENT 5 3 5 4 5 5
REMARK Flexibility Score: inf
ROOT
ATOM      1  C   UNL     1      24.213   5.087  14.524  1.00  0.00     0.230 C 
ENDROOT
BRANCH   1   2
ATOM      2  N   UNL     1      23.027   5.937  14.707  1.00  0.00    -0.350 N 
ATOM      3  H   UNL     1      22.156   5.362  14.640  1.00  0.00     0.345 HD
ATOM      4  H   UNL     1      22.979   6.656  13.948  1.00  0.00     0.345 HD
ATOM      5  H   UNL     1      23.057   6.422  15.633  1.00  0.00     0.345 HD
ENDBRANCH   1   2
BRANCH   1   6
ATOM      6  C   UNL     1      25.454   5.945  14.546  1.00  0.00     0.099 C 
ATOM      7  O   UNL     1      25.472   7.055  13.953  1.00  0.00    -0.544 OA
ATOM      8  O   UNL     1      26.584   5.515  15.232  1.00  0.00    -0.544 OA
ENDBRANCH   1   6
BRANCH   1   9
ATOM      9  C   UNL     1      24.295   3.964  15.604  1.00  0.00     0.047 C 
ATOM     10  C   UNL     1      23.525   4.340  16.881  1.00  0.00     0.014 C 
ATOM     11  C   UNL     1      23.749   2.630  15.062  1.00  0.00     0.014 C 
ENDBRANCH   1   9
TORSDOF 3
ENDMDL
MODEL 4
REMARK VINA RESULT:    -3.085      2.552      3.331
REMARK INTER + INTRA:          -3.595
REMARK INTER:                  -3.576
REMARK INTRA:                  -0.019
REMARK UNBOUND:                -0.059
REMARK SMILES CC(C)[C@@H]([NH3+])C(=O)[O-]
REMARK SMILES IDX 4 1 5 2 6 6 7 7 8 8 2 9 1 10 3 11
REMARK H PARENT 5 3 5 4 5 5
REMARK Flexibility Score: inf
ROOT
ATOM      1  C   UNL     1      24.239   6.034  14.609  1.00  0.00     0.230 C 
ENDROOT
BRANCH   1   2
ATOM      2  N   UNL     1      24.233   4.577  14.407  1.00  0.00    -0.350 N 
ATOM      3  H   UNL     1      23.799   4.341  13.487  1.00  0.00     0.345 HD
ATOM      4  H   UNL     1      23.657   4.113  15.147  1.00  0.00     0.345 HD
ATOM      5  H   UNL     1      25.206   4.194  14.444  1.00  0.00     0.345 HD
ENDBRANCH   1   2
BRANCH   1   6
ATOM      6  C   UNL     1      25.187   6.674  13.624  1.00  0.00     0.099 C 
ATOM      7  O   UNL     1      26.055   7.498  14.018  1.00  0.00    -0.544 OA
ATOM      8  O   UNL     1      25.110   6.351  12.275  1.00  0.00    -0.544 OA
ENDBRANCH   1   6
BRANCH   1   9
ATOM      9  C   UNL     1      22.809   6.644  14.480  1.00  0.00     0.047 C 
ATOM     10  C   UNL     1      21.820   5.999  15.467  1.00  0.00     0.014 C 
ATOM     11  C   UNL     1      22.830   8.166  14.712  1.00  0.00     0.014 C 
ENDBRANCH   1   9
TORSDOF 3
ENDMDL
MODEL 5
REMARK VINA RESULT:    -3.007      2.306      3.327
REMARK INTER + INTRA:          -3.505
REMARK INTER:                  -3.443
REMARK INTRA:                  -0.063
REMARK UNBOUND:                -0.059
REMARK SMILES CC(C)[C@@H]([NH3+])C(=O)[O-]
REMARK SMILES IDX 4 1 5 2 6 6 7 7 8 8 2 9 1 10 3 11
REMARK H PARENT 5 3 5 4 5 5
REMARK Flexibility Score: inf
ROOT
ATOM      1  C   UNL     1      25.276   5.939  14.953  1.00  0.00     0.230 C 
ENDROOT
BRANCH   1   2
ATOM      2  N   UNL     1      26.489   5.134  15.157  1.00  0.00    -0.350 N 
ATOM      3  H   UNL     1      26.237   4.174  15.481  1.00  0.00     0.345 HD
ATOM      4  H   UNL     1      27.085   5.564  15.903  1.00  0.00     0.345 HD
ATOM      5  H   UNL     1      27.046   5.072  14.273  1.00  0.00     0.345 HD
ENDBRANCH   1   2
BRANCH   1   6
ATOM      6  C   UNL     1      25.486   6.881  13.793  1.00  0.00     0.099 C 
ATOM      7  O   UNL     1      25.952   8.035  13.985  1.00  0.00    -0.544 OA
ATOM      8  O   UNL     1      25.172   6.474  12.502  1.00  0.00    -0.544 OA
ENDBRANCH   1   6
BRANCH   1   9
ATOM      9  C   UNL     1      24.018   5.045  14.721  1.00  0.00     0.047 C 
ATOM     10  C   UNL     1      24.083   3.743  15.537  1.00  0.00     0.014 C 
ATOM     11  C   UNL     1      22.725   5.799  15.080  1.00  0.00     0.014 C 
ENDBRANCH   1   9
TORSDOF 3
ENDMDL
MODEL 6
REMARK VINA RESULT:    -2.918      1.710      2.121
REMARK INTER + INTRA:          -3.404
REMARK INTER:                  -3.646
REMARK INTRA:                   0.243
REMARK UNBOUND:                -0.059
REMARK SMILES CC(C)[C@@H]([NH3+])C(=O)[O-]
REMARK SMILES IDX 4 1 5 2 6 6 7 7 8 8 2 9 1 10 3 11
REMARK H PARENT 5 3 5 4 5 5
REMARK Flexibility Score: inf
ROOT
ATOM      1  C   UNL     1      24.829   5.214  14.313  1.00  0.00     0.230 C 
ENDROOT
BRANCH   1   2
ATOM      2  N   UNL     1      26.121   5.843  14.627  1.00  0.00    -0.350 N 
ATOM      3  H   UNL     1      26.637   6.068  13.747  1.00  0.00     0.345 HD
ATOM      4  H   UNL     1      26.720   5.181  15.174  1.00  0.00     0.345 HD
ATOM      5  H   UNL     1      25.982   6.716  15.186  1.00  0.00     0.345 HD
ENDBRANCH   1   2
BRANCH   1   6
ATOM      6  C   UNL     1      24.476   4.223  15.395  1.00  0.00     0.099 C 
ATOM      7  O   UNL     1      24.839   4.421  16.584  1.00  0.00    -0.544 OA
ATOM      8  O   UNL     1      23.739   3.087  15.083  1.00  0.00    -0.544 OA
ENDBRANCH   1   6
BRANCH   1   9
ATOM      9  C   UNL     1      23.696   6.272  14.138  1.00  0.00     0.047 C 
ATOM     10  C   UNL     1      22.550   6.055  15.141  1.00  0.00     0.014 C 
ATOM     11  C   UNL     1      24.240   7.703  14.296  1.00  0.00     0.014 C 
ENDBRANCH   1   9
TORSDOF 3
ENDMDL
MODEL 7
REMARK VINA RESULT:    -2.837      1.876      2.331
REMARK INTER + INTRA:          -3.311
REMARK INTER:                  -3.246
REMARK INTRA:                  -0.065
REMARK UNBOUND:                -0.059
REMARK SMILES CC(C)[C@@H]([NH3+])C(=O)[O-]
REMARK SMILES IDX 4 1 5 2 6 6 7 7 8 8 2 9 1 10 3 11
REMARK H PARENT 5 3 5 4 5 5
REMARK Flexibility Score: inf
ROOT
ATOM      1  C   UNL     1      23.779   5.443  15.407  1.00  0.00     0.230 C 
ENDROOT
BRANCH   1   2
ATOM      2  N   UNL     1      22.489   5.755  14.772  1.00  0.00    -0.350 N 
ATOM      3  H   UNL     1      21.746   5.112  15.127  1.00  0.00     0.345 HD
ATOM      4  H   UNL     1      22.552   5.610  13.737  1.00  0.00     0.345 HD
ATOM      5  H   UNL     1      22.214   6.747  14.961  1.00  0.00     0.345 HD
ENDBRANCH   1   2
BRANCH   1   6
ATOM      6  C   UNL     1      23.719   4.063  16.015  1.00  0.00     0.099 C 
ATOM      7  O   UNL     1      23.518   3.918  17.250  1.00  0.00    -0.544 OA
ATOM      8  O   UNL     1      23.878   2.942  15.210  1.00  0.00    -0.544 OA
ENDBRANCH   1   6
BRANCH   1   9
ATOM      9  C   UNL     1      24.964   5.555  14.399  1.00  0.00     0.047 C 
ATOM     10  C   UNL     1      24.908   6.863  13.591  1.00  0.00     0.014 C 
ATOM     11  C   UNL     1      26.320   5.467  15.122  1.00  0.00     0.014 C 
ENDBRANCH   1   9
TORSDOF 3
ENDMDL
MODEL 8
REMARK VINA RESULT:    -2.831      1.865      2.938
REMARK INTER + INTRA:          -3.304
REMARK INTER:                  -3.355
REMARK INTRA:                   0.051
REMARK UNBOUND:                -0.059
REMARK SMILES CC(C)[C@@H]([NH3+])C(=O)[O-]
REMARK SMILES IDX 4 1 5 2 6 6 7 7 8 8 2 9 1 10 3 11
REMARK H PARENT 5 3 5 4 5 5
REMARK Flexibility Score: inf
ROOT
ATOM      1  C   UNL     1      24.416   5.944  14.469  1.00  0.00     0.230 C 
ENDROOT
BRANCH   1   2
ATOM      2  N   UNL     1      24.400   5.364  13.118  1.00  0.00    -0.350 N 
ATOM      3  H   UNL     1      25.076   4.570  13.057  1.00  0.00     0.345 HD
ATOM      4  H   UNL     1      24.700   6.079  12.415  1.00  0.00     0.345 HD
ATOM      5  H   UNL     1      23.441   5.027  12.871  1.00  0.00     0.345 HD
ENDBRANCH   1   2
BRANCH   1   6
ATOM      6  C   UNL     1      23.136   6.708  14.704  1.00  0.00     0.099 C 
ATOM      7  O   UNL     1      22.088   6.104  15.053  1.00  0.00    -0.544 OA
ATOM      8  O   UNL     1      23.112   8.088  14.543  1.00  0.00    -0.544 OA
ENDBRANCH   1   6
BRANCH   1   9
ATOM      9  C   UNL     1      24.622   4.855  15.567  1.00  0.00     0.047 C 
ATOM     10  C   UNL     1      24.070   3.488  15.127  1.00  0.00     0.014 C 
ATOM     11  C   UNL     1      26.110   4.703  15.929  1.00  0.00     0.014 C 
ENDBRANCH   1   9
TORSDOF 3
ENDMDL
MODEL 9
REMARK VINA RESULT:    -2.786      2.153      2.620
REMARK INTER + INTRA:          -3.253
REMARK INTER:                  -3.306
REMARK INTRA:                   0.053
REMARK UNBOUND:                -0.059
REMARK SMILES CC(C)[C@@H]([NH3+])C(=O)[O-]
REMARK SMILES IDX 4 1 5 2 6 6 7 7 8 8 2 9 1 10 3 11
REMARK H PARENT 5 3 5 4 5 5
REMARK Flexibility Score: inf
ROOT
ATOM      1  C   UNL     1      24.417   5.030  15.233  1.00  0.00     0.230 C 
ENDROOT
BRANCH   1   2
ATOM      2  N   UNL     1      24.128   3.839  14.421  1.00  0.00    -0.350 N 
ATOM      3  H   UNL     1      24.819   3.084  14.628  1.00  0.00     0.345 HD
ATOM      4  H   UNL     1      24.217   4.067  13.403  1.00  0.00     0.345 HD
ATOM      5  H   UNL     1      23.159   3.490  14.607  1.00  0.00     0.345 HD
ENDBRANCH   1   2
BRANCH   1   6
ATOM      6  C   UNL     1      25.803   4.915  15.818  1.00  0.00     0.099 C 
ATOM      7  O   UNL     1      25.997   4.260  16.876  1.00  0.00    -0.544 OA
ATOM      8  O   UNL     1      26.878   5.528  15.185  1.00  0.00    -0.544 OA
ENDBRANCH   1   6
BRANCH   1   9
ATOM      9  C   UNL     1      24.269   6.346  14.409  1.00  0.00     0.047 C 
ATOM     10  C   UNL     1      24.589   6.128  12.920  1.00  0.00     0.014 C 
ATOM     11  C   UNL     1      22.851   6.929  14.539  1.00  0.00     0.014 C 
ENDBRANCH   1   9
TORSDOF 3
ENDMDL
