MODEL 1
REMARK VINA RESULT:    -4.746      0.000      0.000
REMARK INTER + INTRA:          -7.332
REMARK INTER:                  -6.550
REMARK INTRA:                  -0.782
REMARK UNBOUND:                -0.782
REMARK SMILES CCCCc1cccc(O)c1CCCC
REMARK SMILES IDX 5 1 11 2 9 3 8 4 7 5 6 6 4 7 3 8 2 9 1 10 12 11 13 12 14 13
REMARK SMILES IDX 15 14 10 15
REMARK H PARENT 10 16
REMARK Flexibility Score: inf
ROOT
ATOM      1  C   UNL     1     174.193 179.229 179.854  1.00  0.00    -0.041 A 
ATOM      2  C   UNL     1     175.601 179.461 179.748  1.00  0.00    -0.003 A 
ATOM      3  C   UNL     1     176.194 179.462 178.451  1.00  0.00     0.119 A 
ATOM      4  C   UNL     1     175.419 179.172 177.325  1.00  0.00     0.046 A 
ATOM      5  C   UNL     1     174.060 178.905 177.445  1.00  0.00     0.004 A 
ATOM      6  C   UNL     1     173.452 178.941 178.694  1.00  0.00     0.004 A 
ENDROOT
BRANCH   1   7
ATOM      7  C   UNL     1     173.417 179.315 181.156  1.00  0.00     0.036 C 
BRANCH   7   8
ATOM      8  C   UNL     1     171.912 179.488 180.885  1.00  0.00     0.004 C 
BRANCH   8   9
ATOM      9  C   UNL     1     171.072 178.342 181.468  1.00  0.00    -0.003 C 
ATOM     10  C   UNL     1     170.031 178.829 182.476  1.00  0.00     0.004 C 
ENDBRANCH   8   9
ENDBRANCH   7   8
ENDBRANCH   1   7
BRANCH   2  11
ATOM     11  C   UNL     1     176.464 179.657 180.989  1.00  0.00     0.040 C 
BRANCH  11  12
ATOM     12  C   UNL     1     176.719 178.356 181.767  1.00  0.00     0.005 C 
BRANCH  12  13
ATOM     13  C   UNL     1     177.433 177.289 180.928  1.00  0.00    -0.003 C 
ATOM     14  C   UNL     1     176.529 176.082 180.693  1.00  0.00     0.004 C 
ENDBRANCH  12  13
ENDBRANCH  11  12
ENDBRANCH   2  11
BRANCH   3  15
ATOM     15  O   UNL     1     177.544 179.749 178.225  1.00  0.00    -0.508 OA
ATOM     16  H   UNL     1     178.221 179.933 178.949  1.00  0.00     0.293 HD
ENDBRANCH   3  15
TORSDOF 7
ENDMDL
MODEL 2
REMARK VINA RESULT:    -4.737      8.487     11.476
REMARK INTER + INTRA:          -7.318
REMARK INTER:                  -5.829
REMARK INTRA:                  -1.490
REMARK UNBOUND:                -0.782
REMARK SMILES CCCCc1cccc(O)c1CCCC
REMARK SMILES IDX 5 1 11 2 9 3 8 4 7 5 6 6 4 7 3 8 2 9 1 10 12 11 13 12 14 13
REMARK SMILES IDX 15 14 10 15
REMARK H PARENT 10 16
REMARK Flexibility Score: inf
ROOT
ATOM      1  C   UNL     1     164.188 178.762 181.019  1.00  0.00    -0.041 A 
ATOM      2  C   UNL     1     164.578 177.388 180.937  1.00  0.00    -0.003 A 
ATOM      3  C   UNL     1     165.932 177.084 180.609  1.00  0.00     0.119 A 
ATOM      4  C   UNL     1     166.828 178.113 180.308  1.00  0.00     0.046 A 
ATOM      5  C   UNL     1     166.426 179.443 180.348  1.00  0.00     0.004 A 
ATOM      6  C   UNL     1     165.123 179.765 180.707  1.00  0.00     0.004 A 
ENDROOT
BRANCH   1   7
ATOM      7  C   UNL     1     162.814 179.226 181.469  1.00  0.00     0.036 C 
BRANCH   7   8
ATOM      8  C   UNL     1     162.139 180.074 180.375  1.00  0.00     0.004 C 
BRANCH   8   9
ATOM      9  C   UNL     1     161.662 179.228 179.185  1.00  0.00    -0.003 C 
ATOM     10  C   UNL     1     162.461 179.502 177.910  1.00  0.00     0.004 C 
ENDBRANCH   8   9
ENDBRANCH   7   8
ENDBRANCH   1   7
BRANCH   2  11
ATOM     11  C   UNL     1     163.568 176.267 181.148  1.00  0.00     0.040 C 
BRANCH  11  12
ATOM     12  C   UNL     1     163.012 175.691 179.834  1.00  0.00     0.005 C 
BRANCH  12  13
ATOM     13  C   UNL     1     161.481 175.590 179.828  1.00  0.00    -0.003 C 
ATOM     14  C   UNL     1     160.898 176.027 181.169  1.00  0.00     0.004 C 
ENDBRANCH  12  13
ENDBRANCH  11  12
ENDBRANCH   2  11
BRANCH   3  15
ATOM     15  O   UNL     1     166.439 175.782 180.573  1.00  0.00    -0.508 OA
ATOM     16  H   UNL     1     165.877 174.945 180.594  1.00  0.00     0.293 HD
ENDBRANCH   3  15
TORSDOF 7
ENDMDL
MODEL 3
REMARK VINA RESULT:    -4.730      2.166      4.140
REMARK INTER + INTRA:          -7.309
REMARK INTER:                  -5.871
REMARK INTRA:                  -1.438
REMARK UNBOUND:                -0.782
REMARK SMILES CCCCc1cccc(O)c1CCCC
REMARK SMILES IDX 5 1 11 2 9 3 8 4 7 5 6 6 4 7 3 8 2 9 1 10 12 11 13 12 14 13
REMARK SMILES IDX 15 14 10 15
REMARK H PARENT 10 16
REMARK Flexibility Score: inf
ROOT
ATOM      1  C   UNL     1     175.135 175.979 180.915  1.00  0.00    -0.041 A 
ATOM      2  C   UNL     1     176.511 175.990 180.526  1.00  0.00    -0.003 A 
ATOM      3  C   UNL     1     177.048 174.829 179.895  1.00  0.00     0.119 A 
ATOM      4  C   UNL     1     176.256 173.690 179.732  1.00  0.00     0.046 A 
ATOM      5  C   UNL     1     174.932 173.676 180.154  1.00  0.00     0.004 A 
ATOM      6  C   UNL     1     174.375 174.810 180.732  1.00  0.00     0.004 A 
ENDROOT
BRANCH   1   7
ATOM      7  C   UNL     1     174.408 177.183 181.489  1.00  0.00     0.036 C 
BRANCH   7   8
ATOM      8  C   UNL     1     173.335 177.691 180.510  1.00  0.00     0.004 C 
BRANCH   8   9
ATOM      9  C   UNL     1     173.664 179.081 179.945  1.00  0.00    -0.003 C 
ATOM     10  C   UNL     1     174.062 179.038 178.469  1.00  0.00     0.004 C 
ENDBRANCH   8   9
ENDBRANCH   7   8
ENDBRANCH   1   7
BRANCH   2  11
ATOM     11  C   UNL     1     177.404 177.190 180.815  1.00  0.00     0.040 C 
BRANCH  11  12
ATOM     12  C   UNL     1     177.464 178.200 179.657  1.00  0.00     0.005 C 
BRANCH  12  13
ATOM     13  C   UNL     1     177.335 179.655 180.126  1.00  0.00    -0.003 C 
ATOM     14  C   UNL     1     177.060 179.724 181.626  1.00  0.00     0.004 C 
ENDBRANCH  12  13
ENDBRANCH  11  12
ENDBRANCH   2  11
BRANCH   3  15
ATOM     15  O   UNL     1     178.357 174.756 179.409  1.00  0.00    -0.508 OA
ATOM     16  H   UNL     1     178.939 173.933 179.446  1.00  0.00     0.293 HD
ENDBRANCH   3  15
TORSDOF 7
ENDMDL
MODEL 4
REMARK VINA RESULT:    -4.693      2.281      5.182
REMARK INTER + INTRA:          -7.258
REMARK INTER:                  -5.965
REMARK INTRA:                  -1.293
REMARK UNBOUND:                -0.782
REMARK SMILES CCCCc1cccc(O)c1CCCC
REMARK SMILES IDX 5 1 11 2 9 3 8 4 7 5 6 6 4 7 3 8 2 9 1 10 12 11 13 12 14 13
REMARK SMILES IDX 15 14 10 15
REMARK H PARENT 10 16
REMARK Flexibility Score: inf
ROOT
ATOM      1  C   UNL     1     176.607 177.509 181.180  1.00  0.00    -0.041 A 
ATOM      2  C   UNL     1     175.416 176.734 181.016  1.00  0.00    -0.003 A 
ATOM      3  C   UNL     1     175.539 175.382 180.581  1.00  0.00     0.119 A 
ATOM      4  C   UNL     1     176.795 174.861 180.258  1.00  0.00     0.046 A 
ATOM      5  C   UNL     1     177.941 175.638 180.379  1.00  0.00     0.004 A 
ATOM      6  C   UNL     1     177.850 176.945 180.842  1.00  0.00     0.004 A 
ENDROOT
BRANCH   1   7
ATOM      7  C   UNL     1     176.628 178.919 181.744  1.00  0.00     0.036 C 
BRANCH   7   8
ATOM      8  C   UNL     1     177.211 179.908 180.720  1.00  0.00     0.004 C 
BRANCH   8   9
ATOM      9  C   UNL     1     176.342 180.033 179.460  1.00  0.00    -0.003 C 
ATOM     10  C   UNL     1     177.087 179.631 178.187  1.00  0.00     0.004 C 
ENDBRANCH   8   9
ENDBRANCH   7   8
ENDBRANCH   1   7
BRANCH   2  11
ATOM     11  C   UNL     1     174.039 177.343 181.252  1.00  0.00     0.040 C 
BRANCH  11  12
ATOM     12  C   UNL     1     173.393 177.906 179.976  1.00  0.00     0.005 C 
BRANCH  12  13
ATOM     13  C   UNL     1     172.257 178.895 180.268  1.00  0.00    -0.003 C 
ATOM     14  C   UNL     1     172.694 179.945 181.285  1.00  0.00     0.004 C 
ENDBRANCH  12  13
ENDBRANCH  11  12
ENDBRANCH   2  11
BRANCH   3  15
ATOM     15  O   UNL     1     174.451 174.513 180.456  1.00  0.00    -0.508 OA
ATOM     16  H   UNL     1     174.000 174.277 179.585  1.00  0.00     0.293 HD
ENDBRANCH   3  15
TORSDOF 7
ENDMDL
MODEL 5
REMARK VINA RESULT:    -4.583     10.338     12.792
REMARK INTER + INTRA:          -7.107
REMARK INTER:                  -6.128
REMARK INTRA:                  -0.978
REMARK UNBOUND:                -0.782
REMARK SMILES CCCCc1cccc(O)c1CCCC
REMARK SMILES IDX 5 1 11 2 9 3 8 4 7 5 6 6 4 7 3 8 2 9 1 10 12 11 13 12 14 13
REMARK SMILES IDX 15 14 10 15
REMARK H PARENT 10 16
REMARK Flexibility Score: inf
ROOT
ATOM      1  C   UNL     1     162.550 178.172 180.462  1.00  0.00    -0.041 A 
ATOM      2  C   UNL     1     162.795 178.550 179.104  1.00  0.00    -0.003 A 
ATOM      3  C   UNL     1     163.970 179.303 178.810  1.00  0.00     0.119 A 
ATOM      4  C   UNL     1     164.815 179.716 179.843  1.00  0.00     0.046 A 
ATOM      5  C   UNL     1     164.544 179.379 181.164  1.00  0.00     0.004 A 
ATOM      6  C   UNL     1     163.428 178.609 181.470  1.00  0.00     0.004 A 
ENDROOT
BRANCH   1   7
ATOM      7  C   UNL     1     161.404 177.275 180.897  1.00  0.00     0.036 C 
BRANCH   7   8
ATOM      8  C   UNL     1     161.848 175.802 180.938  1.00  0.00     0.004 C 
BRANCH   8   9
ATOM      9  C   UNL     1     160.671 174.838 181.150  1.00  0.00    -0.003 C 
ATOM     10  C   UNL     1     161.106 173.499 181.746  1.00  0.00     0.004 C 
ENDBRANCH   8   9
ENDBRANCH   7   8
ENDBRANCH   1   7
BRANCH   2  11
ATOM     11  C   UNL     1     161.807 178.202 177.997  1.00  0.00     0.040 C 
BRANCH  11  12
ATOM     12  C   UNL     1     162.193 176.939 177.209  1.00  0.00     0.005 C 
BRANCH  12  13
ATOM     13  C   UNL     1     160.976 176.115 176.770  1.00  0.00    -0.003 C 
ATOM     14  C   UNL     1     160.984 174.736 177.423  1.00  0.00     0.004 C 
ENDBRANCH  12  13
ENDBRANCH  11  12
ENDBRANCH   2  11
BRANCH   3  15
ATOM     15  O   UNL     1     164.345 179.664 177.512  1.00  0.00    -0.508 OA
ATOM     16  H   UNL     1     164.409 179.026 176.734  1.00  0.00     0.293 HD
ENDBRANCH   3  15
TORSDOF 7
ENDMDL
MODEL 6
REMARK VINA RESULT:    -4.569      1.727      4.507
REMARK INTER + INTRA:          -7.087
REMARK INTER:                  -5.937
REMARK INTRA:                  -1.150
REMARK UNBOUND:                -0.782
REMARK SMILES CCCCc1cccc(O)c1CCCC
REMARK SMILES IDX 5 1 11 2 9 3 8 4 7 5 6 6 4 7 3 8 2 9 1 10 12 11 13 12 14 13
REMARK SMILES IDX 15 14 10 15
REMARK H PARENT 10 16
REMARK Flexibility Score: inf
ROOT
ATOM      1  C   UNL     1     175.303 179.081 180.349  1.00  0.00    -0.041 A 
ATOM      2  C   UNL     1     175.029 179.406 178.983  1.00  0.00    -0.003 A 
ATOM      3  C   UNL     1     173.672 179.402 178.543  1.00  0.00     0.119 A 
ATOM      4  C   UNL     1     172.652 179.018 179.418  1.00  0.00     0.046 A 
ATOM      5  C   UNL     1     172.936 178.663 180.731  1.00  0.00     0.004 A 
ATOM      6  C   UNL     1     174.245 178.701 181.194  1.00  0.00     0.004 A 
ENDROOT
BRANCH   1   7
ATOM      7  C   UNL     1     176.684 179.159 180.976  1.00  0.00     0.036 C 
BRANCH   7   8
ATOM      8  C   UNL     1     177.091 177.799 181.570  1.00  0.00     0.004 C 
BRANCH   8   9
ATOM      9  C   UNL     1     177.803 176.899 180.549  1.00  0.00    -0.003 C 
ATOM     10  C   UNL     1     176.905 175.780 180.021  1.00  0.00     0.004 C 
ENDBRANCH   8   9
ENDBRANCH   7   8
ENDBRANCH   1   7
BRANCH   2  11
ATOM     11  C   UNL     1     176.155 179.705 178.001  1.00  0.00     0.040 C 
BRANCH  11  12
ATOM     12  C   UNL     1     176.727 178.447 177.327  1.00  0.00     0.005 C 
BRANCH  12  13
ATOM     13  C   UNL     1     176.884 178.603 175.809  1.00  0.00    -0.003 C 
ATOM     14  C   UNL     1     175.583 178.268 175.087  1.00  0.00     0.004 C 
ENDBRANCH  12  13
ENDBRANCH  11  12
ENDBRANCH   2  11
BRANCH   3  15
ATOM     15  O   UNL     1     173.283 179.773 177.252  1.00  0.00    -0.508 OA
ATOM     16  H   UNL     1     173.861 180.285 176.603  1.00  0.00     0.293 HD
ENDBRANCH   3  15
TORSDOF 7
ENDMDL
MODEL 7
REMARK VINA RESULT:    -4.558      1.413      3.461
REMARK INTER + INTRA:          -7.072
REMARK INTER:                  -5.916
REMARK INTRA:                  -1.156
REMARK UNBOUND:                -0.782
REMARK SMILES CCCCc1cccc(O)c1CCCC
REMARK SMILES IDX 5 1 11 2 9 3 8 4 7 5 6 6 4 7 3 8 2 9 1 10 12 11 13 12 14 13
REMARK SMILES IDX 15 14 10 15
REMARK H PARENT 10 16
REMARK Flexibility Score: inf
ROOT
ATOM      1  C   UNL     1     174.916 178.914 180.369  1.00  0.00    -0.041 A 
ATOM      2  C   UNL     1     175.428 178.920 179.033  1.00  0.00    -0.003 A 
ATOM      3  C   UNL     1     176.760 179.381 178.818  1.00  0.00     0.119 A 
ATOM      4  C   UNL     1     177.511 179.878 179.887  1.00  0.00     0.046 A 
ATOM      5  C   UNL     1     176.987 179.908 181.173  1.00  0.00     0.004 A 
ATOM      6  C   UNL     1     175.707 179.424 181.414  1.00  0.00     0.004 A 
ENDROOT
BRANCH   1   7
ATOM      7  C   UNL     1     173.561 178.344 180.753  1.00  0.00     0.036 C 
BRANCH   7   8
ATOM      8  C   UNL     1     172.553 179.473 181.029  1.00  0.00     0.004 C 
BRANCH   8   9
ATOM      9  C   UNL     1     171.099 179.036 180.790  1.00  0.00    -0.003 C 
ATOM     10  C   UNL     1     170.353 178.736 182.091  1.00  0.00     0.004 C 
ENDBRANCH   8   9
ENDBRANCH   7   8
ENDBRANCH   1   7
BRANCH   2  11
ATOM     11  C   UNL     1     174.563 178.490 177.854  1.00  0.00     0.040 C 
BRANCH  11  12
ATOM     12  C   UNL     1     173.779 179.650 177.217  1.00  0.00     0.005 C 
BRANCH  12  13
ATOM     13  C   UNL     1     172.297 179.321 177.000  1.00  0.00    -0.003 C 
ATOM     14  C   UNL     1     172.000 177.869 177.366  1.00  0.00     0.004 C 
ENDBRANCH  12  13
ENDBRANCH  11  12
ENDBRANCH   2  11
BRANCH   3  15
ATOM     15  O   UNL     1     177.386 179.363 177.568  1.00  0.00    -0.508 OA
ATOM     16  H   UNL     1     177.904 178.581 177.196  1.00  0.00     0.293 HD
ENDBRANCH   3  15
TORSDOF 7
ENDMDL
MODEL 8
REMARK VINA RESULT:    -4.542      1.347      3.837
REMARK INTER + INTRA:          -7.049
REMARK INTER:                  -6.116
REMARK INTRA:                  -0.933
REMARK UNBOUND:                -0.782
REMARK SMILES CCCCc1cccc(O)c1CCCC
REMARK SMILES IDX 5 1 11 2 9 3 8 4 7 5 6 6 4 7 3 8 2 9 1 10 12 11 13 12 14 13
REMARK SMILES IDX 15 14 10 15
REMARK H PARENT 10 16
REMARK Flexibility Score: inf
ROOT
ATOM      1  C   UNL     1     175.702 178.613 180.572  1.00  0.00    -0.041 A 
ATOM      2  C   UNL     1     176.084 178.545 179.195  1.00  0.00    -0.003 A 
ATOM      3  C   UNL     1     177.144 177.665 178.827  1.00  0.00     0.119 A 
ATOM      4  C   UNL     1     177.830 176.944 179.808  1.00  0.00     0.046 A 
ATOM      5  C   UNL     1     177.478 177.051 181.147  1.00  0.00     0.004 A 
ATOM      6  C   UNL     1     176.420 177.870 181.525  1.00  0.00     0.004 A 
ENDROOT
BRANCH   1   7
ATOM      7  C   UNL     1     174.520 179.418 181.083  1.00  0.00     0.036 C 
BRANCH   7   8
ATOM      8  C   UNL     1     173.228 178.582 181.036  1.00  0.00     0.004 C 
BRANCH   8   9
ATOM      9  C   UNL     1     171.963 179.453 180.998  1.00  0.00    -0.003 C 
ATOM     10  C   UNL     1     171.277 179.435 179.632  1.00  0.00     0.004 C 
ENDBRANCH   8   9
ENDBRANCH   7   8
ENDBRANCH   1   7
BRANCH   2  11
ATOM     11  C   UNL     1     175.414 179.424 178.146  1.00  0.00     0.040 C 
BRANCH  11  12
ATOM     12  C   UNL     1     174.245 178.731 177.426  1.00  0.00     0.005 C 
BRANCH  12  13
ATOM     13  C   UNL     1     173.398 179.701 176.592  1.00  0.00    -0.003 C 
ATOM     14  C   UNL     1     173.455 179.343 175.110  1.00  0.00     0.004 C 
ENDBRANCH  12  13
ENDBRANCH  11  12
ENDBRANCH   2  11
BRANCH   3  15
ATOM     15  O   UNL     1     177.551 177.466 177.504  1.00  0.00    -0.508 OA
ATOM     16  H   UNL     1     177.690 176.563 177.075  1.00  0.00     0.293 HD
ENDBRANCH   3  15
TORSDOF 7
ENDMDL
MODEL 9
REMARK VINA RESULT:    -4.525      9.772     12.739
REMARK INTER + INTRA:          -7.027
REMARK INTER:                  -6.266
REMARK INTRA:                  -0.761
REMARK UNBOUND:                -0.782
REMARK SMILES CCCCc1cccc(O)c1CCCC
REMARK SMILES IDX 5 1 11 2 9 3 8 4 7 5 6 6 4 7 3 8 2 9 1 10 12 11 13 12 14 13
REMARK SMILES IDX 15 14 10 15
REMARK H PARENT 10 16
REMARK Flexibility Score: inf
ROOT
ATOM      1  C   UNL     1     161.742 176.954 179.775  1.00  0.00    -0.041 A 
ATOM      2  C   UNL     1     162.049 178.335 179.566  1.00  0.00    -0.003 A 
ATOM      3  C   UNL     1     162.277 178.786 178.232  1.00  0.00     0.119 A 
ATOM      4  C   UNL     1     162.267 177.875 177.172  1.00  0.00     0.046 A 
ATOM      5  C   UNL     1     162.010 176.527 177.394  1.00  0.00     0.004 A 
ATOM      6  C   UNL     1     161.743 176.073 178.679  1.00  0.00     0.004 A 
ENDROOT
BRANCH   1   7
ATOM      7  C   UNL     1     161.366 176.366 181.124  1.00  0.00     0.036 C 
BRANCH   7   8
ATOM      8  C   UNL     1     160.800 174.944 180.961  1.00  0.00     0.004 C 
BRANCH   8   9
ATOM      9  C   UNL     1     161.735 173.869 181.535  1.00  0.00    -0.003 C 
ATOM     10  C   UNL     1     160.975 172.668 182.099  1.00  0.00     0.004 C 
ENDBRANCH   8   9
ENDBRANCH   7   8
ENDBRANCH   1   7
BRANCH   2  11
ATOM     11  C   UNL     1     162.179 179.302 180.737  1.00  0.00     0.040 C 
BRANCH  11  12
ATOM     12  C   UNL     1     163.493 179.141 181.519  1.00  0.00     0.005 C 
BRANCH  12  13
ATOM     13  C   UNL     1     164.710 179.683 180.758  1.00  0.00    -0.003 C 
ATOM     14  C   UNL     1     165.635 178.549 180.326  1.00  0.00     0.004 C 
ENDBRANCH  12  13
ENDBRANCH  11  12
ENDBRANCH   2  11
BRANCH   3  15
ATOM     15  O   UNL     1     162.513 180.125 177.904  1.00  0.00    -0.508 OA
ATOM     16  H   UNL     1     163.249 180.692 178.297  1.00  0.00     0.293 HD
ENDBRANCH   3  15
TORSDOF 7
ENDMDL
