MODEL 1
REMARK VINA RESULT:    -3.132      0.000      0.000
REMARK INTER + INTRA:          -4.137
REMARK INTER:                  -4.413
REMARK INTRA:                   0.276
REMARK UNBOUND:                 0.276
REMARK SMILES CC1=CCC(=C(C)C)C(=O)CC(C)=CCC1
REMARK SMILES IDX 12 1 14 2 13 3 15 4 16 5 2 6 1 7 3 8 11 10 9 11 10 12 5 13
REMARK SMILES IDX 6 14 7 15 8 16 4 17
REMARK H PARENT
REMARK Flexibility Score: 60.00
ROOT
ATOM      1  C   UNL     1      12.135  25.849  33.139  1.00  0.00    -0.070 C 
ATOM      2  C   UNL     1      11.606  26.494  32.076  1.00  0.00    -0.027 C 
ATOM      3  C   UNL     1      11.625  26.214  34.510  1.00  0.00     0.039 C 
ENDROOT
BRANCH   2   4
ATOM      4  C   UNL     1      11.915  26.202  30.623  1.00  0.00     0.032 C 
BRANCH   4   5
ATOM      5  C   UNL     1      13.100  27.000  30.039  1.00  0.00     0.034 C 
BRANCH   5   6
ATOM      6  C   UNL     1      14.118  26.124  29.330  1.00  0.00    -0.077 C 
ATOM      7  C   UNL     1      13.791  25.663  27.931  1.00  0.00     0.039 C 
ATOM      8  C   UNL     1      15.327  25.787  29.842  1.00  0.00    -0.023 CG0
ATOM      9  G   UNL     1      15.859  26.118  31.222  1.00  0.00     0.000 G0
ENDBRANCH   5   6
ENDBRANCH   4   5
ENDBRANCH   2   4
BRANCH   1  10
ATOM     10  C   UNL     1      13.139  24.722  33.013  1.00  0.00     0.111 C 
BRANCH  10  11
ATOM     11  C   UNL     1      14.549  25.206  33.235  1.00  0.00     0.163 C 
ATOM     12  O   UNL     1      14.821  25.753  34.337  1.00  0.00    -0.294 OA
BRANCH  11  13
ATOM     13  C   UNL     1      15.634  25.003  32.229  1.00  0.00    -0.002 C 
ATOM     14  C   UNL     1      16.324  23.824  32.174  1.00  0.00    -0.069 C 
ATOM     15  C   UNL     1      16.125  22.750  33.221  1.00  0.00     0.039 C 
ATOM     16  C   UNL     1      17.316  23.527  31.072  1.00  0.00     0.039 C 
BRANCH  13  17
ATOM     17  C   UNL     1      15.866  26.117  31.222  1.00  0.00     0.066 CG0
ATOM     18  G   UNL     1      15.322  25.775  29.849  1.00  0.00     0.000 G0
ENDBRANCH  13  17
ENDBRANCH  11  13
ENDBRANCH  10  11
ENDBRANCH   1  10
TORSDOF 0
ENDMDL
MODEL 2
REMARK VINA RESULT:    -3.105      6.140      7.962
REMARK INTER + INTRA:          -4.099
REMARK INTER:                  -4.300
REMARK INTRA:                   0.200
REMARK UNBOUND:                 0.276
REMARK SMILES CC1=CCC(=C(C)C)C(=O)CC(C)=CCC1
REMARK SMILES IDX 12 1 14 2 13 3 15 4 16 5 2 6 1 7 3 8 11 10 9 11 10 12 5 13
REMARK SMILES IDX 6 14 7 15 8 16 4 17
REMARK H PARENT
REMARK Flexibility Score: 60.00
ROOT
ATOM      1  C   UNL     1      14.912  26.153  25.448  1.00  0.00    -0.070 C 
ATOM      2  C   UNL     1      13.764  25.987  24.755  1.00  0.00    -0.027 C 
ATOM      3  C   UNL     1      15.329  25.056  26.396  1.00  0.00     0.039 C 
ENDROOT
BRANCH   2   4
ATOM      4  C   UNL     1      13.231  26.923  23.692  1.00  0.00     0.032 C 
BRANCH   4   5
ATOM      5  C   UNL     1      12.488  28.163  24.233  1.00  0.00     0.034 C 
BRANCH   5   6
ATOM      6  C   UNL     1      13.013  29.469  23.663  1.00  0.00    -0.077 C 
ATOM      7  C   UNL     1      12.716  29.771  22.216  1.00  0.00     0.039 C 
ATOM      8  C   UNL     1      13.669  30.410  24.386  1.00  0.00    -0.023 CG0
ATOM      9  G   UNL     1      14.090  30.318  25.839  1.00  0.00     0.000 G0
ENDBRANCH   5   6
ENDBRANCH   4   5
ENDBRANCH   2   4
BRANCH   1  10
ATOM     10  C   UNL     1      15.840  27.334  25.249  1.00  0.00     0.111 C 
BRANCH  10  11
ATOM     11  C   UNL     1      15.669  28.363  26.336  1.00  0.00     0.163 C 
ATOM     12  O   UNL     1      15.725  27.977  27.534  1.00  0.00    -0.294 OA
BRANCH  11  13
ATOM     13  C   UNL     1      15.501  29.818  26.042  1.00  0.00    -0.002 C 
ATOM     14  C   UNL     1      16.590  30.626  25.869  1.00  0.00    -0.069 C 
ATOM     15  C   UNL     1      17.993  30.117  26.123  1.00  0.00     0.039 C 
ATOM     16  C   UNL     1      16.458  32.064  25.417  1.00  0.00     0.039 C 
BRANCH  13  17
ATOM     17  C   UNL     1      14.083  30.331  25.852  1.00  0.00     0.066 CG0
ATOM     18  G   UNL     1      13.685  30.396  24.391  1.00  0.00     0.000 G0
ENDBRANCH  13  17
ENDBRANCH  11  13
ENDBRANCH  10  11
ENDBRANCH   1  10
TORSDOF 0
ENDMDL
MODEL 3
REMARK VINA RESULT:    -3.039      5.881      8.477
REMARK INTER + INTRA:          -4.006
REMARK INTER:                  -4.271
REMARK INTRA:                   0.265
REMARK UNBOUND:                 0.276
REMARK SMILES CC1=CCC(=C(C)C)C(=O)CC(C)=CCC1
REMARK SMILES IDX 12 1 14 2 13 3 15 4 16 5 2 6 1 7 3 8 11 10 9 11 10 12 5 13
REMARK SMILES IDX 6 14 7 15 8 16 4 17
REMARK H PARENT
REMARK Flexibility Score: 60.00
ROOT
ATOM      1  C   UNL     1      10.322  29.813  23.237  1.00  0.00    -0.070 C 
ATOM      2  C   UNL     1      11.248  29.257  22.425  1.00  0.00    -0.027 C 
ATOM      3  C   UNL     1       9.596  31.039  22.744  1.00  0.00     0.039 C 
ENDROOT
BRANCH   2   4
ATOM      4  C   UNL     1      12.008  27.977  22.698  1.00  0.00     0.032 C 
BRANCH   4   5
ATOM      5  C   UNL     1      13.245  28.138  23.606  1.00  0.00     0.034 C 
BRANCH   5   6
ATOM      6  C   UNL     1      13.209  27.236  24.828  1.00  0.00    -0.077 C 
ATOM      7  C   UNL     1      13.467  25.765  24.620  1.00  0.00     0.039 C 
ATOM      8  C   UNL     1      13.031  27.676  26.098  1.00  0.00    -0.023 CG0
ATOM      9  G   UNL     1      12.740  29.096  26.542  1.00  0.00     0.000 G0
ENDBRANCH   5   6
ENDBRANCH   4   5
ENDBRANCH   2   4
BRANCH   1  10
ATOM     10  C   UNL     1       9.916  29.213  24.568  1.00  0.00     0.111 C 
BRANCH  10  11
ATOM     11  C   UNL     1      10.482  29.994  25.725  1.00  0.00     0.163 C 
ATOM     12  O   UNL     1      10.231  31.227  25.788  1.00  0.00    -0.294 OA
BRANCH  11  13
ATOM     13  C   UNL     1      11.266  29.349  26.820  1.00  0.00    -0.002 C 
ATOM     14  C   UNL     1      10.652  28.931  27.967  1.00  0.00    -0.069 C 
ATOM     15  C   UNL     1       9.196  29.244  28.236  1.00  0.00     0.039 C 
ATOM     16  C   UNL     1      11.385  28.135  29.024  1.00  0.00     0.039 C 
BRANCH  13  17
ATOM     17  C   UNL     1      12.743  29.096  26.562  1.00  0.00     0.066 CG0
ATOM     18  G   UNL     1      13.010  27.685  26.077  1.00  0.00     0.000 G0
ENDBRANCH  13  17
ENDBRANCH  11  13
ENDBRANCH  10  11
ENDBRANCH   1  10
TORSDOF 0
ENDMDL
MODEL 4
REMARK VINA RESULT:    -2.955      2.279      3.597
REMARK INTER + INTRA:          -3.888
REMARK INTER:                  -4.296
REMARK INTRA:                   0.408
REMARK UNBOUND:                 0.276
REMARK SMILES CC1=CCC(=C(C)C)C(=O)CC(C)=CCC1
REMARK SMILES IDX 12 1 14 2 13 3 15 4 16 5 2 6 1 7 3 8 11 10 9 11 10 12 5 13
REMARK SMILES IDX 6 14 7 15 8 16 4 17
REMARK H PARENT
REMARK Flexibility Score: 60.00
ROOT
ATOM      1  C   UNL     1      12.104  25.438  32.379  1.00  0.00    -0.070 C 
ATOM      2  C   UNL     1      11.541  26.379  33.169  1.00  0.00    -0.027 C 
ATOM      3  C   UNL     1      11.753  25.448  30.912  1.00  0.00     0.039 C 
ENDROOT
BRANCH   2   4
ATOM      4  C   UNL     1      11.840  26.594  34.637  1.00  0.00     0.032 C 
BRANCH   4   5
ATOM      5  C   UNL     1      12.449  27.970  34.980  1.00  0.00     0.034 C 
BRANCH   5   6
ATOM      6  C   UNL     1      13.643  28.328  34.113  1.00  0.00    -0.077 C 
ATOM      7  C   UNL     1      13.561  29.592  33.296  1.00  0.00     0.039 C 
ATOM      8  C   UNL     1      14.801  27.624  34.079  1.00  0.00    -0.023 CG0
ATOM      9  G   UNL     1      15.103  26.323  34.796  1.00  0.00     0.000 G0
ENDBRANCH   5   6
ENDBRANCH   4   5
ENDBRANCH   2   4
BRANCH   1  10
ATOM     10  C   UNL     1      13.133  24.443  32.874  1.00  0.00     0.111 C 
BRANCH  10  11
ATOM     11  C   UNL     1      14.536  24.963  32.701  1.00  0.00     0.163 C 
ATOM     12  O   UNL     1      14.916  25.269  31.539  1.00  0.00    -0.294 OA
BRANCH  11  13
ATOM     13  C   UNL     1      15.458  25.184  33.855  1.00  0.00    -0.002 C 
ATOM     14  C   UNL     1      16.594  24.437  33.995  1.00  0.00    -0.069 C 
ATOM     15  C   UNL     1      16.878  23.263  33.084  1.00  0.00     0.039 C 
ATOM     16  C   UNL     1      17.625  24.739  35.060  1.00  0.00     0.039 C 
BRANCH  13  17
ATOM     17  C   UNL     1      15.127  26.327  34.800  1.00  0.00     0.066 CG0
ATOM     18  G   UNL     1      14.791  27.607  34.061  1.00  0.00     0.000 G0
ENDBRANCH  13  17
ENDBRANCH  11  13
ENDBRANCH  10  11
ENDBRANCH   1  10
TORSDOF 0
ENDMDL
MODEL 5
REMARK VINA RESULT:    -2.952      4.895      7.666
REMARK INTER + INTRA:          -3.883
REMARK INTER:                  -4.201
REMARK INTRA:                   0.318
REMARK UNBOUND:                 0.276
REMARK SMILES CC1=CCC(=C(C)C)C(=O)CC(C)=CCC1
REMARK SMILES IDX 12 1 14 2 13 3 15 4 16 5 2 6 1 7 3 8 11 10 9 11 10 12 5 13
REMARK SMILES IDX 6 14 7 15 8 16 4 17
REMARK H PARENT
REMARK Flexibility Score: 60.00
ROOT
ATOM      1  C   UNL     1      14.419  25.944  26.848  1.00  0.00    -0.070 C 
ATOM      2  C   UNL     1      14.064  26.016  28.150  1.00  0.00    -0.027 C 
ATOM      3  C   UNL     1      15.734  25.286  26.512  1.00  0.00     0.039 C 
ENDROOT
BRANCH   2   4
ATOM      4  C   UNL     1      12.749  26.547  28.679  1.00  0.00     0.032 C 
BRANCH   4   5
ATOM      5  C   UNL     1      12.611  28.083  28.649  1.00  0.00     0.034 C 
BRANCH   5   6
ATOM      6  C   UNL     1      11.288  28.553  28.071  1.00  0.00    -0.077 C 
ATOM      7  C   UNL     1      10.028  28.171  28.806  1.00  0.00     0.039 C 
ATOM      8  C   UNL     1      11.169  29.349  26.980  1.00  0.00    -0.023 CG0
ATOM      9  G   UNL     1      12.286  29.838  26.079  1.00  0.00     0.000 G0
ENDBRANCH   5   6
ENDBRANCH   4   5
ENDBRANCH   2   4
BRANCH   1  10
ATOM     10  C   UNL     1      13.524  26.404  25.716  1.00  0.00     0.111 C 
BRANCH  10  11
ATOM     11  C   UNL     1      13.774  27.847  25.363  1.00  0.00     0.163 C 
ATOM     12  O   UNL     1      14.967  28.247  25.309  1.00  0.00    -0.294 OA
BRANCH  11  13
ATOM     13  C   UNL     1      12.668  28.790  25.016  1.00  0.00    -0.002 C 
ATOM     14  C   UNL     1      11.973  28.652  23.848  1.00  0.00    -0.069 C 
ATOM     15  C   UNL     1      12.395  27.647  22.798  1.00  0.00     0.039 C 
ATOM     16  C   UNL     1      10.750  29.487  23.539  1.00  0.00     0.039 C 
BRANCH  13  17
ATOM     17  C   UNL     1      12.295  29.836  26.054  1.00  0.00     0.066 CG0
ATOM     18  G   UNL     1      11.183  29.366  26.971  1.00  0.00     0.000 G0
ENDBRANCH  13  17
ENDBRANCH  11  13
ENDBRANCH  10  11
ENDBRANCH   1  10
TORSDOF 0
ENDMDL
MODEL 6
REMARK VINA RESULT:    -2.945      2.032      5.080
REMARK INTER + INTRA:          -3.874
REMARK INTER:                  -4.281
REMARK INTRA:                   0.407
REMARK UNBOUND:                 0.276
REMARK SMILES CC1=CCC(=C(C)C)C(=O)CC(C)=CCC1
REMARK SMILES IDX 12 1 14 2 13 3 15 4 16 5 2 6 1 7 3 8 11 10 9 11 10 12 5 13
REMARK SMILES IDX 6 14 7 15 8 16 4 17
REMARK H PARENT
REMARK Flexibility Score: 60.00
ROOT
ATOM      1  C   UNL     1      15.746  25.377  30.566  1.00  0.00    -0.070 C 
ATOM      2  C   UNL     1      16.570  24.466  31.130  1.00  0.00    -0.027 C 
ATOM      3  C   UNL     1      16.279  26.190  29.413  1.00  0.00     0.039 C 
ENDROOT
BRANCH   2   4
ATOM      4  C   UNL     1      16.192  23.493  32.225  1.00  0.00     0.032 C 
BRANCH   4   5
ATOM      5  C   UNL     1      16.923  23.710  33.567  1.00  0.00     0.034 C 
BRANCH   5   6
ATOM      6  C   UNL     1      17.015  25.172  33.967  1.00  0.00    -0.077 C 
ATOM      7  C   UNL     1      18.377  25.820  33.940  1.00  0.00     0.039 C 
ATOM      8  C   UNL     1      15.949  25.949  34.279  1.00  0.00    -0.023 CG0
ATOM      9  G   UNL     1      14.501  25.513  34.388  1.00  0.00     0.000 G0
ENDBRANCH   5   6
ENDBRANCH   4   5
ENDBRANCH   2   4
BRANCH   1  10
ATOM     10  C   UNL     1      14.297  25.550  30.970  1.00  0.00     0.111 C 
BRANCH  10  11
ATOM     11  C   UNL     1      14.147  26.560  32.078  1.00  0.00     0.163 C 
ATOM     12  O   UNL     1      14.473  27.754  31.841  1.00  0.00    -0.294 OA
BRANCH  11  13
ATOM     13  C   UNL     1      13.572  26.208  33.411  1.00  0.00    -0.002 C 
ATOM     14  C   UNL     1      12.251  26.431  33.683  1.00  0.00    -0.069 C 
ATOM     15  C   UNL     1      11.366  27.180  32.711  1.00  0.00     0.039 C 
ATOM     16  C   UNL     1      11.603  25.944  34.960  1.00  0.00     0.039 C 
BRANCH  13  17
ATOM     17  C   UNL     1      14.489  25.512  34.403  1.00  0.00     0.066 CG0
ATOM     18  G   UNL     1      15.935  25.944  34.252  1.00  0.00     0.000 G0
ENDBRANCH  13  17
ENDBRANCH  11  13
ENDBRANCH  10  11
ENDBRANCH   1  10
TORSDOF 0
ENDMDL
MODEL 7
REMARK VINA RESULT:    -2.915      5.225      6.952
REMARK INTER + INTRA:          -3.832
REMARK INTER:                  -4.270
REMARK INTRA:                   0.438
REMARK UNBOUND:                 0.276
REMARK SMILES CC1=CCC(=C(C)C)C(=O)CC(C)=CCC1
REMARK SMILES IDX 12 1 14 2 13 3 15 4 16 5 2 6 1 7 3 8 11 10 9 11 10 12 5 13
REMARK SMILES IDX 6 14 7 15 8 16 4 17
REMARK H PARENT
REMARK Flexibility Score: 60.00
ROOT
ATOM      1  C   UNL     1      13.161  27.221  24.739  1.00  0.00    -0.070 C 
ATOM      2  C   UNL     1      13.827  26.053  24.877  1.00  0.00    -0.027 C 
ATOM      3  C   UNL     1      12.690  27.605  23.359  1.00  0.00     0.039 C 
ENDROOT
BRANCH   2   4
ATOM      4  C   UNL     1      14.292  25.451  26.185  1.00  0.00     0.032 C 
BRANCH   4   5
ATOM      5  C   UNL     1      15.821  25.286  26.315  1.00  0.00     0.034 C 
BRANCH   5   6
ATOM      6  C   UNL     1      16.590  26.551  25.977  1.00  0.00    -0.077 C 
ATOM      7  C   UNL     1      17.492  26.520  24.768  1.00  0.00     0.039 C 
ATOM      8  C   UNL     1      16.466  27.723  26.646  1.00  0.00    -0.023 CG0
ATOM      9  G   UNL     1      15.640  27.983  27.890  1.00  0.00     0.000 G0
ENDBRANCH   5   6
ENDBRANCH   4   5
ENDBRANCH   2   4
BRANCH   1  10
ATOM     10  C   UNL     1      12.787  28.107  25.908  1.00  0.00     0.111 C 
BRANCH  10  11
ATOM     11  C   UNL     1      13.915  29.031  26.288  1.00  0.00     0.163 C 
ATOM     12  O   UNL     1      14.298  29.879  25.439  1.00  0.00    -0.294 OA
BRANCH  11  13
ATOM     13  C   UNL     1      14.541  29.016  27.644  1.00  0.00    -0.002 C 
ATOM     14  C   UNL     1      14.075  29.831  28.638  1.00  0.00    -0.069 C 
ATOM     15  C   UNL     1      13.023  30.883  28.361  1.00  0.00     0.039 C 
ATOM     16  C   UNL     1      14.580  29.729  30.060  1.00  0.00     0.039 C 
BRANCH  13  17
ATOM     17  C   UNL     1      15.641  27.997  27.891  1.00  0.00     0.066 CG0
ATOM     18  G   UNL     1      16.469  27.731  26.650  1.00  0.00     0.000 G0
ENDBRANCH  13  17
ENDBRANCH  11  13
ENDBRANCH  10  11
ENDBRANCH   1  10
TORSDOF 0
ENDMDL
MODEL 8
REMARK VINA RESULT:    -2.912      3.062      5.108
REMARK INTER + INTRA:          -3.828
REMARK INTER:                  -4.053
REMARK INTRA:                   0.224
REMARK UNBOUND:                 0.276
REMARK SMILES CC1=CCC(=C(C)C)C(=O)CC(C)=CCC1
REMARK SMILES IDX 12 1 14 2 13 3 15 4 16 5 2 6 1 7 3 8 11 10 9 11 10 12 5 13
REMARK SMILES IDX 6 14 7 15 8 16 4 17
REMARK H PARENT
REMARK Flexibility Score: 60.00
ROOT
ATOM      1  C   UNL     1      12.726  26.469  29.482  1.00  0.00    -0.070 C 
ATOM      2  C   UNL     1      13.255  26.690  30.706  1.00  0.00    -0.027 C 
ATOM      3  C   UNL     1      11.277  26.823  29.266  1.00  0.00     0.039 C 
ENDROOT
BRANCH   2   4
ATOM      4  C   UNL     1      14.705  26.492  31.091  1.00  0.00     0.032 C 
BRANCH   4   5
ATOM      5  C   UNL     1      15.671  27.570  30.555  1.00  0.00     0.034 C 
BRANCH   5   6
ATOM      6  C   UNL     1      16.920  26.989  29.917  1.00  0.00    -0.077 C 
ATOM      7  C   UNL     1      17.817  26.138  30.781  1.00  0.00     0.039 C 
ATOM      8  C   UNL     1      17.245  27.126  28.608  1.00  0.00    -0.023 CG0
ATOM      9  G   UNL     1      16.509  27.943  27.564  1.00  0.00     0.000 G0
ENDBRANCH   5   6
ENDBRANCH   4   5
ENDBRANCH   2   4
BRANCH   1  10
ATOM     10  C   UNL     1      13.538  25.974  28.303  1.00  0.00     0.111 C 
BRANCH  10  11
ATOM     11  C   UNL     1      14.055  27.116  27.467  1.00  0.00     0.163 C 
ATOM     12  O   UNL     1      13.321  28.131  27.331  1.00  0.00    -0.294 OA
BRANCH  11  13
ATOM     13  C   UNL     1      15.418  27.109  26.855  1.00  0.00    -0.002 C 
ATOM     14  C   UNL     1      15.649  26.465  25.672  1.00  0.00    -0.069 C 
ATOM     15  C   UNL     1      14.582  25.610  25.023  1.00  0.00     0.039 C 
ATOM     16  C   UNL     1      16.973  26.570  24.948  1.00  0.00     0.039 C 
BRANCH  13  17
ATOM     17  C   UNL     1      16.497  27.921  27.552  1.00  0.00     0.066 CG0
ATOM     18  G   UNL     1      17.238  27.114  28.600  1.00  0.00     0.000 G0
ENDBRANCH  13  17
ENDBRANCH  11  13
ENDBRANCH  10  11
ENDBRANCH   1  10
TORSDOF 0
ENDMDL
MODEL 9
REMARK VINA RESULT:    -2.841      1.749      2.274
REMARK INTER + INTRA:          -3.728
REMARK INTER:                  -3.940
REMARK INTRA:                   0.212
REMARK UNBOUND:                 0.276
REMARK SMILES CC1=CCC(=C(C)C)C(=O)CC(C)=CCC1
REMARK SMILES IDX 12 1 14 2 13 3 15 4 16 5 2 6 1 7 3 8 11 10 9 11 10 12 5 13
REMARK SMILES IDX 6 14 7 15 8 16 4 17
REMARK H PARENT
REMARK Flexibility Score: 60.00
ROOT
ATOM      1  C   UNL     1      12.506  25.513  32.074  1.00  0.00    -0.070 C 
ATOM      2  C   UNL     1      11.591  25.462  31.081  1.00  0.00    -0.027 C 
ATOM      3  C   UNL     1      12.309  24.606  33.262  1.00  0.00     0.039 C 
ENDROOT
BRANCH   2   4
ATOM      4  C   UNL     1      11.665  26.217  29.772  1.00  0.00     0.032 C 
BRANCH   4   5
ATOM      5  C   UNL     1      12.676  25.651  28.753  1.00  0.00     0.034 C 
BRANCH   5   6
ATOM      6  C   UNL     1      13.653  26.694  28.238  1.00  0.00    -0.077 C 
ATOM      7  C   UNL     1      13.090  27.855  27.458  1.00  0.00     0.039 C 
ATOM      8  C   UNL     1      14.984  26.686  28.493  1.00  0.00    -0.023 CG0
ATOM      9  G   UNL     1      15.768  25.621  29.233  1.00  0.00     0.000 G0
ENDBRANCH   5   6
ENDBRANCH   4   5
ENDBRANCH   2   4
BRANCH   1  10
ATOM     10  C   UNL     1      13.759  26.361  32.006  1.00  0.00     0.111 C 
BRANCH  10  11
ATOM     11  C   UNL     1      14.974  25.532  31.679  1.00  0.00     0.163 C 
ATOM     12  O   UNL     1      15.082  24.400  32.221  1.00  0.00    -0.294 OA
BRANCH  11  13
ATOM     13  C   UNL     1      16.008  25.978  30.698  1.00  0.00    -0.002 C 
ATOM     14  C   UNL     1      17.147  26.605  31.119  1.00  0.00    -0.069 C 
ATOM     15  C   UNL     1      17.330  27.010  32.566  1.00  0.00     0.039 C 
ATOM     16  C   UNL     1      18.282  26.926  30.172  1.00  0.00     0.039 C 
BRANCH  13  17
ATOM     17  C   UNL     1      15.781  25.620  29.238  1.00  0.00     0.066 CG0
ATOM     18  G   UNL     1      15.000  26.687  28.498  1.00  0.00     0.000 G0
ENDBRANCH  13  17
ENDBRANCH  11  13
ENDBRANCH  10  11
ENDBRANCH   1  10
TORSDOF 0
ENDMDL
