MODEL 1
REMARK VINA RESULT:    -4.057      0.000      0.000
REMARK INTER + INTRA:          -6.603
REMARK INTER:                  -5.955
REMARK INTRA:                  -0.648
REMARK UNBOUND:                -0.648
REMARK SMILES C=C1C=C[C@H](C(C)C)CCC(C)=CCC1
REMARK SMILES IDX 3 1 4 2 5 3 9 4 10 5 11 6 12 7 13 8 6 10 7 11 8 12 2 13 1 14
REMARK SMILES IDX 15 15 14 16
REMARK H PARENT
REMARK Flexibility Score: 70.00
ROOT
ATOM      1  C   UNL     1     147.580 146.591 164.838  1.00  0.00    -0.001 C 
ATOM      2  C   UNL     1     146.870 147.669 165.209  1.00  0.00    -0.023 C 
ENDROOT
BRANCH   2   3
ATOM      3  C   UNL     1     145.858 148.395 164.338  1.00  0.00     0.014 C 
BRANCH   3   4
ATOM      4  C   UNL     1     144.417 147.999 164.747  1.00  0.00     0.012 C 
BRANCH   4   5
ATOM      5  C   UNL     1     143.560 147.452 163.590  1.00  0.00     0.031 C 
BRANCH   5   6
ATOM      6  C   UNL     1     143.328 145.950 163.675  1.00  0.00    -0.077 C 
ATOM      7  C   UNL     1     142.120 145.461 164.436  1.00  0.00     0.039 C 
ATOM      8  C   UNL     1     144.149 145.013 163.139  1.00  0.00    -0.028 CG0
ATOM      9  G   UNL     1     145.424 145.257 162.361  1.00  0.00     0.000 G0
ENDBRANCH   5   6
ENDBRANCH   4   5
ENDBRANCH   3   4
BRANCH   3  10
ATOM     10  C   UNL     1     146.048 149.945 164.382  1.00  0.00    -0.010 C 
ATOM     11  C   UNL     1     145.757 150.587 163.019  1.00  0.00     0.008 C 
ATOM     12  C   UNL     1     147.429 150.398 164.887  1.00  0.00     0.008 C 
ENDBRANCH   3  10
ENDBRANCH   2   3
BRANCH   1  13
ATOM     13  C   UNL     1     147.567 145.997 163.485  1.00  0.00    -0.055 C 
ATOM     14  C   UNL     1     148.471 146.372 162.576  1.00  0.00     0.012 C 
BRANCH  13  15
ATOM     15  C   UNL     1     146.647 144.833 163.202  1.00  0.00     0.039 C 
BRANCH  15  16
ATOM     16  C   UNL     1     145.429 145.245 162.367  1.00  0.00     0.032 CG0
ATOM     17  G   UNL     1     144.138 145.015 163.123  1.00  0.00     0.000 G0
ENDBRANCH  15  16
ENDBRANCH  13  15
ENDBRANCH   1  13
TORSDOF 1
ENDMDL
MODEL 2
REMARK VINA RESULT:    -4.033      2.184      4.442
REMARK INTER + INTRA:          -6.568
REMARK INTER:                  -5.903
REMARK INTRA:                  -0.665
REMARK UNBOUND:                -0.648
REMARK SMILES C=C1C=C[C@H](C(C)C)CCC(C)=CCC1
REMARK SMILES IDX 3 1 4 2 5 3 9 4 10 5 11 6 12 7 13 8 6 10 7 11 8 12 2 13 1 14
REMARK SMILES IDX 15 15 14 16
REMARK H PARENT
REMARK Flexibility Score: 70.00
ROOT
ATOM      1  C   UNL     1     147.140 146.736 162.818  1.00  0.00    -0.001 C 
ATOM      2  C   UNL     1     147.956 145.708 162.534  1.00  0.00    -0.023 C 
ENDROOT
BRANCH   2   3
ATOM      3  C   UNL     1     148.421 144.657 163.530  1.00  0.00     0.014 C 
BRANCH   3   4
ATOM      4  C   UNL     1     147.599 143.356 163.357  1.00  0.00     0.012 C 
BRANCH   4   5
ATOM      5  C   UNL     1     146.822 142.928 164.617  1.00  0.00     0.031 C 
BRANCH   5   6
ATOM      6  C   UNL     1     145.319 143.130 164.490  1.00  0.00    -0.077 C 
ATOM      7  C   UNL     1     144.507 142.032 163.847  1.00  0.00     0.039 C 
ATOM      8  C   UNL     1     144.656 144.245 164.888  1.00  0.00    -0.028 CG0
ATOM      9  G   UNL     1     145.252 145.479 165.529  1.00  0.00     0.000 G0
ENDBRANCH   5   6
ENDBRANCH   4   5
ENDBRANCH   3   4
BRANCH   3  10
ATOM     10  C   UNL     1     149.953 144.373 163.414  1.00  0.00    -0.010 C 
ATOM     11  C   UNL     1     150.703 144.804 164.681  1.00  0.00     0.008 C 
ATOM     12  C   UNL     1     150.619 145.000 162.176  1.00  0.00     0.008 C 
ENDBRANCH   3  10
ENDBRANCH   2   3
BRANCH   1  13
ATOM     13  C   UNL     1     146.644 147.073 164.168  1.00  0.00    -0.055 C 
ATOM     14  C   UNL     1     147.359 147.867 164.970  1.00  0.00     0.012 C 
BRANCH  13  15
ATOM     15  C   UNL     1     145.243 146.666 164.558  1.00  0.00     0.039 C 
BRANCH  15  16
ATOM     16  C   UNL     1     145.231 145.489 165.539  1.00  0.00     0.032 CG0
ATOM     17  G   UNL     1     144.647 144.246 164.903  1.00  0.00     0.000 G0
ENDBRANCH  15  16
ENDBRANCH  13  15
ENDBRANCH   1  13
TORSDOF 1
ENDMDL
MODEL 3
REMARK VINA RESULT:    -4.007      2.244      4.660
REMARK INTER + INTRA:          -6.530
REMARK INTER:                  -5.913
REMARK INTRA:                  -0.617
REMARK UNBOUND:                -0.648
REMARK SMILES C=C1C=C[C@H](C(C)C)CCC(C)=CCC1
REMARK SMILES IDX 3 1 4 2 5 3 9 4 10 5 11 6 12 7 13 8 6 10 7 11 8 12 2 13 1 14
REMARK SMILES IDX 15 15 14 16
REMARK H PARENT
REMARK Flexibility Score: 70.00
ROOT
ATOM      1  C   UNL     1     146.575 143.030 164.875  1.00  0.00    -0.001 C 
ATOM      2  C   UNL     1     147.798 143.519 165.135  1.00  0.00    -0.023 C 
ENDROOT
BRANCH   2   3
ATOM      3  C   UNL     1     148.623 144.369 164.182  1.00  0.00     0.014 C 
BRANCH   3   4
ATOM      4  C   UNL     1     148.472 145.869 164.536  1.00  0.00     0.012 C 
BRANCH   4   5
ATOM      5  C   UNL     1     148.009 146.752 163.362  1.00  0.00     0.031 C 
BRANCH   5   6
ATOM      6  C   UNL     1     146.608 147.315 163.552  1.00  0.00    -0.077 C 
ATOM      7  C   UNL     1     146.466 148.637 164.267  1.00  0.00     0.039 C 
ATOM      8  C   UNL     1     145.468 146.697 163.151  1.00  0.00    -0.028 CG0
ATOM      9  G   UNL     1     145.355 145.364 162.444  1.00  0.00     0.000 G0
ENDBRANCH   5   6
ENDBRANCH   4   5
ENDBRANCH   3   4
BRANCH   3  10
ATOM     10  C   UNL     1     150.127 143.945 164.167  1.00  0.00    -0.010 C 
ATOM     11  C   UNL     1     150.341 142.601 164.875  1.00  0.00     0.008 C 
ATOM     12  C   UNL     1     151.087 144.999 164.748  1.00  0.00     0.008 C 
ENDBRANCH   3  10
ENDBRANCH   2   3
BRANCH   1  13
ATOM     13  C   UNL     1     145.874 143.153 163.579  1.00  0.00    -0.055 C 
ATOM     14  C   UNL     1     146.014 142.207 162.646  1.00  0.00     0.012 C 
BRANCH  13  15
ATOM     15  C   UNL     1     144.858 144.254 163.396  1.00  0.00     0.039 C 
BRANCH  15  16
ATOM     16  C   UNL     1     145.360 145.356 162.455  1.00  0.00     0.032 CG0
ATOM     17  G   UNL     1     145.449 146.690 163.164  1.00  0.00     0.000 G0
ENDBRANCH  15  16
ENDBRANCH  13  15
ENDBRANCH   1  13
TORSDOF 1
ENDMDL
MODEL 4
REMARK VINA RESULT:    -3.995      3.935      5.597
REMARK INTER + INTRA:          -6.512
REMARK INTER:                  -5.869
REMARK INTRA:                  -0.643
REMARK UNBOUND:                -0.648
REMARK SMILES C=C1C=C[C@H](C(C)C)CCC(C)=CCC1
REMARK SMILES IDX 3 1 4 2 5 3 9 4 10 5 11 6 12 7 13 8 6 10 7 11 8 12 2 13 1 14
REMARK SMILES IDX 15 15 14 16
REMARK H PARENT
REMARK Flexibility Score: 70.00
ROOT
ATOM      1  C   UNL     1     139.992 145.965 162.818  1.00  0.00    -0.001 C 
ATOM      2  C   UNL     1     140.471 145.844 161.570  1.00  0.00    -0.023 C 
ENDROOT
BRANCH   2   3
ATOM      3  C   UNL     1     141.931 145.995 161.172  1.00  0.00     0.014 C 
BRANCH   3   4
ATOM      4  C   UNL     1     142.526 144.619 160.786  1.00  0.00     0.012 C 
BRANCH   4   5
ATOM      5  C   UNL     1     143.773 144.220 161.598  1.00  0.00     0.031 C 
BRANCH   5   6
ATOM      6  C   UNL     1     143.464 143.253 162.732  1.00  0.00    -0.077 C 
ATOM      7  C   UNL     1     143.560 141.773 162.449  1.00  0.00     0.039 C 
ATOM      8  C   UNL     1     143.077 143.625 163.978  1.00  0.00    -0.028 CG0
ATOM      9  G   UNL     1     142.886 145.037 164.488  1.00  0.00     0.000 G0
ENDBRANCH   5   6
ENDBRANCH   4   5
ENDBRANCH   3   4
BRANCH   3  10
ATOM     10  C   UNL     1     142.122 147.033 160.019  1.00  0.00    -0.010 C 
ATOM     11  C   UNL     1     143.331 147.942 160.275  1.00  0.00     0.008 C 
ATOM     12  C   UNL     1     140.877 147.891 159.729  1.00  0.00     0.008 C 
ENDBRANCH   3  10
ENDBRANCH   2   3
BRANCH   1  13
ATOM     13  C   UNL     1     140.792 146.368 163.994  1.00  0.00    -0.055 C 
ATOM     14  C   UNL     1     140.827 147.647 164.379  1.00  0.00     0.012 C 
BRANCH  13  15
ATOM     15  C   UNL     1     141.412 145.299 164.862  1.00  0.00     0.039 C 
BRANCH  15  16
ATOM     16  C   UNL     1     142.881 145.041 164.505  1.00  0.00     0.032 CG0
ATOM     17  G   UNL     1     143.083 143.635 163.983  1.00  0.00     0.000 G0
ENDBRANCH  15  16
ENDBRANCH  13  15
ENDBRANCH   1  13
TORSDOF 1
ENDMDL
MODEL 5
REMARK VINA RESULT:    -3.990      2.785      5.344
REMARK INTER + INTRA:          -6.504
REMARK INTER:                  -5.979
REMARK INTRA:                  -0.525
REMARK UNBOUND:                -0.648
REMARK SMILES C=C1C=C[C@H](C(C)C)CCC(C)=CCC1
REMARK SMILES IDX 3 1 4 2 5 3 9 4 10 5 11 6 12 7 13 8 6 10 7 11 8 12 2 13 1 14
REMARK SMILES IDX 15 15 14 16
REMARK H PARENT
REMARK Flexibility Score: 70.00
ROOT
ATOM      1  C   UNL     1     147.474 143.160 162.866  1.00  0.00    -0.001 C 
ATOM      2  C   UNL     1     146.394 142.366 162.953  1.00  0.00    -0.023 C 
ENDROOT
BRANCH   2   3
ATOM      3  C   UNL     1     145.460 142.285 164.150  1.00  0.00     0.014 C 
BRANCH   3   4
ATOM      4  C   UNL     1     144.312 143.315 164.003  1.00  0.00     0.012 C 
BRANCH   4   5
ATOM      5  C   UNL     1     144.162 144.269 165.203  1.00  0.00     0.031 C 
BRANCH   5   6
ATOM      6  C   UNL     1     144.310 145.736 164.824  1.00  0.00    -0.077 C 
ATOM      7  C   UNL     1     143.078 146.477 164.365  1.00  0.00     0.039 C 
ATOM      8  C   UNL     1     145.481 146.420 164.840  1.00  0.00    -0.028 CG0
ATOM      9  G   UNL     1     146.841 145.889 165.234  1.00  0.00     0.000 G0
ENDBRANCH   5   6
ENDBRANCH   4   5
ENDBRANCH   3   4
BRANCH   3  10
ATOM     10  C   UNL     1     144.897 140.843 164.361  1.00  0.00    -0.010 C 
ATOM     11  C   UNL     1     145.013 140.001 163.084  1.00  0.00     0.008 C 
ATOM     12  C   UNL     1     143.450 140.800 164.883  1.00  0.00     0.008 C 
ENDBRANCH   3  10
ENDBRANCH   2   3
BRANCH   1  13
ATOM     13  C   UNL     1     147.989 144.009 163.961  1.00  0.00    -0.055 C 
ATOM     14  C   UNL     1     148.871 143.518 164.836  1.00  0.00     0.012 C 
BRANCH  13  15
ATOM     15  C   UNL     1     147.653 145.481 163.968  1.00  0.00     0.039 C 
BRANCH  15  16
ATOM     16  C   UNL     1     146.850 145.888 165.208  1.00  0.00     0.032 CG0
ATOM     17  G   UNL     1     145.480 146.410 164.832  1.00  0.00     0.000 G0
ENDBRANCH  15  16
ENDBRANCH  13  15
ENDBRANCH   1  13
TORSDOF 1
ENDMDL
MODEL 6
REMARK VINA RESULT:    -3.961      2.031      4.562
REMARK INTER + INTRA:          -6.462
REMARK INTER:                  -6.124
REMARK INTRA:                  -0.338
REMARK UNBOUND:                -0.648
REMARK SMILES C=C1C=C[C@H](C(C)C)CCC(C)=CCC1
REMARK SMILES IDX 3 1 4 2 5 3 9 4 10 5 11 6 12 7 13 8 6 10 7 11 8 12 2 13 1 14
REMARK SMILES IDX 15 15 14 16
REMARK H PARENT
REMARK Flexibility Score: 70.00
ROOT
ATOM      1  C   UNL     1     143.878 147.577 164.878  1.00  0.00    -0.001 C 
ATOM      2  C   UNL     1     142.814 146.757 164.865  1.00  0.00    -0.023 C 
ENDROOT
BRANCH   2   3
ATOM      3  C   UNL     1     142.416 145.855 163.708  1.00  0.00     0.014 C 
BRANCH   3   4
ATOM      4  C   UNL     1     143.231 144.539 163.750  1.00  0.00     0.012 C 
BRANCH   4   5
ATOM      5  C   UNL     1     144.025 144.330 165.054  1.00  0.00     0.031 C 
BRANCH   5   6
ATOM      6  C   UNL     1     145.484 143.967 164.815  1.00  0.00    -0.077 C 
ATOM      7  C   UNL     1     145.829 142.511 164.618  1.00  0.00     0.039 C 
ATOM      8  C   UNL     1     146.506 144.859 164.795  1.00  0.00    -0.028 CG0
ATOM      9  G   UNL     1     146.412 146.356 164.993  1.00  0.00     0.000 G0
ENDBRANCH   5   6
ENDBRANCH   4   5
ENDBRANCH   3   4
BRANCH   3  10
ATOM     10  C   UNL     1     140.881 145.565 163.688  1.00  0.00    -0.010 C 
ATOM     11  C   UNL     1     140.308 145.656 162.268  1.00  0.00     0.008 C 
ATOM     12  C   UNL     1     140.058 146.451 164.640  1.00  0.00     0.008 C 
ENDBRANCH   3  10
ENDBRANCH   2   3
BRANCH   1  13
ATOM     13  C   UNL     1     144.778 147.810 163.730  1.00  0.00    -0.055 C 
ATOM     14  C   UNL     1     144.499 148.767 162.840  1.00  0.00     0.012 C 
BRANCH  13  15
ATOM     15  C   UNL     1     146.103 147.089 163.677  1.00  0.00     0.039 C 
BRANCH  15  16
ATOM     16  C   UNL     1     146.422 146.362 164.988  1.00  0.00     0.032 CG0
ATOM     17  G   UNL     1     146.505 144.865 164.784  1.00  0.00     0.000 G0
ENDBRANCH  15  16
ENDBRANCH  13  15
ENDBRANCH   1  13
TORSDOF 1
ENDMDL
MODEL 7
REMARK VINA RESULT:    -3.958      2.361      4.801
REMARK INTER + INTRA:          -6.458
REMARK INTER:                  -5.912
REMARK INTRA:                  -0.546
REMARK UNBOUND:                -0.648
REMARK SMILES C=C1C=C[C@H](C(C)C)CCC(C)=CCC1
REMARK SMILES IDX 3 1 4 2 5 3 9 4 10 5 11 6 12 7 13 8 6 10 7 11 8 12 2 13 1 14
REMARK SMILES IDX 15 15 14 16
REMARK H PARENT
REMARK Flexibility Score: 70.00
ROOT
ATOM      1  C   UNL     1     143.046 143.477 163.054  1.00  0.00    -0.001 C 
ATOM      2  C   UNL     1     142.552 144.706 163.277  1.00  0.00    -0.023 C 
ENDROOT
BRANCH   2   3
ATOM      3  C   UNL     1     142.896 145.586 164.467  1.00  0.00     0.014 C 
BRANCH   3   4
ATOM      4  C   UNL     1     144.225 146.339 164.209  1.00  0.00     0.012 C 
BRANCH   4   5
ATOM      5  C   UNL     1     145.310 146.086 165.272  1.00  0.00     0.031 C 
BRANCH   5   6
ATOM      6  C   UNL     1     146.648 145.670 164.675  1.00  0.00    -0.077 C 
ATOM      7  C   UNL     1     147.590 146.757 164.221  1.00  0.00     0.039 C 
ATOM      8  C   UNL     1     147.043 144.385 164.493  1.00  0.00    -0.028 CG0
ATOM      9  G   UNL     1     146.265 143.135 164.842  1.00  0.00     0.000 G0
ENDBRANCH   5   6
ENDBRANCH   4   5
ENDBRANCH   3   4
BRANCH   3  10
ATOM     10  C   UNL     1     141.744 146.583 164.814  1.00  0.00    -0.010 C 
ATOM     11  C   UNL     1     140.473 145.845 165.252  1.00  0.00     0.008 C 
ATOM     12  C   UNL     1     141.408 147.576 163.687  1.00  0.00     0.008 C 
ENDBRANCH   3  10
ENDBRANCH   2   3
BRANCH   1  13
ATOM     13  C   UNL     1     143.926 142.739 163.984  1.00  0.00    -0.055 C 
ATOM     14  C   UNL     1     143.401 142.028 164.987  1.00  0.00     0.012 C 
BRANCH  13  15
ATOM     15  C   UNL     1     145.401 142.644 163.680  1.00  0.00     0.039 C 
BRANCH  15  16
ATOM     16  C   UNL     1     146.268 143.134 164.846  1.00  0.00     0.032 CG0
ATOM     17  G   UNL     1     147.025 144.392 164.481  1.00  0.00     0.000 G0
ENDBRANCH  15  16
ENDBRANCH  13  15
ENDBRANCH   1  13
TORSDOF 1
ENDMDL
MODEL 8
REMARK VINA RESULT:    -3.952      2.422      4.007
REMARK INTER + INTRA:          -6.449
REMARK INTER:                  -5.874
REMARK INTRA:                  -0.575
REMARK UNBOUND:                -0.648
REMARK SMILES C=C1C=C[C@H](C(C)C)CCC(C)=CCC1
REMARK SMILES IDX 3 1 4 2 5 3 9 4 10 5 11 6 12 7 13 8 6 10 7 11 8 12 2 13 1 14
REMARK SMILES IDX 15 15 14 16
REMARK H PARENT
REMARK Flexibility Score: 70.00
ROOT
ATOM      1  C   UNL     1     145.925 150.633 162.608  1.00  0.00    -0.001 C 
ATOM      2  C   UNL     1     146.087 150.178 161.355  1.00  0.00    -0.023 C 
ENDROOT
BRANCH   2   3
ATOM      3  C   UNL     1     146.654 148.818 160.982  1.00  0.00     0.014 C 
BRANCH   3   4
ATOM      4  C   UNL     1     145.517 147.871 160.525  1.00  0.00     0.012 C 
BRANCH   4   5
ATOM      5  C   UNL     1     145.171 146.764 161.539  1.00  0.00     0.031 C 
BRANCH   5   6
ATOM      6  C   UNL     1     143.925 147.070 162.358  1.00  0.00    -0.077 C 
ATOM      7  C   UNL     1     142.580 146.889 161.697  1.00  0.00     0.039 C 
ATOM      8  C   UNL     1     143.936 147.525 163.636  1.00  0.00    -0.028 CG0
ATOM      9  G   UNL     1     145.152 147.807 164.492  1.00  0.00     0.000 G0
ENDBRANCH   5   6
ENDBRANCH   4   5
ENDBRANCH   3   4
BRANCH   3  10
ATOM     10  C   UNL     1     147.768 148.924 159.891  1.00  0.00    -0.010 C 
ATOM     11  C   UNL     1     147.170 149.125 158.493  1.00  0.00     0.008 C 
ATOM     12  C   UNL     1     148.749 147.738 159.874  1.00  0.00     0.008 C 
ENDBRANCH   3  10
ENDBRANCH   2   3
BRANCH   1  13
ATOM     13  C   UNL     1     146.367 149.924 163.827  1.00  0.00    -0.055 C 
ATOM     14  C   UNL     1     147.648 149.964 164.202  1.00  0.00     0.012 C 
BRANCH  13  15
ATOM     15  C   UNL     1     145.329 149.315 164.740  1.00  0.00     0.039 C 
BRANCH  15  16
ATOM     16  C   UNL     1     145.153 147.812 164.498  1.00  0.00     0.032 CG0
ATOM     17  G   UNL     1     143.938 147.529 163.641  1.00  0.00     0.000 G0
ENDBRANCH  15  16
ENDBRANCH  13  15
ENDBRANCH   1  13
TORSDOF 1
ENDMDL
MODEL 9
REMARK VINA RESULT:    -3.893      2.556      6.003
REMARK INTER + INTRA:          -6.362
REMARK INTER:                  -5.805
REMARK INTRA:                  -0.557
REMARK UNBOUND:                -0.648
REMARK SMILES C=C1C=C[C@H](C(C)C)CCC(C)=CCC1
REMARK SMILES IDX 3 1 4 2 5 3 9 4 10 5 11 6 12 7 13 8 6 10 7 11 8 12 2 13 1 14
REMARK SMILES IDX 15 15 14 16
REMARK H PARENT
REMARK Flexibility Score: 70.00
ROOT
ATOM      1  C   UNL     1     142.850 144.253 164.570  1.00  0.00    -0.001 C 
ATOM      2  C   UNL     1     143.424 143.119 165.004  1.00  0.00    -0.023 C 
ENDROOT
BRANCH   2   3
ATOM      3  C   UNL     1     144.598 142.420 164.338  1.00  0.00     0.014 C 
BRANCH   3   4
ATOM      4  C   UNL     1     145.935 142.990 164.872  1.00  0.00     0.012 C 
BRANCH   4   5
ATOM      5  C   UNL     1     146.990 143.254 163.781  1.00  0.00     0.031 C 
BRANCH   5   6
ATOM      6  C   UNL     1     147.461 144.701 163.741  1.00  0.00    -0.077 C 
ATOM      7  C   UNL     1     148.754 145.045 164.439  1.00  0.00     0.039 C 
ATOM      8  C   UNL     1     146.784 145.715 163.147  1.00  0.00    -0.028 CG0
ATOM      9  G   UNL     1     145.463 145.622 162.413  1.00  0.00     0.000 G0
ENDBRANCH   5   6
ENDBRANCH   4   5
ENDBRANCH   3   4
BRANCH   3  10
ATOM     10  C   UNL     1     144.538 140.869 164.517  1.00  0.00    -0.010 C 
ATOM     11  C   UNL     1     144.999 140.137 163.250  1.00  0.00     0.008 C 
ATOM     12  C   UNL     1     143.162 140.336 164.955  1.00  0.00     0.008 C 
ENDBRANCH   3  10
ENDBRANCH   2   3
BRANCH   1  13
ATOM     13  C   UNL     1     143.201 144.950 163.315  1.00  0.00    -0.055 C 
ATOM     14  C   UNL     1     142.456 144.779 162.219  1.00  0.00     0.012 C 
BRANCH  13  15
ATOM     15  C   UNL     1     144.290 145.995 163.335  1.00  0.00     0.039 C 
BRANCH  15  16
ATOM     16  C   UNL     1     145.459 145.634 162.412  1.00  0.00     0.032 CG0
ATOM     17  G   UNL     1     146.784 145.726 163.138  1.00  0.00     0.000 G0
ENDBRANCH  15  16
ENDBRANCH  13  15
ENDBRANCH   1  13
TORSDOF 1
ENDMDL
