MODEL 1
REMARK VINA RESULT:    -4.734      0.000      0.000
REMARK INTER + INTRA:          -7.223
REMARK INTER:                  -6.948
REMARK INTRA:                  -0.275
REMARK UNBOUND:                -0.275
REMARK SMILES O=C([O-])CCCCCCCC(=O)[O-]
REMARK SMILES IDX 7 1 6 2 5 3 4 4 2 5 1 6 3 7 8 8 9 9 10 10 11 11 12 12 13 13
REMARK H PARENT
REMARK Flexibility Score: inf
ROOT
ATOM      1  C   UNL     1      20.922 -11.070  23.471  1.00  0.00     0.000 C 
ENDROOT
BRANCH   1   2
ATOM      2  C   UNL     1      21.915 -10.763  22.335  1.00  0.00     0.000 C 
BRANCH   2   3
ATOM      3  C   UNL     1      22.561 -12.032  21.758  1.00  0.00     0.006 C 
BRANCH   3   4
ATOM      4  C   UNL     1      21.540 -12.962  21.088  1.00  0.00     0.053 C 
BRANCH   4   5
ATOM      5  C   UNL     1      22.226 -14.153  20.499  1.00  0.00     0.041 C 
ATOM      6  O   UNL     1      21.959 -14.524  19.326  1.00  0.00    -0.550 OA
ATOM      7  O   UNL     1      23.199 -14.825  21.228  1.00  0.00    -0.550 OA
ENDBRANCH   4   5
ENDBRANCH   3   4
ENDBRANCH   2   3
ENDBRANCH   1   2
BRANCH   1   8
ATOM      8  C   UNL     1      20.781  -9.904  24.462  1.00  0.00     0.000 C 
BRANCH   8   9
ATOM      9  C   UNL     1      21.247  -8.565  23.869  1.00  0.00     0.006 C 
BRANCH   9  10
ATOM     10  C   UNL     1      21.861  -7.671  24.951  1.00  0.00     0.053 C 
BRANCH  10  11
ATOM     11  C   UNL     1      20.836  -7.314  25.979  1.00  0.00     0.041 C 
ATOM     12  O   UNL     1      21.121  -7.367  27.204  1.00  0.00    -0.550 OA
ATOM     13  O   UNL     1      19.549  -6.968  25.587  1.00  0.00    -0.550 OA
ENDBRANCH  10  11
ENDBRANCH   9  10
ENDBRANCH   8   9
ENDBRANCH   1   8
TORSDOF 8
ENDMDL
MODEL 2
REMARK VINA RESULT:    -4.714      1.188      7.090
REMARK INTER + INTRA:          -7.193
REMARK INTER:                  -6.842
REMARK INTRA:                  -0.351
REMARK UNBOUND:                -0.275
REMARK SMILES O=C([O-])CCCCCCCC(=O)[O-]
REMARK SMILES IDX 7 1 6 2 5 3 4 4 2 5 1 6 3 7 8 8 9 9 10 10 11 11 12 12 13 13
REMARK H PARENT
REMARK Flexibility Score: inf
ROOT
ATOM      1  C   UNL     1      20.748 -11.096  23.471  1.00  0.00     0.000 C 
ENDROOT
BRANCH   1   2
ATOM      2  C   UNL     1      20.397 -10.227  24.692  1.00  0.00     0.000 C 
BRANCH   2   3
ATOM      3  C   UNL     1      21.247  -8.949  24.771  1.00  0.00     0.006 C 
BRANCH   3   4
ATOM      4  C   UNL     1      20.572  -7.841  25.589  1.00  0.00     0.053 C 
BRANCH   4   5
ATOM      5  C   UNL     1      19.882  -6.870  24.684  1.00  0.00     0.041 C 
ATOM      6  O   UNL     1      20.343  -6.634  23.537  1.00  0.00    -0.550 OA
ATOM      7  O   UNL     1      18.700  -6.263  25.088  1.00  0.00    -0.550 OA
ENDBRANCH   4   5
ENDBRANCH   3   4
ENDBRANCH   2   3
ENDBRANCH   1   2
BRANCH   1   8
ATOM      8  C   UNL     1      21.861 -10.480  22.609  1.00  0.00     0.000 C 
BRANCH   8   9
ATOM      9  C   UNL     1      22.578 -11.523  21.737  1.00  0.00     0.006 C 
BRANCH   9  10
ATOM     10  C   UNL     1      21.613 -12.629  21.301  1.00  0.00     0.053 C 
BRANCH  10  11
ATOM     11  C   UNL     1      22.369 -13.854  20.896  1.00  0.00     0.041 C 
ATOM     12  O   UNL     1      23.337 -14.260  21.590  1.00  0.00    -0.550 OA
ATOM     13  O   UNL     1      22.036 -14.522  19.724  1.00  0.00    -0.550 OA
ENDBRANCH  10  11
ENDBRANCH   9  10
ENDBRANCH   8   9
ENDBRANCH   1   8
TORSDOF 8
ENDMDL
MODEL 3
REMARK VINA RESULT:    -4.686      2.207      3.350
REMARK INTER + INTRA:          -7.152
REMARK INTER:                  -6.971
REMARK INTRA:                  -0.181
REMARK UNBOUND:                -0.275
REMARK SMILES O=C([O-])CCCCCCCC(=O)[O-]
REMARK SMILES IDX 7 1 6 2 5 3 4 4 2 5 1 6 3 7 8 8 9 9 10 10 11 11 12 12 13 13
REMARK H PARENT
REMARK Flexibility Score: inf
ROOT
ATOM      1  C   UNL     1      23.223 -12.868  21.723  1.00  0.00     0.000 C 
ENDROOT
BRANCH   1   2
ATOM      2  C   UNL     1      22.275 -13.764  20.907  1.00  0.00     0.000 C 
BRANCH   2   3
ATOM      3  C   UNL     1      22.952 -15.057  20.427  1.00  0.00     0.006 C 
BRANCH   3   4
ATOM      4  C   UNL     1      22.769 -15.294  18.922  1.00  0.00     0.053 C 
BRANCH   4   5
ATOM      5  C   UNL     1      23.064 -16.720  18.579  1.00  0.00     0.041 C 
ATOM      6  O   UNL     1      23.089 -17.598  19.480  1.00  0.00    -0.550 OA
ATOM      7  O   UNL     1      23.265 -17.088  17.254  1.00  0.00    -0.550 OA
ENDBRANCH   4   5
ENDBRANCH   3   4
ENDBRANCH   2   3
ENDBRANCH   1   2
BRANCH   1   8
ATOM      8  C   UNL     1      22.774 -11.398  21.745  1.00  0.00     0.000 C 
BRANCH   8   9
ATOM      9  C   UNL     1      21.546 -11.169  22.639  1.00  0.00     0.006 C 
BRANCH   9  10
ATOM     10  C   UNL     1      21.610  -9.797  23.318  1.00  0.00     0.053 C 
BRANCH  10  11
ATOM     11  C   UNL     1      20.727  -9.767  24.524  1.00  0.00     0.041 C 
ATOM     12  O   UNL     1      20.382 -10.840  25.085  1.00  0.00    -0.550 OA
ATOM     13  O   UNL     1      20.244  -8.556  25.003  1.00  0.00    -0.550 OA
ENDBRANCH  10  11
ENDBRANCH   9  10
ENDBRANCH   8   9
ENDBRANCH   1   8
TORSDOF 8
ENDMDL
MODEL 4
REMARK VINA RESULT:    -4.683      1.707      2.757
REMARK INTER + INTRA:          -7.148
REMARK INTER:                  -7.003
REMARK INTRA:                  -0.145
REMARK UNBOUND:                -0.275
REMARK SMILES O=C([O-])CCCCCCCC(=O)[O-]
REMARK SMILES IDX 7 1 6 2 5 3 4 4 2 5 1 6 3 7 8 8 9 9 10 10 11 11 12 12 13 13
REMARK H PARENT
REMARK Flexibility Score: inf
ROOT
ATOM      1  C   UNL     1      22.219 -12.119  21.616  1.00  0.00     0.000 C 
ENDROOT
BRANCH   1   2
ATOM      2  C   UNL     1      21.775 -13.407  20.900  1.00  0.00     0.000 C 
BRANCH   2   3
ATOM      3  C   UNL     1      22.911 -14.435  20.777  1.00  0.00     0.006 C 
BRANCH   3   4
ATOM      4  C   UNL     1      22.778 -15.314  19.526  1.00  0.00     0.053 C 
BRANCH   4   5
ATOM      5  C   UNL     1      23.106 -16.736  19.851  1.00  0.00     0.041 C 
ATOM      6  O   UNL     1      23.501 -17.049  21.004  1.00  0.00    -0.550 OA
ATOM      7  O   UNL     1      22.929 -17.726  18.892  1.00  0.00    -0.550 OA
ENDBRANCH   4   5
ENDBRANCH   3   4
ENDBRANCH   2   3
ENDBRANCH   1   2
BRANCH   1   8
ATOM      8  C   UNL     1      21.121 -11.539  22.522  1.00  0.00     0.000 C 
BRANCH   8   9
ATOM      9  C   UNL     1      21.495 -10.164  23.098  1.00  0.00     0.006 C 
BRANCH   9  10
ATOM     10  C   UNL     1      20.760  -9.905  24.416  1.00  0.00     0.053 C 
BRANCH  10  11
ATOM     11  C   UNL     1      20.812  -8.452  24.768  1.00  0.00     0.041 C 
ATOM     12  O   UNL     1      20.767  -7.578  23.863  1.00  0.00    -0.550 OA
ATOM     13  O   UNL     1      20.960  -8.062  26.093  1.00  0.00    -0.550 OA
ENDBRANCH  10  11
ENDBRANCH   9  10
ENDBRANCH   8   9
ENDBRANCH   1   8
TORSDOF 8
ENDMDL
MODEL 5
REMARK VINA RESULT:    -4.641      3.204      4.650
REMARK INTER + INTRA:          -7.086
REMARK INTER:                  -6.807
REMARK INTRA:                  -0.279
REMARK UNBOUND:                -0.275
REMARK SMILES O=C([O-])CCCCCCCC(=O)[O-]
REMARK SMILES IDX 7 1 6 2 5 3 4 4 2 5 1 6 3 7 8 8 9 9 10 10 11 11 12 12 13 13
REMARK H PARENT
REMARK Flexibility Score: inf
ROOT
ATOM      1  C   UNL     1      23.322 -14.357  21.199  1.00  0.00     0.000 C 
ENDROOT
BRANCH   1   2
ATOM      2  C   UNL     1      22.303 -14.478  20.052  1.00  0.00     0.000 C 
BRANCH   2   3
ATOM      3  C   UNL     1      22.798 -15.387  18.916  1.00  0.00     0.006 C 
BRANCH   3   4
ATOM      4  C   UNL     1      23.074 -16.822  19.387  1.00  0.00     0.053 C 
BRANCH   4   5
ATOM      5  C   UNL     1      22.996 -17.772  18.235  1.00  0.00     0.041 C 
ATOM      6  O   UNL     1      23.583 -17.509  17.153  1.00  0.00    -0.550 OA
ATOM      7  O   UNL     1      22.315 -18.976  18.372  1.00  0.00    -0.550 OA
ENDBRANCH   4   5
ENDBRANCH   3   4
ENDBRANCH   2   3
ENDBRANCH   1   2
BRANCH   1   8
ATOM      8  C   UNL     1      23.297 -12.973  21.866  1.00  0.00     0.000 C 
BRANCH   8   9
ATOM      9  C   UNL     1      22.082 -12.133  21.441  1.00  0.00     0.006 C 
BRANCH   9  10
ATOM     10  C   UNL     1      21.792 -11.032  22.465  1.00  0.00     0.053 C 
BRANCH  10  11
ATOM     11  C   UNL     1      20.544 -11.341  23.227  1.00  0.00     0.041 C 
ATOM     12  O   UNL     1      20.410 -10.941  24.413  1.00  0.00    -0.550 OA
ATOM     13  O   UNL     1      19.546 -12.112  22.645  1.00  0.00    -0.550 OA
ENDBRANCH  10  11
ENDBRANCH   9  10
ENDBRANCH   8   9
ENDBRANCH   1   8
TORSDOF 8
ENDMDL
MODEL 6
REMARK VINA RESULT:    -4.616      1.358      7.597
REMARK INTER + INTRA:          -7.049
REMARK INTER:                  -6.748
REMARK INTRA:                  -0.301
REMARK UNBOUND:                -0.275
REMARK SMILES O=C([O-])CCCCCCCC(=O)[O-]
REMARK SMILES IDX 7 1 6 2 5 3 4 4 2 5 1 6 3 7 8 8 9 9 10 10 11 11 12 12 13 13
REMARK H PARENT
REMARK Flexibility Score: inf
ROOT
ATOM      1  C   UNL     1      21.170 -12.244  21.647  1.00  0.00     0.000 C 
ENDROOT
BRANCH   1   2
ATOM      2  C   UNL     1      20.465 -11.517  22.806  1.00  0.00     0.000 C 
BRANCH   2   3
ATOM      3  C   UNL     1      21.396 -10.542  23.544  1.00  0.00     0.006 C 
BRANCH   3   4
ATOM      4  C   UNL     1      20.676  -9.768  24.657  1.00  0.00     0.053 C 
BRANCH   4   5
ATOM      5  C   UNL     1      21.138  -8.346  24.685  1.00  0.00     0.041 C 
ATOM      6  O   UNL     1      21.841  -7.926  25.640  1.00  0.00    -0.550 OA
ATOM      7  O   UNL     1      20.832  -7.495  23.630  1.00  0.00    -0.550 OA
ENDBRANCH   4   5
ENDBRANCH   3   4
ENDBRANCH   2   3
ENDBRANCH   1   2
BRANCH   1   8
ATOM      8  C   UNL     1      22.690 -12.339  21.847  1.00  0.00     0.000 C 
BRANCH   8   9
ATOM      9  C   UNL     1      23.300 -13.575  21.167  1.00  0.00     0.006 C 
BRANCH   9  10
ATOM     10  C   UNL     1      22.241 -14.336  20.363  1.00  0.00     0.053 C 
BRANCH  10  11
ATOM     11  C   UNL     1      22.869 -15.456  19.597  1.00  0.00     0.041 C 
ATOM     12  O   UNL     1      22.960 -15.396  18.343  1.00  0.00    -0.550 OA
ATOM     13  O   UNL     1      23.312 -16.592  20.264  1.00  0.00    -0.550 OA
ENDBRANCH  10  11
ENDBRANCH   9  10
ENDBRANCH   8   9
ENDBRANCH   1   8
TORSDOF 8
ENDMDL
MODEL 7
REMARK VINA RESULT:    -4.567      1.552      2.169
REMARK INTER + INTRA:          -6.978
REMARK INTER:                  -6.632
REMARK INTRA:                  -0.346
REMARK UNBOUND:                -0.275
REMARK SMILES O=C([O-])CCCCCCCC(=O)[O-]
REMARK SMILES IDX 7 1 6 2 5 3 4 4 2 5 1 6 3 7 8 8 9 9 10 10 11 11 12 12 13 13
REMARK H PARENT
REMARK Flexibility Score: inf
ROOT
ATOM      1  C   UNL     1      20.707  -9.822  24.529  1.00  0.00     0.000 C 
ENDROOT
BRANCH   1   2
ATOM      2  C   UNL     1      21.000 -11.125  23.763  1.00  0.00     0.000 C 
BRANCH   2   3
ATOM      3  C   UNL     1      21.567 -10.869  22.359  1.00  0.00     0.006 C 
BRANCH   3   4
ATOM      4  C   UNL     1      22.622 -11.906  21.951  1.00  0.00     0.053 C 
BRANCH   4   5
ATOM      5  C   UNL     1      21.988 -13.021  21.181  1.00  0.00     0.041 C 
ATOM      6  O   UNL     1      20.785 -12.940  20.822  1.00  0.00    -0.550 OA
ATOM      7  O   UNL     1      22.741 -14.131  20.818  1.00  0.00    -0.550 OA
ENDBRANCH   4   5
ENDBRANCH   3   4
ENDBRANCH   2   3
ENDBRANCH   1   2
BRANCH   1   8
ATOM      8  C   UNL     1      21.478  -8.619  23.963  1.00  0.00     0.000 C 
BRANCH   8   9
ATOM      9  C   UNL     1      21.301  -7.351  24.813  1.00  0.00     0.006 C 
BRANCH   9  10
ATOM     10  C   UNL     1      19.838  -7.172  25.230  1.00  0.00     0.053 C 
BRANCH  10  11
ATOM     11  C   UNL     1      19.237  -5.990  24.539  1.00  0.00     0.041 C 
ATOM     12  O   UNL     1      18.037  -5.673  24.752  1.00  0.00    -0.550 OA
ATOM     13  O   UNL     1      19.986  -5.267  23.620  1.00  0.00    -0.550 OA
ENDBRANCH  10  11
ENDBRANCH   9  10
ENDBRANCH   8   9
ENDBRANCH   1   8
TORSDOF 8
ENDMDL
MODEL 8
REMARK VINA RESULT:    -4.512      4.557      7.205
REMARK INTER + INTRA:          -6.897
REMARK INTER:                  -6.619
REMARK INTRA:                  -0.278
REMARK UNBOUND:                -0.275
REMARK SMILES O=C([O-])CCCCCCCC(=O)[O-]
REMARK SMILES IDX 7 1 6 2 5 3 4 4 2 5 1 6 3 7 8 8 9 9 10 10 11 11 12 12 13 13
REMARK H PARENT
REMARK Flexibility Score: inf
ROOT
ATOM      1  C   UNL     1      22.587 -15.362  18.153  1.00  0.00     0.000 C 
ENDROOT
BRANCH   1   2
ATOM      2  C   UNL     1      22.974 -16.423  17.108  1.00  0.00     0.000 C 
BRANCH   2   3
ATOM      3  C   UNL     1      22.954 -17.849  17.679  1.00  0.00     0.006 C 
BRANCH   3   4
ATOM      4  C   UNL     1      22.434 -18.881  16.670  1.00  0.00     0.053 C 
BRANCH   4   5
ATOM      5  C   UNL     1      21.917 -20.091  17.381  1.00  0.00     0.041 C 
ATOM      6  O   UNL     1      20.741 -20.111  17.829  1.00  0.00    -0.550 OA
ATOM      7  O   UNL     1      22.719 -21.219  17.507  1.00  0.00    -0.550 OA
ENDBRANCH   4   5
ENDBRANCH   3   4
ENDBRANCH   2   3
ENDBRANCH   1   2
BRANCH   1   8
ATOM      8  C   UNL     1      22.960 -15.780  19.584  1.00  0.00     0.000 C 
BRANCH   8   9
ATOM      9  C   UNL     1      22.762 -14.646  20.602  1.00  0.00     0.006 C 
BRANCH   9  10
ATOM     10  C   UNL     1      21.561 -13.774  20.224  1.00  0.00     0.053 C 
BRANCH  10  11
ATOM     11  C   UNL     1      21.345 -12.708  21.250  1.00  0.00     0.041 C 
ATOM     12  O   UNL     1      22.298 -11.967  21.606  1.00  0.00    -0.550 OA
ATOM     13  O   UNL     1      20.100 -12.563  21.851  1.00  0.00    -0.550 OA
ENDBRANCH  10  11
ENDBRANCH   9  10
ENDBRANCH   8   9
ENDBRANCH   1   8
TORSDOF 8
ENDMDL
MODEL 9
REMARK VINA RESULT:    -4.473      1.950      7.510
REMARK INTER + INTRA:          -6.839
REMARK INTER:                  -6.623
REMARK INTRA:                  -0.217
REMARK UNBOUND:                -0.275
REMARK SMILES O=C([O-])CCCCCCCC(=O)[O-]
REMARK SMILES IDX 7 1 6 2 5 3 4 4 2 5 1 6 3 7 8 8 9 9 10 10 11 11 12 12 13 13
REMARK H PARENT
REMARK Flexibility Score: inf
ROOT
ATOM      1  C   UNL     1      20.727  -9.486  24.736  1.00  0.00     0.000 C 
ENDROOT
BRANCH   1   2
ATOM      2  C   UNL     1      21.058  -8.123  25.370  1.00  0.00     0.000 C 
BRANCH   2   3
ATOM      3  C   UNL     1      19.870  -7.150  25.331  1.00  0.00     0.006 C 
BRANCH   3   4
ATOM      4  C   UNL     1      20.018  -6.081  24.239  1.00  0.00     0.053 C 
BRANCH   4   5
ATOM      5  C   UNL     1      18.758  -5.285  24.113  1.00  0.00     0.041 C 
ATOM      6  O   UNL     1      17.752  -5.574  24.813  1.00  0.00    -0.550 OA
ATOM      7  O   UNL     1      18.710  -4.192  23.258  1.00  0.00    -0.550 OA
ENDBRANCH   4   5
ENDBRANCH   3   4
ENDBRANCH   2   3
ENDBRANCH   1   2
BRANCH   1   8
ATOM      8  C   UNL     1      21.470  -9.716  23.410  1.00  0.00     0.000 C 
BRANCH   8   9
ATOM      9  C   UNL     1      21.125 -11.068  22.766  1.00  0.00     0.006 C 
BRANCH   9  10
ATOM     10  C   UNL     1      22.342 -11.659  22.049  1.00  0.00     0.053 C 
BRANCH  10  11
ATOM     11  C   UNL     1      21.945 -12.857  21.245  1.00  0.00     0.041 C 
ATOM     12  O   UNL     1      20.746 -13.021  20.902  1.00  0.00    -0.550 OA
ATOM     13  O   UNL     1      22.893 -13.818  20.916  1.00  0.00    -0.550 OA
ENDBRANCH  10  11
ENDBRANCH   9  10
ENDBRANCH   8   9
ENDBRANCH   1   8
TORSDOF 8
ENDMDL
