MODEL 1
REMARK VINA RESULT:    -3.367      0.000      0.000
REMARK INTER + INTRA:          -8.245
REMARK INTER:                  -5.926
REMARK INTRA:                  -2.319
REMARK UNBOUND:                -2.319
REMARK SMILES CCCCCCCCCCCCCCC(=O)[O-]
REMARK SMILES IDX 9 1 10 2 11 3 12 4 13 5 14 6 15 7 16 8 17 9 8 10 7 11 6 12
REMARK SMILES IDX 5 13 4 14 3 15 2 16 1 17
REMARK H PARENT
REMARK Flexibility Score: inf
ROOT
ATOM      1  C   UNL     1      21.631   2.958  23.599  1.00  0.00     0.000 C 
ENDROOT
BRANCH   1   2
ATOM      2  C   UNL     1      21.232   4.252  24.329  1.00  0.00     0.000 C 
BRANCH   2   3
ATOM      3  C   UNL     1      19.711   4.420  24.456  1.00  0.00     0.000 C 
BRANCH   3   4
ATOM      4  C   UNL     1      19.357   5.315  25.653  1.00  0.00     0.000 C 
BRANCH   4   5
ATOM      5  C   UNL     1      20.395   6.424  25.891  1.00  0.00     0.006 C 
BRANCH   5   6
ATOM      6  C   UNL     1      19.844   7.823  25.585  1.00  0.00     0.053 C 
BRANCH   6   7
ATOM      7  C   UNL     1      20.296   8.276  24.233  1.00  0.00     0.041 C 
ATOM      8  O   UNL     1      19.824   7.744  23.195  1.00  0.00    -0.550 OA
ATOM      9  O   UNL     1      21.276   9.255  24.120  1.00  0.00    -0.550 OA
ENDBRANCH   6   7
ENDBRANCH   5   6
ENDBRANCH   4   5
ENDBRANCH   3   4
ENDBRANCH   2   3
ENDBRANCH   1   2
BRANCH   1  10
ATOM     10  C   UNL     1      21.133   1.657  24.259  1.00  0.00     0.000 C 
BRANCH  10  11
ATOM     11  C   UNL     1      21.598   1.438  25.713  1.00  0.00    -0.000 C 
BRANCH  11  12
ATOM     12  C   UNL     1      20.500   1.603  26.780  1.00  0.00    -0.000 C 
BRANCH  12  13
ATOM     13  C   UNL     1      20.848   2.669  27.835  1.00  0.00    -0.000 C 
BRANCH  13  14
ATOM     14  C   UNL     1      22.368   2.912  27.944  1.00  0.00    -0.000 C 
BRANCH  14  15
ATOM     15  C   UNL     1      22.758   4.398  28.008  1.00  0.00    -0.000 C 
BRANCH  15  16
ATOM     16  C   UNL     1      23.794   4.791  26.947  1.00  0.00    -0.003 C 
ATOM     17  C   UNL     1      24.663   3.598  26.557  1.00  0.00     0.004 C 
ENDBRANCH  15  16
ENDBRANCH  14  15
ENDBRANCH  13  14
ENDBRANCH  12  13
ENDBRANCH  11  12
ENDBRANCH  10  11
ENDBRANCH   1  10
TORSDOF 13
ENDMDL
MODEL 2
REMARK VINA RESULT:    -3.359      1.349      2.185
REMARK INTER + INTRA:          -8.231
REMARK INTER:                  -5.797
REMARK INTRA:                  -2.434
REMARK UNBOUND:                -2.319
REMARK SMILES CCCCCCCCCCCCCCC(=O)[O-]
REMARK SMILES IDX 9 1 10 2 11 3 12 4 13 5 14 6 15 7 16 8 17 9 8 10 7 11 6 12
REMARK SMILES IDX 5 13 4 14 3 15 2 16 1 17
REMARK H PARENT
REMARK Flexibility Score: inf
ROOT
ATOM      1  C   UNL     1      20.545   1.469  24.894  1.00  0.00     0.000 C 
ENDROOT
BRANCH   1   2
ATOM      2  C   UNL     1      22.001   1.924  24.694  1.00  0.00     0.000 C 
BRANCH   2   3
ATOM      3  C   UNL     1      22.108   3.336  24.101  1.00  0.00     0.000 C 
BRANCH   3   4
ATOM      4  C   UNL     1      20.718   3.893  23.760  1.00  0.00     0.000 C 
BRANCH   4   5
ATOM      5  C   UNL     1      20.455   5.264  24.404  1.00  0.00     0.006 C 
BRANCH   5   6
ATOM      6  C   UNL     1      18.962   5.611  24.467  1.00  0.00     0.053 C 
BRANCH   6   7
ATOM      7  C   UNL     1      18.709   6.944  23.837  1.00  0.00     0.041 C 
ATOM      8  O   UNL     1      17.542   7.412  23.792  1.00  0.00    -0.550 OA
ATOM      9  O   UNL     1      19.757   7.647  23.255  1.00  0.00    -0.550 OA
ENDBRANCH   6   7
ENDBRANCH   5   6
ENDBRANCH   4   5
ENDBRANCH   3   4
ENDBRANCH   2   3
ENDBRANCH   1   2
BRANCH   1  10
ATOM     10  C   UNL     1      20.048   1.495  26.354  1.00  0.00     0.000 C 
BRANCH  10  11
ATOM     11  C   UNL     1      19.005   2.585  26.673  1.00  0.00    -0.000 C 
BRANCH  11  12
ATOM     12  C   UNL     1      19.452   3.630  27.712  1.00  0.00    -0.000 C 
BRANCH  12  13
ATOM     13  C   UNL     1      20.970   3.611  27.964  1.00  0.00    -0.000 C 
BRANCH  13  14
ATOM     14  C   UNL     1      21.609   5.007  27.806  1.00  0.00    -0.000 C 
BRANCH  14  15
ATOM     15  C   UNL     1      23.003   4.983  27.157  1.00  0.00    -0.000 C 
BRANCH  15  16
ATOM     16  C   UNL     1      23.782   3.697  27.460  1.00  0.00    -0.003 C 
ATOM     17  C   UNL     1      24.970   3.536  26.515  1.00  0.00     0.004 C 
ENDBRANCH  15  16
ENDBRANCH  14  15
ENDBRANCH  13  14
ENDBRANCH  12  13
ENDBRANCH  11  12
ENDBRANCH  10  11
ENDBRANCH   1  10
TORSDOF 13
ENDMDL
MODEL 3
REMARK VINA RESULT:    -3.326      1.448      3.492
REMARK INTER + INTRA:          -8.173
REMARK INTER:                  -5.889
REMARK INTRA:                  -2.284
REMARK UNBOUND:                -2.319
REMARK SMILES CCCCCCCCCCCCCCC(=O)[O-]
REMARK SMILES IDX 9 1 10 2 11 3 12 4 13 5 14 6 15 7 16 8 17 9 8 10 7 11 6 12
REMARK SMILES IDX 5 13 4 14 3 15 2 16 1 17
REMARK H PARENT
REMARK Flexibility Score: inf
ROOT
ATOM      1  C   UNL     1      22.032   4.097  27.607  1.00  0.00     0.000 C 
ENDROOT
BRANCH   1   2
ATOM      2  C   UNL     1      21.148   5.356  27.659  1.00  0.00     0.000 C 
BRANCH   2   3
ATOM      3  C   UNL     1      21.288   6.235  26.408  1.00  0.00     0.000 C 
BRANCH   3   4
ATOM      4  C   UNL     1      19.963   6.299  25.633  1.00  0.00     0.000 C 
BRANCH   4   5
ATOM      5  C   UNL     1      20.168   6.539  24.129  1.00  0.00     0.006 C 
BRANCH   5   6
ATOM      6  C   UNL     1      19.318   7.699  23.595  1.00  0.00     0.053 C 
BRANCH   6   7
ATOM      7  C   UNL     1      20.183   8.882  23.289  1.00  0.00     0.041 C 
ATOM      8  O   UNL     1      20.085   9.468  22.180  1.00  0.00    -0.550 OA
ATOM      9  O   UNL     1      21.131   9.306  24.212  1.00  0.00    -0.550 OA
ENDBRANCH   6   7
ENDBRANCH   5   6
ENDBRANCH   4   5
ENDBRANCH   3   4
ENDBRANCH   2   3
ENDBRANCH   1   2
BRANCH   1  10
ATOM     10  C   UNL     1      23.156   4.134  26.553  1.00  0.00     0.000 C 
BRANCH  10  11
ATOM     11  C   UNL     1      23.088   3.028  25.481  1.00  0.00    -0.000 C 
BRANCH  11  12
ATOM     12  C   UNL     1      22.387   3.432  24.171  1.00  0.00    -0.000 C 
BRANCH  12  13
ATOM     13  C   UNL     1      20.996   2.791  24.016  1.00  0.00    -0.000 C 
BRANCH  13  14
ATOM     14  C   UNL     1      20.868   1.470  24.804  1.00  0.00    -0.000 C 
BRANCH  14  15
ATOM     15  C   UNL     1      19.793   1.504  25.904  1.00  0.00    -0.000 C 
BRANCH  15  16
ATOM     16  C   UNL     1      18.958   2.790  25.885  1.00  0.00    -0.003 C 
ATOM     17  C   UNL     1      18.335   3.063  27.251  1.00  0.00     0.004 C 
ENDBRANCH  15  16
ENDBRANCH  14  15
ENDBRANCH  13  14
ENDBRANCH  12  13
ENDBRANCH  11  12
ENDBRANCH  10  11
ENDBRANCH   1  10
TORSDOF 13
ENDMDL
MODEL 4
REMARK VINA RESULT:    -3.229      1.816      3.034
REMARK INTER + INTRA:          -8.002
REMARK INTER:                  -6.595
REMARK INTRA:                  -1.407
REMARK UNBOUND:                -2.319
REMARK SMILES CCCCCCCCCCCCCCC(=O)[O-]
REMARK SMILES IDX 9 1 10 2 11 3 12 4 13 5 14 6 15 7 16 8 17 9 8 10 7 11 6 12
REMARK SMILES IDX 5 13 4 14 3 15 2 16 1 17
REMARK H PARENT
REMARK Flexibility Score: inf
ROOT
ATOM      1  C   UNL     1      19.337   4.547  24.476  1.00  0.00     0.000 C 
ENDROOT
BRANCH   1   2
ATOM      2  C   UNL     1      19.196   6.052  24.186  1.00  0.00     0.000 C 
BRANCH   2   3
ATOM      3  C   UNL     1      17.792   6.436  23.696  1.00  0.00     0.000 C 
BRANCH   3   4
ATOM      4  C   UNL     1      17.374   7.805  24.253  1.00  0.00     0.000 C 
BRANCH   4   5
ATOM      5  C   UNL     1      17.481   8.927  23.208  1.00  0.00     0.006 C 
BRANCH   5   6
ATOM      6  C   UNL     1      18.595   9.931  23.533  1.00  0.00     0.053 C 
BRANCH   6   7
ATOM      7  C   UNL     1      19.873   9.525  22.868  1.00  0.00     0.041 C 
ATOM      8  O   UNL     1      19.950   9.486  21.613  1.00  0.00    -0.550 OA
ATOM      9  O   UNL     1      20.965   9.142  23.638  1.00  0.00    -0.550 OA
ENDBRANCH   6   7
ENDBRANCH   5   6
ENDBRANCH   4   5
ENDBRANCH   3   4
ENDBRANCH   2   3
ENDBRANCH   1   2
BRANCH   1  10
ATOM     10  C   UNL     1      19.150   4.149  25.954  1.00  0.00     0.000 C 
BRANCH  10  11
ATOM     11  C   UNL     1      18.664   2.704  26.188  1.00  0.00    -0.000 C 
BRANCH  11  12
ATOM     12  C   UNL     1      19.463   1.910  27.237  1.00  0.00    -0.000 C 
BRANCH  12  13
ATOM     13  C   UNL     1      20.875   2.478  27.469  1.00  0.00    -0.000 C 
BRANCH  13  14
ATOM     14  C   UNL     1      21.947   1.742  26.637  1.00  0.00    -0.000 C 
BRANCH  14  15
ATOM     15  C   UNL     1      22.604   2.616  25.557  1.00  0.00    -0.000 C 
BRANCH  15  16
ATOM     16  C   UNL     1      22.072   2.327  24.148  1.00  0.00    -0.003 C 
ATOM     17  C   UNL     1      21.241   1.047  24.123  1.00  0.00     0.004 C 
ENDBRANCH  15  16
ENDBRANCH  14  15
ENDBRANCH  13  14
ENDBRANCH  12  13
ENDBRANCH  11  12
ENDBRANCH  10  11
ENDBRANCH   1  10
TORSDOF 13
ENDMDL
MODEL 5
REMARK VINA RESULT:    -3.220      1.285      2.608
REMARK INTER + INTRA:          -7.986
REMARK INTER:                  -5.934
REMARK INTRA:                  -2.052
REMARK UNBOUND:                -2.319
REMARK SMILES CCCCCCCCCCCCCCC(=O)[O-]
REMARK SMILES IDX 9 1 10 2 11 3 12 4 13 5 14 6 15 7 16 8 17 9 8 10 7 11 6 12
REMARK SMILES IDX 5 13 4 14 3 15 2 16 1 17
REMARK H PARENT
REMARK Flexibility Score: inf
ROOT
ATOM      1  C   UNL     1      18.850   3.064  26.322  1.00  0.00     0.000 C 
ENDROOT
BRANCH   1   2
ATOM      2  C   UNL     1      19.045   4.543  25.941  1.00  0.00     0.000 C 
BRANCH   2   3
ATOM      3  C   UNL     1      19.227   4.750  24.431  1.00  0.00     0.000 C 
BRANCH   3   4
ATOM      4  C   UNL     1      20.214   5.893  24.150  1.00  0.00     0.000 C 
BRANCH   4   5
ATOM      5  C   UNL     1      19.831   7.196  24.869  1.00  0.00     0.006 C 
BRANCH   5   6
ATOM      6  C   UNL     1      19.194   8.225  23.927  1.00  0.00     0.053 C 
BRANCH   6   7
ATOM      7  C   UNL     1      20.250   9.068  23.284  1.00  0.00     0.041 C 
ATOM      8  O   UNL     1      21.264   9.423  23.939  1.00  0.00    -0.550 OA
ATOM      9  O   UNL     1      20.090   9.502  21.974  1.00  0.00    -0.550 OA
ENDBRANCH   6   7
ENDBRANCH   5   6
ENDBRANCH   4   5
ENDBRANCH   3   4
ENDBRANCH   2   3
ENDBRANCH   1   2
BRANCH   1  10
ATOM     10  C   UNL     1      19.509   2.642  27.650  1.00  0.00     0.000 C 
BRANCH  10  11
ATOM     11  C   UNL     1      20.558   1.518  27.535  1.00  0.00    -0.000 C 
BRANCH  11  12
ATOM     12  C   UNL     1      22.021   1.975  27.681  1.00  0.00    -0.000 C 
BRANCH  12  13
ATOM     13  C   UNL     1      22.167   3.507  27.728  1.00  0.00    -0.000 C 
BRANCH  13  14
ATOM     14  C   UNL     1      22.649   4.091  26.382  1.00  0.00    -0.000 C 
BRANCH  14  15
ATOM     15  C   UNL     1      23.199   3.037  25.408  1.00  0.00    -0.000 C 
BRANCH  15  16
ATOM     16  C   UNL     1      22.433   2.991  24.080  1.00  0.00    -0.003 C 
ATOM     17  C   UNL     1      21.524   1.766  24.011  1.00  0.00     0.004 C 
ENDBRANCH  15  16
ENDBRANCH  14  15
ENDBRANCH  13  14
ENDBRANCH  12  13
ENDBRANCH  11  12
ENDBRANCH  10  11
ENDBRANCH   1  10
TORSDOF 13
ENDMDL
MODEL 6
REMARK VINA RESULT:    -3.170      2.760      5.262
REMARK INTER + INTRA:          -7.898
REMARK INTER:                  -5.900
REMARK INTRA:                  -1.998
REMARK UNBOUND:                -2.319
REMARK SMILES CCCCCCCCCCCCCCC(=O)[O-]
REMARK SMILES IDX 9 1 10 2 11 3 12 4 13 5 14 6 15 7 16 8 17 9 8 10 7 11 6 12
REMARK SMILES IDX 5 13 4 14 3 15 2 16 1 17
REMARK H PARENT
REMARK Flexibility Score: inf
ROOT
ATOM      1  C   UNL     1      19.057   2.902  25.718  1.00  0.00     0.000 C 
ENDROOT
BRANCH   1   2
ATOM      2  C   UNL     1      19.713   1.514  25.611  1.00  0.00     0.000 C 
BRANCH   2   3
ATOM      3  C   UNL     1      20.891   1.486  24.627  1.00  0.00     0.000 C 
BRANCH   3   4
ATOM      4  C   UNL     1      21.367   2.910  24.302  1.00  0.00     0.000 C 
BRANCH   4   5
ATOM      5  C   UNL     1      22.842   3.140  24.667  1.00  0.00     0.006 C 
BRANCH   5   6
ATOM      6  C   UNL     1      23.094   3.070  26.179  1.00  0.00     0.053 C 
BRANCH   6   7
ATOM      7  C   UNL     1      24.294   3.885  26.546  1.00  0.00     0.041 C 
ATOM      8  O   UNL     1      25.452   3.428  26.361  1.00  0.00    -0.550 OA
ATOM      9  O   UNL     1      24.132   5.131  27.138  1.00  0.00    -0.550 OA
ENDBRANCH   6   7
ENDBRANCH   5   6
ENDBRANCH   4   5
ENDBRANCH   3   4
ENDBRANCH   2   3
ENDBRANCH   1   2
BRANCH   1  10
ATOM     10  C   UNL     1      19.057   3.515  27.133  1.00  0.00     0.000 C 
BRANCH  10  11
ATOM     11  C   UNL     1      18.894   5.047  27.185  1.00  0.00    -0.000 C 
BRANCH  11  12
ATOM     12  C   UNL     1      20.195   5.833  27.426  1.00  0.00    -0.000 C 
BRANCH  12  13
ATOM     13  C   UNL     1      20.991   6.083  26.132  1.00  0.00    -0.000 C 
BRANCH  13  14
ATOM     14  C   UNL     1      20.359   7.187  25.259  1.00  0.00    -0.000 C 
BRANCH  14  15
ATOM     15  C   UNL     1      19.953   6.713  23.853  1.00  0.00    -0.000 C 
BRANCH  15  16
ATOM     16  C   UNL     1      18.521   6.167  23.796  1.00  0.00    -0.003 C 
ATOM     17  C   UNL     1      17.527   7.164  24.385  1.00  0.00     0.004 C 
ENDBRANCH  15  16
ENDBRANCH  14  15
ENDBRANCH  13  14
ENDBRANCH  12  13
ENDBRANCH  11  12
ENDBRANCH  10  11
ENDBRANCH   1  10
TORSDOF 13
ENDMDL
MODEL 7
REMARK VINA RESULT:    -3.164      2.208      4.997
REMARK INTER + INTRA:          -7.889
REMARK INTER:                  -6.343
REMARK INTRA:                  -1.545
REMARK UNBOUND:                -2.319
REMARK SMILES CCCCCCCCCCCCCCC(=O)[O-]
REMARK SMILES IDX 9 1 10 2 11 3 12 4 13 5 14 6 15 7 16 8 17 9 8 10 7 11 6 12
REMARK SMILES IDX 5 13 4 14 3 15 2 16 1 17
REMARK H PARENT
REMARK Flexibility Score: inf
ROOT
ATOM      1  C   UNL     1      20.953   1.611  24.490  1.00  0.00     0.000 C 
ENDROOT
BRANCH   1   2
ATOM      2  C   UNL     1      21.388   1.417  25.954  1.00  0.00     0.000 C 
BRANCH   2   3
ATOM      3  C   UNL     1      20.216   1.504  26.941  1.00  0.00     0.000 C 
BRANCH   3   4
ATOM      4  C   UNL     1      20.358   2.734  27.851  1.00  0.00     0.000 C 
BRANCH   4   5
ATOM      5  C   UNL     1      21.812   3.218  27.972  1.00  0.00     0.006 C 
BRANCH   5   6
ATOM      6  C   UNL     1      21.986   4.677  27.534  1.00  0.00     0.053 C 
BRANCH   6   7
ATOM      7  C   UNL     1      23.369   4.902  27.009  1.00  0.00     0.041 C 
ATOM      8  O   UNL     1      23.970   5.982  27.248  1.00  0.00    -0.550 OA
ATOM      9  O   UNL     1      23.976   3.938  26.213  1.00  0.00    -0.550 OA
ENDBRANCH   6   7
ENDBRANCH   5   6
ENDBRANCH   4   5
ENDBRANCH   3   4
ENDBRANCH   2   3
ENDBRANCH   1   2
BRANCH   1  10
ATOM     10  C   UNL     1      21.654   2.768  23.751  1.00  0.00     0.000 C 
BRANCH  10  11
ATOM     11  C   UNL     1      21.065   4.169  24.013  1.00  0.00    -0.000 C 
BRANCH  11  12
ATOM     12  C   UNL     1      19.614   4.179  24.526  1.00  0.00    -0.000 C 
BRANCH  12  13
ATOM     13  C   UNL     1      18.995   5.589  24.541  1.00  0.00    -0.000 C 
BRANCH  13  14
ATOM     14  C   UNL     1      19.881   6.625  23.816  1.00  0.00    -0.000 C 
BRANCH  14  15
ATOM     15  C   UNL     1      19.490   8.085  24.100  1.00  0.00    -0.000 C 
BRANCH  15  16
ATOM     16  C   UNL     1      20.439   9.097  23.447  1.00  0.00    -0.003 C 
ATOM     17  C   UNL     1      19.963   9.474  22.046  1.00  0.00     0.004 C 
ENDBRANCH  15  16
ENDBRANCH  14  15
ENDBRANCH  13  14
ENDBRANCH  12  13
ENDBRANCH  11  12
ENDBRANCH  10  11
ENDBRANCH   1  10
TORSDOF 13
ENDMDL
MODEL 8
REMARK VINA RESULT:    -3.164      1.569      3.587
REMARK INTER + INTRA:          -7.888
REMARK INTER:                  -6.059
REMARK INTRA:                  -1.829
REMARK UNBOUND:                -2.319
REMARK SMILES CCCCCCCCCCCCCCC(=O)[O-]
REMARK SMILES IDX 9 1 10 2 11 3 12 4 13 5 14 6 15 7 16 8 17 9 8 10 7 11 6 12
REMARK SMILES IDX 5 13 4 14 3 15 2 16 1 17
REMARK H PARENT
REMARK Flexibility Score: inf
ROOT
ATOM      1  C   UNL     1      20.002   5.144  26.499  1.00  0.00     0.000 C 
ENDROOT
BRANCH   1   2
ATOM      2  C   UNL     1      20.268   6.203  25.413  1.00  0.00     0.000 C 
BRANCH   2   3
ATOM      3  C   UNL     1      19.600   5.863  24.074  1.00  0.00     0.000 C 
BRANCH   3   4
ATOM      4  C   UNL     1      18.382   6.766  23.825  1.00  0.00     0.000 C 
BRANCH   4   5
ATOM      5  C   UNL     1      18.488   8.117  24.552  1.00  0.00     0.006 C 
BRANCH   5   6
ATOM      6  C   UNL     1      18.559   9.305  23.583  1.00  0.00     0.053 C 
BRANCH   6   7
ATOM      7  C   UNL     1      19.906   9.368  22.934  1.00  0.00     0.041 C 
ATOM      8  O   UNL     1      20.950   9.333  23.636  1.00  0.00    -0.550 OA
ATOM      9  O   UNL     1      20.007   9.515  21.556  1.00  0.00    -0.550 OA
ENDBRANCH   6   7
ENDBRANCH   5   6
ENDBRANCH   4   5
ENDBRANCH   3   4
ENDBRANCH   2   3
ENDBRANCH   1   2
BRANCH   1  10
ATOM     10  C   UNL     1      21.248   4.686  27.282  1.00  0.00     0.000 C 
BRANCH  10  11
ATOM     11  C   UNL     1      22.548   4.603  26.457  1.00  0.00    -0.000 C 
BRANCH  11  12
ATOM     12  C   UNL     1      22.764   3.273  25.712  1.00  0.00    -0.000 C 
BRANCH  12  13
ATOM     13  C   UNL     1      22.295   3.325  24.248  1.00  0.00    -0.000 C 
BRANCH  13  14
ATOM     14  C   UNL     1      21.481   2.075  23.849  1.00  0.00    -0.000 C 
BRANCH  14  15
ATOM     15  C   UNL     1      20.967   1.259  25.046  1.00  0.00    -0.000 C 
BRANCH  15  16
ATOM     16  C   UNL     1      19.556   1.667  25.487  1.00  0.00    -0.003 C 
ATOM     17  C   UNL     1      19.371   1.476  26.990  1.00  0.00     0.004 C 
ENDBRANCH  15  16
ENDBRANCH  14  15
ENDBRANCH  13  14
ENDBRANCH  12  13
ENDBRANCH  11  12
ENDBRANCH  10  11
ENDBRANCH   1  10
TORSDOF 13
ENDMDL
MODEL 9
REMARK VINA RESULT:    -3.074      1.652      3.357
REMARK INTER + INTRA:          -7.730
REMARK INTER:                  -5.950
REMARK INTRA:                  -1.780
REMARK UNBOUND:                -2.319
REMARK SMILES CCCCCCCCCCCCCCC(=O)[O-]
REMARK SMILES IDX 9 1 10 2 11 3 12 4 13 5 14 6 15 7 16 8 17 9 8 10 7 11 6 12
REMARK SMILES IDX 5 13 4 14 3 15 2 16 1 17
REMARK H PARENT
REMARK Flexibility Score: inf
ROOT
ATOM      1  C   UNL     1      19.817   5.195  25.449  1.00  0.00     0.000 C 
ENDROOT
BRANCH   1   2
ATOM      2  C   UNL     1      21.118   5.605  26.161  1.00  0.00     0.000 C 
BRANCH   2   3
ATOM      3  C   UNL     1      20.903   6.705  27.210  1.00  0.00     0.000 C 
BRANCH   3   4
ATOM      4  C   UNL     1      21.489   8.042  26.731  1.00  0.00     0.000 C 
BRANCH   4   5
ATOM      5  C   UNL     1      20.521   8.822  25.827  1.00  0.00     0.006 C 
BRANCH   5   6
ATOM      6  C   UNL     1      21.113   9.113  24.441  1.00  0.00     0.053 C 
BRANCH   6   7
ATOM      7  C   UNL     1      20.091   8.866  23.376  1.00  0.00     0.041 C 
ATOM      8  O   UNL     1      19.151   8.053  23.576  1.00  0.00    -0.550 OA
ATOM      9  O   UNL     1      20.206   9.498  22.144  1.00  0.00    -0.550 OA
ENDBRANCH   6   7
ENDBRANCH   5   6
ENDBRANCH   4   5
ENDBRANCH   3   4
ENDBRANCH   2   3
ENDBRANCH   1   2
BRANCH   1  10
ATOM     10  C   UNL     1      20.000   4.235  24.257  1.00  0.00     0.000 C 
BRANCH  10  11
ATOM     11  C   UNL     1      21.453   3.793  23.988  1.00  0.00    -0.000 C 
BRANCH  11  12
ATOM     12  C   UNL     1      21.623   2.312  23.605  1.00  0.00    -0.000 C 
BRANCH  12  13
ATOM     13  C   UNL     1      21.027   1.352  24.652  1.00  0.00    -0.000 C 
BRANCH  13  14
ATOM     14  C   UNL     1      21.711   1.489  26.029  1.00  0.00    -0.000 C 
BRANCH  14  15
ATOM     15  C   UNL     1      20.751   1.884  27.163  1.00  0.00    -0.000 C 
BRANCH  15  16
ATOM     16  C   UNL     1      19.284   1.575  26.841  1.00  0.00    -0.003 C 
ATOM     17  C   UNL     1      18.347   2.568  27.525  1.00  0.00     0.004 C 
ENDBRANCH  15  16
ENDBRANCH  14  15
ENDBRANCH  13  14
ENDBRANCH  12  13
ENDBRANCH  11  12
ENDBRANCH  10  11
ENDBRANCH   1  10
TORSDOF 13
ENDMDL
