MODEL 1
REMARK VINA RESULT:    -3.530      0.000      0.000
REMARK INTER + INTRA:          -4.086
REMARK INTER:                  -3.840
REMARK INTRA:                  -0.246
REMARK UNBOUND:                -0.246
REMARK SMILES O=C([O-])c1ccccc1O
REMARK SMILES IDX 4 1 9 2 5 3 8 4 6 5 7 6 2 7 1 8 3 9 10 10
REMARK H PARENT 10 11
REMARK Flexibility Score: inf
ROOT
ATOM      1  C   UNL     1      11.328  41.684 152.628  1.00  0.00     0.039 A 
ATOM      2  C   UNL     1      10.605  40.462 152.618  1.00  0.00     0.124 A 
ATOM      3  C   UNL     1      12.023  42.071 151.467  1.00  0.00     0.014 A 
ATOM      4  C   UNL     1      10.648  39.641 151.484  1.00  0.00     0.047 A 
ATOM      5  C   UNL     1      12.037  41.250 150.337  1.00  0.00     0.001 A 
ATOM      6  C   UNL     1      11.358  40.032 150.349  1.00  0.00     0.004 A 
ENDROOT
BRANCH   1   7
ATOM      7  C   UNL     1      11.413  42.557 153.819  1.00  0.00     0.075 C 
ATOM      8  O   UNL     1      10.426  42.703 154.586  1.00  0.00    -0.545 OA
ATOM      9  O   UNL     1      12.616  43.175 154.143  1.00  0.00    -0.545 OA
ENDBRANCH   1   7
BRANCH   2  10
ATOM     10  O   UNL     1       9.813  40.046 153.691  1.00  0.00    -0.507 OA
ATOM     11  H   UNL     1      10.185  39.796 154.596  1.00  0.00     0.293 HD
ENDBRANCH   2  10
TORSDOF 2
ENDMDL
MODEL 2
REMARK VINA RESULT:    -3.509      0.106      1.026
REMARK INTER + INTRA:          -4.063
REMARK INTER:                  -3.811
REMARK INTRA:                  -0.252
REMARK UNBOUND:                -0.246
REMARK SMILES O=C([O-])c1ccccc1O
REMARK SMILES IDX 4 1 9 2 5 3 8 4 6 5 7 6 2 7 1 8 3 9 10 10
REMARK H PARENT 10 11
REMARK Flexibility Score: inf
ROOT
ATOM      1  C   UNL     1      11.376  41.746 152.662  1.00  0.00     0.039 A 
ATOM      2  C   UNL     1      10.668  40.515 152.644  1.00  0.00     0.124 A 
ATOM      3  C   UNL     1      12.061  42.152 151.502  1.00  0.00     0.014 A 
ATOM      4  C   UNL     1      10.717  39.705 151.503  1.00  0.00     0.047 A 
ATOM      5  C   UNL     1      12.081  41.341 150.365  1.00  0.00     0.001 A 
ATOM      6  C   UNL     1      11.418  40.114 150.369  1.00  0.00     0.004 A 
ENDROOT
BRANCH   1   7
ATOM      7  C   UNL     1      11.454  42.609 153.861  1.00  0.00     0.075 C 
ATOM      8  O   UNL     1      12.530  43.182 154.176  1.00  0.00    -0.545 OA
ATOM      9  O   UNL     1      10.313  42.852 154.618  1.00  0.00    -0.545 OA
ENDBRANCH   1   7
BRANCH   2  10
ATOM     10  O   UNL     1       9.885  40.080 153.716  1.00  0.00    -0.507 OA
ATOM     11  H   UNL     1       8.910  40.320 153.830  1.00  0.00     0.293 HD
ENDBRANCH   2  10
TORSDOF 2
ENDMDL
MODEL 3
REMARK VINA RESULT:    -3.445     13.698     14.332
REMARK INTER + INTRA:          -3.994
REMARK INTER:                  -3.761
REMARK INTRA:                  -0.233
REMARK UNBOUND:                -0.246
REMARK SMILES O=C([O-])c1ccccc1O
REMARK SMILES IDX 4 1 9 2 5 3 8 4 6 5 7 6 2 7 1 8 3 9 10 10
REMARK H PARENT 10 11
REMARK Flexibility Score: inf
ROOT
ATOM      1  C   UNL     1      11.105  37.312 139.059  1.00  0.00     0.039 A 
ATOM      2  C   UNL     1      10.494  36.077 138.714  1.00  0.00     0.124 A 
ATOM      3  C   UNL     1      12.324  37.293 139.762  1.00  0.00     0.014 A 
ATOM      4  C   UNL     1      11.079  34.875 139.130  1.00  0.00     0.047 A 
ATOM      5  C   UNL     1      12.904  36.083 140.151  1.00  0.00     0.001 A 
ATOM      6  C   UNL     1      12.277  34.876 139.844  1.00  0.00     0.004 A 
ENDROOT
BRANCH   1   7
ATOM      7  C   UNL     1      10.499  38.624 138.743  1.00  0.00     0.075 C 
ATOM      8  O   UNL     1       9.270  38.725 138.490  1.00  0.00    -0.545 OA
ATOM      9  O   UNL     1      11.275  39.777 138.788  1.00  0.00    -0.545 OA
ENDBRANCH   1   7
BRANCH   2  10
ATOM     10  O   UNL     1       9.335  36.001 137.937  1.00  0.00    -0.507 OA
ATOM     11  H   UNL     1       9.342  35.906 136.931  1.00  0.00     0.293 HD
ENDBRANCH   2  10
TORSDOF 2
ENDMDL
MODEL 4
REMARK VINA RESULT:    -3.423      2.105      3.458
REMARK INTER + INTRA:          -3.970
REMARK INTER:                  -3.723
REMARK INTRA:                  -0.246
REMARK UNBOUND:                -0.246
REMARK SMILES O=C([O-])c1ccccc1O
REMARK SMILES IDX 4 1 9 2 5 3 8 4 6 5 7 6 2 7 1 8 3 9 10 10
REMARK H PARENT 10 11
REMARK Flexibility Score: inf
ROOT
ATOM      1  C   UNL     1      10.921  40.881 152.607  1.00  0.00     0.039 A 
ATOM      2  C   UNL     1       9.851  40.978 153.535  1.00  0.00     0.124 A 
ATOM      3  C   UNL     1      11.952  41.838 152.657  1.00  0.00     0.014 A 
ATOM      4  C   UNL     1       9.808  42.052 154.433  1.00  0.00     0.047 A 
ATOM      5  C   UNL     1      11.904  42.890 153.574  1.00  0.00     0.001 A 
ATOM      6  C   UNL     1      10.829  43.003 154.454  1.00  0.00     0.004 A 
ENDROOT
BRANCH   1   7
ATOM      7  C   UNL     1      10.986  39.834 151.564  1.00  0.00     0.075 C 
ATOM      8  O   UNL     1       9.936  39.355 151.061  1.00  0.00    -0.545 OA
ATOM      9  O   UNL     1      12.219  39.415 151.076  1.00  0.00    -0.545 OA
ENDBRANCH   1   7
BRANCH   2  10
ATOM     10  O   UNL     1       8.837  40.021 153.619  1.00  0.00    -0.507 OA
ATOM     11  H   UNL     1       8.888  39.203 154.210  1.00  0.00     0.293 HD
ENDBRANCH   2  10
TORSDOF 2
ENDMDL
MODEL 5
REMARK VINA RESULT:    -3.368     12.892     14.277
REMARK INTER + INTRA:          -3.909
REMARK INTER:                  -3.665
REMARK INTRA:                  -0.244
REMARK UNBOUND:                -0.246
REMARK SMILES O=C([O-])c1ccccc1O
REMARK SMILES IDX 4 1 9 2 5 3 8 4 6 5 7 6 2 7 1 8 3 9 10 10
REMARK H PARENT 10 11
REMARK Flexibility Score: inf
ROOT
ATOM      1  C   UNL     1      10.247  36.057 139.877  1.00  0.00     0.039 A 
ATOM      2  C   UNL     1      10.976  35.793 138.687  1.00  0.00     0.124 A 
ATOM      3  C   UNL     1      10.900  36.703 140.943  1.00  0.00     0.014 A 
ATOM      4  C   UNL     1      12.335  36.121 138.619  1.00  0.00     0.047 A 
ATOM      5  C   UNL     1      12.252  37.042 140.851  1.00  0.00     0.001 A 
ATOM      6  C   UNL     1      12.971  36.743 139.694  1.00  0.00     0.004 A 
ENDROOT
BRANCH   1   7
ATOM      7  C   UNL     1       8.837  35.652 140.061  1.00  0.00     0.075 C 
ATOM      8  O   UNL     1       7.961  35.947 139.206  1.00  0.00    -0.545 OA
ATOM      9  O   UNL     1       8.474  34.876 141.157  1.00  0.00    -0.545 OA
ENDBRANCH   1   7
BRANCH   2  10
ATOM     10  O   UNL     1      10.384  35.242 137.547  1.00  0.00    -0.507 OA
ATOM     11  H   UNL     1      10.567  34.304 137.220  1.00  0.00     0.293 HD
ENDBRANCH   2  10
TORSDOF 2
ENDMDL
MODEL 6
REMARK VINA RESULT:    -3.293      1.311      2.446
REMARK INTER + INTRA:          -3.828
REMARK INTER:                  -3.588
REMARK INTRA:                  -0.240
REMARK UNBOUND:                -0.246
REMARK SMILES O=C([O-])c1ccccc1O
REMARK SMILES IDX 4 1 9 2 5 3 8 4 6 5 7 6 2 7 1 8 3 9 10 10
REMARK H PARENT 10 11
REMARK Flexibility Score: inf
ROOT
ATOM      1  C   UNL     1      10.394  41.440 153.582  1.00  0.00     0.039 A 
ATOM      2  C   UNL     1      11.606  41.897 153.002  1.00  0.00     0.124 A 
ATOM      3  C   UNL     1       9.736  40.340 153.002  1.00  0.00     0.014 A 
ATOM      4  C   UNL     1      12.088  41.289 151.836  1.00  0.00     0.047 A 
ATOM      5  C   UNL     1      10.242  39.732 151.851  1.00  0.00     0.001 A 
ATOM      6  C   UNL     1      11.411  40.212 151.263  1.00  0.00     0.004 A 
ENDROOT
BRANCH   1   7
ATOM      7  C   UNL     1       9.770  42.092 154.754  1.00  0.00     0.075 C 
ATOM      8  O   UNL     1       8.552  42.413 154.745  1.00  0.00    -0.545 OA
ATOM      9  O   UNL     1      10.512  42.297 155.913  1.00  0.00    -0.545 OA
ENDBRANCH   1   7
BRANCH   2  10
ATOM     10  O   UNL     1      12.374  42.919 153.565  1.00  0.00    -0.507 OA
ATOM     11  H   UNL     1      12.251  43.254 154.510  1.00  0.00     0.293 HD
ENDBRANCH   2  10
TORSDOF 2
ENDMDL
MODEL 7
REMARK VINA RESULT:    -3.224      1.349      2.619
REMARK INTER + INTRA:          -3.753
REMARK INTER:                  -3.502
REMARK INTRA:                  -0.252
REMARK UNBOUND:                -0.246
REMARK SMILES O=C([O-])c1ccccc1O
REMARK SMILES IDX 4 1 9 2 5 3 8 4 6 5 7 6 2 7 1 8 3 9 10 10
REMARK H PARENT 10 11
REMARK Flexibility Score: inf
ROOT
ATOM      1  C   UNL     1      12.098  42.396 152.356  1.00  0.00     0.039 A 
ATOM      2  C   UNL     1      12.476  43.055 151.156  1.00  0.00     0.124 A 
ATOM      3  C   UNL     1      11.708  41.045 152.294  1.00  0.00     0.014 A 
ATOM      4  C   UNL     1      12.394  42.373 149.936  1.00  0.00     0.047 A 
ATOM      5  C   UNL     1      11.652  40.374 151.071  1.00  0.00     0.001 A 
ATOM      6  C   UNL     1      11.985  41.040 149.892  1.00  0.00     0.004 A 
ENDROOT
BRANCH   1   7
ATOM      7  C   UNL     1      12.064  43.077 153.669  1.00  0.00     0.075 C 
ATOM      8  O   UNL     1      11.161  42.819 154.507  1.00  0.00    -0.545 OA
ATOM      9  O   UNL     1      13.076  43.964 154.018  1.00  0.00    -0.545 OA
ENDBRANCH   1   7
BRANCH   2  10
ATOM     10  O   UNL     1      12.966  44.363 151.137  1.00  0.00    -0.507 OA
ATOM     11  H   UNL     1      13.629  44.722 151.809  1.00  0.00     0.293 HD
ENDBRANCH   2  10
TORSDOF 2
ENDMDL
MODEL 8
REMARK VINA RESULT:    -3.098      4.400      5.819
REMARK INTER + INTRA:          -3.616
REMARK INTER:                  -3.382
REMARK INTRA:                  -0.233
REMARK UNBOUND:                -0.246
REMARK SMILES O=C([O-])c1ccccc1O
REMARK SMILES IDX 4 1 9 2 5 3 8 4 6 5 7 6 2 7 1 8 3 9 10 10
REMARK H PARENT 10 11
REMARK Flexibility Score: inf
ROOT
ATOM      1  C   UNL     1       9.126  37.682 149.628  1.00  0.00     0.039 A 
ATOM      2  C   UNL     1       7.931  37.059 149.181  1.00  0.00     0.124 A 
ATOM      3  C   UNL     1      10.215  36.873 150.000  1.00  0.00     0.014 A 
ATOM      4  C   UNL     1       7.837  35.662 149.178  1.00  0.00     0.047 A 
ATOM      5  C   UNL     1      10.111  35.480 149.971  1.00  0.00     0.001 A 
ATOM      6  C   UNL     1       8.920  34.876 149.570  1.00  0.00     0.004 A 
ENDROOT
BRANCH   1   7
ATOM      7  C   UNL     1       9.268  39.150 149.753  1.00  0.00     0.075 C 
ATOM      8  O   UNL     1       9.064  39.906 148.768  1.00  0.00    -0.545 OA
ATOM      9  O   UNL     1       9.564  39.716 150.988  1.00  0.00    -0.545 OA
ENDBRANCH   1   7
BRANCH   2  10
ATOM     10  O   UNL     1       6.836  37.784 148.704  1.00  0.00    -0.507 OA
ATOM     11  H   UNL     1       6.865  38.361 147.875  1.00  0.00     0.293 HD
ENDBRANCH   2  10
TORSDOF 2
ENDMDL
