MODEL 1
REMARK VINA RESULT:    -2.508      0.000      0.000
REMARK INTER + INTRA:          -2.508
REMARK INTER:                  -2.508
REMARK INTRA:                   0.000
REMARK UNBOUND:                 0.000
REMARK SMILES CC(=O)[O-]
REMARK SMILES IDX 1 1 2 2 3 3 4 4
REMARK H PARENT
REMARK Flexibility Score: inf
ROOT
ATOM      1  C   UNL     1     -13.689 -21.947  34.766  1.00  0.00     0.063 C 
ATOM      2  C   UNL     1     -12.273 -21.631  34.422  1.00  0.00     0.038 C 
ATOM      3  O   UNL     1     -12.008 -20.644  33.686  1.00  0.00    -0.550 OA
ATOM      4  O   UNL     1     -11.240 -22.390  34.956  1.00  0.00    -0.550 OA
ENDROOT
TORSDOF 0
ENDMDL
MODEL 2
REMARK VINA RESULT:    -2.405      4.507      5.306
REMARK INTER + INTRA:          -2.405
REMARK INTER:                  -2.405
REMARK INTRA:                   0.000
REMARK UNBOUND:                 0.000
REMARK SMILES CC(=O)[O-]
REMARK SMILES IDX 1 1 2 2 3 3 4 4
REMARK H PARENT
REMARK Flexibility Score: inf
ROOT
ATOM      1  C   UNL     1      -9.208 -17.633  31.833  1.00  0.00     0.063 C 
ATOM      2  C   UNL     1     -10.089 -18.725  31.331  1.00  0.00     0.038 C 
ATOM      3  O   UNL     1     -10.898 -19.294  32.111  1.00  0.00    -0.550 OA
ATOM      4  O   UNL     1     -10.059 -19.083  29.989  1.00  0.00    -0.550 OA
ENDROOT
TORSDOF 0
ENDMDL
MODEL 3
REMARK VINA RESULT:    -2.397      1.355      2.155
REMARK INTER + INTRA:          -2.397
REMARK INTER:                  -2.397
REMARK INTRA:                   0.000
REMARK UNBOUND:                 0.000
REMARK SMILES CC(=O)[O-]
REMARK SMILES IDX 1 1 2 2 3 3 4 4
REMARK H PARENT
REMARK Flexibility Score: inf
ROOT
ATOM      1  C   UNL     1     -11.709 -20.522  33.736  1.00  0.00     0.063 C 
ATOM      2  C   UNL     1     -12.241 -21.667  34.530  1.00  0.00     0.038 C 
ATOM      3  O   UNL     1     -11.458 -22.554  34.961  1.00  0.00    -0.550 OA
ATOM      4  O   UNL     1     -13.592 -21.730  34.842  1.00  0.00    -0.550 OA
ENDROOT
TORSDOF 0
ENDMDL
MODEL 4
REMARK VINA RESULT:    -2.340     11.254     11.875
REMARK INTER + INTRA:          -2.340
REMARK INTER:                  -2.340
REMARK INTRA:                   0.000
REMARK UNBOUND:                 0.000
REMARK SMILES CC(=O)[O-]
REMARK SMILES IDX 1 1 2 2 3 3 4 4
REMARK H PARENT
REMARK Flexibility Score: inf
ROOT
ATOM      1  C   UNL     1      -7.834 -14.883  26.344  1.00  0.00     0.063 C 
ATOM      2  C   UNL     1      -9.174 -14.445  25.857  1.00  0.00     0.038 C 
ATOM      3  O   UNL     1     -10.211 -15.051  26.235  1.00  0.00    -0.550 OA
ATOM      4  O   UNL     1      -9.286 -13.337  25.028  1.00  0.00    -0.550 OA
ENDROOT
TORSDOF 0
ENDMDL
MODEL 5
REMARK VINA RESULT:    -2.320      6.245      6.692
REMARK INTER + INTRA:          -2.320
REMARK INTER:                  -2.320
REMARK INTRA:                   0.000
REMARK UNBOUND:                 0.000
REMARK SMILES CC(=O)[O-]
REMARK SMILES IDX 1 1 2 2 3 3 4 4
REMARK H PARENT
REMARK Flexibility Score: inf
ROOT
ATOM      1  C   UNL     1     -13.220 -16.361  28.652  1.00  0.00     0.063 C 
ATOM      2  C   UNL     1     -13.207 -17.408  29.713  1.00  0.00     0.038 C 
ATOM      3  O   UNL     1     -13.714 -17.170  30.841  1.00  0.00    -0.550 OA
ATOM      4  O   UNL     1     -12.685 -18.666  29.443  1.00  0.00    -0.550 OA
ENDROOT
TORSDOF 0
ENDMDL
MODEL 6
REMARK VINA RESULT:    -2.302      6.192      6.616
REMARK INTER + INTRA:          -2.302
REMARK INTER:                  -2.302
REMARK INTRA:                   0.000
REMARK UNBOUND:                 0.000
REMARK SMILES CC(=O)[O-]
REMARK SMILES IDX 1 1 2 2 3 3 4 4
REMARK H PARENT
REMARK Flexibility Score: inf
ROOT
ATOM      1  C   UNL     1     -11.702 -17.158  28.120  1.00  0.00     0.063 C 
ATOM      2  C   UNL     1     -11.735 -18.281  29.100  1.00  0.00     0.038 C 
ATOM      3  O   UNL     1     -12.831 -18.656  29.594  1.00  0.00    -0.550 OA
ATOM      4  O   UNL     1     -10.565 -18.952  29.431  1.00  0.00    -0.550 OA
ENDROOT
TORSDOF 0
ENDMDL
MODEL 7
REMARK VINA RESULT:    -2.273      5.918      6.437
REMARK INTER + INTRA:          -2.273
REMARK INTER:                  -2.273
REMARK INTRA:                   0.000
REMARK UNBOUND:                 0.000
REMARK SMILES CC(=O)[O-]
REMARK SMILES IDX 1 1 2 2 3 3 4 4
REMARK H PARENT
REMARK Flexibility Score: inf
ROOT
ATOM      1  C   UNL     1     -10.488 -18.655  29.977  1.00  0.00     0.063 C 
ATOM      2  C   UNL     1     -11.734 -18.303  29.238  1.00  0.00     0.038 C 
ATOM      3  O   UNL     1     -11.667 -17.666  28.154  1.00  0.00    -0.550 OA
ATOM      4  O   UNL     1     -12.969 -18.722  29.715  1.00  0.00    -0.550 OA
ENDROOT
TORSDOF 0
ENDMDL
MODEL 8
REMARK VINA RESULT:    -2.268      7.730      8.432
REMARK INTER + INTRA:          -2.268
REMARK INTER:                  -2.268
REMARK INTRA:                   0.000
REMARK UNBOUND:                 0.000
REMARK SMILES CC(=O)[O-]
REMARK SMILES IDX 1 1 2 2 3 3 4 4
REMARK H PARENT
REMARK Flexibility Score: inf
ROOT
ATOM      1  C   UNL     1     -13.096 -16.368  28.522  1.00  0.00     0.063 C 
ATOM      2  C   UNL     1     -11.686 -16.472  28.050  1.00  0.00     0.038 C 
ATOM      3  O   UNL     1     -10.838 -17.110  28.729  1.00  0.00    -0.550 OA
ATOM      4  O   UNL     1     -11.315 -15.911  26.836  1.00  0.00    -0.550 OA
ENDROOT
TORSDOF 0
ENDMDL
MODEL 9
REMARK VINA RESULT:    -2.238      5.708      6.074
REMARK INTER + INTRA:          -2.238
REMARK INTER:                  -2.238
REMARK INTRA:                   0.000
REMARK UNBOUND:                 0.000
REMARK SMILES CC(=O)[O-]
REMARK SMILES IDX 1 1 2 2 3 3 4 4
REMARK H PARENT
REMARK Flexibility Score: inf
ROOT
ATOM      1  C   UNL     1     -11.616 -18.623  28.869  1.00  0.00     0.063 C 
ATOM      2  C   UNL     1     -10.558 -18.192  29.827  1.00  0.00     0.038 C 
ATOM      3  O   UNL     1     -10.228 -16.978  29.899  1.00  0.00    -0.550 OA
ATOM      4  O   UNL     1      -9.972 -19.117  30.680  1.00  0.00    -0.550 OA
ENDROOT
TORSDOF 0
ENDMDL
