MODEL 1
REMARK VINA RESULT:    -4.528      0.000      0.000
REMARK INTER + INTRA:          -4.528
REMARK INTER:                  -4.528
REMARK INTRA:                   0.000
REMARK UNBOUND:                 0.000
REMARK SMILES CC(C)=C1CC[C@H](C)CC1=O
REMARK SMILES IDX 8 1 7 2 6 3 5 4 4 5 2 6 1 7 3 8 10 9 11 10 9 11
REMARK H PARENT
REMARK Flexibility Score: inf
ROOT
ATOM      1  C   UNL     1      16.822   0.291  56.257  1.00  0.00     0.008 C 
ATOM      2  C   UNL     1      16.551   0.045  57.746  1.00  0.00    -0.006 C 
ATOM      3  C   UNL     1      15.114   0.452  58.110  1.00  0.00     0.008 C 
ATOM      4  C   UNL     1      14.857   0.308  59.615  1.00  0.00     0.039 C 
ATOM      5  C   UNL     1      15.224  -1.074  60.141  1.00  0.00    -0.006 C 
ATOM      6  C   UNL     1      14.545  -1.640  61.181  1.00  0.00    -0.070 C 
ATOM      7  C   UNL     1      14.862  -3.034  61.673  1.00  0.00     0.039 C 
ATOM      8  C   UNL     1      13.413  -0.912  61.868  1.00  0.00     0.039 C 
ATOM      9  C   UNL     1      16.430  -1.709  59.529  1.00  0.00     0.159 C 
ATOM     10  O   UNL     1      17.174  -2.477  60.197  1.00  0.00    -0.295 OA
ATOM     11  C   UNL     1      16.781  -1.433  58.097  1.00  0.00     0.084 C 
ENDROOT
TORSDOF 0
ENDMDL
MODEL 2
REMARK VINA RESULT:    -4.506     10.718     12.990
REMARK INTER + INTRA:          -4.506
REMARK INTER:                  -4.506
REMARK INTRA:                   0.000
REMARK UNBOUND:                 0.000
REMARK SMILES CC(C)=C1CC[C@H](C)CC1=O
REMARK SMILES IDX 8 1 7 2 6 3 5 4 4 5 2 6 1 7 3 8 10 9 11 10 9 11
REMARK H PARENT
REMARK Flexibility Score: inf
ROOT
ATOM      1  C   UNL     1      24.869  -4.789  57.669  1.00  0.00     0.008 C 
ATOM      2  C   UNL     1      25.565  -4.432  56.350  1.00  0.00    -0.006 C 
ATOM      3  C   UNL     1      26.483  -5.577  55.894  1.00  0.00     0.008 C 
ATOM      4  C   UNL     1      27.264  -5.196  54.630  1.00  0.00     0.039 C 
ATOM      5  C   UNL     1      26.359  -4.693  53.513  1.00  0.00    -0.006 C 
ATOM      6  C   UNL     1      26.669  -4.903  52.200  1.00  0.00    -0.070 C 
ATOM      7  C   UNL     1      25.750  -4.459  51.085  1.00  0.00     0.039 C 
ATOM      8  C   UNL     1      27.935  -5.626  51.799  1.00  0.00     0.039 C 
ATOM      9  C   UNL     1      25.190  -3.868  53.939  1.00  0.00     0.159 C 
ATOM     10  O   UNL     1      24.742  -2.941  53.210  1.00  0.00    -0.295 OA
ATOM     11  C   UNL     1      24.526  -4.128  55.260  1.00  0.00     0.084 C 
ENDROOT
TORSDOF 0
ENDMDL
MODEL 3
REMARK VINA RESULT:    -4.410     12.390     14.344
REMARK INTER + INTRA:          -4.410
REMARK INTER:                  -4.410
REMARK INTRA:                   0.000
REMARK UNBOUND:                 0.000
REMARK SMILES CC(C)=C1CC[C@H](C)CC1=O
REMARK SMILES IDX 8 1 7 2 6 3 5 4 4 5 2 6 1 7 3 8 10 9 11 10 9 11
REMARK H PARENT
REMARK Flexibility Score: inf
ROOT
ATOM      1  C   UNL     1      29.957  -6.977  55.541  1.00  0.00     0.008 C 
ATOM      2  C   UNL     1      28.731  -6.597  54.701  1.00  0.00    -0.006 C 
ATOM      3  C   UNL     1      27.787  -5.686  55.502  1.00  0.00     0.008 C 
ATOM      4  C   UNL     1      26.507  -5.378  54.715  1.00  0.00     0.039 C 
ATOM      5  C   UNL     1      26.795  -4.839  53.320  1.00  0.00    -0.006 C 
ATOM      6  C   UNL     1      25.957  -3.946  52.718  1.00  0.00    -0.070 C 
ATOM      7  C   UNL     1      26.262  -3.359  51.358  1.00  0.00     0.039 C 
ATOM      8  C   UNL     1      24.696  -3.468  53.403  1.00  0.00     0.039 C 
ATOM      9  C   UNL     1      27.973  -5.431  52.619  1.00  0.00     0.159 C 
ATOM     10  O   UNL     1      27.992  -5.561  51.364  1.00  0.00    -0.295 OA
ATOM     11  C   UNL     1      29.164  -5.893  53.406  1.00  0.00     0.084 C 
ENDROOT
TORSDOF 0
ENDMDL
MODEL 4
REMARK VINA RESULT:    -4.357      2.378      5.080
REMARK INTER + INTRA:          -4.357
REMARK INTER:                  -4.357
REMARK INTRA:                   0.000
REMARK UNBOUND:                 0.000
REMARK SMILES CC(C)=C1CC[C@H](C)CC1=O
REMARK SMILES IDX 8 1 7 2 6 3 5 4 4 5 2 6 1 7 3 8 10 9 11 10 9 11
REMARK H PARENT
REMARK Flexibility Score: inf
ROOT
ATOM      1  C   UNL     1      15.179  -1.166  60.101  1.00  0.00     0.008 C 
ATOM      2  C   UNL     1      15.235  -0.263  58.863  1.00  0.00    -0.006 C 
ATOM      3  C   UNL     1      15.337   1.215  59.274  1.00  0.00     0.008 C 
ATOM      4  C   UNL     1      15.292   2.139  58.051  1.00  0.00     0.039 C 
ATOM      5  C   UNL     1      16.317   1.756  56.991  1.00  0.00    -0.006 C 
ATOM      6  C   UNL     1      16.898   2.698  56.193  1.00  0.00    -0.070 C 
ATOM      7  C   UNL     1      17.958   2.337  55.178  1.00  0.00     0.039 C 
ATOM      8  C   UNL     1      16.535   4.161  56.314  1.00  0.00     0.039 C 
ATOM      9  C   UNL     1      16.553   0.292  56.808  1.00  0.00     0.159 C 
ATOM     10  O   UNL     1      16.852  -0.186  55.680  1.00  0.00    -0.295 OA
ATOM     11  C   UNL     1      16.430  -0.643  57.975  1.00  0.00     0.084 C 
ENDROOT
TORSDOF 0
ENDMDL
MODEL 5
REMARK VINA RESULT:    -4.307      1.519      4.491
REMARK INTER + INTRA:          -4.307
REMARK INTER:                  -4.307
REMARK INTRA:                   0.000
REMARK UNBOUND:                 0.000
REMARK SMILES CC(C)=C1CC[C@H](C)CC1=O
REMARK SMILES IDX 8 1 7 2 6 3 5 4 4 5 2 6 1 7 3 8 10 9 11 10 9 11
REMARK H PARENT
REMARK Flexibility Score: inf
ROOT
ATOM      1  C   UNL     1      15.206  -3.849  62.286  1.00  0.00     0.008 C 
ATOM      2  C   UNL     1      15.647  -2.645  61.445  1.00  0.00    -0.006 C 
ATOM      3  C   UNL     1      16.077  -3.095  60.039  1.00  0.00     0.008 C 
ATOM      4  C   UNL     1      16.617  -1.918  59.217  1.00  0.00     0.039 C 
ATOM      5  C   UNL     1      15.653  -0.739  59.183  1.00  0.00    -0.006 C 
ATOM      6  C   UNL     1      15.578   0.085  58.098  1.00  0.00    -0.070 C 
ATOM      7  C   UNL     1      14.585   1.223  58.030  1.00  0.00     0.039 C 
ATOM      8  C   UNL     1      16.462  -0.127  56.889  1.00  0.00     0.039 C 
ATOM      9  C   UNL     1      14.893  -0.478  60.442  1.00  0.00     0.159 C 
ATOM     10  O   UNL     1      14.565   0.692  60.778  1.00  0.00    -0.295 OA
ATOM     11  C   UNL     1      14.510  -1.618  61.340  1.00  0.00     0.084 C 
ENDROOT
TORSDOF 0
ENDMDL
MODEL 6
REMARK VINA RESULT:    -4.239     10.488     12.574
REMARK INTER + INTRA:          -4.239
REMARK INTER:                  -4.239
REMARK INTRA:                   0.000
REMARK UNBOUND:                 0.000
REMARK SMILES CC(C)=C1CC[C@H](C)CC1=O
REMARK SMILES IDX 8 1 7 2 6 3 5 4 4 5 2 6 1 7 3 8 10 9 11 10 9 11
REMARK H PARENT
REMARK Flexibility Score: inf
ROOT
ATOM      1  C   UNL     1      24.805  -2.648  57.530  1.00  0.00     0.008 C 
ATOM      2  C   UNL     1      24.968  -3.557  56.307  1.00  0.00    -0.006 C 
ATOM      3  C   UNL     1      24.652  -2.788  55.014  1.00  0.00     0.008 C 
ATOM      4  C   UNL     1      24.711  -3.709  53.789  1.00  0.00     0.039 C 
ATOM      5  C   UNL     1      26.019  -4.484  53.703  1.00  0.00    -0.006 C 
ATOM      6  C   UNL     1      26.563  -4.825  52.498  1.00  0.00    -0.070 C 
ATOM      7  C   UNL     1      27.890  -5.544  52.400  1.00  0.00     0.039 C 
ATOM      8  C   UNL     1      25.881  -4.464  51.198  1.00  0.00     0.039 C 
ATOM      9  C   UNL     1      26.596  -4.941  55.002  1.00  0.00     0.159 C 
ATOM     10  O   UNL     1      27.254  -6.014  55.085  1.00  0.00    -0.295 OA
ATOM     11  C   UNL     1      26.394  -4.124  56.244  1.00  0.00     0.084 C 
ENDROOT
TORSDOF 0
ENDMDL
MODEL 7
REMARK VINA RESULT:    -4.209     10.195     11.710
REMARK INTER + INTRA:          -4.209
REMARK INTER:                  -4.209
REMARK INTRA:                   0.000
REMARK UNBOUND:                 0.000
REMARK SMILES CC(C)=C1CC[C@H](C)CC1=O
REMARK SMILES IDX 8 1 7 2 6 3 5 4 4 5 2 6 1 7 3 8 10 9 11 10 9 11
REMARK H PARENT
REMARK Flexibility Score: inf
ROOT
ATOM      1  C   UNL     1      25.756  -4.314  51.228  1.00  0.00     0.008 C 
ATOM      2  C   UNL     1      25.972  -4.002  52.713  1.00  0.00    -0.006 C 
ATOM      3  C   UNL     1      24.645  -3.609  53.383  1.00  0.00     0.008 C 
ATOM      4  C   UNL     1      24.859  -3.195  54.845  1.00  0.00     0.039 C 
ATOM      5  C   UNL     1      25.630  -4.240  55.641  1.00  0.00    -0.006 C 
ATOM      6  C   UNL     1      25.401  -4.426  56.974  1.00  0.00    -0.070 C 
ATOM      7  C   UNL     1      26.118  -5.499  57.762  1.00  0.00     0.039 C 
ATOM      8  C   UNL     1      24.387  -3.590  57.721  1.00  0.00     0.039 C 
ATOM      9  C   UNL     1      26.716  -4.955  54.906  1.00  0.00     0.159 C 
ATOM     10  O   UNL     1      27.757  -5.348  55.498  1.00  0.00    -0.295 OA
ATOM     11  C   UNL     1      26.585  -5.212  53.434  1.00  0.00     0.084 C 
ENDROOT
TORSDOF 0
ENDMDL
MODEL 8
REMARK VINA RESULT:    -4.203     11.553     13.282
REMARK INTER + INTRA:          -4.203
REMARK INTER:                  -4.203
REMARK INTRA:                   0.000
REMARK UNBOUND:                 0.000
REMARK SMILES CC(C)=C1CC[C@H](C)CC1=O
REMARK SMILES IDX 8 1 7 2 6 3 5 4 4 5 2 6 1 7 3 8 10 9 11 10 9 11
REMARK H PARENT
REMARK Flexibility Score: inf
ROOT
ATOM      1  C   UNL     1      29.425  -5.501  51.392  1.00  0.00     0.008 C 
ATOM      2  C   UNL     1      28.156  -5.535  52.253  1.00  0.00    -0.006 C 
ATOM      3  C   UNL     1      28.512  -5.743  53.734  1.00  0.00     0.008 C 
ATOM      4  C   UNL     1      27.251  -5.881  54.596  1.00  0.00     0.039 C 
ATOM      5  C   UNL     1      26.271  -4.734  54.386  1.00  0.00    -0.006 C 
ATOM      6  C   UNL     1      25.470  -4.291  55.399  1.00  0.00    -0.070 C 
ATOM      7  C   UNL     1      24.536  -3.116  55.218  1.00  0.00     0.039 C 
ATOM      8  C   UNL     1      25.508  -4.932  56.767  1.00  0.00     0.039 C 
ATOM      9  C   UNL     1      26.162  -4.213  52.991  1.00  0.00     0.159 C 
ATOM     10  O   UNL     1      25.074  -3.755  52.546  1.00  0.00    -0.295 OA
ATOM     11  C   UNL     1      27.357  -4.234  52.084  1.00  0.00     0.084 C 
ENDROOT
TORSDOF 0
ENDMDL
MODEL 9
REMARK VINA RESULT:    -4.201     12.409     14.433
REMARK INTER + INTRA:          -4.201
REMARK INTER:                  -4.201
REMARK INTRA:                   0.000
REMARK UNBOUND:                 0.000
REMARK SMILES CC(C)=C1CC[C@H](C)CC1=O
REMARK SMILES IDX 8 1 7 2 6 3 5 4 4 5 2 6 1 7 3 8 10 9 11 10 9 11
REMARK H PARENT
REMARK Flexibility Score: inf
ROOT
ATOM      1  C   UNL     1      24.525  -3.737  55.214  1.00  0.00     0.008 C 
ATOM      2  C   UNL     1      25.565  -4.650  54.555  1.00  0.00    -0.006 C 
ATOM      3  C   UNL     1      25.869  -4.179  53.123  1.00  0.00     0.008 C 
ATOM      4  C   UNL     1      26.831  -5.139  52.413  1.00  0.00     0.039 C 
ATOM      5  C   UNL     1      28.094  -5.404  53.221  1.00  0.00    -0.006 C 
ATOM      6  C   UNL     1      29.289  -5.651  52.609  1.00  0.00    -0.070 C 
ATOM      7  C   UNL     1      30.561  -5.859  53.400  1.00  0.00     0.039 C 
ATOM      8  C   UNL     1      29.406  -5.690  51.102  1.00  0.00     0.039 C 
ATOM      9  C   UNL     1      27.918  -5.492  54.701  1.00  0.00     0.159 C 
ATOM     10  O   UNL     1      28.644  -6.247  55.403  1.00  0.00    -0.295 OA
ATOM     11  C   UNL     1      26.858  -4.677  55.383  1.00  0.00     0.084 C 
ENDROOT
TORSDOF 0
ENDMDL
