MODEL 1
REMARK VINA RESULT:    -2.848      0.000      0.000
REMARK INTER + INTRA:          -2.848
REMARK INTER:                  -2.848
REMARK INTRA:                   0.000
REMARK UNBOUND:                 0.000
REMARK SMILES CC1(C)O[C@]2(C)CC[C@H]1CC2
REMARK SMILES IDX 1 1 2 2 9 3 10 4 11 5 5 6 4 7 7 8 8 9 6 10 3 11
REMARK H PARENT
REMARK Flexibility Score: inf
ROOT
ATOM      1  C   UNL     1      -6.999 -11.831  32.019  1.00  0.00     0.042 C 
ATOM      2  C   UNL     1      -6.919 -12.935  33.096  1.00  0.00     0.066 C 
ATOM      3  C   UNL     1      -5.876 -12.548  34.215  1.00  0.00     0.021 C 
ATOM      4  C   UNL     1      -6.375 -11.266  34.926  1.00  0.00     0.009 C 
ATOM      5  C   UNL     1      -7.841 -11.473  35.377  1.00  0.00     0.035 C 
ATOM      6  C   UNL     1      -8.294 -12.926  35.049  1.00  0.00     0.066 C 
ATOM      7  O   UNL     1      -8.234 -13.127  33.636  1.00  0.00    -0.369 OA
ATOM      8  C   UNL     1      -7.330 -13.926  35.749  1.00  0.00     0.035 C 
ATOM      9  C   UNL     1      -5.875 -13.661  35.290  1.00  0.00     0.009 C 
ATOM     10  C   UNL     1      -9.734 -13.155  35.521  1.00  0.00     0.042 C 
ATOM     11  C   UNL     1      -6.497 -14.239  32.386  1.00  0.00     0.042 C 
ENDROOT
TORSDOF 0
ENDMDL
MODEL 2
REMARK VINA RESULT:    -2.449      1.040      2.505
REMARK INTER + INTRA:          -2.449
REMARK INTER:                  -2.449
REMARK INTRA:                   0.000
REMARK UNBOUND:                 0.000
REMARK SMILES CC1(C)O[C@]2(C)CC[C@H]1CC2
REMARK SMILES IDX 1 1 2 2 9 3 10 4 11 5 5 6 4 7 7 8 8 9 6 10 3 11
REMARK H PARENT
REMARK Flexibility Score: inf
ROOT
ATOM      1  C   UNL     1      -5.879 -10.697  35.748  1.00  0.00     0.042 C 
ATOM      2  C   UNL     1      -6.725 -11.323  34.618  1.00  0.00     0.066 C 
ATOM      3  C   UNL     1      -5.999 -12.587  34.013  1.00  0.00     0.021 C 
ATOM      4  C   UNL     1      -5.876 -13.659  35.123  1.00  0.00     0.009 C 
ATOM      5  C   UNL     1      -7.266 -13.889  35.764  1.00  0.00     0.035 C 
ATOM      6  C   UNL     1      -8.337 -13.039  35.019  1.00  0.00     0.066 C 
ATOM      7  O   UNL     1      -8.013 -11.654  35.156  1.00  0.00    -0.369 OA
ATOM      8  C   UNL     1      -8.328 -13.420  33.511  1.00  0.00     0.035 C 
ATOM      9  C   UNL     1      -6.912 -13.200  32.924  1.00  0.00     0.009 C 
ATOM     10  C   UNL     1      -9.725 -13.284  35.622  1.00  0.00     0.042 C 
ATOM     11  C   UNL     1      -6.921 -10.238  33.537  1.00  0.00     0.042 C 
ENDROOT
TORSDOF 0
ENDMDL
MODEL 3
REMARK VINA RESULT:    -2.317      0.962      3.297
REMARK INTER + INTRA:          -2.317
REMARK INTER:                  -2.317
REMARK INTRA:                   0.000
REMARK UNBOUND:                 0.000
REMARK SMILES CC1(C)O[C@]2(C)CC[C@H]1CC2
REMARK SMILES IDX 1 1 2 2 9 3 10 4 11 5 5 6 4 7 7 8 8 9 6 10 3 11
REMARK H PARENT
REMARK Flexibility Score: inf
ROOT
ATOM      1  C   UNL     1      -8.786 -13.914  35.753  1.00  0.00     0.042 C 
ATOM      2  C   UNL     1      -8.076 -12.772  34.995  1.00  0.00     0.066 C 
ATOM      3  C   UNL     1      -6.548 -12.710  35.383  1.00  0.00     0.021 C 
ATOM      4  C   UNL     1      -5.875 -14.030  34.932  1.00  0.00     0.009 C 
ATOM      5  C   UNL     1      -6.210 -14.289  33.443  1.00  0.00     0.035 C 
ATOM      6  C   UNL     1      -7.029 -13.095  32.872  1.00  0.00     0.066 C 
ATOM      7  O   UNL     1      -8.261 -12.987  33.588  1.00  0.00    -0.369 OA
ATOM      8  C   UNL     1      -6.212 -11.784  33.060  1.00  0.00     0.035 C 
ATOM      9  C   UNL     1      -5.878 -11.584  34.558  1.00  0.00     0.009 C 
ATOM     10  C   UNL     1      -7.338 -13.322  31.388  1.00  0.00     0.042 C 
ATOM     11  C   UNL     1      -8.788 -11.456  35.376  1.00  0.00     0.042 C 
ENDROOT
TORSDOF 0
ENDMDL
MODEL 4
REMARK VINA RESULT:    -1.492      1.193      2.453
REMARK INTER + INTRA:          -1.492
REMARK INTER:                  -1.492
REMARK INTRA:                   0.000
REMARK UNBOUND:                 0.000
REMARK SMILES CC1(C)O[C@]2(C)CC[C@H]1CC2
REMARK SMILES IDX 1 1 2 2 9 3 10 4 11 5 5 6 4 7 7 8 8 9 6 10 3 11
REMARK H PARENT
REMARK Flexibility Score: inf
ROOT
ATOM      1  C   UNL     1      -5.877 -13.564  32.379  1.00  0.00     0.042 C 
ATOM      2  C   UNL     1      -7.126 -13.016  33.101  1.00  0.00     0.066 C 
ATOM      3  C   UNL     1      -7.212 -13.578  34.573  1.00  0.00     0.021 C 
ATOM      4  C   UNL     1      -5.982 -13.070  35.363  1.00  0.00     0.009 C 
ATOM      5  C   UNL     1      -5.875 -11.534  35.206  1.00  0.00     0.035 C 
ATOM      6  C   UNL     1      -7.088 -11.003  34.386  1.00  0.00     0.066 C 
ATOM      7  O   UNL     1      -7.061 -11.582  33.081  1.00  0.00    -0.369 OA
ATOM      8  C   UNL     1      -8.404 -11.419  35.104  1.00  0.00     0.035 C 
ATOM      9  C   UNL     1      -8.451 -12.958  35.263  1.00  0.00     0.009 C 
ATOM     10  C   UNL     1      -7.013  -9.478  34.252  1.00  0.00     0.042 C 
ATOM     11  C   UNL     1      -8.359 -13.450  32.279  1.00  0.00     0.042 C 
ENDROOT
TORSDOF 0
ENDMDL
MODEL 5
REMARK VINA RESULT:    -0.806      1.257      3.141
REMARK INTER + INTRA:          -0.806
REMARK INTER:                  -0.806
REMARK INTRA:                   0.000
REMARK UNBOUND:                 0.000
REMARK SMILES CC1(C)O[C@]2(C)CC[C@H]1CC2
REMARK SMILES IDX 1 1 2 2 9 3 10 4 11 5 5 6 4 7 7 8 8 9 6 10 3 11
REMARK H PARENT
REMARK Flexibility Score: inf
ROOT
ATOM      1  C   UNL     1      -8.128 -10.540  34.880  1.00  0.00     0.042 C 
ATOM      2  C   UNL     1      -7.029 -11.625  34.879  1.00  0.00     0.066 C 
ATOM      3  C   UNL     1      -7.592 -12.991  35.434  1.00  0.00     0.021 C 
ATOM      4  C   UNL     1      -8.708 -13.484  34.480  1.00  0.00     0.009 C 
ATOM      5  C   UNL     1      -8.171 -13.486  33.028  1.00  0.00     0.035 C 
ATOM      6  C   UNL     1      -6.667 -13.083  33.021  1.00  0.00     0.066 C 
ATOM      7  O   UNL     1      -6.536 -11.758  33.537  1.00  0.00    -0.369 OA
ATOM      8  C   UNL     1      -5.876 -14.067  33.930  1.00  0.00     0.035 C 
ATOM      9  C   UNL     1      -6.467 -14.050  35.361  1.00  0.00     0.009 C 
ATOM     10  C   UNL     1      -6.114 -13.115  31.593  1.00  0.00     0.042 C 
ATOM     11  C   UNL     1      -5.875 -11.111  35.765  1.00  0.00     0.042 C 
ENDROOT
TORSDOF 0
ENDMDL
MODEL 6
REMARK VINA RESULT:    -0.732      1.199      2.947
REMARK INTER + INTRA:          -0.732
REMARK INTER:                  -0.732
REMARK INTRA:                   0.000
REMARK UNBOUND:                 0.000
REMARK SMILES CC1(C)O[C@]2(C)CC[C@H]1CC2
REMARK SMILES IDX 1 1 2 2 9 3 10 4 11 5 5 6 4 7 7 8 8 9 6 10 3 11
REMARK H PARENT
REMARK Flexibility Score: inf
ROOT
ATOM      1  C   UNL     1      -9.680 -13.500  34.291  1.00  0.00     0.042 C 
ATOM      2  C   UNL     1      -8.399 -13.140  35.073  1.00  0.00     0.066 C 
ATOM      3  C   UNL     1      -7.131 -13.789  34.396  1.00  0.00     0.021 C 
ATOM      4  C   UNL     1      -6.971 -13.188  32.979  1.00  0.00     0.009 C 
ATOM      5  C   UNL     1      -7.000 -11.643  33.075  1.00  0.00     0.035 C 
ATOM      6  C   UNL     1      -7.085 -11.210  34.568  1.00  0.00     0.066 C 
ATOM      7  O   UNL     1      -8.299 -11.709  35.132  1.00  0.00    -0.369 OA
ATOM      8  C   UNL     1      -5.877 -11.813  35.340  1.00  0.00     0.035 C 
ATOM      9  C   UNL     1      -5.875 -13.354  35.190  1.00  0.00     0.009 C 
ATOM     10  C   UNL     1      -7.080  -9.682  34.680  1.00  0.00     0.042 C 
ATOM     11  C   UNL     1      -8.578 -13.667  36.514  1.00  0.00     0.042 C 
ENDROOT
TORSDOF 0
ENDMDL
MODEL 7
REMARK VINA RESULT:    -0.652      1.178      2.368
REMARK INTER + INTRA:          -0.652
REMARK INTER:                  -0.652
REMARK INTRA:                   0.000
REMARK UNBOUND:                 0.000
REMARK SMILES CC1(C)O[C@]2(C)CC[C@H]1CC2
REMARK SMILES IDX 1 1 2 2 9 3 10 4 11 5 5 6 4 7 7 8 8 9 6 10 3 11
REMARK H PARENT
REMARK Flexibility Score: inf
ROOT
ATOM      1  C   UNL     1      -8.082 -13.255  31.937  1.00  0.00     0.042 C 
ATOM      2  C   UNL     1      -7.022 -12.775  32.951  1.00  0.00     0.066 C 
ATOM      3  C   UNL     1      -7.667 -11.810  34.020  1.00  0.00     0.021 C 
ATOM      4  C   UNL     1      -8.724 -12.607  34.824  1.00  0.00     0.009 C 
ATOM      5  C   UNL     1      -8.081 -13.912  35.355  1.00  0.00     0.035 C 
ATOM      6  C   UNL     1      -6.569 -13.942  34.986  1.00  0.00     0.066 C 
ATOM      7  O   UNL     1      -6.434 -13.932  33.564  1.00  0.00    -0.369 OA
ATOM      8  C   UNL     1      -5.879 -12.678  35.574  1.00  0.00     0.035 C 
ATOM      9  C   UNL     1      -6.574 -11.404  35.037  1.00  0.00     0.009 C 
ATOM     10  C   UNL     1      -5.912 -15.213  35.536  1.00  0.00     0.042 C 
ATOM     11  C   UNL     1      -5.921 -12.044  32.153  1.00  0.00     0.042 C 
ENDROOT
TORSDOF 0
ENDMDL
MODEL 8
REMARK VINA RESULT:    -0.455      1.338      3.222
REMARK INTER + INTRA:          -0.455
REMARK INTER:                  -0.455
REMARK INTRA:                   0.000
REMARK UNBOUND:                 0.000
REMARK SMILES CC1(C)O[C@]2(C)CC[C@H]1CC2
REMARK SMILES IDX 1 1 2 2 9 3 10 4 11 5 5 6 4 7 7 8 8 9 6 10 3 11
REMARK H PARENT
REMARK Flexibility Score: inf
ROOT
ATOM      1  C   UNL     1      -7.737 -14.470  36.902  1.00  0.00     0.042 C 
ATOM      2  C   UNL     1      -7.048 -13.982  35.609  1.00  0.00     0.066 C 
ATOM      3  C   UNL     1      -8.111 -13.740  34.468  1.00  0.00     0.021 C 
ATOM      4  C   UNL     1      -9.064 -12.607  34.919  1.00  0.00     0.009 C 
ATOM      5  C   UNL     1      -8.226 -11.385  35.367  1.00  0.00     0.035 C 
ATOM      6  C   UNL     1      -6.714 -11.667  35.128  1.00  0.00     0.066 C 
ATOM      7  O   UNL     1      -6.316 -12.788  35.918  1.00  0.00    -0.369 OA
ATOM      8  C   UNL     1      -6.493 -11.997  33.623  1.00  0.00     0.035 C 
ATOM      9  C   UNL     1      -7.372 -13.205  33.217  1.00  0.00     0.009 C 
ATOM     10  C   UNL     1      -5.875 -10.451  35.535  1.00  0.00     0.042 C 
ATOM     11  C   UNL     1      -6.036 -15.070  35.189  1.00  0.00     0.042 C 
ENDROOT
TORSDOF 0
ENDMDL
MODEL 9
REMARK VINA RESULT:     0.021      3.635      4.881
REMARK INTER + INTRA:           0.021
REMARK INTER:                   0.021
REMARK INTRA:                   0.000
REMARK UNBOUND:                 0.000
REMARK SMILES CC1(C)O[C@]2(C)CC[C@H]1CC2
REMARK SMILES IDX 1 1 2 2 9 3 10 4 11 5 5 6 4 7 7 8 8 9 6 10 3 11
REMARK H PARENT
REMARK Flexibility Score: inf
ROOT
ATOM      1  C   UNL     1      -7.388 -16.005  36.138  1.00  0.00     0.042 C 
ATOM      2  C   UNL     1      -8.379 -15.902  37.318  1.00  0.00     0.066 C 
ATOM      3  C   UNL     1      -8.449 -14.421  37.859  1.00  0.00     0.021 C 
ATOM      4  C   UNL     1      -9.002 -13.514  36.733  1.00  0.00     0.009 C 
ATOM      5  C   UNL     1     -10.316 -14.124  36.187  1.00  0.00     0.035 C 
ATOM      6  C   UNL     1     -10.691 -15.389  37.012  1.00  0.00     0.066 C 
ATOM      7  O   UNL     1      -9.659 -16.366  36.867  1.00  0.00    -0.369 OA
ATOM      8  C   UNL     1     -10.817 -14.997  38.512  1.00  0.00     0.035 C 
ATOM      9  C   UNL     1      -9.491 -14.367  39.003  1.00  0.00     0.009 C 
ATOM     10  C   UNL     1     -12.010 -15.983  36.505  1.00  0.00     0.042 C 
ATOM     11  C   UNL     1      -7.881 -16.862  38.420  1.00  0.00     0.042 C 
ENDROOT
TORSDOF 0
ENDMDL
