MODEL 1
REMARK VINA RESULT:    -3.941      0.000      0.000
REMARK INTER + INTRA:          -7.846
REMARK INTER:                  -6.244
REMARK INTRA:                  -1.602
REMARK UNBOUND:                -1.602
REMARK SMILES CCCCCCCCCCCC(=O)[O-]
REMARK SMILES IDX 7 1 8 2 9 3 10 4 11 5 12 6 13 7 14 8 6 9 5 10 4 11 3 12 2 13
REMARK SMILES IDX 1 14
REMARK H PARENT
REMARK Flexibility Score: inf
ROOT
ATOM      1  C   UNL     1      17.404 -31.874  23.606  1.00  0.00     0.000 C 
ENDROOT
BRANCH   1   2
ATOM      2  C   UNL     1      17.388 -32.766  22.350  1.00  0.00     0.000 C 
BRANCH   2   3
ATOM      3  C   UNL     1      16.593 -34.077  22.488  1.00  0.00     0.000 C 
BRANCH   3   4
ATOM      4  C   UNL     1      15.289 -34.077  21.670  1.00  0.00     0.006 C 
BRANCH   4   5
ATOM      5  C   UNL     1      15.523 -33.667  20.210  1.00  0.00     0.053 C 
BRANCH   5   6
ATOM      6  C   UNL     1      16.423 -34.630  19.498  1.00  0.00     0.041 C 
ATOM      7  O   UNL     1      17.420 -34.211  18.855  1.00  0.00    -0.550 OA
ATOM      8  O   UNL     1      16.143 -35.991  19.525  1.00  0.00    -0.550 OA
ENDBRANCH   5   6
ENDBRANCH   4   5
ENDBRANCH   3   4
ENDBRANCH   2   3
ENDBRANCH   1   2
BRANCH   1   9
ATOM      9  C   UNL     1      16.854 -30.461  23.344  1.00  0.00     0.000 C 
BRANCH   9  10
ATOM     10  C   UNL     1      16.419 -30.259  21.883  1.00  0.00    -0.000 C 
BRANCH  10  11
ATOM     11  C   UNL     1      14.895 -30.145  21.728  1.00  0.00    -0.000 C 
BRANCH  11  12
ATOM     12  C   UNL     1      14.208 -30.104  23.098  1.00  0.00    -0.000 C 
BRANCH  12  13
ATOM     13  C   UNL     1      13.213 -31.261  23.250  1.00  0.00    -0.003 C 
ATOM     14  C   UNL     1      13.685 -32.261  24.302  1.00  0.00     0.004 C 
ENDBRANCH  12  13
ENDBRANCH  11  12
ENDBRANCH  10  11
ENDBRANCH   9  10
ENDBRANCH   1   9
TORSDOF 10
ENDMDL
MODEL 2
REMARK VINA RESULT:    -3.938      3.116      5.061
REMARK INTER + INTRA:          -7.841
REMARK INTER:                  -6.530
REMARK INTRA:                  -1.311
REMARK UNBOUND:                -1.602
REMARK SMILES CCCCCCCCCCCC(=O)[O-]
REMARK SMILES IDX 7 1 8 2 9 3 10 4 11 5 12 6 13 7 14 8 6 9 5 10 4 11 3 12 2 13
REMARK SMILES IDX 1 14
REMARK H PARENT
REMARK Flexibility Score: inf
ROOT
ATOM      1  C   UNL     1      16.029 -34.775  21.021  1.00  0.00     0.000 C 
ENDROOT
BRANCH   1   2
ATOM      2  C   UNL     1      14.997 -33.796  21.612  1.00  0.00     0.000 C 
BRANCH   2   3
ATOM      3  C   UNL     1      14.259 -32.922  20.583  1.00  0.00     0.000 C 
BRANCH   3   4
ATOM      4  C   UNL     1      13.562 -31.706  21.219  1.00  0.00     0.006 C 
BRANCH   4   5
ATOM      5  C   UNL     1      14.400 -31.082  22.343  1.00  0.00     0.053 C 
BRANCH   5   6
ATOM      6  C   UNL     1      13.656 -31.056  23.643  1.00  0.00     0.041 C 
ATOM      7  O   UNL     1      13.505 -32.114  24.309  1.00  0.00    -0.550 OA
ATOM      8  O   UNL     1      13.108 -29.866  24.106  1.00  0.00    -0.550 OA
ENDBRANCH   5   6
ENDBRANCH   4   5
ENDBRANCH   3   4
ENDBRANCH   2   3
ENDBRANCH   1   2
BRANCH   1   9
ATOM      9  C   UNL     1      16.204 -34.617  19.502  1.00  0.00     0.000 C 
BRANCH   9  10
ATOM     10  C   UNL     1      17.441 -33.779  19.135  1.00  0.00    -0.000 C 
BRANCH  10  11
ATOM     11  C   UNL     1      18.180 -33.241  20.370  1.00  0.00    -0.000 C 
BRANCH  11  12
ATOM     12  C   UNL     1      18.042 -31.717  20.469  1.00  0.00    -0.000 C 
BRANCH  12  13
ATOM     13  C   UNL     1      18.048 -31.258  21.932  1.00  0.00    -0.003 C 
ATOM     14  C   UNL     1      18.235 -32.439  22.880  1.00  0.00     0.004 C 
ENDBRANCH  12  13
ENDBRANCH  11  12
ENDBRANCH  10  11
ENDBRANCH   9  10
ENDBRANCH   1   9
TORSDOF 10
ENDMDL
MODEL 3
REMARK VINA RESULT:    -3.914      3.133      5.371
REMARK INTER + INTRA:          -7.803
REMARK INTER:                  -6.494
REMARK INTRA:                  -1.309
REMARK UNBOUND:                -1.602
REMARK SMILES CCCCCCCCCCCC(=O)[O-]
REMARK SMILES IDX 7 1 8 2 9 3 10 4 11 5 12 6 13 7 14 8 6 9 5 10 4 11 3 12 2 13
REMARK SMILES IDX 1 14
REMARK H PARENT
REMARK Flexibility Score: inf
ROOT
ATOM      1  C   UNL     1      16.427 -35.520  19.430  1.00  0.00     0.000 C 
ENDROOT
BRANCH   1   2
ATOM      2  C   UNL     1      15.278 -35.028  20.331  1.00  0.00     0.000 C 
BRANCH   2   3
ATOM      3  C   UNL     1      14.734 -33.628  19.992  1.00  0.00     0.000 C 
BRANCH   3   4
ATOM      4  C   UNL     1      14.314 -32.830  21.239  1.00  0.00     0.006 C 
BRANCH   4   5
ATOM      5  C   UNL     1      13.496 -31.582  20.879  1.00  0.00     0.053 C 
BRANCH   5   6
ATOM      6  C   UNL     1      12.804 -31.005  22.075  1.00  0.00     0.041 C 
ATOM      7  O   UNL     1      13.289 -31.160  23.225  1.00  0.00    -0.550 OA
ATOM      8  O   UNL     1      11.605 -30.320  21.919  1.00  0.00    -0.550 OA
ENDBRANCH   5   6
ENDBRANCH   4   5
ENDBRANCH   3   4
ENDBRANCH   2   3
ENDBRANCH   1   2
BRANCH   1   9
ATOM      9  C   UNL     1      17.451 -36.384  20.183  1.00  0.00     0.000 C 
BRANCH   9  10
ATOM     10  C   UNL     1      17.702 -35.886  21.617  1.00  0.00    -0.000 C 
BRANCH  10  11
ATOM     11  C   UNL     1      18.596 -34.637  21.662  1.00  0.00    -0.000 C 
BRANCH  11  12
ATOM     12  C   UNL     1      18.003 -33.574  22.595  1.00  0.00    -0.000 C 
BRANCH  12  13
ATOM     13  C   UNL     1      17.944 -32.207  21.905  1.00  0.00    -0.003 C 
ATOM     14  C   UNL     1      18.215 -32.333  20.407  1.00  0.00     0.004 C 
ENDBRANCH  12  13
ENDBRANCH  11  12
ENDBRANCH  10  11
ENDBRANCH   9  10
ENDBRANCH   1   9
TORSDOF 10
ENDMDL
MODEL 4
REMARK VINA RESULT:    -3.905      2.852      5.409
REMARK INTER + INTRA:          -7.790
REMARK INTER:                  -6.724
REMARK INTRA:                  -1.066
REMARK UNBOUND:                -1.602
REMARK SMILES CCCCCCCCCCCC(=O)[O-]
REMARK SMILES IDX 7 1 8 2 9 3 10 4 11 5 12 6 13 7 14 8 6 9 5 10 4 11 3 12 2 13
REMARK SMILES IDX 1 14
REMARK H PARENT
REMARK Flexibility Score: inf
ROOT
ATOM      1  C   UNL     1      16.480 -32.612  22.492  1.00  0.00     0.000 C 
ENDROOT
BRANCH   1   2
ATOM      2  C   UNL     1      16.527 -31.585  21.345  1.00  0.00     0.000 C 
BRANCH   2   3
ATOM      3  C   UNL     1      15.730 -30.291  21.591  1.00  0.00     0.000 C 
BRANCH   3   4
ATOM      4  C   UNL     1      15.587 -29.950  23.085  1.00  0.00     0.006 C 
BRANCH   4   5
ATOM      5  C   UNL     1      14.129 -29.681  23.480  1.00  0.00     0.053 C 
BRANCH   5   6
ATOM      6  C   UNL     1      13.280 -30.909  23.346  1.00  0.00     0.041 C 
ATOM      7  O   UNL     1      12.463 -31.014  22.396  1.00  0.00    -0.550 OA
ATOM      8  O   UNL     1      13.375 -31.924  24.290  1.00  0.00    -0.550 OA
ENDBRANCH   5   6
ENDBRANCH   4   5
ENDBRANCH   3   4
ENDBRANCH   2   3
ENDBRANCH   1   2
BRANCH   1   9
ATOM      9  C   UNL     1      15.443 -33.723  22.260  1.00  0.00     0.000 C 
BRANCH   9  10
ATOM     10  C   UNL     1      14.974 -33.796  20.796  1.00  0.00    -0.000 C 
BRANCH  10  11
ATOM     11  C   UNL     1      15.349 -35.123  20.120  1.00  0.00    -0.000 C 
BRANCH  11  12
ATOM     12  C   UNL     1      16.637 -34.976  19.301  1.00  0.00    -0.000 C 
BRANCH  12  13
ATOM     13  C   UNL     1      17.473 -36.260  19.356  1.00  0.00    -0.003 C 
ATOM     14  C   UNL     1      17.616 -36.765  20.789  1.00  0.00     0.004 C 
ENDBRANCH  12  13
ENDBRANCH  11  12
ENDBRANCH  10  11
ENDBRANCH   9  10
ENDBRANCH   1   9
TORSDOF 10
ENDMDL
MODEL 5
REMARK VINA RESULT:    -3.896      1.521      2.247
REMARK INTER + INTRA:          -7.775
REMARK INTER:                  -6.647
REMARK INTRA:                  -1.128
REMARK UNBOUND:                -1.602
REMARK SMILES CCCCCCCCCCCC(=O)[O-]
REMARK SMILES IDX 7 1 8 2 9 3 10 4 11 5 12 6 13 7 14 8 6 9 5 10 4 11 3 12 2 13
REMARK SMILES IDX 1 14
REMARK H PARENT
REMARK Flexibility Score: inf
ROOT
ATOM      1  C   UNL     1      16.708 -30.301  21.397  1.00  0.00     0.000 C 
ENDROOT
BRANCH   1   2
ATOM      2  C   UNL     1      18.199 -30.645  21.219  1.00  0.00     0.000 C 
BRANCH   2   3
ATOM      3  C   UNL     1      18.483 -31.988  20.523  1.00  0.00     0.000 C 
BRANCH   3   4
ATOM      4  C   UNL     1      17.380 -33.033  20.763  1.00  0.00     0.006 C 
BRANCH   4   5
ATOM      5  C   UNL     1      17.147 -33.921  19.533  1.00  0.00     0.053 C 
BRANCH   5   6
ATOM      6  C   UNL     1      16.169 -35.020  19.817  1.00  0.00     0.041 C 
ATOM      7  O   UNL     1      15.145 -34.795  20.513  1.00  0.00    -0.550 OA
ATOM      8  O   UNL     1      16.405 -36.301  19.333  1.00  0.00    -0.550 OA
ENDBRANCH   5   6
ENDBRANCH   4   5
ENDBRANCH   3   4
ENDBRANCH   2   3
ENDBRANCH   1   2
BRANCH   1   9
ATOM      9  C   UNL     1      16.355 -29.889  22.836  1.00  0.00     0.000 C 
BRANCH   9  10
ATOM     10  C   UNL     1      15.930 -31.085  23.705  1.00  0.00    -0.000 C 
BRANCH  10  11
ATOM     11  C   UNL     1      14.773 -31.885  23.087  1.00  0.00    -0.000 C 
BRANCH  11  12
ATOM     12  C   UNL     1      13.434 -31.175  23.316  1.00  0.00    -0.000 C 
BRANCH  12  13
ATOM     13  C   UNL     1      12.782 -30.785  21.984  1.00  0.00    -0.003 C 
ATOM     14  C   UNL     1      13.352 -31.606  20.830  1.00  0.00     0.004 C 
ENDBRANCH  12  13
ENDBRANCH  11  12
ENDBRANCH  10  11
ENDBRANCH   9  10
ENDBRANCH   1   9
TORSDOF 10
ENDMDL
MODEL 6
REMARK VINA RESULT:    -3.893      1.284      3.174
REMARK INTER + INTRA:          -7.770
REMARK INTER:                  -6.473
REMARK INTRA:                  -1.297
REMARK UNBOUND:                -1.602
REMARK SMILES CCCCCCCCCCCC(=O)[O-]
REMARK SMILES IDX 7 1 8 2 9 3 10 4 11 5 12 6 13 7 14 8 6 9 5 10 4 11 3 12 2 13
REMARK SMILES IDX 1 14
REMARK H PARENT
REMARK Flexibility Score: inf
ROOT
ATOM      1  C   UNL     1      13.468 -30.993  21.595  1.00  0.00     0.000 C 
ENDROOT
BRANCH   1   2
ATOM      2  C   UNL     1      13.913 -32.357  21.036  1.00  0.00     0.000 C 
BRANCH   2   3
ATOM      3  C   UNL     1      14.622 -33.279  22.045  1.00  0.00     0.000 C 
BRANCH   3   4
ATOM      4  C   UNL     1      15.781 -34.074  21.421  1.00  0.00     0.006 C 
BRANCH   4   5
ATOM      5  C   UNL     1      15.611 -34.251  19.906  1.00  0.00     0.053 C 
BRANCH   5   6
ATOM      6  C   UNL     1      16.768 -34.983  19.297  1.00  0.00     0.041 C 
ATOM      7  O   UNL     1      16.728 -36.233  19.162  1.00  0.00    -0.550 OA
ATOM      8  O   UNL     1      17.902 -34.283  18.903  1.00  0.00    -0.550 OA
ENDBRANCH   5   6
ENDBRANCH   4   5
ENDBRANCH   3   4
ENDBRANCH   2   3
ENDBRANCH   1   2
BRANCH   1   9
ATOM      9  C   UNL     1      13.967 -30.739  23.027  1.00  0.00     0.000 C 
BRANCH   9  10
ATOM     10  C   UNL     1      14.930 -29.543  23.112  1.00  0.00    -0.000 C 
BRANCH  10  11
ATOM     11  C   UNL     1      15.928 -29.501  21.944  1.00  0.00    -0.000 C 
BRANCH  11  12
ATOM     12  C   UNL     1      17.064 -30.509  22.158  1.00  0.00    -0.000 C 
BRANCH  12  13
ATOM     13  C   UNL     1      17.646 -30.974  20.818  1.00  0.00    -0.003 C 
ATOM     14  C   UNL     1      19.085 -31.456  20.980  1.00  0.00     0.004 C 
ENDBRANCH  12  13
ENDBRANCH  11  12
ENDBRANCH  10  11
ENDBRANCH   9  10
ENDBRANCH   1   9
TORSDOF 10
ENDMDL
MODEL 7
REMARK VINA RESULT:    -3.887      3.756      5.826
REMARK INTER + INTRA:          -7.761
REMARK INTER:                  -6.561
REMARK INTRA:                  -1.201
REMARK UNBOUND:                -1.602
REMARK SMILES CCCCCCCCCCCC(=O)[O-]
REMARK SMILES IDX 7 1 8 2 9 3 10 4 11 5 12 6 13 7 14 8 6 9 5 10 4 11 3 12 2 13
REMARK SMILES IDX 1 14
REMARK H PARENT
REMARK Flexibility Score: inf
ROOT
ATOM      1  C   UNL     1      14.608 -33.152  21.167  1.00  0.00     0.000 C 
ENDROOT
BRANCH   1   2
ATOM      2  C   UNL     1      13.987 -31.749  21.309  1.00  0.00     0.000 C 
BRANCH   2   3
ATOM      3  C   UNL     1      14.992 -30.608  21.546  1.00  0.00     0.000 C 
BRANCH   3   4
ATOM      4  C   UNL     1      14.742 -29.852  22.862  1.00  0.00     0.006 C 
BRANCH   4   5
ATOM      5  C   UNL     1      13.453 -30.311  23.557  1.00  0.00     0.053 C 
BRANCH   5   6
ATOM      6  C   UNL     1      12.452 -29.202  23.665  1.00  0.00     0.041 C 
ATOM      7  O   UNL     1      12.554 -28.342  24.578  1.00  0.00    -0.550 OA
ATOM      8  O   UNL     1      11.391 -29.135  22.771  1.00  0.00    -0.550 OA
ENDBRANCH   5   6
ENDBRANCH   4   5
ENDBRANCH   3   4
ENDBRANCH   2   3
ENDBRANCH   1   2
BRANCH   1   9
ATOM      9  C   UNL     1      15.346 -33.611  22.436  1.00  0.00     0.000 C 
BRANCH   9  10
ATOM     10  C   UNL     1      16.869 -33.692  22.236  1.00  0.00    -0.000 C 
BRANCH  10  11
ATOM     11  C   UNL     1      17.259 -34.022  20.787  1.00  0.00    -0.000 C 
BRANCH  11  12
ATOM     12  C   UNL     1      18.007 -32.849  20.142  1.00  0.00    -0.000 C 
BRANCH  12  13
ATOM     13  C   UNL     1      18.716 -31.998  21.202  1.00  0.00    -0.003 C 
ATOM     14  C   UNL     1      18.555 -30.508  20.911  1.00  0.00     0.004 C 
ENDBRANCH  12  13
ENDBRANCH  11  12
ENDBRANCH  10  11
ENDBRANCH   9  10
ENDBRANCH   1   9
TORSDOF 10
ENDMDL
MODEL 8
REMARK VINA RESULT:    -3.885      1.630      2.531
REMARK INTER + INTRA:          -7.758
REMARK INTER:                  -6.711
REMARK INTRA:                  -1.047
REMARK UNBOUND:                -1.602
REMARK SMILES CCCCCCCCCCCC(=O)[O-]
REMARK SMILES IDX 7 1 8 2 9 3 10 4 11 5 12 6 13 7 14 8 6 9 5 10 4 11 3 12 2 13
REMARK SMILES IDX 1 14
REMARK H PARENT
REMARK Flexibility Score: inf
ROOT
ATOM      1  C   UNL     1      17.685 -31.688  20.506  1.00  0.00     0.000 C 
ENDROOT
BRANCH   1   2
ATOM      2  C   UNL     1      18.320 -33.091  20.571  1.00  0.00     0.000 C 
BRANCH   2   3
ATOM      3  C   UNL     1      18.070 -33.979  19.339  1.00  0.00     0.000 C 
BRANCH   3   4
ATOM      4  C   UNL     1      16.594 -34.381  19.178  1.00  0.00     0.006 C 
BRANCH   4   5
ATOM      5  C   UNL     1      16.211 -35.554  20.090  1.00  0.00     0.053 C 
BRANCH   5   6
ATOM      6  C   UNL     1      17.255 -36.628  20.085  1.00  0.00     0.041 C 
ATOM      7  O   UNL     1      17.903 -36.888  21.132  1.00  0.00    -0.550 OA
ATOM      8  O   UNL     1      17.531 -37.322  18.913  1.00  0.00    -0.550 OA
ENDBRANCH   5   6
ENDBRANCH   4   5
ENDBRANCH   3   4
ENDBRANCH   2   3
ENDBRANCH   1   2
BRANCH   1   9
ATOM      9  C   UNL     1      16.689 -31.428  21.648  1.00  0.00     0.000 C 
BRANCH   9  10
ATOM     10  C   UNL     1      16.462 -32.670  22.527  1.00  0.00    -0.000 C 
BRANCH  10  11
ATOM     11  C   UNL     1      14.982 -33.071  22.617  1.00  0.00    -0.000 C 
BRANCH  11  12
ATOM     12  C   UNL     1      14.074 -31.843  22.476  1.00  0.00    -0.000 C 
BRANCH  12  13
ATOM     13  C   UNL     1      13.720 -31.260  23.849  1.00  0.00    -0.003 C 
ATOM     14  C   UNL     1      13.171 -29.841  23.720  1.00  0.00     0.004 C 
ENDBRANCH  12  13
ENDBRANCH  11  12
ENDBRANCH  10  11
ENDBRANCH   9  10
ENDBRANCH   1   9
TORSDOF 10
ENDMDL
MODEL 9
REMARK VINA RESULT:    -3.831      2.384      4.098
REMARK INTER + INTRA:          -7.672
REMARK INTER:                  -5.968
REMARK INTRA:                  -1.705
REMARK UNBOUND:                -1.602
REMARK SMILES CCCCCCCCCCCC(=O)[O-]
REMARK SMILES IDX 7 1 8 2 9 3 10 4 11 5 12 6 13 7 14 8 6 9 5 10 4 11 3 12 2 13
REMARK SMILES IDX 1 14
REMARK H PARENT
REMARK Flexibility Score: inf
ROOT
ATOM      1  C   UNL     1      14.063 -31.199  21.916  1.00  0.00     0.000 C 
ENDROOT
BRANCH   1   2
ATOM      2  C   UNL     1      14.249 -32.570  21.240  1.00  0.00     0.000 C 
BRANCH   2   3
ATOM      3  C   UNL     1      15.025 -33.610  22.069  1.00  0.00     0.000 C 
BRANCH   3   4
ATOM      4  C   UNL     1      15.078 -33.263  23.567  1.00  0.00     0.006 C 
BRANCH   4   5
ATOM      5  C   UNL     1      16.507 -33.317  24.123  1.00  0.00     0.053 C 
BRANCH   5   6
ATOM      6  C   UNL     1      17.005 -34.725  24.246  1.00  0.00     0.041 C 
ATOM      7  O   UNL     1      16.738 -35.405  25.270  1.00  0.00    -0.550 OA
ATOM      8  O   UNL     1      17.788 -35.275  23.238  1.00  0.00    -0.550 OA
ENDBRANCH   5   6
ENDBRANCH   4   5
ENDBRANCH   3   4
ENDBRANCH   2   3
ENDBRANCH   1   2
BRANCH   1   9
ATOM      9  C   UNL     1      15.129 -30.173  21.497  1.00  0.00     0.000 C 
BRANCH   9  10
ATOM     10  C   UNL     1      16.127 -29.865  22.627  1.00  0.00    -0.000 C 
BRANCH  10  11
ATOM     11  C   UNL     1      17.574 -30.221  22.253  1.00  0.00    -0.000 C 
BRANCH  11  12
ATOM     12  C   UNL     1      17.630 -30.922  20.890  1.00  0.00    -0.000 C 
BRANCH  12  13
ATOM     13  C   UNL     1      18.372 -32.260  20.990  1.00  0.00    -0.003 C 
ATOM     14  C   UNL     1      17.923 -33.223  19.893  1.00  0.00     0.004 C 
ENDBRANCH  12  13
ENDBRANCH  11  12
ENDBRANCH  10  11
ENDBRANCH   9  10
ENDBRANCH   1   9
TORSDOF 10
ENDMDL
