MODEL 1
REMARK VINA RESULT:    -6.381      0.000      0.000
REMARK INTER + INTRA:          -9.715
REMARK INTER:                  -8.620
REMARK INTRA:                  -1.096
REMARK UNBOUND:                -1.096
REMARK SMILES O=c1c(-c2ccc(O)cc2)coc2c([C@@H]3O[C@@H](CO)[C@@H](O)[C@@H](O)[C@H]3O)c(O)ccc12
REMARK SMILES IDX 3 1 11 2 12 3 13 4 30 5 2 6 1 7 29 8 28 9 26 10 14 11 4 12
REMARK SMILES IDX 5 13 6 14 7 15 10 16 9 17 8 18 15 20 24 21 16 22 22 23 17 24
REMARK SMILES IDX 20 25 25 26 23 28 18 30 19 31 21 33 27 35
REMARK H PARENT 8 19 25 27 23 29 19 32 21 34 27 36
REMARK Flexibility Score: inf
ROOT
ATOM      1  C   UNL     1     267.833 -33.102  51.218  1.00  0.00     0.065 A 
ATOM      2  C   UNL     1     267.579 -32.344  50.064  1.00  0.00     0.208 A 
ATOM      3  O   UNL     1     267.591 -32.903  48.866  1.00  0.00    -0.463 OA
ATOM      4  C   UNL     1     267.865 -34.191  48.665  1.00  0.00     0.147 A 
ATOM      5  C   UNL     1     268.236 -35.004  49.757  1.00  0.00     0.066 A 
ATOM      6  C   UNL     1     268.221 -34.445  51.050  1.00  0.00     0.200 A 
ATOM      7  O   UNL     1     268.512 -35.149  52.056  1.00  0.00    -0.288 OA
ATOM      8  C   UNL     1     268.515 -36.367  49.545  1.00  0.00     0.020 A 
ATOM      9  C   UNL     1     268.388 -36.924  48.277  1.00  0.00     0.047 A 
ATOM     10  C   UNL     1     268.038 -36.124  47.190  1.00  0.00     0.125 A 
ATOM     11  C   UNL     1     267.723 -34.746  47.365  1.00  0.00     0.069 A 
ENDROOT
BRANCH   1  12
ATOM     12  C   UNL     1     267.583 -32.504  52.555  1.00  0.00    -0.011 A 
ATOM     13  C   UNL     1     266.271 -32.297  53.005  1.00  0.00     0.013 A 
ATOM     14  C   UNL     1     266.024 -31.623  54.213  1.00  0.00     0.047 A 
ATOM     15  C   UNL     1     267.104 -31.113  54.960  1.00  0.00     0.115 A 
ATOM     16  C   UNL     1     268.649 -32.003  53.324  1.00  0.00     0.013 A 
ATOM     17  C   UNL     1     268.407 -31.325  54.519  1.00  0.00     0.047 A 
BRANCH  15  18
ATOM     18  O   UNL     1     266.880 -30.397  56.132  1.00  0.00    -0.508 OA
ATOM     19  H   UNL     1     266.246 -29.609  56.155  1.00  0.00     0.293 HD
ENDBRANCH  15  18
ENDBRANCH   1  12
BRANCH  11  20
ATOM     20  C   UNL     1     266.907 -34.001  46.304  1.00  0.00     0.188 C 
ATOM     21  C   UNL     1     267.899 -33.141  45.457  1.00  0.00     0.179 C 
ATOM     22  O   UNL     1     266.112 -34.946  45.589  1.00  0.00    -0.362 OA
ATOM     23  C   UNL     1     268.383 -33.916  44.219  1.00  0.00     0.177 C 
ATOM     24  C   UNL     1     265.903 -34.669  44.213  1.00  0.00     0.176 C 
ATOM     25  C   UNL     1     267.223 -34.543  43.402  1.00  0.00     0.177 C 
BRANCH  21  26
ATOM     26  O   UNL     1     267.325 -31.911  45.091  1.00  0.00    -0.387 OA
ATOM     27  H   UNL     1     267.881 -31.537  44.355  1.00  0.00     0.211 HD
ENDBRANCH  21  26
BRANCH  23  28
ATOM     28  O   UNL     1     269.242 -33.137  43.418  1.00  0.00    -0.387 OA
ATOM     29  H   UNL     1     269.160 -32.188  43.701  1.00  0.00     0.211 HD
ENDBRANCH  23  28
BRANCH  24  30
ATOM     30  C   UNL     1     264.870 -33.546  43.988  1.00  0.00     0.191 C 
BRANCH  30  31
ATOM     31  O   UNL     1     264.122 -33.781  42.824  1.00  0.00    -0.394 OA
ATOM     32  H   UNL     1     264.234 -32.962  42.266  1.00  0.00     0.210 HD
ENDBRANCH  30  31
ENDBRANCH  24  30
BRANCH  25  33
ATOM     33  O   UNL     1     266.999 -33.842  42.198  1.00  0.00    -0.388 OA
ATOM     34  H   UNL     1     266.326 -34.352  41.662  1.00  0.00     0.211 HD
ENDBRANCH  25  33
ENDBRANCH  11  20
BRANCH  10  35
ATOM     35  O   UNL     1     267.969 -36.761  45.952  1.00  0.00    -0.507 OA
ATOM     36  H   UNL     1     268.541 -36.515  45.163  1.00  0.00     0.293 HD
ENDBRANCH  10  35
TORSDOF 9
ENDMDL
MODEL 2
REMARK VINA RESULT:    -6.020      2.288      4.164
REMARK INTER + INTRA:          -9.227
REMARK INTER:                  -8.246
REMARK INTRA:                  -0.981
REMARK UNBOUND:                -1.096
REMARK SMILES O=c1c(-c2ccc(O)cc2)coc2c([C@@H]3O[C@@H](CO)[C@@H](O)[C@@H](O)[C@H]3O)c(O)ccc12
REMARK SMILES IDX 3 1 11 2 12 3 13 4 30 5 2 6 1 7 29 8 28 9 26 10 14 11 4 12
REMARK SMILES IDX 5 13 6 14 7 15 10 16 9 17 8 18 15 20 24 21 16 22 22 23 17 24
REMARK SMILES IDX 20 25 25 26 23 28 18 30 19 31 21 33 27 35
REMARK H PARENT 8 19 25 27 23 29 19 32 21 34 27 36
REMARK Flexibility Score: inf
ROOT
ATOM      1  C   UNL     1     267.921 -35.033  51.509  1.00  0.00     0.065 A 
ATOM      2  C   UNL     1     268.019 -35.711  50.284  1.00  0.00     0.208 A 
ATOM      3  O   UNL     1     267.858 -35.073  49.138  1.00  0.00    -0.463 OA
ATOM      4  C   UNL     1     267.571 -33.775  49.060  1.00  0.00     0.147 A 
ATOM      5  C   UNL     1     267.350 -33.038  50.243  1.00  0.00     0.066 A 
ATOM      6  C   UNL     1     267.527 -33.683  51.483  1.00  0.00     0.200 A 
ATOM      7  O   UNL     1     267.373 -33.048  52.563  1.00  0.00    -0.288 OA
ATOM      8  C   UNL     1     267.058 -31.663  50.161  1.00  0.00     0.020 A 
ATOM      9  C   UNL     1     267.025 -31.022  48.927  1.00  0.00     0.047 A 
ATOM     10  C   UNL     1     267.226 -31.746  47.753  1.00  0.00     0.125 A 
ATOM     11  C   UNL     1     267.550 -33.133  47.793  1.00  0.00     0.069 A 
ENDROOT
BRANCH   1  12
ATOM     12  C   UNL     1     268.336 -35.720  52.760  1.00  0.00    -0.011 A 
ATOM     13  C   UNL     1     269.687 -35.760  53.133  1.00  0.00     0.013 A 
ATOM     14  C   UNL     1     270.103 -36.509  54.246  1.00  0.00     0.047 A 
ATOM     15  C   UNL     1     269.160 -37.261  54.973  1.00  0.00     0.115 A 
ATOM     16  C   UNL     1     267.405 -36.464  53.508  1.00  0.00     0.013 A 
ATOM     17  C   UNL     1     267.817 -37.216  54.609  1.00  0.00     0.047 A 
BRANCH  15  18
ATOM     18  O   UNL     1     269.557 -38.051  56.048  1.00  0.00    -0.508 OA
ATOM     19  H   UNL     1     270.506 -38.392  56.127  1.00  0.00     0.293 HD
ENDBRANCH  15  18
ENDBRANCH   1  12
BRANCH  11  20
ATOM     20  C   UNL     1     268.217 -33.804  46.588  1.00  0.00     0.188 C 
ATOM     21  C   UNL     1     267.183 -34.795  45.963  1.00  0.00     0.179 C 
ATOM     22  O   UNL     1     268.731 -32.791  45.725  1.00  0.00    -0.362 OA
ATOM     23  C   UNL     1     266.370 -34.113  44.850  1.00  0.00     0.177 C 
ATOM     24  C   UNL     1     268.689 -33.077  44.336  1.00  0.00     0.176 C 
ATOM     25  C   UNL     1     267.256 -33.376  43.812  1.00  0.00     0.177 C 
BRANCH  21  26
ATOM     26  O   UNL     1     267.813 -35.959  45.489  1.00  0.00    -0.387 OA
ATOM     27  H   UNL     1     268.643 -35.671  45.021  1.00  0.00     0.211 HD
ENDBRANCH  21  26
BRANCH  23  28
ATOM     28  O   UNL     1     265.465 -35.007  44.241  1.00  0.00    -0.387 OA
ATOM     29  H   UNL     1     265.717 -35.932  44.501  1.00  0.00     0.211 HD
ENDBRANCH  23  28
BRANCH  24  30
ATOM     30  C   UNL     1     269.781 -34.077  43.906  1.00  0.00     0.191 C 
BRANCH  30  31
ATOM     31  O   UNL     1     270.125 -33.892  42.558  1.00  0.00    -0.394 OA
ATOM     32  H   UNL     1     269.325 -33.473  42.134  1.00  0.00     0.210 HD
ENDBRANCH  30  31
ENDBRANCH  24  30
BRANCH  25  33
ATOM     33  O   UNL     1     267.314 -34.077  42.588  1.00  0.00    -0.388 OA
ATOM     34  H   UNL     1     266.483 -34.626  42.506  1.00  0.00     0.211 HD
ENDBRANCH  25  33
ENDBRANCH  11  20
BRANCH  10  35
ATOM     35  O   UNL     1     267.142 -31.027  46.562  1.00  0.00    -0.507 OA
ATOM     36  H   UNL     1     266.327 -31.014  45.972  1.00  0.00     0.293 HD
ENDBRANCH  10  35
TORSDOF 9
ENDMDL
MODEL 3
REMARK VINA RESULT:    -5.960      6.657     10.817
REMARK INTER + INTRA:          -9.147
REMARK INTER:                  -8.645
REMARK INTRA:                  -0.502
REMARK UNBOUND:                -1.096
REMARK SMILES O=c1c(-c2ccc(O)cc2)coc2c([C@@H]3O[C@@H](CO)[C@@H](O)[C@@H](O)[C@H]3O)c(O)ccc12
REMARK SMILES IDX 3 1 11 2 12 3 13 4 30 5 2 6 1 7 29 8 28 9 26 10 14 11 4 12
REMARK SMILES IDX 5 13 6 14 7 15 10 16 9 17 8 18 15 20 24 21 16 22 22 23 17 24
REMARK SMILES IDX 20 25 25 26 23 28 18 30 19 31 21 33 27 35
REMARK H PARENT 8 19 25 27 23 29 19 32 21 34 27 36
REMARK Flexibility Score: inf
ROOT
ATOM      1  C   UNL     1     261.740 -28.037  57.450  1.00  0.00     0.065 A 
ATOM      2  C   UNL     1     262.731 -29.019  57.295  1.00  0.00     0.208 A 
ATOM      3  O   UNL     1     263.578 -28.978  56.281  1.00  0.00    -0.463 OA
ATOM      4  C   UNL     1     263.540 -28.040  55.337  1.00  0.00     0.147 A 
ATOM      5  C   UNL     1     262.511 -27.075  55.354  1.00  0.00     0.066 A 
ATOM      6  C   UNL     1     261.599 -27.080  56.428  1.00  0.00     0.200 A 
ATOM      7  O   UNL     1     260.686 -26.211  56.497  1.00  0.00    -0.288 OA
ATOM      8  C   UNL     1     262.477 -26.077  54.362  1.00  0.00     0.020 A 
ATOM      9  C   UNL     1     263.472 -26.014  53.391  1.00  0.00     0.047 A 
ATOM     10  C   UNL     1     264.482 -26.973  53.358  1.00  0.00     0.125 A 
ATOM     11  C   UNL     1     264.568 -27.984  54.357  1.00  0.00     0.069 A 
ENDROOT
BRANCH   1  12
ATOM     12  C   UNL     1     260.962 -27.976  58.714  1.00  0.00    -0.011 A 
ATOM     13  C   UNL     1     259.766 -28.696  58.846  1.00  0.00     0.013 A 
ATOM     14  C   UNL     1     258.963 -28.550  59.990  1.00  0.00     0.047 A 
ATOM     15  C   UNL     1     259.341 -27.641  60.997  1.00  0.00     0.115 A 
ATOM     16  C   UNL     1     261.334 -27.086  59.739  1.00  0.00     0.013 A 
ATOM     17  C   UNL     1     260.533 -26.933  60.871  1.00  0.00     0.047 A 
BRANCH  15  18
ATOM     18  O   UNL     1     258.535 -27.443  62.113  1.00  0.00    -0.508 OA
ATOM     19  H   UNL     1     257.557 -27.700  62.108  1.00  0.00     0.293 HD
ENDBRANCH  15  18
ENDBRANCH   1  12
BRANCH  11  20
ATOM     20  C   UNL     1     265.889 -28.722  54.598  1.00  0.00     0.188 C 
ATOM     21  C   UNL     1     265.589 -30.255  54.577  1.00  0.00     0.179 C 
ATOM     22  O   UNL     1     266.856 -28.249  53.661  1.00  0.00    -0.362 OA
ATOM     23  C   UNL     1     265.781 -30.835  53.165  1.00  0.00     0.177 C 
ATOM     24  C   UNL     1     267.796 -29.206  53.201  1.00  0.00     0.176 C 
ATOM     25  C   UNL     1     267.136 -30.440  52.524  1.00  0.00     0.177 C 
BRANCH  21  26
ATOM     26  O   UNL     1     266.376 -30.943  55.517  1.00  0.00    -0.387 OA
ATOM     27  H   UNL     1     266.698 -31.775  55.076  1.00  0.00     0.211 HD
ENDBRANCH  21  26
BRANCH  23  28
ATOM     28  O   UNL     1     265.561 -32.227  53.138  1.00  0.00    -0.387 OA
ATOM     29  H   UNL     1     265.570 -32.564  54.072  1.00  0.00     0.211 HD
ENDBRANCH  23  28
BRANCH  24  30
ATOM     30  C   UNL     1     268.882 -29.519  54.249  1.00  0.00     0.191 C 
BRANCH  30  31
ATOM     31  O   UNL     1     270.088 -29.878  53.628  1.00  0.00    -0.394 OA
ATOM     32  H   UNL     1     269.828 -30.280  52.752  1.00  0.00     0.210 HD
ENDBRANCH  30  31
ENDBRANCH  24  30
BRANCH  25  33
ATOM     33  O   UNL     1     268.035 -31.529  52.499  1.00  0.00    -0.388 OA
ATOM     34  H   UNL     1     268.776 -31.306  51.867  1.00  0.00     0.211 HD
ENDBRANCH  25  33
ENDBRANCH  11  20
BRANCH  10  35
ATOM     35  O   UNL     1     265.416 -26.851  52.330  1.00  0.00    -0.507 OA
ATOM     36  H   UNL     1     265.173 -26.682  51.369  1.00  0.00     0.293 HD
ENDBRANCH  10  35
TORSDOF 9
ENDMDL
MODEL 4
REMARK VINA RESULT:    -5.954      6.050      8.842
REMARK INTER + INTRA:          -9.138
REMARK INTER:                  -8.008
REMARK INTRA:                  -1.130
REMARK UNBOUND:                -1.096
REMARK SMILES O=c1c(-c2ccc(O)cc2)coc2c([C@@H]3O[C@@H](CO)[C@@H](O)[C@@H](O)[C@H]3O)c(O)ccc12
REMARK SMILES IDX 3 1 11 2 12 3 13 4 30 5 2 6 1 7 29 8 28 9 26 10 14 11 4 12
REMARK SMILES IDX 5 13 6 14 7 15 10 16 9 17 8 18 15 20 24 21 16 22 22 23 17 24
REMARK SMILES IDX 20 25 25 26 23 28 18 30 19 31 21 33 27 35
REMARK H PARENT 8 19 25 27 23 29 19 32 21 34 27 36
REMARK Flexibility Score: inf
ROOT
ATOM      1  C   UNL     1     263.961 -28.384  56.828  1.00  0.00     0.065 A 
ATOM      2  C   UNL     1     264.093 -27.568  55.693  1.00  0.00     0.208 A 
ATOM      3  O   UNL     1     265.084 -27.748  54.837  1.00  0.00    -0.463 OA
ATOM      4  C   UNL     1     266.025 -28.676  54.996  1.00  0.00     0.147 A 
ATOM      5  C   UNL     1     266.031 -29.471  56.162  1.00  0.00     0.066 A 
ATOM      6  C   UNL     1     264.982 -29.316  57.089  1.00  0.00     0.200 A 
ATOM      7  O   UNL     1     264.933 -30.033  58.127  1.00  0.00    -0.288 OA
ATOM      8  C   UNL     1     267.020 -30.459  56.324  1.00  0.00     0.020 A 
ATOM      9  C   UNL     1     267.964 -30.683  55.327  1.00  0.00     0.047 A 
ATOM     10  C   UNL     1     267.975 -29.892  54.180  1.00  0.00     0.125 A 
ATOM     11  C   UNL     1     266.977 -28.898  53.964  1.00  0.00     0.069 A 
ENDROOT
BRANCH   1  12
ATOM     12  C   UNL     1     262.717 -28.314  57.638  1.00  0.00    -0.011 A 
ATOM     13  C   UNL     1     261.571 -29.017  57.241  1.00  0.00     0.013 A 
ATOM     14  C   UNL     1     260.357 -28.861  57.931  1.00  0.00     0.047 A 
ATOM     15  C   UNL     1     260.279 -27.958  59.009  1.00  0.00     0.115 A 
ATOM     16  C   UNL     1     262.625 -27.429  58.728  1.00  0.00     0.013 A 
ATOM     17  C   UNL     1     261.418 -27.265  59.410  1.00  0.00     0.047 A 
BRANCH  15  18
ATOM     18  O   UNL     1     259.075 -27.749  59.674  1.00  0.00    -0.508 OA
ATOM     19  H   UNL     1     258.477 -26.964  59.447  1.00  0.00     0.293 HD
ENDBRANCH  15  18
ENDBRANCH   1  12
BRANCH  11  20
ATOM     20  C   UNL     1     266.705 -28.371  52.552  1.00  0.00     0.188 C 
ATOM     21  C   UNL     1     267.471 -27.019  52.391  1.00  0.00     0.179 C 
ATOM     22  O   UNL     1     267.019 -29.397  51.611  1.00  0.00    -0.362 OA
ATOM     23  C   UNL     1     268.871 -27.247  51.796  1.00  0.00     0.177 C 
ATOM     24  C   UNL     1     267.551 -28.962  50.370  1.00  0.00     0.176 C 
ATOM     25  C   UNL     1     268.854 -28.126  50.519  1.00  0.00     0.177 C 
BRANCH  21  26
ATOM     26  O   UNL     1     266.736 -26.103  51.620  1.00  0.00    -0.387 OA
ATOM     27  H   UNL     1     266.909 -26.321  50.665  1.00  0.00     0.211 HD
ENDBRANCH  21  26
BRANCH  23  28
ATOM     28  O   UNL     1     269.559 -26.032  51.599  1.00  0.00    -0.387 OA
ATOM     29  H   UNL     1     270.449 -26.236  51.205  1.00  0.00     0.211 HD
ENDBRANCH  23  28
BRANCH  24  30
ATOM     30  C   UNL     1     266.474 -28.364  49.443  1.00  0.00     0.191 C 
BRANCH  30  31
ATOM     31  O   UNL     1     266.743 -28.672  48.101  1.00  0.00    -0.394 OA
ATOM     32  H   UNL     1     267.566 -28.159  47.869  1.00  0.00     0.210 HD
ENDBRANCH  30  31
ENDBRANCH  24  30
BRANCH  25  33
ATOM     33  O   UNL     1     269.083 -27.358  49.357  1.00  0.00    -0.388 OA
ATOM     34  H   UNL     1     268.198 -27.169  48.930  1.00  0.00     0.211 HD
ENDBRANCH  25  33
ENDBRANCH  11  20
BRANCH  10  35
ATOM     35  O   UNL     1     268.977 -30.165  53.251  1.00  0.00    -0.507 OA
ATOM     36  H   UNL     1     269.240 -31.093  52.966  1.00  0.00     0.293 HD
ENDBRANCH  10  35
TORSDOF 9
ENDMDL
MODEL 5
REMARK VINA RESULT:    -5.875      6.038     11.885
REMARK INTER + INTRA:          -9.032
REMARK INTER:                  -8.032
REMARK INTRA:                  -1.000
REMARK UNBOUND:                -1.096
REMARK SMILES O=c1c(-c2ccc(O)cc2)coc2c([C@@H]3O[C@@H](CO)[C@@H](O)[C@@H](O)[C@H]3O)c(O)ccc12
REMARK SMILES IDX 3 1 11 2 12 3 13 4 30 5 2 6 1 7 29 8 28 9 26 10 14 11 4 12
REMARK SMILES IDX 5 13 6 14 7 15 10 16 9 17 8 18 15 20 24 21 16 22 22 23 17 24
REMARK SMILES IDX 20 25 25 26 23 28 18 30 19 31 21 33 27 35
REMARK H PARENT 8 19 25 27 23 29 19 32 21 34 27 36
REMARK Flexibility Score: inf
ROOT
ATOM      1  C   UNL     1     266.418 -30.839  54.214  1.00  0.00     0.065 A 
ATOM      2  C   UNL     1     266.152 -30.620  55.575  1.00  0.00     0.208 A 
ATOM      3  O   UNL     1     265.399 -29.607  55.967  1.00  0.00    -0.463 OA
ATOM      4  C   UNL     1     264.870 -28.722  55.124  1.00  0.00     0.147 A 
ATOM      5  C   UNL     1     265.172 -28.804  53.747  1.00  0.00     0.066 A 
ATOM      6  C   UNL     1     265.960 -29.879  53.292  1.00  0.00     0.200 A 
ATOM      7  O   UNL     1     266.223 -30.006  52.064  1.00  0.00    -0.288 OA
ATOM      8  C   UNL     1     264.604 -27.875  52.855  1.00  0.00     0.020 A 
ATOM      9  C   UNL     1     263.718 -26.907  53.315  1.00  0.00     0.047 A 
ATOM     10  C   UNL     1     263.427 -26.809  54.675  1.00  0.00     0.125 A 
ATOM     11  C   UNL     1     263.960 -27.744  55.608  1.00  0.00     0.069 A 
ENDROOT
BRANCH   1  12
ATOM     12  C   UNL     1     267.065 -32.108  53.791  1.00  0.00    -0.011 A 
ATOM     13  C   UNL     1     266.331 -33.083  53.102  1.00  0.00     0.013 A 
ATOM     14  C   UNL     1     266.899 -34.334  52.805  1.00  0.00     0.047 A 
ATOM     15  C   UNL     1     268.206 -34.627  53.239  1.00  0.00     0.115 A 
ATOM     16  C   UNL     1     268.376 -32.412  54.201  1.00  0.00     0.013 A 
ATOM     17  C   UNL     1     268.940 -33.656  53.916  1.00  0.00     0.047 A 
BRANCH  15  18
ATOM     18  O   UNL     1     268.769 -35.876  53.001  1.00  0.00    -0.508 OA
ATOM     19  H   UNL     1     269.769 -35.991  52.894  1.00  0.00     0.293 HD
ENDBRANCH  15  18
ENDBRANCH   1  12
BRANCH  11  20
ATOM     20  C   UNL     1     263.297 -27.933  56.976  1.00  0.00     0.188 C 
ATOM     21  C   UNL     1     264.191 -27.220  58.041  1.00  0.00     0.179 C 
ATOM     22  O   UNL     1     261.940 -27.502  56.891  1.00  0.00    -0.362 OA
ATOM     23  C   UNL     1     263.728 -25.770  58.266  1.00  0.00     0.177 C 
ATOM     24  C   UNL     1     261.404 -26.898  58.058  1.00  0.00     0.176 C 
ATOM     25  C   UNL     1     262.205 -25.650  58.528  1.00  0.00     0.177 C 
BRANCH  21  26
ATOM     26  O   UNL     1     264.215 -27.937  59.250  1.00  0.00    -0.387 OA
ATOM     27  H   UNL     1     264.386 -27.278  59.976  1.00  0.00     0.211 HD
ENDBRANCH  21  26
BRANCH  23  28
ATOM     28  O   UNL     1     264.494 -25.126  59.260  1.00  0.00    -0.387 OA
ATOM     29  H   UNL     1     265.243 -25.726  59.516  1.00  0.00     0.211 HD
ENDBRANCH  23  28
BRANCH  24  30
ATOM     30  C   UNL     1     261.067 -27.928  59.155  1.00  0.00     0.191 C 
BRANCH  30  31
ATOM     31  O   UNL     1     259.946 -27.522  59.894  1.00  0.00    -0.394 OA
ATOM     32  H   UNL     1     260.171 -27.716  60.847  1.00  0.00     0.210 HD
ENDBRANCH  30  31
ENDBRANCH  24  30
BRANCH  25  33
ATOM     33  O   UNL     1     261.932 -25.370  59.884  1.00  0.00    -0.388 OA
ATOM     34  H   UNL     1     261.601 -24.429  59.946  1.00  0.00     0.211 HD
ENDBRANCH  25  33
ENDBRANCH  11  20
BRANCH  10  35
ATOM     35  O   UNL     1     262.556 -25.787  55.049  1.00  0.00    -0.507 OA
ATOM     36  H   UNL     1     261.730 -25.537  54.532  1.00  0.00     0.293 HD
ENDBRANCH  10  35
TORSDOF 9
ENDMDL
MODEL 6
REMARK VINA RESULT:    -5.852      5.978     11.416
REMARK INTER + INTRA:          -9.001
REMARK INTER:                  -7.895
REMARK INTRA:                  -1.105
REMARK UNBOUND:                -1.096
REMARK SMILES O=c1c(-c2ccc(O)cc2)coc2c([C@@H]3O[C@@H](CO)[C@@H](O)[C@@H](O)[C@H]3O)c(O)ccc12
REMARK SMILES IDX 3 1 11 2 12 3 13 4 30 5 2 6 1 7 29 8 28 9 26 10 14 11 4 12
REMARK SMILES IDX 5 13 6 14 7 15 10 16 9 17 8 18 15 20 24 21 16 22 22 23 17 24
REMARK SMILES IDX 20 25 25 26 23 28 18 30 19 31 21 33 27 35
REMARK H PARENT 8 19 25 27 23 29 19 32 21 34 27 36
REMARK Flexibility Score: inf
ROOT
ATOM      1  C   UNL     1     266.435 -28.211  50.987  1.00  0.00     0.065 A 
ATOM      2  C   UNL     1     265.350 -27.614  51.649  1.00  0.00     0.208 A 
ATOM      3  O   UNL     1     265.136 -27.829  52.936  1.00  0.00    -0.463 OA
ATOM      4  C   UNL     1     265.898 -28.630  53.678  1.00  0.00     0.147 A 
ATOM      5  C   UNL     1     266.946 -29.354  53.072  1.00  0.00     0.066 A 
ATOM      6  C   UNL     1     267.212 -29.139  51.705  1.00  0.00     0.200 A 
ATOM      7  O   UNL     1     268.164 -29.741  51.135  1.00  0.00    -0.288 OA
ATOM      8  C   UNL     1     267.758 -30.192  53.858  1.00  0.00     0.020 A 
ATOM      9  C   UNL     1     267.558 -30.279  55.232  1.00  0.00     0.047 A 
ATOM     10  C   UNL     1     266.515 -29.580  55.836  1.00  0.00     0.125 A 
ATOM     11  C   UNL     1     265.686 -28.702  55.081  1.00  0.00     0.069 A 
ENDROOT
BRANCH   1  12
ATOM     12  C   UNL     1     266.785 -27.769  49.613  1.00  0.00    -0.011 A 
ATOM     13  C   UNL     1     267.391 -26.522  49.401  1.00  0.00     0.013 A 
ATOM     14  C   UNL     1     267.615 -26.044  48.099  1.00  0.00     0.047 A 
ATOM     15  C   UNL     1     267.190 -26.806  46.993  1.00  0.00     0.115 A 
ATOM     16  C   UNL     1     266.383 -28.525  48.496  1.00  0.00     0.013 A 
ATOM     17  C   UNL     1     266.596 -28.048  47.201  1.00  0.00     0.047 A 
BRANCH  15  18
ATOM     18  O   UNL     1     267.355 -26.329  45.697  1.00  0.00    -0.508 OA
ATOM     19  H   UNL     1     266.864 -26.745  44.916  1.00  0.00     0.293 HD
ENDBRANCH  15  18
ENDBRANCH   1  12
BRANCH  11  20
ATOM     20  C   UNL     1     264.877 -27.608  55.786  1.00  0.00     0.188 C 
ATOM     21  C   UNL     1     263.412 -28.128  55.947  1.00  0.00     0.179 C 
ATOM     22  O   UNL     1     265.556 -27.235  56.984  1.00  0.00    -0.362 OA
ATOM     23  C   UNL     1     263.223 -28.830  57.303  1.00  0.00     0.177 C 
ATOM     24  C   UNL     1     264.731 -26.870  58.079  1.00  0.00     0.176 C 
ATOM     25  C   UNL     1     263.738 -27.990  58.500  1.00  0.00     0.177 C 
BRANCH  21  26
ATOM     26  O   UNL     1     262.480 -27.089  55.780  1.00  0.00    -0.387 OA
ATOM     27  H   UNL     1     262.931 -26.375  55.253  1.00  0.00     0.211 HD
ENDBRANCH  21  26
BRANCH  23  28
ATOM     28  O   UNL     1     261.894 -29.263  57.486  1.00  0.00    -0.387 OA
ATOM     29  H   UNL     1     261.819 -29.671  58.389  1.00  0.00     0.211 HD
ENDBRANCH  23  28
BRANCH  24  30
ATOM     30  C   UNL     1     264.124 -25.463  57.918  1.00  0.00     0.191 C 
BRANCH  30  31
ATOM     31  O   UNL     1     263.996 -24.828  59.163  1.00  0.00    -0.394 OA
ATOM     32  H   UNL     1     264.625 -25.307  59.772  1.00  0.00     0.210 HD
ENDBRANCH  30  31
ENDBRANCH  24  30
BRANCH  25  33
ATOM     33  O   UNL     1     262.672 -27.448  59.250  1.00  0.00    -0.388 OA
ATOM     34  H   UNL     1     262.874 -27.582  60.220  1.00  0.00     0.211 HD
ENDBRANCH  25  33
ENDBRANCH  11  20
BRANCH  10  35
ATOM     35  O   UNL     1     266.369 -29.755  57.211  1.00  0.00    -0.507 OA
ATOM     36  H   UNL     1     267.042 -29.443  57.891  1.00  0.00     0.293 HD
ENDBRANCH  10  35
TORSDOF 9
ENDMDL
MODEL 7
REMARK VINA RESULT:    -5.845      5.111      9.207
REMARK INTER + INTRA:          -8.991
REMARK INTER:                  -8.104
REMARK INTRA:                  -0.886
REMARK UNBOUND:                -1.096
REMARK SMILES O=c1c(-c2ccc(O)cc2)coc2c([C@@H]3O[C@@H](CO)[C@@H](O)[C@@H](O)[C@H]3O)c(O)ccc12
REMARK SMILES IDX 3 1 11 2 12 3 13 4 30 5 2 6 1 7 29 8 28 9 26 10 14 11 4 12
REMARK SMILES IDX 5 13 6 14 7 15 10 16 9 17 8 18 15 20 24 21 16 22 22 23 17 24
REMARK SMILES IDX 20 25 25 26 23 28 18 30 19 31 21 33 27 35
REMARK H PARENT 8 19 25 27 23 29 19 32 21 34 27 36
REMARK Flexibility Score: inf
ROOT
ATOM      1  C   UNL     1     264.333 -28.008  57.159  1.00  0.00     0.065 A 
ATOM      2  C   UNL     1     264.392 -29.367  56.812  1.00  0.00     0.208 A 
ATOM      3  O   UNL     1     265.047 -29.766  55.735  1.00  0.00    -0.463 OA
ATOM      4  C   UNL     1     265.662 -28.929  54.903  1.00  0.00     0.147 A 
ATOM      5  C   UNL     1     265.564 -27.537  55.116  1.00  0.00     0.066 A 
ATOM      6  C   UNL     1     264.886 -27.076  56.262  1.00  0.00     0.200 A 
ATOM      7  O   UNL     1     264.808 -25.840  56.505  1.00  0.00    -0.288 OA
ATOM      8  C   UNL     1     266.223 -26.652  54.242  1.00  0.00     0.020 A 
ATOM      9  C   UNL     1     267.000 -27.142  53.198  1.00  0.00     0.047 A 
ATOM     10  C   UNL     1     267.089 -28.514  52.971  1.00  0.00     0.125 A 
ATOM     11  C   UNL     1     266.458 -29.444  53.846  1.00  0.00     0.069 A 
ENDROOT
BRANCH   1  12
ATOM     12  C   UNL     1     263.797 -27.616  58.489  1.00  0.00    -0.011 A 
ATOM     13  C   UNL     1     262.419 -27.440  58.674  1.00  0.00     0.013 A 
ATOM     14  C   UNL     1     261.914 -26.952  59.891  1.00  0.00     0.047 A 
ATOM     15  C   UNL     1     262.804 -26.599  60.924  1.00  0.00     0.115 A 
ATOM     16  C   UNL     1     264.670 -27.275  59.538  1.00  0.00     0.013 A 
ATOM     17  C   UNL     1     264.172 -26.782  60.745  1.00  0.00     0.047 A 
BRANCH  15  18
ATOM     18  O   UNL     1     262.330 -26.066  62.118  1.00  0.00    -0.508 OA
ATOM     19  H   UNL     1     261.681 -25.290  62.128  1.00  0.00     0.293 HD
ENDBRANCH  15  18
ENDBRANCH   1  12
BRANCH  11  20
ATOM     20  C   UNL     1     266.924 -30.903  53.885  1.00  0.00     0.188 C 
ATOM     21  C   UNL     1     265.991 -31.727  52.939  1.00  0.00     0.179 C 
ATOM     22  O   UNL     1     268.321 -30.947  53.599  1.00  0.00    -0.362 OA
ATOM     23  C   UNL     1     266.581 -31.811  51.521  1.00  0.00     0.177 C 
ATOM     24  C   UNL     1     268.773 -32.082  52.878  1.00  0.00     0.176 C 
ATOM     25  C   UNL     1     268.065 -32.260  51.505  1.00  0.00     0.177 C 
BRANCH  21  26
ATOM     26  O   UNL     1     265.739 -33.008  53.460  1.00  0.00    -0.387 OA
ATOM     27  H   UNL     1     266.589 -33.330  53.865  1.00  0.00     0.211 HD
ENDBRANCH  21  26
BRANCH  23  28
ATOM     28  O   UNL     1     265.776 -32.591  50.666  1.00  0.00    -0.387 OA
ATOM     29  H   UNL     1     264.832 -32.300  50.772  1.00  0.00     0.211 HD
ENDBRANCH  23  28
BRANCH  24  30
ATOM     30  C   UNL     1     268.856 -33.346  53.756  1.00  0.00     0.191 C 
BRANCH  30  31
ATOM     31  O   UNL     1     269.630 -33.108  54.903  1.00  0.00    -0.394 OA
ATOM     32  H   UNL     1     270.242 -33.893  54.979  1.00  0.00     0.210 HD
ENDBRANCH  30  31
ENDBRANCH  24  30
BRANCH  25  33
ATOM     33  O   UNL     1     268.199 -33.590  51.048  1.00  0.00    -0.388 OA
ATOM     34  H   UNL     1     267.310 -33.892  50.707  1.00  0.00     0.211 HD
ENDBRANCH  25  33
ENDBRANCH  11  20
BRANCH  10  35
ATOM     35  O   UNL     1     267.862 -28.911  51.881  1.00  0.00    -0.507 OA
ATOM     36  H   UNL     1     267.485 -29.112  50.970  1.00  0.00     0.293 HD
ENDBRANCH  10  35
TORSDOF 9
ENDMDL
MODEL 8
REMARK VINA RESULT:    -5.777      4.131      7.350
REMARK INTER + INTRA:          -8.899
REMARK INTER:                  -7.798
REMARK INTRA:                  -1.100
REMARK UNBOUND:                -1.096
REMARK SMILES O=c1c(-c2ccc(O)cc2)coc2c([C@@H]3O[C@@H](CO)[C@@H](O)[C@@H](O)[C@H]3O)c(O)ccc12
REMARK SMILES IDX 3 1 11 2 12 3 13 4 30 5 2 6 1 7 29 8 28 9 26 10 14 11 4 12
REMARK SMILES IDX 5 13 6 14 7 15 10 16 9 17 8 18 15 20 24 21 16 22 22 23 17 24
REMARK SMILES IDX 20 25 25 26 23 28 18 30 19 31 21 33 27 35
REMARK H PARENT 8 19 25 27 23 29 19 32 21 34 27 36
REMARK Flexibility Score: inf
ROOT
ATOM      1  C   UNL     1     268.158 -34.356  52.752  1.00  0.00     0.065 A 
ATOM      2  C   UNL     1     268.006 -33.174  53.494  1.00  0.00     0.208 A 
ATOM      3  O   UNL     1     267.744 -32.024  52.896  1.00  0.00    -0.463 OA
ATOM      4  C   UNL     1     267.635 -31.897  51.576  1.00  0.00     0.147 A 
ATOM      5  C   UNL     1     267.878 -33.012  50.745  1.00  0.00     0.066 A 
ATOM      6  C   UNL     1     268.146 -34.257  51.348  1.00  0.00     0.200 A 
ATOM      7  O   UNL     1     268.333 -35.284  50.640  1.00  0.00    -0.288 OA
ATOM      8  C   UNL     1     267.752 -32.880  49.350  1.00  0.00     0.020 A 
ATOM      9  C   UNL     1     267.351 -31.671  48.789  1.00  0.00     0.047 A 
ATOM     10  C   UNL     1     267.125 -30.561  49.601  1.00  0.00     0.125 A 
ATOM     11  C   UNL     1     267.217 -30.658  51.020  1.00  0.00     0.069 A 
ENDROOT
BRANCH   1  12
ATOM     12  C   UNL     1     268.216 -35.661  53.460  1.00  0.00    -0.011 A 
ATOM     13  C   UNL     1     267.065 -36.450  53.589  1.00  0.00     0.013 A 
ATOM     14  C   UNL     1     267.081 -37.625  54.360  1.00  0.00     0.047 A 
ATOM     15  C   UNL     1     268.256 -37.994  55.044  1.00  0.00     0.115 A 
ATOM     16  C   UNL     1     269.386 -36.055  54.136  1.00  0.00     0.013 A 
ATOM     17  C   UNL     1     269.402 -37.216  54.910  1.00  0.00     0.047 A 
BRANCH  15  18
ATOM     18  O   UNL     1     268.280 -39.125  55.853  1.00  0.00    -0.508 OA
ATOM     19  H   UNL     1     267.425 -39.569  56.163  1.00  0.00     0.293 HD
ENDBRANCH  15  18
ENDBRANCH   1  12
BRANCH  11  20
ATOM     20  C   UNL     1     266.533 -29.616  51.910  1.00  0.00     0.188 C 
ATOM     21  C   UNL     1     267.635 -28.640  52.434  1.00  0.00     0.179 C 
ATOM     22  O   UNL     1     265.455 -29.029  51.184  1.00  0.00    -0.362 OA
ATOM     23  C   UNL     1     267.780 -27.423  51.504  1.00  0.00     0.177 C 
ATOM     24  C   UNL     1     265.200 -27.658  51.448  1.00  0.00     0.176 C 
ATOM     25  C   UNL     1     266.426 -26.741  51.178  1.00  0.00     0.177 C 
BRANCH  21  26
ATOM     26  O   UNL     1     267.376 -28.239  53.756  1.00  0.00    -0.387 OA
ATOM     27  H   UNL     1     267.205 -29.067  54.283  1.00  0.00     0.211 HD
ENDBRANCH  21  26
BRANCH  23  28
ATOM     28  O   UNL     1     268.737 -26.508  51.988  1.00  0.00    -0.387 OA
ATOM     29  H   UNL     1     268.557 -25.620  51.578  1.00  0.00     0.211 HD
ENDBRANCH  23  28
BRANCH  24  30
ATOM     30  C   UNL     1     264.485 -27.440  52.797  1.00  0.00     0.191 C 
BRANCH  30  31
ATOM     31  O   UNL     1     263.618 -26.338  52.730  1.00  0.00    -0.394 OA
ATOM     32  H   UNL     1     264.064 -25.616  53.255  1.00  0.00     0.210 HD
ENDBRANCH  30  31
ENDBRANCH  24  30
BRANCH  25  33
ATOM     33  O   UNL     1     266.286 -25.514  51.862  1.00  0.00    -0.388 OA
ATOM     34  H   UNL     1     265.850 -24.862  51.242  1.00  0.00     0.211 HD
ENDBRANCH  25  33
ENDBRANCH  11  20
BRANCH  10  35
ATOM     35  O   UNL     1     266.761 -29.384  48.951  1.00  0.00    -0.507 OA
ATOM     36  H   UNL     1     267.420 -28.716  48.589  1.00  0.00     0.293 HD
ENDBRANCH  10  35
TORSDOF 9
ENDMDL
MODEL 9
REMARK VINA RESULT:    -5.750     10.045     12.709
REMARK INTER + INTRA:          -8.863
REMARK INTER:                  -7.931
REMARK INTRA:                  -0.932
REMARK UNBOUND:                -1.096
REMARK SMILES O=c1c(-c2ccc(O)cc2)coc2c([C@@H]3O[C@@H](CO)[C@@H](O)[C@@H](O)[C@H]3O)c(O)ccc12
REMARK SMILES IDX 3 1 11 2 12 3 13 4 30 5 2 6 1 7 29 8 28 9 26 10 14 11 4 12
REMARK SMILES IDX 5 13 6 14 7 15 10 16 9 17 8 18 15 20 24 21 16 22 22 23 17 24
REMARK SMILES IDX 20 25 25 26 23 28 18 30 19 31 21 33 27 35
REMARK H PARENT 8 19 25 27 23 29 19 32 21 34 27 36
REMARK Flexibility Score: inf
ROOT
ATOM      1  C   UNL     1     262.485 -26.936  57.325  1.00  0.00     0.065 A 
ATOM      2  C   UNL     1     262.630 -25.540  57.298  1.00  0.00     0.208 A 
ATOM      3  O   UNL     1     263.570 -24.968  56.566  1.00  0.00    -0.463 OA
ATOM      4  C   UNL     1     264.447 -25.655  55.837  1.00  0.00     0.147 A 
ATOM      5  C   UNL     1     264.441 -27.066  55.888  1.00  0.00     0.066 A 
ATOM      6  C   UNL     1     263.445 -27.710  56.647  1.00  0.00     0.200 A 
ATOM      7  O   UNL     1     263.386 -28.970  56.689  1.00  0.00    -0.288 OA
ATOM      8  C   UNL     1     265.361 -27.792  55.109  1.00  0.00     0.020 A 
ATOM      9  C   UNL     1     266.245 -27.131  54.261  1.00  0.00     0.047 A 
ATOM     10  C   UNL     1     266.267 -25.739  54.217  1.00  0.00     0.125 A 
ATOM     11  C   UNL     1     265.337 -24.966  54.970  1.00  0.00     0.069 A 
ENDROOT
BRANCH   1  12
ATOM     12  C   UNL     1     261.283 -27.533  57.964  1.00  0.00    -0.011 A 
ATOM     13  C   UNL     1     260.134 -27.797  57.205  1.00  0.00     0.013 A 
ATOM     14  C   UNL     1     258.954 -28.247  57.822  1.00  0.00     0.047 A 
ATOM     15  C   UNL     1     258.912 -28.398  59.222  1.00  0.00     0.115 A 
ATOM     16  C   UNL     1     261.229 -27.707  59.359  1.00  0.00     0.013 A 
ATOM     17  C   UNL     1     260.056 -28.145  59.975  1.00  0.00     0.047 A 
BRANCH  15  18
ATOM     18  O   UNL     1     257.740 -28.793  59.858  1.00  0.00    -0.508 OA
ATOM     19  H   UNL     1     257.032 -29.327  59.373  1.00  0.00     0.293 HD
ENDBRANCH  15  18
ENDBRANCH   1  12
BRANCH  11  20
ATOM     20  C   UNL     1     265.047 -23.513  54.581  1.00  0.00     0.188 C 
ATOM     21  C   UNL     1     265.931 -22.592  55.482  1.00  0.00     0.179 C 
ATOM     22  O   UNL     1     265.213 -23.374  53.170  1.00  0.00    -0.362 OA
ATOM     23  C   UNL     1     267.272 -22.274  54.796  1.00  0.00     0.177 C 
ATOM     24  C   UNL     1     265.723 -22.128  52.723  1.00  0.00     0.176 C 
ATOM     25  C   UNL     1     267.106 -21.772  53.339  1.00  0.00     0.177 C 
BRANCH  21  26
ATOM     26  O   UNL     1     265.250 -21.414  55.833  1.00  0.00    -0.387 OA
ATOM     27  H   UNL     1     264.317 -21.675  56.063  1.00  0.00     0.211 HD
ENDBRANCH  21  26
BRANCH  23  28
ATOM     28  O   UNL     1     268.063 -21.405  55.575  1.00  0.00    -0.387 OA
ATOM     29  H   UNL     1     267.931 -20.478  55.241  1.00  0.00     0.211 HD
ENDBRANCH  23  28
BRANCH  24  30
ATOM     30  C   UNL     1     264.664 -21.008  52.765  1.00  0.00     0.191 C 
BRANCH  30  31
ATOM     31  O   UNL     1     264.096 -20.809  51.497  1.00  0.00    -0.394 OA
ATOM     32  H   UNL     1     263.231 -21.305  51.512  1.00  0.00     0.210 HD
ENDBRANCH  30  31
ENDBRANCH  24  30
BRANCH  25  33
ATOM     33  O   UNL     1     267.350 -20.385  53.237  1.00  0.00    -0.388 OA
ATOM     34  H   UNL     1     267.937 -20.231  52.443  1.00  0.00     0.211 HD
ENDBRANCH  25  33
ENDBRANCH  11  20
BRANCH  10  35
ATOM     35  O   UNL     1     267.208 -25.162  53.366  1.00  0.00    -0.507 OA
ATOM     36  H   UNL     1     267.214 -25.290  52.368  1.00  0.00     0.293 HD
ENDBRANCH  10  35
TORSDOF 9
ENDMDL
