MODEL 1
REMARK VINA RESULT:    -3.330      0.000      0.000
REMARK INTER + INTRA:          -4.092
REMARK INTER:                  -3.817
REMARK INTRA:                  -0.275
REMARK UNBOUND:                -0.275
REMARK SMILES COC(=O)c1ccccc1O
REMARK SMILES IDX 5 1 6 2 7 3 8 4 9 5 10 6 3 7 4 8 2 9 1 10 11 11
REMARK H PARENT 11 12
REMARK Flexibility Score: inf
ROOT
ATOM      1  C   UNL     1     121.077 108.486 116.859  1.00  0.00     0.101 A 
ATOM      2  C   UNL     1     121.207 107.787 118.075  1.00  0.00     0.019 A 
ATOM      3  C   UNL     1     120.820 108.375 119.281  1.00  0.00     0.001 A 
ATOM      4  C   UNL     1     120.298 109.668 119.295  1.00  0.00     0.004 A 
ATOM      5  C   UNL     1     120.161 110.377 118.100  1.00  0.00     0.047 A 
ATOM      6  C   UNL     1     120.546 109.799 116.881  1.00  0.00     0.130 A 
ENDROOT
BRANCH   1   7
ATOM      7  C   UNL     1     121.499 107.829 115.595  1.00  0.00     0.341 C 
ATOM      8  O   UNL     1     120.825 107.975 114.538  1.00  0.00    -0.246 OA
BRANCH   7   9
ATOM      9  O   UNL     1     122.655 107.040 115.577  1.00  0.00    -0.465 OA
ATOM     10  C   UNL     1     123.678 107.197 114.601  1.00  0.00     0.282 C 
ENDBRANCH   7   9
ENDBRANCH   1   7
BRANCH   6  11
ATOM     11  O   UNL     1     120.397 110.529 115.702  1.00  0.00    -0.507 OA
ATOM     12  H   UNL     1     121.198 110.828 115.156  1.00  0.00     0.293 HD
ENDBRANCH   6  11
TORSDOF 3
ENDMDL
MODEL 2
REMARK VINA RESULT:    -3.273     11.662     12.969
REMARK INTER + INTRA:          -4.027
REMARK INTER:                  -3.705
REMARK INTRA:                  -0.322
REMARK UNBOUND:                -0.275
REMARK SMILES COC(=O)c1ccccc1O
REMARK SMILES IDX 5 1 6 2 7 3 8 4 9 5 10 6 3 7 4 8 2 9 1 10 11 11
REMARK H PARENT 11 12
REMARK Flexibility Score: inf
ROOT
ATOM      1  C   UNL     1     108.670 112.068 116.641  1.00  0.00     0.101 A 
ATOM      2  C   UNL     1     107.922 111.983 117.831  1.00  0.00     0.019 A 
ATOM      3  C   UNL     1     108.539 112.136 119.074  1.00  0.00     0.001 A 
ATOM      4  C   UNL     1     109.910 112.376 119.151  1.00  0.00     0.004 A 
ATOM      5  C   UNL     1     110.669 112.464 117.983  1.00  0.00     0.047 A 
ATOM      6  C   UNL     1     110.062 112.312 116.727  1.00  0.00     0.130 A 
ENDROOT
BRANCH   1   7
ATOM      7  C   UNL     1     107.979 111.900 115.336  1.00  0.00     0.341 C 
ATOM      8  O   UNL     1     108.170 112.721 114.397  1.00  0.00    -0.246 OA
BRANCH   7   9
ATOM      9  O   UNL     1     107.109 110.820 115.147  1.00  0.00    -0.465 OA
ATOM     10  C   UNL     1     107.565 109.480 115.007  1.00  0.00     0.282 C 
ENDBRANCH   7   9
ENDBRANCH   1   7
BRANCH   6  11
ATOM     11  O   UNL     1     110.844 112.405 115.575  1.00  0.00    -0.507 OA
ATOM     12  H   UNL     1     110.522 112.903 114.752  1.00  0.00     0.293 HD
ENDBRANCH   6  11
TORSDOF 3
ENDMDL
MODEL 3
REMARK VINA RESULT:    -3.241     12.212     13.038
REMARK INTER + INTRA:          -3.990
REMARK INTER:                  -3.676
REMARK INTRA:                  -0.315
REMARK UNBOUND:                -0.275
REMARK SMILES COC(=O)c1ccccc1O
REMARK SMILES IDX 5 1 6 2 7 3 8 4 9 5 10 6 3 7 4 8 2 9 1 10 11 11
REMARK H PARENT 11 12
REMARK Flexibility Score: inf
ROOT
ATOM      1  C   UNL     1     124.285 120.998 116.922  1.00  0.00     0.101 A 
ATOM      2  C   UNL     1     124.971 121.033 118.152  1.00  0.00     0.019 A 
ATOM      3  C   UNL     1     124.286 120.854 119.356  1.00  0.00     0.001 A 
ATOM      4  C   UNL     1     122.909 120.637 119.353  1.00  0.00     0.004 A 
ATOM      5  C   UNL     1     122.211 120.599 118.145  1.00  0.00     0.047 A 
ATOM      6  C   UNL     1     122.886 120.777 116.928  1.00  0.00     0.130 A 
ENDROOT
BRANCH   1   7
ATOM      7  C   UNL     1     125.046 121.192 115.661  1.00  0.00     0.341 C 
ATOM      8  O   UNL     1     124.857 120.432 114.672  1.00  0.00    -0.246 OA
BRANCH   7   9
ATOM      9  O   UNL     1     125.982 122.229 115.569  1.00  0.00    -0.465 OA
ATOM     10  C   UNL     1     125.617 123.571 115.270  1.00  0.00     0.282 C 
ENDBRANCH   7   9
ENDBRANCH   1   7
BRANCH   6  11
ATOM     11  O   UNL     1     122.165 120.734 115.734  1.00  0.00    -0.507 OA
ATOM     12  H   UNL     1     121.750 119.873 115.394  1.00  0.00     0.293 HD
ENDBRANCH   6  11
TORSDOF 3
ENDMDL
MODEL 4
REMARK VINA RESULT:    -3.204     16.412     18.402
REMARK INTER + INTRA:          -3.948
REMARK INTER:                  -3.629
REMARK INTRA:                  -0.319
REMARK UNBOUND:                -0.275
REMARK SMILES COC(=O)c1ccccc1O
REMARK SMILES IDX 5 1 6 2 7 3 8 4 9 5 10 6 3 7 4 8 2 9 1 10 11 11
REMARK H PARENT 11 12
REMARK Flexibility Score: inf
ROOT
ATOM      1  C   UNL     1     112.219 124.477 116.670  1.00  0.00     0.101 A 
ATOM      2  C   UNL     1     112.176 125.238 117.854  1.00  0.00     0.019 A 
ATOM      3  C   UNL     1     112.335 124.630 119.101  1.00  0.00     0.001 A 
ATOM      4  C   UNL     1     112.542 123.254 119.187  1.00  0.00     0.004 A 
ATOM      5  C   UNL     1     112.588 122.481 118.025  1.00  0.00     0.047 A 
ATOM      6  C   UNL     1     112.429 123.079 116.766  1.00  0.00     0.130 A 
ENDROOT
BRANCH   1   7
ATOM      7  C   UNL     1     112.045 125.158 115.362  1.00  0.00     0.341 C 
ATOM      8  O   UNL     1     112.836 124.928 114.406  1.00  0.00    -0.246 OA
BRANCH   7   9
ATOM      9  O   UNL     1     110.993 126.066 115.187  1.00  0.00    -0.465 OA
ATOM     10  C   UNL     1     109.653 125.653 114.951  1.00  0.00     0.282 C 
ENDBRANCH   7   9
ENDBRANCH   1   7
BRANCH   6  11
ATOM     11  O   UNL     1     112.481 122.284 115.621  1.00  0.00    -0.507 OA
ATOM     12  H   UNL     1     112.097 122.599 114.736  1.00  0.00     0.293 HD
ENDBRANCH   6  11
TORSDOF 3
ENDMDL
MODEL 5
REMARK VINA RESULT:    -3.048     11.584     13.214
REMARK INTER + INTRA:          -3.769
REMARK INTER:                  -3.426
REMARK INTRA:                  -0.343
REMARK UNBOUND:                -0.275
REMARK SMILES COC(=O)c1ccccc1O
REMARK SMILES IDX 5 1 6 2 7 3 8 4 9 5 10 6 3 7 4 8 2 9 1 10 11 11
REMARK H PARENT 11 12
REMARK Flexibility Score: inf
ROOT
ATOM      1  C   UNL     1     124.357 120.821 117.551  1.00  0.00     0.101 A 
ATOM      2  C   UNL     1     125.234 121.475 118.438  1.00  0.00     0.019 A 
ATOM      3  C   UNL     1     126.225 122.334 117.958  1.00  0.00     0.001 A 
ATOM      4  C   UNL     1     126.356 122.556 116.588  1.00  0.00     0.004 A 
ATOM      5  C   UNL     1     125.496 121.918 115.693  1.00  0.00     0.047 A 
ATOM      6  C   UNL     1     124.497 121.052 116.161  1.00  0.00     0.130 A 
ENDROOT
BRANCH   1   7
ATOM      7  C   UNL     1     123.315 119.914 118.097  1.00  0.00     0.341 C 
ATOM      8  O   UNL     1     123.635 118.922 118.810  1.00  0.00    -0.246 OA
BRANCH   7   9
ATOM      9  O   UNL     1     121.966 120.161 117.819  1.00  0.00    -0.465 OA
ATOM     10  C   UNL     1     121.330 121.394 118.130  1.00  0.00     0.282 C 
ENDBRANCH   7   9
ENDBRANCH   1   7
BRANCH   6  11
ATOM     11  O   UNL     1     123.650 120.427 115.244  1.00  0.00    -0.507 OA
ATOM     12  H   UNL     1     123.036 119.669 115.518  1.00  0.00     0.293 HD
ENDBRANCH   6  11
TORSDOF 3
ENDMDL
MODEL 6
REMARK VINA RESULT:    -3.047      1.773      3.875
REMARK INTER + INTRA:          -3.768
REMARK INTER:                  -3.443
REMARK INTRA:                  -0.325
REMARK UNBOUND:                -0.275
REMARK SMILES COC(=O)c1ccccc1O
REMARK SMILES IDX 5 1 6 2 7 3 8 4 9 5 10 6 3 7 4 8 2 9 1 10 11 11
REMARK H PARENT 11 12
REMARK Flexibility Score: inf
ROOT
ATOM      1  C   UNL     1     121.056 109.065 116.865  1.00  0.00     0.101 A 
ATOM      2  C   UNL     1     122.346 109.009 117.428  1.00  0.00     0.019 A 
ATOM      3  C   UNL     1     123.350 108.239 116.839  1.00  0.00     0.001 A 
ATOM      4  C   UNL     1     123.085 107.512 115.679  1.00  0.00     0.004 A 
ATOM      5  C   UNL     1     121.814 107.554 115.104  1.00  0.00     0.047 A 
ATOM      6  C   UNL     1     120.795 108.324 115.686  1.00  0.00     0.130 A 
ENDROOT
BRANCH   1   7
ATOM      7  C   UNL     1     120.013 109.895 117.520  1.00  0.00     0.341 C 
ATOM      8  O   UNL     1     118.923 109.381 117.895  1.00  0.00    -0.246 OA
BRANCH   7   9
ATOM      9  O   UNL     1     120.241 111.262 117.722  1.00  0.00    -0.465 OA
ATOM     10  C   UNL     1     120.464 112.171 116.652  1.00  0.00     0.282 C 
ENDBRANCH   7   9
ENDBRANCH   1   7
BRANCH   6  11
ATOM     11  O   UNL     1     119.533 108.349 115.091  1.00  0.00    -0.507 OA
ATOM     12  H   UNL     1     119.238 109.118 114.500  1.00  0.00     0.293 HD
ENDBRANCH   6  11
TORSDOF 3
ENDMDL
MODEL 7
REMARK VINA RESULT:    -3.031     13.346     14.735
REMARK INTER + INTRA:          -3.750
REMARK INTER:                  -3.592
REMARK INTRA:                  -0.157
REMARK UNBOUND:                -0.275
REMARK SMILES COC(=O)c1ccccc1O
REMARK SMILES IDX 5 1 6 2 7 3 8 4 9 5 10 6 3 7 4 8 2 9 1 10 11 11
REMARK H PARENT 11 12
REMARK Flexibility Score: inf
ROOT
ATOM      1  C   UNL     1     125.732 122.418 116.839  1.00  0.00     0.101 A 
ATOM      2  C   UNL     1     125.617 122.192 118.224  1.00  0.00     0.019 A 
ATOM      3  C   UNL     1     124.934 121.076 118.711  1.00  0.00     0.001 A 
ATOM      4  C   UNL     1     124.357 120.167 117.826  1.00  0.00     0.004 A 
ATOM      5  C   UNL     1     124.460 120.372 116.449  1.00  0.00     0.047 A 
ATOM      6  C   UNL     1     125.143 121.489 115.946  1.00  0.00     0.130 A 
ENDROOT
BRANCH   1   7
ATOM      7  C   UNL     1     126.466 123.616 116.357  1.00  0.00     0.341 C 
ATOM      8  O   UNL     1     126.848 124.505 117.167  1.00  0.00    -0.246 OA
BRANCH   7   9
ATOM      9  O   UNL     1     126.735 123.761 114.991  1.00  0.00    -0.465 OA
ATOM     10  C   UNL     1     126.392 124.931 114.259  1.00  0.00     0.282 C 
ENDBRANCH   7   9
ENDBRANCH   1   7
BRANCH   6  11
ATOM     11  O   UNL     1     125.232 121.670 114.565  1.00  0.00    -0.507 OA
ATOM     12  H   UNL     1     126.094 121.969 114.122  1.00  0.00     0.293 HD
ENDBRANCH   6  11
TORSDOF 3
ENDMDL
MODEL 8
REMARK VINA RESULT:    -2.986     18.518     20.234
REMARK INTER + INTRA:          -3.697
REMARK INTER:                  -3.400
REMARK INTRA:                  -0.297
REMARK UNBOUND:                -0.275
REMARK SMILES COC(=O)c1ccccc1O
REMARK SMILES IDX 5 1 6 2 7 3 8 4 9 5 10 6 3 7 4 8 2 9 1 10 11 11
REMARK H PARENT 11 12
REMARK Flexibility Score: inf
ROOT
ATOM      1  C   UNL     1     110.610 125.715 116.197  1.00  0.00     0.101 A 
ATOM      2  C   UNL     1     110.616 125.757 117.605  1.00  0.00     0.019 A 
ATOM      3  C   UNL     1     111.727 125.317 118.328  1.00  0.00     0.001 A 
ATOM      4  C   UNL     1     112.849 124.829 117.660  1.00  0.00     0.004 A 
ATOM      5  C   UNL     1     112.863 124.780 116.265  1.00  0.00     0.047 A 
ATOM      6  C   UNL     1     111.754 125.218 115.526  1.00  0.00     0.130 A 
ENDROOT
BRANCH   1   7
ATOM      7  C   UNL     1     109.411 126.191 115.462  1.00  0.00     0.341 C 
ATOM      8  O   UNL     1     108.700 127.125 115.926  1.00  0.00    -0.246 OA
BRANCH   7   9
ATOM      9  O   UNL     1     109.066 125.599 114.241  1.00  0.00    -0.465 OA
ATOM     10  C   UNL     1     108.351 126.291 113.225  1.00  0.00     0.282 C 
ENDBRANCH   7   9
ENDBRANCH   1   7
BRANCH   6  11
ATOM     11  O   UNL     1     111.795 125.158 114.133  1.00  0.00    -0.507 OA
ATOM     12  H   UNL     1     112.156 125.926 113.577  1.00  0.00     0.293 HD
ENDBRANCH   6  11
TORSDOF 3
ENDMDL
