MODEL 1
REMARK VINA RESULT:    -3.515      0.000      0.000
REMARK INTER + INTRA:          -5.126
REMARK INTER:                  -4.748
REMARK INTRA:                  -0.378
REMARK UNBOUND:                -0.378
REMARK SMILES CCCCCCC=CC(=O)[O-]
REMARK SMILES IDX 5 1 6 2 7 3 8 4 9 5 10 6 11 7 4 8 3 9 2 10 1 11
REMARK H PARENT
REMARK Flexibility Score: inf
ROOT
ATOM      1  C   UNL     1      56.651  28.251  50.616  1.00  0.00     0.004 C 
ENDROOT
BRANCH   1   2
ATOM      2  C   UNL     1      57.756  29.169  50.081  1.00  0.00     0.027 C 
BRANCH   2   3
ATOM      3  C   UNL     1      59.047  28.422  49.907  1.00  0.00    -0.025 C 
ATOM      4  C   UNL     1      59.084  27.087  49.884  1.00  0.00     0.020 C 
BRANCH   4   5
ATOM      5  C   UNL     1      60.338  26.343  49.700  1.00  0.00     0.064 C 
ATOM      6  O   UNL     1      61.398  26.966  49.430  1.00  0.00    -0.545 OA
ATOM      7  O   UNL     1      60.373  24.958  49.818  1.00  0.00    -0.545 OA
ENDBRANCH   4   5
ENDBRANCH   2   3
ENDBRANCH   1   2
BRANCH   1   8
ATOM      8  C   UNL     1      55.261  28.847  50.342  1.00  0.00     0.000 C 
BRANCH   8   9
ATOM      9  C   UNL     1      54.225  27.779  49.956  1.00  0.00    -0.000 C 
BRANCH   9  10
ATOM     10  C   UNL     1      54.862  26.406  49.690  1.00  0.00    -0.003 C 
ATOM     11  C   UNL     1      53.874  25.468  49.003  1.00  0.00     0.004 C 
ENDBRANCH   9  10
ENDBRANCH   8   9
ENDBRANCH   1   8
TORSDOF 6
ENDMDL
MODEL 2
REMARK VINA RESULT:    -3.513     12.874     14.176
REMARK INTER + INTRA:          -5.124
REMARK INTER:                  -4.798
REMARK INTRA:                  -0.326
REMARK UNBOUND:                -0.378
REMARK SMILES CCCCCCC=CC(=O)[O-]
REMARK SMILES IDX 5 1 6 2 7 3 8 4 9 5 10 6 11 7 4 8 3 9 2 10 1 11
REMARK H PARENT
REMARK Flexibility Score: inf
ROOT
ATOM      1  C   UNL     1      62.255  33.892  59.970  1.00  0.00     0.004 C 
ENDROOT
BRANCH   1   2
ATOM      2  C   UNL     1      61.474  32.736  60.608  1.00  0.00     0.027 C 
BRANCH   2   3
ATOM      3  C   UNL     1      62.336  31.516  60.762  1.00  0.00    -0.025 C 
ATOM      4  C   UNL     1      61.885  30.414  61.368  1.00  0.00     0.020 C 
BRANCH   4   5
ATOM      5  C   UNL     1      62.712  29.208  61.513  1.00  0.00     0.064 C 
ATOM      6  O   UNL     1      62.163  28.103  61.762  1.00  0.00    -0.545 OA
ATOM      7  O   UNL     1      64.095  29.267  61.378  1.00  0.00    -0.545 OA
ENDBRANCH   4   5
ENDBRANCH   2   3
ENDBRANCH   1   2
BRANCH   1   8
ATOM      8  C   UNL     1      61.846  35.238  60.586  1.00  0.00     0.000 C 
BRANCH   8   9
ATOM      9  C   UNL     1      63.032  35.985  61.217  1.00  0.00    -0.000 C 
BRANCH   9  10
ATOM     10  C   UNL     1      64.276  35.096  61.371  1.00  0.00    -0.003 C 
ATOM     11  C   UNL     1      65.553  35.932  61.358  1.00  0.00     0.004 C 
ENDBRANCH   9  10
ENDBRANCH   8   9
ENDBRANCH   1   8
TORSDOF 6
ENDMDL
MODEL 3
REMARK VINA RESULT:    -3.494     12.765     13.575
REMARK INTER + INTRA:          -5.098
REMARK INTER:                  -4.762
REMARK INTRA:                  -0.336
REMARK UNBOUND:                -0.378
REMARK SMILES CCCCCCC=CC(=O)[O-]
REMARK SMILES IDX 5 1 6 2 7 3 8 4 9 5 10 6 11 7 4 8 3 9 2 10 1 11
REMARK H PARENT
REMARK Flexibility Score: inf
ROOT
ATOM      1  C   UNL     1      61.252  31.531  60.994  1.00  0.00     0.004 C 
ENDROOT
BRANCH   1   2
ATOM      2  C   UNL     1      61.858  30.329  61.729  1.00  0.00     0.027 C 
BRANCH   2   3
ATOM      3  C   UNL     1      63.334  30.224  61.476  1.00  0.00    -0.025 C 
ATOM      4  C   UNL     1      63.882  29.108  60.986  1.00  0.00     0.020 C 
BRANCH   4   5
ATOM      5  C   UNL     1      65.323  28.996  60.720  1.00  0.00     0.064 C 
ATOM      6  O   UNL     1      65.944  29.978  60.234  1.00  0.00    -0.545 OA
ATOM      7  O   UNL     1      66.014  27.822  60.997  1.00  0.00    -0.545 OA
ENDBRANCH   4   5
ENDBRANCH   2   3
ENDBRANCH   1   2
BRANCH   1   8
ATOM      8  C   UNL     1      62.335  32.561  60.641  1.00  0.00     0.000 C 
BRANCH   8   9
ATOM      9  C   UNL     1      61.748  33.925  60.243  1.00  0.00    -0.000 C 
BRANCH   9  10
ATOM     10  C   UNL     1      62.550  35.104  60.815  1.00  0.00    -0.003 C 
ATOM     11  C   UNL     1      63.985  34.691  61.128  1.00  0.00     0.004 C 
ENDBRANCH   9  10
ENDBRANCH   8   9
ENDBRANCH   1   8
TORSDOF 6
ENDMDL
MODEL 4
REMARK VINA RESULT:    -3.437     12.257     13.411
REMARK INTER + INTRA:          -5.020
REMARK INTER:                  -4.614
REMARK INTRA:                  -0.406
REMARK UNBOUND:                -0.378
REMARK SMILES CCCCCCC=CC(=O)[O-]
REMARK SMILES IDX 5 1 6 2 7 3 8 4 9 5 10 6 11 7 4 8 3 9 2 10 1 11
REMARK H PARENT
REMARK Flexibility Score: inf
ROOT
ATOM      1  C   UNL     1      61.231  31.789  60.150  1.00  0.00     0.004 C 
ENDROOT
BRANCH   1   2
ATOM      2  C   UNL     1      61.006  31.140  61.522  1.00  0.00     0.027 C 
BRANCH   2   3
ATOM      3  C   UNL     1      61.952  29.996  61.744  1.00  0.00    -0.025 C 
ATOM      4  C   UNL     1      62.906  29.696  60.858  1.00  0.00     0.020 C 
BRANCH   4   5
ATOM      5  C   UNL     1      63.848  28.588  61.069  1.00  0.00     0.064 C 
ATOM      6  O   UNL     1      65.086  28.818  61.083  1.00  0.00    -0.545 OA
ATOM      7  O   UNL     1      63.394  27.287  61.254  1.00  0.00    -0.545 OA
ENDBRANCH   4   5
ENDBRANCH   2   3
ENDBRANCH   1   2
BRANCH   1   8
ATOM      8  C   UNL     1      61.545  33.286  60.296  1.00  0.00     0.000 C 
BRANCH   8   9
ATOM      9  C   UNL     1      63.025  33.552  60.612  1.00  0.00    -0.000 C 
BRANCH   9  10
ATOM     10  C   UNL     1      63.296  35.018  60.986  1.00  0.00    -0.003 C 
ATOM     11  C   UNL     1      62.020  35.851  60.895  1.00  0.00     0.004 C 
ENDBRANCH   9  10
ENDBRANCH   8   9
ENDBRANCH   1   8
TORSDOF 6
ENDMDL
MODEL 5
REMARK VINA RESULT:    -3.434     12.889     14.052
REMARK INTER + INTRA:          -5.017
REMARK INTER:                  -4.578
REMARK INTRA:                  -0.439
REMARK UNBOUND:                -0.378
REMARK SMILES CCCCCCC=CC(=O)[O-]
REMARK SMILES IDX 5 1 6 2 7 3 8 4 9 5 10 6 11 7 4 8 3 9 2 10 1 11
REMARK H PARENT
REMARK Flexibility Score: inf
ROOT
ATOM      1  C   UNL     1      61.231  31.497  59.912  1.00  0.00     0.004 C 
ENDROOT
BRANCH   1   2
ATOM      2  C   UNL     1      61.225  33.019  59.717  1.00  0.00     0.027 C 
BRANCH   2   3
ATOM      3  C   UNL     1      62.382  33.663  60.424  1.00  0.00    -0.025 C 
ATOM      4  C   UNL     1      62.418  34.980  60.648  1.00  0.00     0.020 C 
BRANCH   4   5
ATOM      5  C   UNL     1      63.538  35.622  61.352  1.00  0.00     0.064 C 
ATOM      6  O   UNL     1      63.477  36.848  61.630  1.00  0.00    -0.545 OA
ATOM      7  O   UNL     1      64.665  34.895  61.717  1.00  0.00    -0.545 OA
ENDBRANCH   4   5
ENDBRANCH   2   3
ENDBRANCH   1   2
BRANCH   1   8
ATOM      8  C   UNL     1      61.068  31.134  61.396  1.00  0.00     0.000 C 
BRANCH   8   9
ATOM      9  C   UNL     1      61.978  29.971  61.823  1.00  0.00    -0.000 C 
BRANCH   9  10
ATOM     10  C   UNL     1      63.455  30.219  61.481  1.00  0.00    -0.003 C 
ATOM     11  C   UNL     1      64.119  28.947  60.961  1.00  0.00     0.004 C 
ENDBRANCH   9  10
ENDBRANCH   8   9
ENDBRANCH   1   8
TORSDOF 6
ENDMDL
MODEL 6
REMARK VINA RESULT:    -3.417      3.337      5.469
REMARK INTER + INTRA:          -4.994
REMARK INTER:                  -4.721
REMARK INTRA:                  -0.272
REMARK UNBOUND:                -0.378
REMARK SMILES CCCCCCC=CC(=O)[O-]
REMARK SMILES IDX 5 1 6 2 7 3 8 4 9 5 10 6 11 7 4 8 3 9 2 10 1 11
REMARK H PARENT
REMARK Flexibility Score: inf
ROOT
ATOM      1  C   UNL     1      57.128  27.847  50.319  1.00  0.00     0.004 C 
ENDROOT
BRANCH   1   2
ATOM      2  C   UNL     1      55.789  28.532  50.622  1.00  0.00     0.027 C 
BRANCH   2   3
ATOM      3  C   UNL     1      54.632  27.681  50.182  1.00  0.00    -0.025 C 
ATOM      4  C   UNL     1      54.813  26.446  49.707  1.00  0.00     0.020 C 
BRANCH   4   5
ATOM      5  C   UNL     1      53.689  25.597  49.287  1.00  0.00     0.064 C 
ATOM      6  O   UNL     1      52.898  26.008  48.397  1.00  0.00    -0.545 OA
ATOM      7  O   UNL     1      53.484  24.346  49.856  1.00  0.00    -0.545 OA
ENDBRANCH   4   5
ENDBRANCH   2   3
ENDBRANCH   1   2
BRANCH   1   8
ATOM      8  C   UNL     1      58.246  28.885  50.140  1.00  0.00     0.000 C 
BRANCH   8   9
ATOM      9  C   UNL     1      59.283  28.462  49.087  1.00  0.00    -0.000 C 
BRANCH   9  10
ATOM     10  C   UNL     1      60.589  27.951  49.715  1.00  0.00    -0.003 C 
ATOM     11  C   UNL     1      60.639  26.426  49.712  1.00  0.00     0.004 C 
ENDBRANCH   9  10
ENDBRANCH   8   9
ENDBRANCH   1   8
TORSDOF 6
ENDMDL
MODEL 7
REMARK VINA RESULT:    -3.388      2.984      4.938
REMARK INTER + INTRA:          -4.954
REMARK INTER:                  -4.337
REMARK INTRA:                  -0.618
REMARK UNBOUND:                -0.378
REMARK SMILES CCCCCCC=CC(=O)[O-]
REMARK SMILES IDX 5 1 6 2 7 3 8 4 9 5 10 6 11 7 4 8 3 9 2 10 1 11
REMARK H PARENT
REMARK Flexibility Score: inf
ROOT
ATOM      1  C   UNL     1      58.900  29.238  49.561  1.00  0.00     0.004 C 
ENDROOT
BRANCH   1   2
ATOM      2  C   UNL     1      57.941  28.812  50.679  1.00  0.00     0.027 C 
BRANCH   2   3
ATOM      3  C   UNL     1      56.576  28.500  50.136  1.00  0.00    -0.025 C 
ATOM      4  C   UNL     1      56.053  27.274  50.223  1.00  0.00     0.020 C 
BRANCH   4   5
ATOM      5  C   UNL     1      54.713  26.958  49.708  1.00  0.00     0.064 C 
ATOM      6  O   UNL     1      53.813  27.839  49.732  1.00  0.00    -0.545 OA
ATOM      7  O   UNL     1      54.421  25.700  49.194  1.00  0.00    -0.545 OA
ENDBRANCH   4   5
ENDBRANCH   2   3
ENDBRANCH   1   2
BRANCH   1   8
ATOM      8  C   UNL     1      59.730  28.044  49.066  1.00  0.00     0.000 C 
BRANCH   8   9
ATOM      9  C   UNL     1      60.318  27.213  50.217  1.00  0.00    -0.000 C 
BRANCH   9  10
ATOM     10  C   UNL     1      60.274  25.703  49.938  1.00  0.00    -0.003 C 
ATOM     11  C   UNL     1      59.001  25.077  50.502  1.00  0.00     0.004 C 
ENDBRANCH   9  10
ENDBRANCH   8   9
ENDBRANCH   1   8
TORSDOF 6
ENDMDL
MODEL 8
REMARK VINA RESULT:    -3.359      3.625      5.556
REMARK INTER + INTRA:          -4.915
REMARK INTER:                  -4.262
REMARK INTRA:                  -0.653
REMARK UNBOUND:                -0.378
REMARK SMILES CCCCCCC=CC(=O)[O-]
REMARK SMILES IDX 5 1 6 2 7 3 8 4 9 5 10 6 11 7 4 8 3 9 2 10 1 11
REMARK H PARENT
REMARK Flexibility Score: inf
ROOT
ATOM      1  C   UNL     1      57.593  26.245  51.437  1.00  0.00     0.004 C 
ENDROOT
BRANCH   1   2
ATOM      2  C   UNL     1      56.862  25.953  50.121  1.00  0.00     0.027 C 
BRANCH   2   3
ATOM      3  C   UNL     1      55.530  26.645  50.073  1.00  0.00    -0.025 C 
ATOM      4  C   UNL     1      55.425  27.969  50.221  1.00  0.00     0.020 C 
BRANCH   4   5
ATOM      5  C   UNL     1      54.130  28.662  50.163  1.00  0.00     0.064 C 
ATOM      6  O   UNL     1      53.178  28.147  49.519  1.00  0.00    -0.545 OA
ATOM      7  O   UNL     1      53.938  29.878  50.808  1.00  0.00    -0.545 OA
ENDBRANCH   4   5
ENDBRANCH   2   3
ENDBRANCH   1   2
BRANCH   1   8
ATOM      8  C   UNL     1      58.981  26.849  51.172  1.00  0.00     0.000 C 
BRANCH   8   9
ATOM      9  C   UNL     1      59.444  26.653  49.720  1.00  0.00    -0.000 C 
BRANCH   9  10
ATOM     10  C   UNL     1      59.877  27.969  49.055  1.00  0.00    -0.003 C 
ATOM     11  C   UNL     1      58.875  29.084  49.341  1.00  0.00     0.004 C 
ENDBRANCH   9  10
ENDBRANCH   8   9
ENDBRANCH   1   8
TORSDOF 6
ENDMDL
MODEL 9
REMARK VINA RESULT:    -3.235      1.661      3.199
REMARK INTER + INTRA:          -4.748
REMARK INTER:                  -4.150
REMARK INTRA:                  -0.598
REMARK UNBOUND:                -0.378
REMARK SMILES CCCCCCC=CC(=O)[O-]
REMARK SMILES IDX 5 1 6 2 7 3 8 4 9 5 10 6 11 7 4 8 3 9 2 10 1 11
REMARK H PARENT
REMARK Flexibility Score: inf
ROOT
ATOM      1  C   UNL     1      54.795  25.858  49.372  1.00  0.00     0.004 C 
ENDROOT
BRANCH   1   2
ATOM      2  C   UNL     1      55.643  26.165  50.613  1.00  0.00     0.027 C 
BRANCH   2   3
ATOM      3  C   UNL     1      57.035  26.579  50.231  1.00  0.00    -0.025 C 
ATOM      4  C   UNL     1      57.412  27.861  50.248  1.00  0.00     0.020 C 
BRANCH   4   5
ATOM      5  C   UNL     1      58.775  28.280  49.891  1.00  0.00     0.064 C 
ATOM      6  O   UNL     1      59.493  27.524  49.185  1.00  0.00    -0.545 OA
ATOM      7  O   UNL     1      59.285  29.500  50.321  1.00  0.00    -0.545 OA
ENDBRANCH   4   5
ENDBRANCH   2   3
ENDBRANCH   1   2
BRANCH   1   8
ATOM      8  C   UNL     1      53.521  26.715  49.352  1.00  0.00     0.000 C 
BRANCH   8   9
ATOM      9  C   UNL     1      53.440  27.684  50.543  1.00  0.00    -0.000 C 
BRANCH   9  10
ATOM     10  C   UNL     1      53.595  29.153  50.122  1.00  0.00    -0.003 C 
ATOM     11  C   UNL     1      54.091  30.008  51.285  1.00  0.00     0.004 C 
ENDBRANCH   9  10
ENDBRANCH   8   9
ENDBRANCH   1   8
TORSDOF 6
ENDMDL
