MODEL 1
REMARK VINA RESULT:    -2.118      0.000      0.000
REMARK INTER + INTRA:          -2.118
REMARK INTER:                  -2.118
REMARK INTRA:                   0.000
REMARK UNBOUND:                 0.000
REMARK SMILES CC(=O)[O-]
REMARK SMILES IDX 1 1 2 2 3 3 4 4
REMARK H PARENT
REMARK Flexibility Score: inf
ROOT
ATOM      1  C   UNL     1      22.927  43.074 273.348  1.00  0.00     0.063 C 
ATOM      2  C   UNL     1      21.662  43.772 273.717  1.00  0.00     0.038 C 
ATOM      3  O   UNL     1      20.655  43.692 272.966  1.00  0.00    -0.550 OA
ATOM      4  O   UNL     1      21.575  44.468 274.916  1.00  0.00    -0.550 OA
ENDROOT
TORSDOF 0
ENDMDL
MODEL 2
REMARK VINA RESULT:    -2.071      1.347      1.677
REMARK INTER + INTRA:          -2.071
REMARK INTER:                  -2.071
REMARK INTRA:                   0.000
REMARK UNBOUND:                 0.000
REMARK SMILES CC(=O)[O-]
REMARK SMILES IDX 1 1 2 2 3 3 4 4
REMARK H PARENT
REMARK Flexibility Score: inf
ROOT
ATOM      1  C   UNL     1      21.189  43.671 272.480  1.00  0.00     0.063 C 
ATOM      2  C   UNL     1      21.983  43.702 273.742  1.00  0.00     0.038 C 
ATOM      3  O   UNL     1      23.103  43.131 273.798  1.00  0.00    -0.550 OA
ATOM      4  O   UNL     1      21.512  44.408 274.843  1.00  0.00    -0.550 OA
ENDROOT
TORSDOF 0
ENDMDL
MODEL 3
REMARK VINA RESULT:    -1.978      2.657      2.839
REMARK INTER + INTRA:          -1.978
REMARK INTER:                  -1.978
REMARK INTRA:                   0.000
REMARK UNBOUND:                 0.000
REMARK SMILES CC(=O)[O-]
REMARK SMILES IDX 1 1 2 2 3 3 4 4
REMARK H PARENT
REMARK Flexibility Score: inf
ROOT
ATOM      1  C   UNL     1      20.894  43.759 273.024  1.00  0.00     0.063 C 
ATOM      2  C   UNL     1      21.546  43.397 271.733  1.00  0.00     0.038 C 
ATOM      3  O   UNL     1      21.935  42.217 271.531  1.00  0.00    -0.550 OA
ATOM      4  O   UNL     1      21.677  44.348 270.728  1.00  0.00    -0.550 OA
ENDROOT
TORSDOF 0
ENDMDL
MODEL 4
REMARK VINA RESULT:    -1.801      1.927      2.296
REMARK INTER + INTRA:          -1.801
REMARK INTER:                  -1.801
REMARK INTRA:                   0.000
REMARK UNBOUND:                 0.000
REMARK SMILES CC(=O)[O-]
REMARK SMILES IDX 1 1 2 2 3 3 4 4
REMARK H PARENT
REMARK Flexibility Score: inf
ROOT
ATOM      1  C   UNL     1      22.760  42.537 271.558  1.00  0.00     0.063 C 
ATOM      2  C   UNL     1      21.722  43.607 271.612  1.00  0.00     0.038 C 
ATOM      3  O   UNL     1      21.637  44.452 270.683  1.00  0.00    -0.550 OA
ATOM      4  O   UNL     1      20.812  43.642 272.662  1.00  0.00    -0.550 OA
ENDROOT
TORSDOF 0
ENDMDL
MODEL 5
REMARK VINA RESULT:    -1.775     21.839     22.350
REMARK INTER + INTRA:          -1.775
REMARK INTER:                  -1.775
REMARK INTRA:                   0.000
REMARK UNBOUND:                 0.000
REMARK SMILES CC(=O)[O-]
REMARK SMILES IDX 1 1 2 2 3 3 4 4
REMARK H PARENT
REMARK Flexibility Score: inf
ROOT
ATOM      1  C   UNL     1       5.853  50.503 286.987  1.00  0.00     0.063 C 
ATOM      2  C   UNL     1       4.516  50.047 286.507  1.00  0.00     0.038 C 
ATOM      3  O   UNL     1       3.550  49.967 287.310  1.00  0.00    -0.550 OA
ATOM      4  O   UNL     1       4.321  49.759 285.162  1.00  0.00    -0.550 OA
ENDROOT
TORSDOF 0
ENDMDL
MODEL 6
REMARK VINA RESULT:    -1.714     18.336     18.635
REMARK INTER + INTRA:          -1.714
REMARK INTER:                  -1.714
REMARK INTRA:                   0.000
REMARK UNBOUND:                 0.000
REMARK SMILES CC(=O)[O-]
REMARK SMILES IDX 1 1 2 2 3 3 4 4
REMARK H PARENT
REMARK Flexibility Score: inf
ROOT
ATOM      1  C   UNL     1       5.150  48.670 277.229  1.00  0.00     0.063 C 
ATOM      2  C   UNL     1       4.588  49.421 278.389  1.00  0.00     0.038 C 
ATOM      3  O   UNL     1       4.304  48.815 279.455  1.00  0.00    -0.550 OA
ATOM      4  O   UNL     1       4.428  50.799 278.314  1.00  0.00    -0.550 OA
ENDROOT
TORSDOF 0
ENDMDL
MODEL 7
REMARK VINA RESULT:    -1.701     18.695     18.906
REMARK INTER + INTRA:          -1.701
REMARK INTER:                  -1.701
REMARK INTRA:                   0.000
REMARK UNBOUND:                 0.000
REMARK SMILES CC(=O)[O-]
REMARK SMILES IDX 1 1 2 2 3 3 4 4
REMARK H PARENT
REMARK Flexibility Score: inf
ROOT
ATOM      1  C   UNL     1       4.845  49.045 277.641  1.00  0.00     0.063 C 
ATOM      2  C   UNL     1       4.512  49.384 279.055  1.00  0.00     0.038 C 
ATOM      3  O   UNL     1       4.563  50.579 279.447  1.00  0.00    -0.550 OA
ATOM      4  O   UNL     1       4.091  48.389 279.929  1.00  0.00    -0.550 OA
ENDROOT
TORSDOF 0
ENDMDL
MODEL 8
REMARK VINA RESULT:    -1.656     18.508     18.911
REMARK INTER + INTRA:          -1.656
REMARK INTER:                  -1.656
REMARK INTRA:                   0.000
REMARK UNBOUND:                 0.000
REMARK SMILES CC(=O)[O-]
REMARK SMILES IDX 1 1 2 2 3 3 4 4
REMARK H PARENT
REMARK Flexibility Score: inf
ROOT
ATOM      1  C   UNL     1       4.042  48.980 279.771  1.00  0.00     0.063 C 
ATOM      2  C   UNL     1       4.533  49.707 278.565  1.00  0.00     0.038 C 
ATOM      3  O   UNL     1       4.921  49.063 277.555  1.00  0.00    -0.550 OA
ATOM      4  O   UNL     1       4.512  51.096 278.532  1.00  0.00    -0.550 OA
ENDROOT
TORSDOF 0
ENDMDL
MODEL 9
REMARK VINA RESULT:    -1.625     22.019     22.441
REMARK INTER + INTRA:          -1.625
REMARK INTER:                  -1.625
REMARK INTRA:                   0.000
REMARK UNBOUND:                 0.000
REMARK SMILES CC(=O)[O-]
REMARK SMILES IDX 1 1 2 2 3 3 4 4
REMARK H PARENT
REMARK Flexibility Score: inf
ROOT
ATOM      1  C   UNL     1       3.256  49.790 287.333  1.00  0.00     0.063 C 
ATOM      2  C   UNL     1       4.482  49.996 286.510  1.00  0.00     0.038 C 
ATOM      3  O   UNL     1       4.447  49.814 285.265  1.00  0.00    -0.550 OA
ATOM      4  O   UNL     1       5.654  50.443 287.109  1.00  0.00    -0.550 OA
ENDROOT
TORSDOF 0
ENDMDL
