MODEL 1
REMARK VINA RESULT:     4.283      0.000      0.000
REMARK INTER + INTRA:           6.315
REMARK INTER:                   6.536
REMARK INTRA:                  -0.221
REMARK UNBOUND:                -0.221
REMARK SMILES O=C([O-])CCCCCCCCC(=O)[O-]
REMARK SMILES IDX 7 1 6 2 5 3 4 4 2 5 1 6 3 7 8 8 9 9 10 10 11 11 12 12 13 13
REMARK SMILES IDX 14 14
REMARK H PARENT
REMARK Flexibility Score: inf
ROOT
ATOM      1  C   UNL     1     -34.305  14.832  17.696  1.00  0.00     0.000 C 
ENDROOT
BRANCH   1   2
ATOM      2  C   UNL     1     -33.490  13.747  16.968  1.00  0.00     0.000 C 
BRANCH   2   3
ATOM      3  C   UNL     1     -33.345  12.462  17.798  1.00  0.00     0.006 C 
BRANCH   3   4
ATOM      4  C   UNL     1     -32.737  12.719  19.183  1.00  0.00     0.053 C 
BRANCH   4   5
ATOM      5  C   UNL     1     -33.572  12.080  20.247  1.00  0.00     0.041 C 
ATOM      6  O   UNL     1     -33.957  10.888  20.119  1.00  0.00    -0.550 OA
ATOM      7  O   UNL     1     -33.968  12.816  21.356  1.00  0.00    -0.550 OA
ENDBRANCH   4   5
ENDBRANCH   3   4
ENDBRANCH   2   3
ENDBRANCH   1   2
BRANCH   1   8
ATOM      8  C   UNL     1     -34.788  15.941  16.749  1.00  0.00     0.000 C 
BRANCH   8   9
ATOM      9  C   UNL     1     -35.032  17.273  17.476  1.00  0.00     0.000 C 
BRANCH   9  10
ATOM     10  C   UNL     1     -36.525  17.463  17.785  1.00  0.00     0.006 C 
BRANCH  10  11
ATOM     11  C   UNL     1     -37.352  16.217  17.441  1.00  0.00     0.053 C 
BRANCH  11  12
ATOM     12  C   UNL     1     -38.679  16.224  18.136  1.00  0.00     0.041 C 
ATOM     13  O   UNL     1     -38.855  15.536  19.176  1.00  0.00    -0.550 OA
ATOM     14  O   UNL     1     -39.713  17.016  17.654  1.00  0.00    -0.550 OA
ENDBRANCH  11  12
ENDBRANCH  10  11
ENDBRANCH   9  10
ENDBRANCH   8   9
ENDBRANCH   1   8
TORSDOF 9
ENDMDL
MODEL 2
REMARK VINA RESULT:     4.316      0.108      5.955
REMARK INTER + INTRA:           6.367
REMARK INTER:                   6.666
REMARK INTRA:                  -0.299
REMARK UNBOUND:                -0.221
REMARK SMILES O=C([O-])CCCCCCCCC(=O)[O-]
REMARK SMILES IDX 7 1 6 2 5 3 4 4 2 5 1 6 3 7 8 8 9 9 10 10 11 11 12 12 13 13
REMARK SMILES IDX 14 14
REMARK H PARENT
REMARK Flexibility Score: inf
ROOT
ATOM      1  C   UNL     1     -34.803  15.803  16.760  1.00  0.00     0.000 C 
ENDROOT
BRANCH   1   2
ATOM      2  C   UNL     1     -35.063  17.153  17.453  1.00  0.00     0.000 C 
BRANCH   2   3
ATOM      3  C   UNL     1     -36.553  17.389  17.746  1.00  0.00     0.006 C 
BRANCH   3   4
ATOM      4  C   UNL     1     -37.419  16.164  17.423  1.00  0.00     0.053 C 
BRANCH   4   5
ATOM      5  C   UNL     1     -38.709  16.222  18.180  1.00  0.00     0.041 C 
ATOM      6  O   UNL     1     -38.848  15.569  19.247  1.00  0.00    -0.550 OA
ATOM      7  O   UNL     1     -39.775  16.958  17.679  1.00  0.00    -0.550 OA
ENDBRANCH   4   5
ENDBRANCH   3   4
ENDBRANCH   2   3
ENDBRANCH   1   2
BRANCH   1   8
ATOM      8  C   UNL     1     -34.256  14.740  17.725  1.00  0.00     0.000 C 
BRANCH   8   9
ATOM      9  C   UNL     1     -33.397  13.683  17.014  1.00  0.00     0.000 C 
BRANCH   9  10
ATOM     10  C   UNL     1     -33.260  12.419  17.876  1.00  0.00     0.006 C 
BRANCH  10  11
ATOM     11  C   UNL     1     -32.785  12.736  19.300  1.00  0.00     0.053 C 
BRANCH  11  12
ATOM     12  C   UNL     1     -33.643  12.070  20.332  1.00  0.00     0.041 C 
ATOM     13  O   UNL     1     -33.997  10.871  20.185  1.00  0.00    -0.550 OA
ATOM     14  O   UNL     1     -34.026  12.765  21.472  1.00  0.00    -0.550 OA
ENDBRANCH  11  12
ENDBRANCH  10  11
ENDBRANCH   9  10
ENDBRANCH   8   9
ENDBRANCH   1   8
TORSDOF 9
ENDMDL
