MODEL 1
REMARK VINA RESULT:    -4.715      0.000      0.000
REMARK INTER + INTRA:         -10.076
REMARK INTER:                  -8.574
REMARK INTRA:                  -1.502
REMARK UNBOUND:                -1.502
REMARK SMILES CCCCCCCCCCCCCC[C@H](C)C(=O)[O-]
REMARK SMILES IDX 9 1 10 2 11 3 12 4 13 5 14 6 15 7 16 8 17 9 18 10 19 11 8 12
REMARK SMILES IDX 7 13 6 14 5 15 4 16 3 17 2 18 1 19
REMARK H PARENT
REMARK Flexibility Score: inf
ROOT
ATOM      1  C   UNL     1      12.271   5.166  41.922  1.00  0.00     0.000 C 
ENDROOT
BRANCH   1   2
ATOM      2  C   UNL     1      13.201   5.138  40.692  1.00  0.00     0.000 C 
BRANCH   2   3
ATOM      3  C   UNL     1      14.545   5.865  40.871  1.00  0.00     0.000 C 
BRANCH   3   4
ATOM      4  C   UNL     1      15.191   5.597  42.238  1.00  0.00     0.000 C 
BRANCH   4   5
ATOM      5  C   UNL     1      16.057   4.332  42.199  1.00  0.00     0.001 C 
BRANCH   5   6
ATOM      6  C   UNL     1      17.008   4.354  40.989  1.00  0.00     0.009 C 
BRANCH   6   7
ATOM      7  C   UNL     1      17.310   2.962  40.390  1.00  0.00     0.032 C 
ATOM      8  C   UNL     1      16.381   1.867  40.934  1.00  0.00     0.014 C 
BRANCH   7   9
ATOM      9  C   UNL     1      18.763   2.594  40.541  1.00  0.00     0.044 C 
ATOM     10  O   UNL     1      19.354   1.912  39.662  1.00  0.00    -0.550 OA
ATOM     11  O   UNL     1      19.450   2.967  41.689  1.00  0.00    -0.550 OA
ENDBRANCH   7   9
ENDBRANCH   6   7
ENDBRANCH   5   6
ENDBRANCH   4   5
ENDBRANCH   3   4
ENDBRANCH   2   3
ENDBRANCH   1   2
BRANCH   1  12
ATOM     12  C   UNL     1      11.835   3.787  42.452  1.00  0.00     0.000 C 
BRANCH  12  13
ATOM     13  C   UNL     1      12.147   2.644  41.472  1.00  0.00    -0.000 C 
BRANCH  13  14
ATOM     14  C   UNL     1      11.135   1.486  41.558  1.00  0.00    -0.000 C 
BRANCH  14  15
ATOM     15  C   UNL     1      11.706   0.087  41.261  1.00  0.00    -0.000 C 
BRANCH  15  16
ATOM     16  C   UNL     1      13.239   0.027  41.377  1.00  0.00    -0.000 C 
BRANCH  16  17
ATOM     17  C   UNL     1      13.874  -0.892  40.321  1.00  0.00    -0.000 C 
BRANCH  17  18
ATOM     18  C   UNL     1      14.329  -2.238  40.904  1.00  0.00    -0.003 C 
ATOM     19  C   UNL     1      13.822  -3.403  40.057  1.00  0.00     0.004 C 
ENDBRANCH  17  18
ENDBRANCH  16  17
ENDBRANCH  15  16
ENDBRANCH  14  15
ENDBRANCH  13  14
ENDBRANCH  12  13
ENDBRANCH   1  12
TORSDOF 14
ENDMDL
MODEL 2
REMARK VINA RESULT:    -4.685      2.955      6.028
REMARK INTER + INTRA:         -10.021
REMARK INTER:                  -8.686
REMARK INTRA:                  -1.335
REMARK UNBOUND:                -1.502
REMARK SMILES CCCCCCCCCCCCCC[C@H](C)C(=O)[O-]
REMARK SMILES IDX 9 1 10 2 11 3 12 4 13 5 14 6 15 7 16 8 17 9 18 10 19 11 8 12
REMARK SMILES IDX 7 13 6 14 5 15 4 16 3 17 2 18 1 19
REMARK H PARENT
REMARK Flexibility Score: inf
ROOT
ATOM      1  C   UNL     1      12.640  -0.528  41.636  1.00  0.00     0.000 C 
ENDROOT
BRANCH   1   2
ATOM      2  C   UNL     1      11.207  -0.308  41.109  1.00  0.00     0.000 C 
BRANCH   2   3
ATOM      3  C   UNL     1      10.787   1.163  40.951  1.00  0.00     0.000 C 
BRANCH   3   4
ATOM      4  C   UNL     1      11.657   2.124  41.774  1.00  0.00     0.000 C 
BRANCH   4   5
ATOM      5  C   UNL     1      11.789   3.483  41.076  1.00  0.00     0.001 C 
BRANCH   5   6
ATOM      6  C   UNL     1      12.947   4.299  41.677  1.00  0.00     0.009 C 
BRANCH   6   7
ATOM      7  C   UNL     1      13.581   5.317  40.703  1.00  0.00     0.032 C 
ATOM      8  C   UNL     1      15.036   5.654  41.059  1.00  0.00     0.014 C 
BRANCH   7   9
ATOM      9  C   UNL     1      12.735   6.556  40.564  1.00  0.00     0.044 C 
ATOM     10  O   UNL     1      12.476   7.280  41.563  1.00  0.00    -0.550 OA
ATOM     11  O   UNL     1      12.188   6.880  39.329  1.00  0.00    -0.550 OA
ENDBRANCH   7   9
ENDBRANCH   6   7
ENDBRANCH   5   6
ENDBRANCH   4   5
ENDBRANCH   3   4
ENDBRANCH   2   3
ENDBRANCH   1   2
BRANCH   1  12
ATOM     12  C   UNL     1      13.608  -1.210  40.652  1.00  0.00     0.000 C 
BRANCH  12  13
ATOM     13  C   UNL     1      15.068  -0.767  40.846  1.00  0.00    -0.000 C 
BRANCH  13  14
ATOM     14  C   UNL     1      15.207   0.744  41.106  1.00  0.00    -0.000 C 
BRANCH  14  15
ATOM     15  C   UNL     1      16.530   1.377  40.637  1.00  0.00    -0.000 C 
BRANCH  15  16
ATOM     16  C   UNL     1      16.961   2.577  41.498  1.00  0.00    -0.000 C 
BRANCH  16  17
ATOM     17  C   UNL     1      18.089   3.393  40.847  1.00  0.00    -0.000 C 
BRANCH  17  18
ATOM     18  C   UNL     1      19.276   2.520  40.412  1.00  0.00    -0.003 C 
ATOM     19  C   UNL     1      20.542   2.893  41.178  1.00  0.00     0.004 C 
ENDBRANCH  17  18
ENDBRANCH  16  17
ENDBRANCH  15  16
ENDBRANCH  14  15
ENDBRANCH  13  14
ENDBRANCH  12  13
ENDBRANCH   1  12
TORSDOF 14
ENDMDL
MODEL 3
REMARK VINA RESULT:    -4.605      2.993      6.137
REMARK INTER + INTRA:          -9.876
REMARK INTER:                  -8.448
REMARK INTRA:                  -1.428
REMARK UNBOUND:                -1.502
REMARK SMILES CCCCCCCCCCCCCC[C@H](C)C(=O)[O-]
REMARK SMILES IDX 9 1 10 2 11 3 12 4 13 5 14 6 15 7 16 8 17 9 18 10 19 11 8 12
REMARK SMILES IDX 7 13 6 14 5 15 4 16 3 17 2 18 1 19
REMARK H PARENT
REMARK Flexibility Score: inf
ROOT
ATOM      1  C   UNL     1      12.554   3.170  41.825  1.00  0.00     0.000 C 
ENDROOT
BRANCH   1   2
ATOM      2  C   UNL     1      11.835   2.089  40.992  1.00  0.00     0.000 C 
BRANCH   2   3
ATOM      3  C   UNL     1      11.459   0.812  41.762  1.00  0.00     0.000 C 
BRANCH   3   4
ATOM      4  C   UNL     1      12.134  -0.446  41.197  1.00  0.00     0.000 C 
BRANCH   4   5
ATOM      5  C   UNL     1      13.029  -0.101  40.002  1.00  0.00     0.001 C 
BRANCH   5   6
ATOM      6  C   UNL     1      13.776  -1.348  39.496  1.00  0.00     0.009 C 
BRANCH   6   7
ATOM      7  C   UNL     1      13.673  -2.574  40.431  1.00  0.00     0.032 C 
ATOM      8  C   UNL     1      14.895  -2.727  41.348  1.00  0.00     0.014 C 
BRANCH   7   9
ATOM      9  C   UNL     1      13.385  -3.838  39.662  1.00  0.00     0.044 C 
ATOM     10  O   UNL     1      14.320  -4.519  39.161  1.00  0.00    -0.550 OA
ATOM     11  O   UNL     1      12.069  -4.233  39.458  1.00  0.00    -0.550 OA
ENDBRANCH   7   9
ENDBRANCH   6   7
ENDBRANCH   5   6
ENDBRANCH   4   5
ENDBRANCH   3   4
ENDBRANCH   2   3
ENDBRANCH   1   2
BRANCH   1  12
ATOM     12  C   UNL     1      13.057   4.390  41.032  1.00  0.00     0.000 C 
BRANCH  12  13
ATOM     13  C   UNL     1      13.447   5.572  41.937  1.00  0.00    -0.000 C 
BRANCH  13  14
ATOM     14  C   UNL     1      14.920   5.989  41.777  1.00  0.00    -0.000 C 
BRANCH  14  15
ATOM     15  C   UNL     1      15.927   5.203  42.638  1.00  0.00    -0.000 C 
BRANCH  15  16
ATOM     16  C   UNL     1      17.127   4.679  41.831  1.00  0.00    -0.000 C 
BRANCH  16  17
ATOM     17  C   UNL     1      16.698   3.832  40.622  1.00  0.00    -0.000 C 
BRANCH  17  18
ATOM     18  C   UNL     1      17.310   2.423  40.639  1.00  0.00    -0.003 C 
ATOM     19  C   UNL     1      16.229   1.356  40.793  1.00  0.00     0.004 C 
ENDBRANCH  17  18
ENDBRANCH  16  17
ENDBRANCH  15  16
ENDBRANCH  14  15
ENDBRANCH  13  14
ENDBRANCH  12  13
ENDBRANCH   1  12
TORSDOF 14
ENDMDL
MODEL 4
REMARK VINA RESULT:    -4.600      2.657      4.736
REMARK INTER + INTRA:          -9.867
REMARK INTER:                  -8.232
REMARK INTRA:                  -1.635
REMARK UNBOUND:                -1.502
REMARK SMILES CCCCCCCCCCCCCC[C@H](C)C(=O)[O-]
REMARK SMILES IDX 9 1 10 2 11 3 12 4 13 5 14 6 15 7 16 8 17 9 18 10 19 11 8 12
REMARK SMILES IDX 7 13 6 14 5 15 4 16 3 17 2 18 1 19
REMARK H PARENT
REMARK Flexibility Score: inf
ROOT
ATOM      1  C   UNL     1      15.462   1.167  40.616  1.00  0.00     0.000 C 
ENDROOT
BRANCH   1   2
ATOM      2  C   UNL     1      16.962   1.511  40.720  1.00  0.00     0.000 C 
BRANCH   2   3
ATOM      3  C   UNL     1      17.331   2.951  40.325  1.00  0.00     0.000 C 
BRANCH   3   4
ATOM      4  C   UNL     1      17.976   3.739  41.475  1.00  0.00     0.000 C 
BRANCH   4   5
ATOM      5  C   UNL     1      17.236   5.059  41.721  1.00  0.00     0.001 C 
BRANCH   5   6
ATOM      6  C   UNL     1      16.015   5.185  40.792  1.00  0.00     0.009 C 
BRANCH   6   7
ATOM      7  C   UNL     1      14.685   5.476  41.522  1.00  0.00     0.032 C 
ATOM      8  C   UNL     1      13.639   4.372  41.313  1.00  0.00     0.014 C 
BRANCH   7   9
ATOM      9  C   UNL     1      14.144   6.838  41.174  1.00  0.00     0.044 C 
ATOM     10  O   UNL     1      13.016   6.967  40.627  1.00  0.00    -0.550 OA
ATOM     11  O   UNL     1      14.919   7.966  41.411  1.00  0.00    -0.550 OA
ENDBRANCH   7   9
ENDBRANCH   6   7
ENDBRANCH   5   6
ENDBRANCH   4   5
ENDBRANCH   3   4
ENDBRANCH   2   3
ENDBRANCH   1   2
BRANCH   1  12
ATOM     12  C   UNL     1      15.074  -0.248  41.085  1.00  0.00     0.000 C 
BRANCH  12  13
ATOM     13  C   UNL     1      14.187  -0.991  40.073  1.00  0.00    -0.000 C 
BRANCH  13  14
ATOM     14  C   UNL     1      12.708  -0.567  40.145  1.00  0.00    -0.000 C 
BRANCH  14  15
ATOM     15  C   UNL     1      12.184  -0.237  41.555  1.00  0.00    -0.000 C 
BRANCH  15  16
ATOM     16  C   UNL     1      11.700   1.216  41.691  1.00  0.00    -0.000 C 
BRANCH  16  17
ATOM     17  C   UNL     1      10.371   1.465  40.961  1.00  0.00    -0.000 C 
BRANCH  17  18
ATOM     18  C   UNL     1      10.516   2.437  39.781  1.00  0.00    -0.003 C 
ATOM     19  C   UNL     1      10.278   1.726  38.451  1.00  0.00     0.004 C 
ENDBRANCH  17  18
ENDBRANCH  16  17
ENDBRANCH  15  16
ENDBRANCH  14  15
ENDBRANCH  13  14
ENDBRANCH  12  13
ENDBRANCH   1  12
TORSDOF 14
ENDMDL
MODEL 5
REMARK VINA RESULT:    -4.469      4.285      8.210
REMARK INTER + INTRA:          -9.629
REMARK INTER:                  -8.632
REMARK INTRA:                  -0.997
REMARK UNBOUND:                -1.502
REMARK SMILES CCCCCCCCCCCCCC[C@H](C)C(=O)[O-]
REMARK SMILES IDX 9 1 10 2 11 3 12 4 13 5 14 6 15 7 16 8 17 9 18 10 19 11 8 12
REMARK SMILES IDX 7 13 6 14 5 15 4 16 3 17 2 18 1 19
REMARK H PARENT
REMARK Flexibility Score: inf
ROOT
ATOM      1  C   UNL     1      13.583  -0.827  41.458  1.00  0.00     0.000 C 
ENDROOT
BRANCH   1   2
ATOM      2  C   UNL     1      12.483   0.176  41.052  1.00  0.00     0.000 C 
BRANCH   2   3
ATOM      3  C   UNL     1      11.613  -0.255  39.859  1.00  0.00     0.000 C 
BRANCH   3   4
ATOM      4  C   UNL     1      11.364  -1.770  39.819  1.00  0.00     0.000 C 
BRANCH   4   5
ATOM      5  C   UNL     1       9.891  -2.078  39.522  1.00  0.00     0.001 C 
BRANCH   5   6
ATOM      6  C   UNL     1       8.991  -0.899  39.932  1.00  0.00     0.009 C 
BRANCH   6   7
ATOM      7  C   UNL     1       8.050  -1.199  41.120  1.00  0.00     0.032 C 
ATOM      8  C   UNL     1       6.876  -0.214  41.212  1.00  0.00     0.014 C 
BRANCH   7   9
ATOM      9  C   UNL     1       8.807  -1.294  42.420  1.00  0.00     0.044 C 
ATOM     10  O   UNL     1       8.679  -2.297  43.172  1.00  0.00    -0.550 OA
ATOM     11  O   UNL     1       9.619  -0.241  42.821  1.00  0.00    -0.550 OA
ENDBRANCH   7   9
ENDBRANCH   6   7
ENDBRANCH   5   6
ENDBRANCH   4   5
ENDBRANCH   3   4
ENDBRANCH   2   3
ENDBRANCH   1   2
BRANCH   1  12
ATOM     12  C   UNL     1      14.999  -0.494  40.954  1.00  0.00     0.000 C 
BRANCH  12  13
ATOM     13  C   UNL     1      15.311   1.011  40.998  1.00  0.00    -0.000 C 
BRANCH  13  14
ATOM     14  C   UNL     1      16.745   1.341  40.544  1.00  0.00    -0.000 C 
BRANCH  14  15
ATOM     15  C   UNL     1      17.000   2.816  40.184  1.00  0.00    -0.000 C 
BRANCH  15  16
ATOM     16  C   UNL     1      17.661   3.608  41.325  1.00  0.00    -0.000 C 
BRANCH  16  17
ATOM     17  C   UNL     1      18.912   2.908  41.880  1.00  0.00    -0.000 C 
BRANCH  17  18
ATOM     18  C   UNL     1      20.161   3.161  41.024  1.00  0.00    -0.003 C 
ATOM     19  C   UNL     1      21.423   2.687  41.740  1.00  0.00     0.004 C 
ENDBRANCH  17  18
ENDBRANCH  16  17
ENDBRANCH  15  16
ENDBRANCH  14  15
ENDBRANCH  13  14
ENDBRANCH  12  13
ENDBRANCH   1  12
TORSDOF 14
ENDMDL
MODEL 6
REMARK VINA RESULT:    -4.448      2.638      4.883
REMARK INTER + INTRA:          -9.590
REMARK INTER:                  -7.906
REMARK INTRA:                  -1.685
REMARK UNBOUND:                -1.502
REMARK SMILES CCCCCCCCCCCCCC[C@H](C)C(=O)[O-]
REMARK SMILES IDX 9 1 10 2 11 3 12 4 13 5 14 6 15 7 16 8 17 9 18 10 19 11 8 12
REMARK SMILES IDX 7 13 6 14 5 15 4 16 3 17 2 18 1 19
REMARK H PARENT
REMARK Flexibility Score: inf
ROOT
ATOM      1  C   UNL     1      15.334   1.003  40.678  1.00  0.00     0.000 C 
ENDROOT
BRANCH   1   2
ATOM      2  C   UNL     1      16.789   1.515  40.630  1.00  0.00     0.000 C 
BRANCH   2   3
ATOM      3  C   UNL     1      17.036   2.851  41.351  1.00  0.00     0.000 C 
BRANCH   3   4
ATOM      4  C   UNL     1      16.493   4.059  40.573  1.00  0.00     0.000 C 
BRANCH   4   5
ATOM      5  C   UNL     1      16.414   5.300  41.469  1.00  0.00     0.001 C 
BRANCH   5   6
ATOM      6  C   UNL     1      16.511   4.912  42.955  1.00  0.00     0.009 C 
BRANCH   6   7
ATOM      7  C   UNL     1      15.320   5.388  43.817  1.00  0.00     0.032 C 
ATOM      8  C   UNL     1      14.657   6.658  43.265  1.00  0.00     0.014 C 
BRANCH   7   9
ATOM      9  C   UNL     1      15.705   5.538  45.265  1.00  0.00     0.044 C 
ATOM     10  O   UNL     1      15.329   4.698  46.127  1.00  0.00    -0.550 OA
ATOM     11  O   UNL     1      16.442   6.644  45.669  1.00  0.00    -0.550 OA
ENDBRANCH   7   9
ENDBRANCH   6   7
ENDBRANCH   5   6
ENDBRANCH   4   5
ENDBRANCH   3   4
ENDBRANCH   2   3
ENDBRANCH   1   2
BRANCH   1  12
ATOM     12  C   UNL     1      15.171  -0.492  41.006  1.00  0.00     0.000 C 
BRANCH  12  13
ATOM     13  C   UNL     1      14.008  -1.148  40.243  1.00  0.00    -0.000 C 
BRANCH  13  14
ATOM     14  C   UNL     1      12.727  -0.293  40.250  1.00  0.00    -0.000 C 
BRANCH  14  15
ATOM     15  C   UNL     1      11.970  -0.247  41.590  1.00  0.00    -0.000 C 
BRANCH  15  16
ATOM     16  C   UNL     1      10.765   0.708  41.567  1.00  0.00    -0.000 C 
BRANCH  16  17
ATOM     17  C   UNL     1      11.124   2.097  41.016  1.00  0.00    -0.000 C 
BRANCH  17  18
ATOM     18  C   UNL     1      11.901   2.952  42.028  1.00  0.00    -0.003 C 
ATOM     19  C   UNL     1      12.812   3.951  41.319  1.00  0.00     0.004 C 
ENDBRANCH  17  18
ENDBRANCH  16  17
ENDBRANCH  15  16
ENDBRANCH  14  15
ENDBRANCH  13  14
ENDBRANCH  12  13
ENDBRANCH   1  12
TORSDOF 14
ENDMDL
MODEL 7
REMARK VINA RESULT:    -4.439      3.415      5.637
REMARK INTER + INTRA:          -9.574
REMARK INTER:                  -7.823
REMARK INTRA:                  -1.752
REMARK UNBOUND:                -1.502
REMARK SMILES CCCCCCCCCCCCCC[C@H](C)C(=O)[O-]
REMARK SMILES IDX 9 1 10 2 11 3 12 4 13 5 14 6 15 7 16 8 17 9 18 10 19 11 8 12
REMARK SMILES IDX 7 13 6 14 5 15 4 16 3 17 2 18 1 19
REMARK H PARENT
REMARK Flexibility Score: inf
ROOT
ATOM      1  C   UNL     1      14.672   5.619  42.218  1.00  0.00     0.000 C 
ENDROOT
BRANCH   1   2
ATOM      2  C   UNL     1      13.875   5.360  40.923  1.00  0.00     0.000 C 
BRANCH   2   3
ATOM      3  C   UNL     1      12.508   4.683  41.120  1.00  0.00     0.000 C 
BRANCH   3   4
ATOM      4  C   UNL     1      12.625   3.235  41.619  1.00  0.00     0.000 C 
BRANCH   4   5
ATOM      5  C   UNL     1      11.278   2.723  42.144  1.00  0.00     0.001 C 
BRANCH   5   6
ATOM      6  C   UNL     1      10.483   2.026  41.026  1.00  0.00     0.009 C 
BRANCH   6   7
ATOM      7  C   UNL     1      11.067   0.665  40.582  1.00  0.00     0.032 C 
ATOM      8  C   UNL     1      11.139   0.519  39.056  1.00  0.00     0.014 C 
BRANCH   7   9
ATOM      9  C   UNL     1      10.341  -0.488  41.225  1.00  0.00     0.044 C 
ATOM     10  O   UNL     1      10.040  -0.464  42.448  1.00  0.00    -0.550 OA
ATOM     11  O   UNL     1      10.044  -1.618  40.473  1.00  0.00    -0.550 OA
ENDBRANCH   7   9
ENDBRANCH   6   7
ENDBRANCH   5   6
ENDBRANCH   4   5
ENDBRANCH   3   4
ENDBRANCH   2   3
ENDBRANCH   1   2
BRANCH   1  12
ATOM     12  C   UNL     1      16.100   5.045  42.242  1.00  0.00     0.000 C 
BRANCH  12  13
ATOM     13  C   UNL     1      16.745   4.988  40.847  1.00  0.00    -0.000 C 
BRANCH  13  14
ATOM     14  C   UNL     1      17.023   3.550  40.373  1.00  0.00    -0.000 C 
BRANCH  14  15
ATOM     15  C   UNL     1      16.561   2.437  41.331  1.00  0.00    -0.000 C 
BRANCH  15  16
ATOM     16  C   UNL     1      16.409   1.072  40.639  1.00  0.00    -0.000 C 
BRANCH  16  17
ATOM     17  C   UNL     1      14.958   0.565  40.649  1.00  0.00    -0.000 C 
BRANCH  17  18
ATOM     18  C   UNL     1      14.845  -0.897  41.108  1.00  0.00    -0.003 C 
ATOM     19  C   UNL     1      13.923  -1.692  40.186  1.00  0.00     0.004 C 
ENDBRANCH  17  18
ENDBRANCH  16  17
ENDBRANCH  15  16
ENDBRANCH  14  15
ENDBRANCH  13  14
ENDBRANCH  12  13
ENDBRANCH   1  12
TORSDOF 14
ENDMDL
MODEL 8
REMARK VINA RESULT:    -4.398      2.461      5.604
REMARK INTER + INTRA:          -9.500
REMARK INTER:                  -8.242
REMARK INTRA:                  -1.257
REMARK UNBOUND:                -1.502
REMARK SMILES CCCCCCCCCCCCCC[C@H](C)C(=O)[O-]
REMARK SMILES IDX 9 1 10 2 11 3 12 4 13 5 14 6 15 7 16 8 17 9 18 10 19 11 8 12
REMARK SMILES IDX 7 13 6 14 5 15 4 16 3 17 2 18 1 19
REMARK H PARENT
REMARK Flexibility Score: inf
ROOT
ATOM      1  C   UNL     1      11.986   4.390  43.114  1.00  0.00     0.000 C 
ENDROOT
BRANCH   1   2
ATOM      2  C   UNL     1      10.872   3.375  42.785  1.00  0.00     0.000 C 
BRANCH   2   3
ATOM      3  C   UNL     1      10.814   2.921  41.316  1.00  0.00     0.000 C 
BRANCH   3   4
ATOM      4  C   UNL     1      10.610   1.406  41.167  1.00  0.00     0.000 C 
BRANCH   4   5
ATOM      5  C   UNL     1      11.873   0.733  40.617  1.00  0.00     0.001 C 
BRANCH   5   6
ATOM      6  C   UNL     1      12.340  -0.401  41.547  1.00  0.00     0.009 C 
BRANCH   6   7
ATOM      7  C   UNL     1      13.852  -0.710  41.465  1.00  0.00     0.032 C 
ATOM      8  C   UNL     1      14.650   0.404  40.773  1.00  0.00     0.014 C 
BRANCH   7   9
ATOM      9  C   UNL     1      14.112  -2.058  40.844  1.00  0.00     0.044 C 
ATOM     10  O   UNL     1      13.396  -2.485  39.899  1.00  0.00    -0.550 OA
ATOM     11  O   UNL     1      15.121  -2.865  41.352  1.00  0.00    -0.550 OA
ENDBRANCH   7   9
ENDBRANCH   6   7
ENDBRANCH   5   6
ENDBRANCH   4   5
ENDBRANCH   3   4
ENDBRANCH   2   3
ENDBRANCH   1   2
BRANCH   1  12
ATOM     12  C   UNL     1      12.696   5.009  41.896  1.00  0.00     0.000 C 
BRANCH  12  13
ATOM     13  C   UNL     1      14.063   4.365  41.610  1.00  0.00    -0.000 C 
BRANCH  13  14
ATOM     14  C   UNL     1      15.243   5.319  41.874  1.00  0.00    -0.000 C 
BRANCH  14  15
ATOM     15  C   UNL     1      16.526   5.019  41.076  1.00  0.00    -0.000 C 
BRANCH  15  16
ATOM     16  C   UNL     1      16.539   3.606  40.468  1.00  0.00    -0.000 C 
BRANCH  16  17
ATOM     17  C   UNL     1      17.440   2.637  41.250  1.00  0.00    -0.000 C 
BRANCH  17  18
ATOM     18  C   UNL     1      18.899   3.113  41.322  1.00  0.00    -0.003 C 
ATOM     19  C   UNL     1      19.727   2.520  40.185  1.00  0.00     0.004 C 
ENDBRANCH  17  18
ENDBRANCH  16  17
ENDBRANCH  15  16
ENDBRANCH  14  15
ENDBRANCH  13  14
ENDBRANCH  12  13
ENDBRANCH   1  12
TORSDOF 14
ENDMDL
MODEL 9
REMARK VINA RESULT:    -4.385      2.606      4.961
REMARK INTER + INTRA:          -9.476
REMARK INTER:                  -8.181
REMARK INTRA:                  -1.295
REMARK UNBOUND:                -1.502
REMARK SMILES CCCCCCCCCCCCCC[C@H](C)C(=O)[O-]
REMARK SMILES IDX 9 1 10 2 11 3 12 4 13 5 14 6 15 7 16 8 17 9 18 10 19 11 8 12
REMARK SMILES IDX 7 13 6 14 5 15 4 16 3 17 2 18 1 19
REMARK H PARENT
REMARK Flexibility Score: inf
ROOT
ATOM      1  C   UNL     1      15.125  -0.642  41.000  1.00  0.00     0.000 C 
ENDROOT
BRANCH   1   2
ATOM      2  C   UNL     1      15.279   0.884  40.833  1.00  0.00     0.000 C 
BRANCH   2   3
ATOM      3  C   UNL     1      16.723   1.378  40.641  1.00  0.00     0.000 C 
BRANCH   3   4
ATOM      4  C   UNL     1      17.040   2.632  41.468  1.00  0.00     0.000 C 
BRANCH   4   5
ATOM      5  C   UNL     1      17.262   3.848  40.561  1.00  0.00     0.001 C 
BRANCH   5   6
ATOM      6  C   UNL     1      16.203   4.932  40.827  1.00  0.00     0.009 C 
BRANCH   6   7
ATOM      7  C   UNL     1      16.785   6.331  41.134  1.00  0.00     0.032 C 
ATOM      8  C   UNL     1      17.644   6.351  42.407  1.00  0.00     0.014 C 
BRANCH   7   9
ATOM      9  C   UNL     1      15.710   7.387  41.163  1.00  0.00     0.044 C 
ATOM     10  O   UNL     1      15.999   8.601  41.338  1.00  0.00    -0.550 OA
ATOM     11  O   UNL     1      14.377   7.014  41.048  1.00  0.00    -0.550 OA
ENDBRANCH   7   9
ENDBRANCH   6   7
ENDBRANCH   5   6
ENDBRANCH   4   5
ENDBRANCH   3   4
ENDBRANCH   2   3
ENDBRANCH   1   2
BRANCH   1  12
ATOM     12  C   UNL     1      13.706  -1.129  41.348  1.00  0.00     0.000 C 
BRANCH  12  13
ATOM     13  C   UNL     1      12.608  -0.172  40.854  1.00  0.00    -0.000 C 
BRANCH  13  14
ATOM     14  C   UNL     1      11.369  -0.157  41.768  1.00  0.00    -0.000 C 
BRANCH  14  15
ATOM     15  C   UNL     1      10.431   1.052  41.588  1.00  0.00    -0.000 C 
BRANCH  15  16
ATOM     16  C   UNL     1      10.880   1.998  40.461  1.00  0.00    -0.000 C 
BRANCH  16  17
ATOM     17  C   UNL     1      10.426   3.448  40.694  1.00  0.00    -0.000 C 
BRANCH  17  18
ATOM     18  C   UNL     1      11.369   4.220  41.629  1.00  0.00    -0.003 C 
ATOM     19  C   UNL     1      12.814   3.763  41.451  1.00  0.00     0.004 C 
ENDBRANCH  17  18
ENDBRANCH  16  17
ENDBRANCH  15  16
ENDBRANCH  14  15
ENDBRANCH  13  14
ENDBRANCH  12  13
ENDBRANCH   1  12
TORSDOF 14
ENDMDL
