MODEL 1
REMARK VINA RESULT:     2.948      0.000      0.000
REMARK INTER + INTRA:           2.948
REMARK INTER:                   2.948
REMARK INTRA:                   0.000
REMARK UNBOUND:                 0.000
REMARK SMILES CC1(C)[C@H]2CC[C@]1(C)C(=O)C2
REMARK SMILES IDX 1 1 2 2 4 3 5 4 6 5 7 6 9 7 10 8 11 9 8 10 3 11
REMARK H PARENT
REMARK Flexibility Score: inf
ROOT
ATOM      1  C   UNL     1      10.746   0.979   7.102  1.00  0.00     0.012 C 
ATOM      2  C   UNL     1      11.170   2.481   7.121  1.00  0.00    -0.020 C 
ATOM      3  C   UNL     1      10.823   3.239   5.818  1.00  0.00     0.003 C 
ATOM      4  C   UNL     1      11.493   4.623   6.040  1.00  0.00     0.005 C 
ATOM      5  C   UNL     1      12.786   4.264   6.815  1.00  0.00     0.015 C 
ATOM      6  C   UNL     1      12.684   2.725   6.946  1.00  0.00     0.032 C 
ATOM      7  C   UNL     1      12.891   2.204   5.546  1.00  0.00     0.139 C 
ATOM      8  O   UNL     1      13.913   1.694   5.113  1.00  0.00    -0.299 OA
ATOM      9  C   UNL     1      11.669   2.511   4.737  1.00  0.00     0.080 C 
ATOM     10  C   UNL     1      13.603   2.110   8.009  1.00  0.00     0.020 C 
ATOM     11  C   UNL     1      10.533   3.102   8.401  1.00  0.00     0.012 C 
ENDROOT
TORSDOF 0
ENDMDL
MODEL 2
REMARK VINA RESULT:     3.434      1.448      3.078
REMARK INTER + INTRA:           3.434
REMARK INTER:                   3.434
REMARK INTRA:                   0.000
REMARK UNBOUND:                 0.000
REMARK SMILES CC1(C)[C@H]2CC[C@]1(C)C(=O)C2
REMARK SMILES IDX 1 1 2 2 4 3 5 4 6 5 7 6 9 7 10 8 11 9 8 10 3 11
REMARK H PARENT
REMARK Flexibility Score: inf
ROOT
ATOM      1  C   UNL     1      13.623   4.207   7.065  1.00  0.00     0.012 C 
ATOM      2  C   UNL     1      13.209   2.703   7.074  1.00  0.00    -0.020 C 
ATOM      3  C   UNL     1      13.505   1.971   5.743  1.00  0.00     0.003 C 
ATOM      4  C   UNL     1      12.852   0.579   5.966  1.00  0.00     0.005 C 
ATOM      5  C   UNL     1      11.591   0.916   6.801  1.00  0.00     0.015 C 
ATOM      6  C   UNL     1      11.689   2.452   6.957  1.00  0.00     0.032 C 
ATOM      7  C   UNL     1      11.422   2.998   5.576  1.00  0.00     0.139 C 
ATOM      8  O   UNL     1      10.380   3.510   5.196  1.00  0.00    -0.299 OA
ATOM      9  C   UNL     1      12.611   2.714   4.712  1.00  0.00     0.080 C 
ATOM     10  C   UNL     1      10.812   3.041   8.068  1.00  0.00     0.020 C 
ATOM     11  C   UNL     1      13.901   2.061   8.314  1.00  0.00     0.012 C 
ENDROOT
TORSDOF 0
ENDMDL
MODEL 3
REMARK VINA RESULT:     3.479      1.586      2.874
REMARK INTER + INTRA:           3.479
REMARK INTER:                   3.479
REMARK INTRA:                   0.000
REMARK UNBOUND:                 0.000
REMARK SMILES CC1(C)[C@H]2CC[C@]1(C)C(=O)C2
REMARK SMILES IDX 1 1 2 2 4 3 5 4 6 5 7 6 9 7 10 8 11 9 8 10 3 11
REMARK H PARENT
REMARK Flexibility Score: inf
ROOT
ATOM      1  C   UNL     1      13.656   2.685   8.181  1.00  0.00     0.012 C 
ATOM      2  C   UNL     1      12.909   3.130   6.886  1.00  0.00    -0.020 C 
ATOM      3  C   UNL     1      11.664   4.008   7.159  1.00  0.00     0.003 C 
ATOM      4  C   UNL     1      11.034   4.157   5.747  1.00  0.00     0.005 C 
ATOM      5  C   UNL     1      11.309   2.778   5.096  1.00  0.00     0.015 C 
ATOM      6  C   UNL     1      12.069   2.023   6.212  1.00  0.00     0.032 C 
ATOM      7  C   UNL     1      11.034   1.769   7.280  1.00  0.00     0.139 C 
ATOM      8  O   UNL     1      10.476   0.706   7.500  1.00  0.00    -0.299 OA
ATOM      9  C   UNL     1      10.724   3.066   7.961  1.00  0.00     0.080 C 
ATOM     10  C   UNL     1      12.832   0.779   5.741  1.00  0.00     0.020 C 
ATOM     11  C   UNL     1      13.973   3.813   5.974  1.00  0.00     0.012 C 
ENDROOT
TORSDOF 0
ENDMDL
MODEL 4
REMARK VINA RESULT:     3.630      1.397      2.918
REMARK INTER + INTRA:           3.630
REMARK INTER:                   3.630
REMARK INTRA:                   0.000
REMARK UNBOUND:                 0.000
REMARK SMILES CC1(C)[C@H]2CC[C@]1(C)C(=O)C2
REMARK SMILES IDX 1 1 2 2 4 3 5 4 6 5 7 6 9 7 10 8 11 9 8 10 3 11
REMARK H PARENT
REMARK Flexibility Score: inf
ROOT
ATOM      1  C   UNL     1      10.764   2.459   8.239  1.00  0.00     0.012 C 
ATOM      2  C   UNL     1      11.460   1.990   6.923  1.00  0.00    -0.020 C 
ATOM      3  C   UNL     1      12.789   1.234   7.161  1.00  0.00     0.003 C 
ATOM      4  C   UNL     1      13.336   1.044   5.719  1.00  0.00     0.005 C 
ATOM      5  C   UNL     1      12.903   2.350   5.007  1.00  0.00     0.015 C 
ATOM      6  C   UNL     1      12.157   3.114   6.127  1.00  0.00     0.032 C 
ATOM      7  C   UNL     1      13.235   3.519   7.101  1.00  0.00     0.139 C 
ATOM      8  O   UNL     1      13.716   4.636   7.217  1.00  0.00    -0.299 OA
ATOM      9  C   UNL     1      13.697   2.299   7.836  1.00  0.00     0.080 C 
ATOM     10  C   UNL     1      11.263   4.260   5.636  1.00  0.00     0.020 C 
ATOM     11  C   UNL     1      10.399   1.166   6.132  1.00  0.00     0.012 C 
ENDROOT
TORSDOF 0
ENDMDL
MODEL 5
REMARK VINA RESULT:     4.639      1.581      2.748
REMARK INTER + INTRA:           4.639
REMARK INTER:                   4.639
REMARK INTRA:                   0.000
REMARK UNBOUND:                 0.000
REMARK SMILES CC1(C)[C@H]2CC[C@]1(C)C(=O)C2
REMARK SMILES IDX 1 1 2 2 4 3 5 4 6 5 7 6 9 7 10 8 11 9 8 10 3 11
REMARK H PARENT
REMARK Flexibility Score: inf
ROOT
ATOM      1  C   UNL     1      13.525   2.103   4.948  1.00  0.00     0.012 C 
ATOM      2  C   UNL     1      12.734   2.018   6.290  1.00  0.00    -0.020 C 
ATOM      3  C   UNL     1      11.274   1.534   6.119  1.00  0.00     0.003 C 
ATOM      4  C   UNL     1      10.688   1.706   7.548  1.00  0.00     0.005 C 
ATOM      5  C   UNL     1      11.389   2.991   8.059  1.00  0.00     0.015 C 
ATOM      6  C   UNL     1      12.292   3.381   6.865  1.00  0.00     0.032 C 
ATOM      7  C   UNL     1      11.335   3.839   5.792  1.00  0.00     0.139 C 
ATOM      8  O   UNL     1      11.109   4.997   5.477  1.00  0.00    -0.299 OA
ATOM      9  C   UNL     1      10.625   2.640   5.243  1.00  0.00     0.080 C 
ATOM     10  C   UNL     1      13.409   4.375   7.203  1.00  0.00     0.020 C 
ATOM     11  C   UNL     1      13.585   1.130   7.248  1.00  0.00     0.012 C 
ENDROOT
TORSDOF 0
ENDMDL
MODEL 6
REMARK VINA RESULT:     4.724      1.108      2.131
REMARK INTER + INTRA:           4.724
REMARK INTER:                   4.724
REMARK INTRA:                   0.000
REMARK UNBOUND:                 0.000
REMARK SMILES CC1(C)[C@H]2CC[C@]1(C)C(=O)C2
REMARK SMILES IDX 1 1 2 2 4 3 5 4 6 5 7 6 9 7 10 8 11 9 8 10 3 11
REMARK H PARENT
REMARK Flexibility Score: inf
ROOT
ATOM      1  C   UNL     1      10.760   3.134   5.011  1.00  0.00     0.012 C 
ATOM      2  C   UNL     1      11.601   3.190   6.324  1.00  0.00    -0.020 C 
ATOM      3  C   UNL     1      13.052   3.683   6.110  1.00  0.00     0.003 C 
ATOM      4  C   UNL     1      13.692   3.480   7.512  1.00  0.00     0.005 C 
ATOM      5  C   UNL     1      13.014   2.181   8.018  1.00  0.00     0.015 C 
ATOM      6  C   UNL     1      12.068   1.816   6.850  1.00  0.00     0.032 C 
ATOM      7  C   UNL     1      12.985   1.387   5.731  1.00  0.00     0.139 C 
ATOM      8  O   UNL     1      13.202   0.237   5.382  1.00  0.00    -0.299 OA
ATOM      9  C   UNL     1      13.671   2.600   5.184  1.00  0.00     0.080 C 
ATOM     10  C   UNL     1      10.967   0.810   7.207  1.00  0.00     0.020 C 
ATOM     11  C   UNL     1      10.784   4.052   7.335  1.00  0.00     0.012 C 
ENDROOT
TORSDOF 0
ENDMDL
