MODEL 1
REMARK VINA RESULT:    -3.710      0.000      0.000
REMARK INTER + INTRA:          -4.326
REMARK INTER:                  -4.252
REMARK INTRA:                  -0.074
REMARK UNBOUND:                -0.074
REMARK SMILES COc1cc(C=O)ccc1O
REMARK SMILES IDX 3 1 10 2 9 3 8 4 5 5 4 6 2 7 1 8 11 9 6 11 7 12
REMARK H PARENT 11 10
REMARK Flexibility Score: inf
ROOT
ATOM      1  C   UNL     1      29.822  57.670   4.561  1.00  0.00     0.161 A 
ATOM      2  C   UNL     1      31.224  57.680   4.533  1.00  0.00     0.157 A 
ATOM      3  C   UNL     1      31.902  58.262   3.455  1.00  0.00     0.051 A 
ATOM      4  C   UNL     1      31.188  58.835   2.400  1.00  0.00     0.015 A 
ATOM      5  C   UNL     1      29.784  58.833   2.412  1.00  0.00     0.018 A 
ATOM      6  C   UNL     1      29.106  58.249   3.494  1.00  0.00     0.062 A 
ENDROOT
BRANCH   1   7
ATOM      7  O   UNL     1      29.180  57.078   5.659  1.00  0.00    -0.493 OA
ATOM      8  C   UNL     1      28.588  57.802   6.734  1.00  0.00     0.278 C 
ENDBRANCH   1   7
BRANCH   2   9
ATOM      9  O   UNL     1      31.938  57.109   5.586  1.00  0.00    -0.504 OA
ATOM     10  H   UNL     1      32.519  57.670   6.198  1.00  0.00     0.293 HD
ENDBRANCH   2   9
BRANCH   5  11
ATOM     11  C   UNL     1      29.013  59.432   1.307  1.00  0.00     0.260 C 
ATOM     12  O   UNL     1      28.134  58.770   0.693  1.00  0.00    -0.298 OA
ENDBRANCH   5  11
TORSDOF 3
ENDMDL
MODEL 2
REMARK VINA RESULT:    -3.674      2.917      3.968
REMARK INTER + INTRA:          -4.285
REMARK INTER:                  -4.216
REMARK INTRA:                  -0.069
REMARK UNBOUND:                -0.074
REMARK SMILES COc1cc(C=O)ccc1O
REMARK SMILES IDX 3 1 10 2 9 3 8 4 5 5 4 6 2 7 1 8 11 9 6 11 7 12
REMARK H PARENT 11 10
REMARK Flexibility Score: inf
ROOT
ATOM      1  C   UNL     1      28.359  58.966   1.161  1.00  0.00     0.161 A 
ATOM      2  C   UNL     1      29.515  59.256   1.898  1.00  0.00     0.157 A 
ATOM      3  C   UNL     1      30.762  59.307   1.261  1.00  0.00     0.051 A 
ATOM      4  C   UNL     1      30.861  59.067  -0.111  1.00  0.00     0.015 A 
ATOM      5  C   UNL     1      29.713  58.774  -0.864  1.00  0.00     0.018 A 
ATOM      6  C   UNL     1      28.464  58.725  -0.223  1.00  0.00     0.062 A 
ENDROOT
BRANCH   1   7
ATOM      7  O   UNL     1      27.129  58.925   1.837  1.00  0.00    -0.493 OA
ATOM      8  C   UNL     1      26.012  59.754   1.528  1.00  0.00     0.278 C 
ENDBRANCH   1   7
BRANCH   2   9
ATOM      9  O   UNL     1      29.417  59.496   3.268  1.00  0.00    -0.504 OA
ATOM     10  H   UNL     1      29.794  58.846   3.948  1.00  0.00     0.293 HD
ENDBRANCH   2   9
BRANCH   5  11
ATOM     11  C   UNL     1      29.798  58.518  -2.314  1.00  0.00     0.260 C 
ATOM     12  O   UNL     1      28.863  58.853  -3.089  1.00  0.00    -0.298 OA
ENDBRANCH   5  11
TORSDOF 3
ENDMDL
MODEL 3
REMARK VINA RESULT:    -3.671      1.433      4.092
REMARK INTER + INTRA:          -4.282
REMARK INTER:                  -4.205
REMARK INTRA:                  -0.077
REMARK UNBOUND:                -0.074
REMARK SMILES COc1cc(C=O)ccc1O
REMARK SMILES IDX 3 1 10 2 9 3 8 4 5 5 4 6 2 7 1 8 11 9 6 11 7 12
REMARK H PARENT 11 10
REMARK Flexibility Score: inf
ROOT
ATOM      1  C   UNL     1      29.882  58.994   2.201  1.00  0.00     0.161 A 
ATOM      2  C   UNL     1      31.278  58.875   2.152  1.00  0.00     0.157 A 
ATOM      3  C   UNL     1      31.968  58.255   3.203  1.00  0.00     0.051 A 
ATOM      4  C   UNL     1      31.271  57.754   4.304  1.00  0.00     0.015 A 
ATOM      5  C   UNL     1      29.873  57.866   4.368  1.00  0.00     0.018 A 
ATOM      6  C   UNL     1      29.183  58.487   3.314  1.00  0.00     0.062 A 
ENDROOT
BRANCH   1   7
ATOM      7  O   UNL     1      29.228  59.621   1.128  1.00  0.00    -0.493 OA
ATOM      8  C   UNL     1      28.512  58.933   0.107  1.00  0.00     0.278 C 
ENDBRANCH   1   7
BRANCH   2   9
ATOM      9  O   UNL     1      31.975  59.375   1.054  1.00  0.00    -0.504 OA
ATOM     10  H   UNL     1      32.312  60.330   1.029  1.00  0.00     0.293 HD
ENDBRANCH   2   9
BRANCH   5  11
ATOM     11  C   UNL     1      29.119  57.342   5.523  1.00  0.00     0.260 C 
ATOM     12  O   UNL     1      29.605  57.373   6.684  1.00  0.00    -0.298 OA
ENDBRANCH   5  11
TORSDOF 3
ENDMDL
MODEL 4
REMARK VINA RESULT:    -3.626      2.614      4.285
REMARK INTER + INTRA:          -4.230
REMARK INTER:                  -4.160
REMARK INTRA:                  -0.069
REMARK UNBOUND:                -0.074
REMARK SMILES COc1cc(C=O)ccc1O
REMARK SMILES IDX 3 1 10 2 9 3 8 4 5 5 4 6 2 7 1 8 11 9 6 11 7 12
REMARK H PARENT 11 10
REMARK Flexibility Score: inf
ROOT
ATOM      1  C   UNL     1      31.591  57.899   6.244  1.00  0.00     0.161 A 
ATOM      2  C   UNL     1      31.492  57.797   4.849  1.00  0.00     0.157 A 
ATOM      3  C   UNL     1      30.268  57.467   4.252  1.00  0.00     0.051 A 
ATOM      4  C   UNL     1      29.140  57.235   5.041  1.00  0.00     0.015 A 
ATOM      5  C   UNL     1      29.222  57.333   6.439  1.00  0.00     0.018 A 
ATOM      6  C   UNL     1      30.449  57.664   7.036  1.00  0.00     0.062 A 
ENDROOT
BRANCH   1   7
ATOM      7  O   UNL     1      32.834  58.233   6.803  1.00  0.00    -0.493 OA
ATOM      8  C   UNL     1      33.093  59.424   7.540  1.00  0.00     0.278 C 
ENDBRANCH   1   7
BRANCH   2   9
ATOM      9  O   UNL     1      32.618  58.028   4.060  1.00  0.00    -0.504 OA
ATOM     10  H   UNL     1      32.564  58.036   3.048  1.00  0.00     0.293 HD
ENDBRANCH   2   9
BRANCH   5  11
ATOM     11  C   UNL     1      28.041  57.092   7.290  1.00  0.00     0.260 C 
ATOM     12  O   UNL     1      27.867  55.983   7.862  1.00  0.00    -0.298 OA
ENDBRANCH   5  11
TORSDOF 3
ENDMDL
MODEL 5
REMARK VINA RESULT:    -3.595     15.846     16.764
REMARK INTER + INTRA:          -4.195
REMARK INTER:                  -4.120
REMARK INTRA:                  -0.075
REMARK UNBOUND:                -0.074
REMARK SMILES COc1cc(C=O)ccc1O
REMARK SMILES IDX 3 1 10 2 9 3 8 4 5 5 4 6 2 7 1 8 11 9 6 11 7 12
REMARK H PARENT 11 10
REMARK Flexibility Score: inf
ROOT
ATOM      1  C   UNL     1      36.157  70.603  10.151  1.00  0.00     0.161 A 
ATOM      2  C   UNL     1      36.462  71.667   9.291  1.00  0.00     0.157 A 
ATOM      3  C   UNL     1      37.550  72.506   9.567  1.00  0.00     0.051 A 
ATOM      4  C   UNL     1      38.336  72.290  10.701  1.00  0.00     0.015 A 
ATOM      5  C   UNL     1      38.043  71.230  11.573  1.00  0.00     0.018 A 
ATOM      6  C   UNL     1      36.953  70.390  11.294  1.00  0.00     0.062 A 
ENDROOT
BRANCH   1   7
ATOM      7  O   UNL     1      35.060  69.785   9.839  1.00  0.00    -0.493 OA
ATOM      8  C   UNL     1      33.796  69.848  10.492  1.00  0.00     0.278 C 
ENDBRANCH   1   7
BRANCH   2   9
ATOM      9  O   UNL     1      35.679  71.884   8.158  1.00  0.00    -0.504 OA
ATOM     10  H   UNL     1      35.963  72.532   7.433  1.00  0.00     0.293 HD
ENDBRANCH   2   9
BRANCH   5  11
ATOM     11  C   UNL     1      38.862  70.986  12.776  1.00  0.00     0.260 C 
ATOM     12  O   UNL     1      38.978  71.863  13.672  1.00  0.00    -0.298 OA
ENDBRANCH   5  11
TORSDOF 3
ENDMDL
MODEL 6
REMARK VINA RESULT:    -3.572     10.223     10.437
REMARK INTER + INTRA:          -4.168
REMARK INTER:                  -4.091
REMARK INTRA:                  -0.077
REMARK UNBOUND:                -0.074
REMARK SMILES COc1cc(C=O)ccc1O
REMARK SMILES IDX 3 1 10 2 9 3 8 4 5 5 4 6 2 7 1 8 11 9 6 11 7 12
REMARK H PARENT 11 10
REMARK Flexibility Score: inf
ROOT
ATOM      1  C   UNL     1      31.578  68.224   7.266  1.00  0.00     0.161 A 
ATOM      2  C   UNL     1      30.897  67.001   7.188  1.00  0.00     0.157 A 
ATOM      3  C   UNL     1      30.871  66.287   5.983  1.00  0.00     0.051 A 
ATOM      4  C   UNL     1      31.522  66.788   4.853  1.00  0.00     0.015 A 
ATOM      5  C   UNL     1      32.207  68.011   4.915  1.00  0.00     0.018 A 
ATOM      6  C   UNL     1      32.233  68.725   6.124  1.00  0.00     0.062 A 
ENDROOT
BRANCH   1   7
ATOM      7  O   UNL     1      31.581  68.909   8.492  1.00  0.00    -0.493 OA
ATOM      8  C   UNL     1      32.721  69.049   9.334  1.00  0.00     0.278 C 
ENDBRANCH   1   7
BRANCH   2   9
ATOM      9  O   UNL     1      30.248  66.500   8.315  1.00  0.00    -0.504 OA
ATOM     10  H   UNL     1      30.404  66.893   9.235  1.00  0.00     0.293 HD
ENDBRANCH   2   9
BRANCH   5  11
ATOM     11  C   UNL     1      32.900  68.556   3.732  1.00  0.00     0.260 C 
ATOM     12  O   UNL     1      32.652  68.122   2.576  1.00  0.00    -0.298 OA
ENDBRANCH   5  11
TORSDOF 3
ENDMDL
MODEL 7
REMARK VINA RESULT:    -3.515     11.574     12.484
REMARK INTER + INTRA:          -4.103
REMARK INTER:                  -4.032
REMARK INTRA:                  -0.072
REMARK UNBOUND:                -0.074
REMARK SMILES COc1cc(C=O)ccc1O
REMARK SMILES IDX 3 1 10 2 9 3 8 4 5 5 4 6 2 7 1 8 11 9 6 11 7 12
REMARK H PARENT 11 10
REMARK Flexibility Score: inf
ROOT
ATOM      1  C   UNL     1      31.712  68.344   8.571  1.00  0.00     0.161 A 
ATOM      2  C   UNL     1      31.126  67.181   9.092  1.00  0.00     0.157 A 
ATOM      3  C   UNL     1      31.528  66.691  10.342  1.00  0.00     0.051 A 
ATOM      4  C   UNL     1      32.514  67.354  11.075  1.00  0.00     0.015 A 
ATOM      5  C   UNL     1      33.110  68.519  10.566  1.00  0.00     0.018 A 
ATOM      6  C   UNL     1      32.707  69.009   9.314  1.00  0.00     0.062 A 
ENDROOT
BRANCH   1   7
ATOM      7  O   UNL     1      31.282  68.803   7.316  1.00  0.00    -0.493 OA
ATOM      8  C   UNL     1      32.076  68.779   6.133  1.00  0.00     0.278 C 
ENDBRANCH   1   7
BRANCH   2   9
ATOM      9  O   UNL     1      30.141  66.519   8.362  1.00  0.00    -0.504 OA
ATOM     10  H   UNL     1      29.159  66.605   8.595  1.00  0.00     0.293 HD
ENDBRANCH   2   9
BRANCH   5  11
ATOM     11  C   UNL     1      34.154  69.233  11.326  1.00  0.00     0.260 C 
ATOM     12  O   UNL     1      35.310  69.391  10.852  1.00  0.00    -0.298 OA
ENDBRANCH   5  11
TORSDOF 3
ENDMDL
MODEL 8
REMARK VINA RESULT:    -3.510      2.354      4.374
REMARK INTER + INTRA:          -4.098
REMARK INTER:                  -4.045
REMARK INTRA:                  -0.053
REMARK UNBOUND:                -0.074
REMARK SMILES COc1cc(C=O)ccc1O
REMARK SMILES IDX 3 1 10 2 9 3 8 4 5 5 4 6 2 7 1 8 11 9 6 11 7 12
REMARK H PARENT 11 10
REMARK Flexibility Score: inf
ROOT
ATOM      1  C   UNL     1      29.786  57.480   6.182  1.00  0.00     0.161 A 
ATOM      2  C   UNL     1      30.015  57.429   4.799  1.00  0.00     0.157 A 
ATOM      3  C   UNL     1      31.254  57.825   4.277  1.00  0.00     0.051 A 
ATOM      4  C   UNL     1      32.267  58.273   5.128  1.00  0.00     0.015 A 
ATOM      5  C   UNL     1      32.052  58.330   6.515  1.00  0.00     0.018 A 
ATOM      6  C   UNL     1      30.811  57.933   7.036  1.00  0.00     0.062 A 
ENDROOT
BRANCH   1   7
ATOM      7  O   UNL     1      28.532  57.075   6.665  1.00  0.00    -0.493 OA
ATOM      8  C   UNL     1      28.258  56.755   8.026  1.00  0.00     0.278 C 
ENDBRANCH   1   7
BRANCH   2   9
ATOM      9  O   UNL     1      29.006  56.982   3.949  1.00  0.00    -0.504 OA
ATOM     10  H   UNL     1      29.217  56.546   3.059  1.00  0.00     0.293 HD
ENDBRANCH   2   9
BRANCH   5  11
ATOM     11  C   UNL     1      33.109  58.800   7.429  1.00  0.00     0.260 C 
ATOM     12  O   UNL     1      33.712  58.000   8.193  1.00  0.00    -0.298 OA
ENDBRANCH   5  11
TORSDOF 3
ENDMDL
MODEL 9
REMARK VINA RESULT:    -3.494      1.591      2.328
REMARK INTER + INTRA:          -4.079
REMARK INTER:                  -4.025
REMARK INTRA:                  -0.054
REMARK UNBOUND:                -0.074
REMARK SMILES COc1cc(C=O)ccc1O
REMARK SMILES IDX 3 1 10 2 9 3 8 4 5 5 4 6 2 7 1 8 11 9 6 11 7 12
REMARK H PARENT 11 10
REMARK Flexibility Score: inf
ROOT
ATOM      1  C   UNL     1      28.966  58.381   3.615  1.00  0.00     0.161 A 
ATOM      2  C   UNL     1      29.798  57.675   4.496  1.00  0.00     0.157 A 
ATOM      3  C   UNL     1      31.169  57.563   4.231  1.00  0.00     0.051 A 
ATOM      4  C   UNL     1      31.717  58.153   3.090  1.00  0.00     0.015 A 
ATOM      5  C   UNL     1      30.897  58.864   2.199  1.00  0.00     0.018 A 
ATOM      6  C   UNL     1      29.524  58.975   2.465  1.00  0.00     0.062 A 
ENDROOT
BRANCH   1   7
ATOM      7  O   UNL     1      27.598  58.470   3.916  1.00  0.00    -0.493 OA
ATOM      8  C   UNL     1      26.654  59.223   3.159  1.00  0.00     0.278 C 
ENDBRANCH   1   7
BRANCH   2   9
ATOM      9  O   UNL     1      29.253  57.086   5.635  1.00  0.00    -0.504 OA
ATOM     10  H   UNL     1      28.251  57.032   5.777  1.00  0.00     0.293 HD
ENDBRANCH   2   9
BRANCH   5  11
ATOM     11  C   UNL     1      31.457  59.494   0.988  1.00  0.00     0.260 C 
ATOM     12  O   UNL     1      30.852  60.431   0.403  1.00  0.00    -0.298 OA
ENDBRANCH   5  11
TORSDOF 3
ENDMDL
