MODEL 1
REMARK VINA RESULT:    -4.260      0.000      0.000
REMARK INTER + INTRA:          -4.647
REMARK INTER:                  -4.633
REMARK INTRA:                  -0.014
REMARK UNBOUND:                -0.014
REMARK SMILES OCc1ccco1
REMARK SMILES IDX 2 1 3 2 5 3 6 4 4 5 7 6 1 7
REMARK H PARENT 1 8
REMARK Flexibility Score: inf
ROOT
ATOM      1  C   UNL     1       8.221  -4.610   1.602  1.00  0.00     0.231 C 
ENDROOT
BRANCH   1   2
ATOM      2  C   UNL     1       8.734  -3.458   0.798  1.00  0.00     0.129 A 
ATOM      3  C   UNL     1      10.056  -2.044  -0.239  1.00  0.00     0.042 A 
ATOM      4  C   UNL     1       8.728  -1.733  -0.454  1.00  0.00     0.195 A 
ATOM      5  C   UNL     1      10.062  -3.161   0.568  1.00  0.00     0.048 A 
ATOM      6  O   UNL     1       7.964  -2.597   0.174  1.00  0.00    -0.467 OA
ENDBRANCH   1   2
BRANCH   1   7
ATOM      7  O   UNL     1       7.776  -4.163   2.853  1.00  0.00    -0.388 OA
ATOM      8  H   UNL     1       8.573  -4.136   3.445  1.00  0.00     0.211 HD
ENDBRANCH   1   7
TORSDOF 2
ENDMDL
MODEL 2
REMARK VINA RESULT:    -4.232      4.957      6.378
REMARK INTER + INTRA:          -4.617
REMARK INTER:                  -4.604
REMARK INTRA:                  -0.014
REMARK UNBOUND:                -0.014
REMARK SMILES OCc1ccco1
REMARK SMILES IDX 2 1 3 2 5 3 6 4 4 5 7 6 1 7
REMARK H PARENT 1 8
REMARK Flexibility Score: inf
ROOT
ATOM      1  C   UNL     1       8.280  -0.146  -2.754  1.00  0.00     0.231 C 
ENDROOT
BRANCH   1   2
ATOM      2  C   UNL     1       7.657   0.990  -3.501  1.00  0.00     0.129 A 
ATOM      3  C   UNL     1       7.348   2.889  -4.560  1.00  0.00     0.042 A 
ATOM      4  C   UNL     1       6.198   2.125  -4.564  1.00  0.00     0.195 A 
ATOM      5  C   UNL     1       8.294   2.156  -3.876  1.00  0.00     0.048 A 
ATOM      6  O   UNL     1       6.415   0.997  -3.928  1.00  0.00    -0.467 OA
ENDBRANCH   1   2
BRANCH   1   7
ATOM      7  O   UNL     1       7.879  -0.116  -1.413  1.00  0.00    -0.388 OA
ATOM      8  H   UNL     1       8.110  -1.002  -1.027  1.00  0.00     0.211 HD
ENDBRANCH   1   7
TORSDOF 2
ENDMDL
MODEL 3
REMARK VINA RESULT:    -3.996     16.677     17.597
REMARK INTER + INTRA:          -4.361
REMARK INTER:                  -4.348
REMARK INTRA:                  -0.012
REMARK UNBOUND:                -0.014
REMARK SMILES OCc1ccco1
REMARK SMILES IDX 2 1 3 2 5 3 6 4 4 5 7 6 1 7
REMARK H PARENT 1 8
REMARK Flexibility Score: inf
ROOT
ATOM      1  C   UNL     1      -4.878   3.250  -6.076  1.00  0.00     0.231 C 
ENDROOT
BRANCH   1   2
ATOM      2  C   UNL     1      -5.885   3.400  -4.982  1.00  0.00     0.129 A 
ATOM      3  C   UNL     1      -7.695   3.205  -3.752  1.00  0.00     0.042 A 
ATOM      4  C   UNL     1      -6.750   3.995  -3.126  1.00  0.00     0.195 A 
ATOM      5  C   UNL     1      -7.136   2.817  -4.950  1.00  0.00     0.048 A 
ATOM      6  O   UNL     1      -5.681   4.089  -3.883  1.00  0.00    -0.467 OA
ENDBRANCH   1   2
BRANCH   1   7
ATOM      7  O   UNL     1      -5.250   4.025  -7.182  1.00  0.00    -0.388 OA
ATOM      8  H   UNL     1      -4.886   3.568  -7.985  1.00  0.00     0.211 HD
ENDBRANCH   1   7
TORSDOF 2
ENDMDL
MODEL 4
REMARK VINA RESULT:    -3.894      9.901     10.172
REMARK INTER + INTRA:          -4.249
REMARK INTER:                  -4.236
REMARK INTRA:                  -0.013
REMARK UNBOUND:                -0.014
REMARK SMILES OCc1ccco1
REMARK SMILES IDX 2 1 3 2 5 3 6 4 4 5 7 6 1 7
REMARK H PARENT 1 8
REMARK Flexibility Score: inf
ROOT
ATOM      1  C   UNL     1       4.273   1.028   9.678  1.00  0.00     0.231 C 
ENDROOT
BRANCH   1   2
ATOM      2  C   UNL     1       5.256   1.851   8.909  1.00  0.00     0.129 A 
ATOM      3  C   UNL     1       6.678   3.419   8.321  1.00  0.00     0.042 A 
ATOM      4  C   UNL     1       6.590   2.439   7.353  1.00  0.00     0.195 A 
ATOM      5  C   UNL     1       5.819   3.039   9.330  1.00  0.00     0.048 A 
ATOM      6  O   UNL     1       5.737   1.516   7.734  1.00  0.00    -0.467 OA
ENDBRANCH   1   2
BRANCH   1   7
ATOM      7  O   UNL     1       2.966   1.387   9.326  1.00  0.00    -0.388 OA
ATOM      8  H   UNL     1       2.733   2.182   9.873  1.00  0.00     0.211 HD
ENDBRANCH   1   7
TORSDOF 2
ENDMDL
MODEL 5
REMARK VINA RESULT:    -3.878     16.651     17.263
REMARK INTER + INTRA:          -4.231
REMARK INTER:                  -4.217
REMARK INTRA:                  -0.015
REMARK UNBOUND:                -0.014
REMARK SMILES OCc1ccco1
REMARK SMILES IDX 2 1 3 2 5 3 6 4 4 5 7 6 1 7
REMARK H PARENT 1 8
REMARK Flexibility Score: inf
ROOT
ATOM      1  C   UNL     1      -5.634   5.925  -4.689  1.00  0.00     0.231 C 
ENDROOT
BRANCH   1   2
ATOM      2  C   UNL     1      -5.607   4.459  -4.978  1.00  0.00     0.129 A 
ATOM      3  C   UNL     1      -5.336   2.519  -5.972  1.00  0.00     0.042 A 
ATOM      4  C   UNL     1      -5.755   2.355  -4.667  1.00  0.00     0.195 A 
ATOM      5  C   UNL     1      -5.236   3.878  -6.175  1.00  0.00     0.048 A 
ATOM      6  O   UNL     1      -5.904   3.530  -4.100  1.00  0.00    -0.467 OA
ENDBRANCH   1   2
BRANCH   1   7
ATOM      7  O   UNL     1      -4.487   6.539  -5.207  1.00  0.00    -0.388 OA
ATOM      8  H   UNL     1      -3.739   6.305  -4.597  1.00  0.00     0.211 HD
ENDBRANCH   1   7
TORSDOF 2
ENDMDL
MODEL 6
REMARK VINA RESULT:    -3.877     16.177     17.251
REMARK INTER + INTRA:          -4.231
REMARK INTER:                  -4.219
REMARK INTRA:                  -0.012
REMARK UNBOUND:                -0.014
REMARK SMILES OCc1ccco1
REMARK SMILES IDX 2 1 3 2 5 3 6 4 4 5 7 6 1 7
REMARK H PARENT 1 8
REMARK Flexibility Score: inf
ROOT
ATOM      1  C   UNL     1      -4.706   2.936  -6.418  1.00  0.00     0.231 C 
ENDROOT
BRANCH   1   2
ATOM      2  C   UNL     1      -5.898   2.744  -5.536  1.00  0.00     0.129 A 
ATOM      3  C   UNL     1      -7.286   2.816  -3.835  1.00  0.00     0.042 A 
ATOM      4  C   UNL     1      -7.855   2.169  -4.914  1.00  0.00     0.195 A 
ATOM      5  C   UNL     1      -6.022   3.192  -4.236  1.00  0.00     0.048 A 
ATOM      6  O   UNL     1      -7.004   2.146  -5.914  1.00  0.00    -0.467 OA
ENDBRANCH   1   2
BRANCH   1   7
ATOM      7  O   UNL     1      -3.677   2.069  -6.030  1.00  0.00    -0.388 OA
ATOM      8  H   UNL     1      -2.841   2.418  -6.439  1.00  0.00     0.211 HD
ENDBRANCH   1   7
TORSDOF 2
ENDMDL
MODEL 7
REMARK VINA RESULT:    -3.822      1.432      3.200
REMARK INTER + INTRA:          -4.171
REMARK INTER:                  -4.155
REMARK INTRA:                  -0.016
REMARK UNBOUND:                -0.014
REMARK SMILES OCc1ccco1
REMARK SMILES IDX 2 1 3 2 5 3 6 4 4 5 7 6 1 7
REMARK H PARENT 1 8
REMARK Flexibility Score: inf
ROOT
ATOM      1  C   UNL     1       8.624  -1.157  -1.863  1.00  0.00     0.231 C 
ENDROOT
BRANCH   1   2
ATOM      2  C   UNL     1       8.893  -2.198  -0.824  1.00  0.00     0.129 A 
ATOM      3  C   UNL     1       9.890  -3.486   0.650  1.00  0.00     0.042 A 
ATOM      4  C   UNL     1       8.532  -3.734   0.610  1.00  0.00     0.195 A 
ATOM      5  C   UNL     1      10.125  -2.491  -0.274  1.00  0.00     0.048 A 
ATOM      6  O   UNL     1       7.965  -2.948  -0.276  1.00  0.00    -0.467 OA
ENDBRANCH   1   2
BRANCH   1   7
ATOM      7  O   UNL     1       7.874  -0.111  -1.311  1.00  0.00    -0.388 OA
ATOM      8  H   UNL     1       7.923   0.644  -1.955  1.00  0.00     0.211 HD
ENDBRANCH   1   7
TORSDOF 2
ENDMDL
MODEL 8
REMARK VINA RESULT:    -3.799      7.550      9.016
REMARK INTER + INTRA:          -4.145
REMARK INTER:                  -4.124
REMARK INTRA:                  -0.021
REMARK UNBOUND:                -0.014
REMARK SMILES OCc1ccco1
REMARK SMILES IDX 2 1 3 2 5 3 6 4 4 5 7 6 1 7
REMARK H PARENT 1 8
REMARK Flexibility Score: inf
ROOT
ATOM      1  C   UNL     1       6.661   1.425  -4.262  1.00  0.00     0.231 C 
ENDROOT
BRANCH   1   2
ATOM      2  C   UNL     1       6.097   2.412  -5.233  1.00  0.00     0.129 A 
ATOM      3  C   UNL     1       5.240   3.332  -7.035  1.00  0.00     0.042 A 
ATOM      4  C   UNL     1       5.334   4.247  -6.006  1.00  0.00     0.195 A 
ATOM      5  C   UNL     1       5.730   2.143  -6.537  1.00  0.00     0.048 A 
ATOM      6  O   UNL     1       5.845   3.667  -4.943  1.00  0.00    -0.467 OA
ENDBRANCH   1   2
BRANCH   1   7
ATOM      7  O   UNL     1       6.979   2.064  -3.057  1.00  0.00    -0.388 OA
ATOM      8  H   UNL     1       6.357   1.704  -2.372  1.00  0.00     0.211 HD
ENDBRANCH   1   7
TORSDOF 2
ENDMDL
MODEL 9
REMARK VINA RESULT:    -3.741      1.346      2.992
REMARK INTER + INTRA:          -4.083
REMARK INTER:                  -4.062
REMARK INTRA:                  -0.021
REMARK UNBOUND:                -0.014
REMARK SMILES OCc1ccco1
REMARK SMILES IDX 2 1 3 2 5 3 6 4 4 5 7 6 1 7
REMARK H PARENT 1 8
REMARK Flexibility Score: inf
ROOT
ATOM      1  C   UNL     1       8.826  -2.103  -0.153  1.00  0.00     0.231 C 
ENDROOT
BRANCH   1   2
ATOM      2  C   UNL     1       8.668  -3.470   0.430  1.00  0.00     0.129 A 
ATOM      3  C   UNL     1       9.023  -5.338   1.531  1.00  0.00     0.042 A 
ATOM      4  C   UNL     1       7.766  -5.328   0.960  1.00  0.00     0.195 A 
ATOM      5  C   UNL     1       9.607  -4.136   1.193  1.00  0.00     0.048 A 
ATOM      6  O   UNL     1       7.583  -4.199   0.313  1.00  0.00    -0.467 OA
ENDBRANCH   1   2
BRANCH   1   7
ATOM      7  O   UNL     1       7.568  -1.548  -0.422  1.00  0.00    -0.388 OA
ATOM      8  H   UNL     1       7.091  -2.194  -1.007  1.00  0.00     0.211 HD
ENDBRANCH   1   7
TORSDOF 2
ENDMDL
