MODEL 1
REMARK VINA RESULT:    -4.020      0.000      0.000
REMARK INTER + INTRA:          -5.058
REMARK INTER:                  -4.960
REMARK INTRA:                  -0.098
REMARK UNBOUND:                -0.098
REMARK SMILES CCCCCC(=O)[O-]
REMARK SMILES IDX 4 1 5 2 6 3 7 4 8 5 3 6 2 7 1 8
REMARK H PARENT
REMARK Flexibility Score: inf
ROOT
ATOM      1  C   UNL     1      10.766   6.082 -11.008  1.00  0.00     0.006 C 
ENDROOT
BRANCH   1   2
ATOM      2  C   UNL     1       9.283   5.884 -11.345  1.00  0.00     0.053 C 
BRANCH   2   3
ATOM      3  C   UNL     1       8.747   7.006 -12.181  1.00  0.00     0.041 C 
ATOM      4  O   UNL     1       9.532   7.855 -12.681  1.00  0.00    -0.550 OA
ATOM      5  O   UNL     1       7.385   7.095 -12.437  1.00  0.00    -0.550 OA
ENDBRANCH   2   3
ENDBRANCH   1   2
BRANCH   1   6
ATOM      6  C   UNL     1      11.011   6.176  -9.494  1.00  0.00     0.000 C 
BRANCH   6   7
ATOM      7  C   UNL     1      12.486   5.924  -9.160  1.00  0.00    -0.003 C 
ATOM      8  C   UNL     1      13.399   6.442 -10.267  1.00  0.00     0.004 C 
ENDBRANCH   6   7
ENDBRANCH   1   6
TORSDOF 4
ENDMDL
MODEL 2
REMARK VINA RESULT:    -4.015     10.604     11.804
REMARK INTER + INTRA:          -5.052
REMARK INTER:                  -4.965
REMARK INTRA:                  -0.088
REMARK UNBOUND:                -0.098
REMARK SMILES CCCCCC(=O)[O-]
REMARK SMILES IDX 4 1 5 2 6 3 7 4 8 5 3 6 2 7 1 8
REMARK H PARENT
REMARK Flexibility Score: inf
ROOT
ATOM      1  C   UNL     1       5.074  -3.252 -12.329  1.00  0.00     0.006 C 
ENDROOT
BRANCH   1   2
ATOM      2  C   UNL     1       6.419  -2.748 -11.790  1.00  0.00     0.053 C 
BRANCH   2   3
ATOM      3  C   UNL     1       6.700  -3.272 -10.415  1.00  0.00     0.041 C 
ATOM      4  O   UNL     1       7.769  -3.896 -10.181  1.00  0.00    -0.550 OA
ATOM      5  O   UNL     1       5.798  -3.041  -9.384  1.00  0.00    -0.550 OA
ENDBRANCH   2   3
ENDBRANCH   1   2
BRANCH   1   6
ATOM      6  C   UNL     1       4.692  -2.582 -13.658  1.00  0.00     0.000 C 
BRANCH   6   7
ATOM      7  C   UNL     1       3.183  -2.681 -13.908  1.00  0.00    -0.003 C 
ATOM      8  C   UNL     1       2.451  -3.190 -12.670  1.00  0.00     0.004 C 
ENDBRANCH   6   7
ENDBRANCH   1   6
TORSDOF 4
ENDMDL
MODEL 3
REMARK VINA RESULT:    -3.953     13.233     13.868
REMARK INTER + INTRA:          -4.975
REMARK INTER:                  -4.907
REMARK INTRA:                  -0.068
REMARK UNBOUND:                -0.098
REMARK SMILES CCCCCC(=O)[O-]
REMARK SMILES IDX 4 1 5 2 6 3 7 4 8 5 3 6 2 7 1 8
REMARK H PARENT
REMARK Flexibility Score: inf
ROOT
ATOM      1  C   UNL     1      19.270   1.968 -21.532  1.00  0.00     0.006 C 
ENDROOT
BRANCH   1   2
ATOM      2  C   UNL     1      17.738   1.922 -21.455  1.00  0.00     0.053 C 
BRANCH   2   3
ATOM      3  C   UNL     1      17.103   2.843 -22.453  1.00  0.00     0.041 C 
ATOM      4  O   UNL     1      15.957   3.318 -22.236  1.00  0.00    -0.550 OA
ATOM      5  O   UNL     1      17.790   3.203 -23.605  1.00  0.00    -0.550 OA
ENDBRANCH   2   3
ENDBRANCH   1   2
BRANCH   1   6
ATOM      6  C   UNL     1      19.929   0.927 -20.614  1.00  0.00     0.000 C 
BRANCH   6   7
ATOM      7  C   UNL     1      19.752   1.305 -19.139  1.00  0.00    -0.003 C 
ATOM      8  C   UNL     1      21.102   1.504 -18.455  1.00  0.00     0.004 C 
ENDBRANCH   6   7
ENDBRANCH   1   6
TORSDOF 4
ENDMDL
MODEL 4
REMARK VINA RESULT:    -3.910      5.594      6.183
REMARK INTER + INTRA:          -4.922
REMARK INTER:                  -4.773
REMARK INTRA:                  -0.150
REMARK UNBOUND:                -0.098
REMARK SMILES CCCCCC(=O)[O-]
REMARK SMILES IDX 4 1 5 2 6 3 7 4 8 5 3 6 2 7 1 8
REMARK H PARENT
REMARK Flexibility Score: inf
ROOT
ATOM      1  C   UNL     1       9.713   8.772 -17.872  1.00  0.00     0.006 C 
ENDROOT
BRANCH   1   2
ATOM      2  C   UNL     1       9.035   7.943 -16.774  1.00  0.00     0.053 C 
BRANCH   2   3
ATOM      3  C   UNL     1       8.091   8.769 -15.953  1.00  0.00     0.041 C 
ATOM      4  O   UNL     1       8.459   9.236 -14.843  1.00  0.00    -0.550 OA
ATOM      5  O   UNL     1       6.818   9.051 -16.431  1.00  0.00    -0.550 OA
ENDBRANCH   2   3
ENDBRANCH   1   2
BRANCH   1   6
ATOM      6  C   UNL     1      11.196   9.036 -17.570  1.00  0.00     0.000 C 
BRANCH   6   7
ATOM      7  C   UNL     1      11.675   8.182 -16.390  1.00  0.00    -0.003 C 
ATOM      8  C   UNL     1      13.199   8.157 -16.310  1.00  0.00     0.004 C 
ENDBRANCH   6   7
ENDBRANCH   1   6
TORSDOF 4
ENDMDL
MODEL 5
REMARK VINA RESULT:    -3.890      1.577      2.003
REMARK INTER + INTRA:          -4.898
REMARK INTER:                  -4.727
REMARK INTRA:                  -0.171
REMARK UNBOUND:                -0.098
REMARK SMILES CCCCCC(=O)[O-]
REMARK SMILES IDX 4 1 5 2 6 3 7 4 8 5 3 6 2 7 1 8
REMARK H PARENT
REMARK Flexibility Score: inf
ROOT
ATOM      1  C   UNL     1      10.727   6.066 -10.185  1.00  0.00     0.006 C 
ENDROOT
BRANCH   1   2
ATOM      2  C   UNL     1       9.634   6.093 -11.262  1.00  0.00     0.053 C 
BRANCH   2   3
ATOM      3  C   UNL     1      10.191   5.827 -12.628  1.00  0.00     0.041 C 
ATOM      4  O   UNL     1      10.655   4.691 -12.913  1.00  0.00    -0.550 OA
ATOM      5  O   UNL     1      10.168   6.824 -13.595  1.00  0.00    -0.550 OA
ENDBRANCH   2   3
ENDBRANCH   1   2
BRANCH   1   6
ATOM      6  C   UNL     1      11.896   7.005 -10.520  1.00  0.00     0.000 C 
BRANCH   6   7
ATOM      7  C   UNL     1      13.238   6.366 -10.142  1.00  0.00    -0.003 C 
ATOM      8  C   UNL     1      13.142   5.630  -8.809  1.00  0.00     0.004 C 
ENDBRANCH   6   7
ENDBRANCH   1   6
TORSDOF 4
ENDMDL
MODEL 6
REMARK VINA RESULT:    -3.888     10.330     11.274
REMARK INTER + INTRA:          -4.895
REMARK INTER:                  -4.852
REMARK INTRA:                  -0.043
REMARK UNBOUND:                -0.098
REMARK SMILES CCCCCC(=O)[O-]
REMARK SMILES IDX 4 1 5 2 6 3 7 4 8 5 3 6 2 7 1 8
REMARK H PARENT
REMARK Flexibility Score: inf
ROOT
ATOM      1  C   UNL     1       4.945  -3.339 -12.502  1.00  0.00     0.006 C 
ENDROOT
BRANCH   1   2
ATOM      2  C   UNL     1       4.402  -2.657 -13.764  1.00  0.00     0.053 C 
BRANCH   2   3
ATOM      3  C   UNL     1       2.979  -3.040 -14.037  1.00  0.00     0.041 C 
ATOM      4  O   UNL     1       2.700  -3.784 -15.014  1.00  0.00    -0.550 OA
ATOM      5  O   UNL     1       1.966  -2.604 -13.192  1.00  0.00    -0.550 OA
ENDBRANCH   2   3
ENDBRANCH   1   2
BRANCH   1   6
ATOM      6  C   UNL     1       6.247  -2.693 -12.005  1.00  0.00     0.000 C 
BRANCH   6   7
ATOM      7  C   UNL     1       6.703  -3.322 -10.684  1.00  0.00    -0.003 C 
ATOM      8  C   UNL     1       7.651  -2.394  -9.928  1.00  0.00     0.004 C 
ENDBRANCH   6   7
ENDBRANCH   1   6
TORSDOF 4
ENDMDL
MODEL 7
REMARK VINA RESULT:    -3.883      3.022      4.595
REMARK INTER + INTRA:          -4.889
REMARK INTER:                  -4.821
REMARK INTRA:                  -0.067
REMARK UNBOUND:                -0.098
REMARK SMILES CCCCCC(=O)[O-]
REMARK SMILES IDX 4 1 5 2 6 3 7 4 8 5 3 6 2 7 1 8
REMARK H PARENT
REMARK Flexibility Score: inf
ROOT
ATOM      1  C   UNL     1      10.368   6.032 -10.311  1.00  0.00     0.006 C 
ENDROOT
BRANCH   1   2
ATOM      2  C   UNL     1      11.714   6.420 -10.935  1.00  0.00     0.053 C 
BRANCH   2   3
ATOM      3  C   UNL     1      12.833   6.341  -9.942  1.00  0.00     0.041 C 
ATOM      4  O   UNL     1      13.945   6.873 -10.196  1.00  0.00    -0.550 OA
ATOM      5  O   UNL     1      12.636   5.708  -8.721  1.00  0.00    -0.550 OA
ENDBRANCH   2   3
ENDBRANCH   1   2
BRANCH   1   6
ATOM      6  C   UNL     1       9.291   5.761 -11.373  1.00  0.00     0.000 C 
BRANCH   6   7
ATOM      7  C   UNL     1       8.959   7.037 -12.155  1.00  0.00    -0.003 C 
ATOM      8  C   UNL     1       7.478   7.090 -12.521  1.00  0.00     0.004 C 
ENDBRANCH   6   7
ENDBRANCH   1   6
TORSDOF 4
ENDMDL
MODEL 8
REMARK VINA RESULT:    -3.851      5.488      7.158
REMARK INTER + INTRA:          -4.849
REMARK INTER:                  -4.757
REMARK INTRA:                  -0.092
REMARK UNBOUND:                -0.098
REMARK SMILES CCCCCC(=O)[O-]
REMARK SMILES IDX 4 1 5 2 6 3 7 4 8 5 3 6 2 7 1 8
REMARK H PARENT
REMARK Flexibility Score: inf
ROOT
ATOM      1  C   UNL     1      11.683   8.146 -16.433  1.00  0.00     0.006 C 
ENDROOT
BRANCH   1   2
ATOM      2  C   UNL     1      13.210   8.244 -16.322  1.00  0.00     0.053 C 
BRANCH   2   3
ATOM      3  C   UNL     1      13.649   8.526 -14.918  1.00  0.00     0.041 C 
ATOM      4  O   UNL     1      14.875   8.631 -14.647  1.00  0.00    -0.550 OA
ATOM      5  O   UNL     1      12.705   8.706 -13.915  1.00  0.00    -0.550 OA
ENDBRANCH   2   3
ENDBRANCH   1   2
BRANCH   1   6
ATOM      6  C   UNL     1      11.110   9.132 -17.463  1.00  0.00     0.000 C 
BRANCH   6   7
ATOM      7  C   UNL     1       9.706   8.707 -17.908  1.00  0.00    -0.003 C 
ATOM      8  C   UNL     1       8.870   8.236 -16.721  1.00  0.00     0.004 C 
ENDBRANCH   6   7
ENDBRANCH   1   6
TORSDOF 4
ENDMDL
MODEL 9
REMARK VINA RESULT:    -3.842      5.251      6.908
REMARK INTER + INTRA:          -4.839
REMARK INTER:                  -4.671
REMARK INTRA:                  -0.168
REMARK UNBOUND:                -0.098
REMARK SMILES CCCCCC(=O)[O-]
REMARK SMILES IDX 4 1 5 2 6 3 7 4 8 5 3 6 2 7 1 8
REMARK H PARENT
REMARK Flexibility Score: inf
ROOT
ATOM      1  C   UNL     1      11.758   8.650 -17.109  1.00  0.00     0.006 C 
ENDROOT
BRANCH   1   2
ATOM      2  C   UNL     1      12.938   8.218 -16.228  1.00  0.00     0.053 C 
BRANCH   2   3
ATOM      3  C   UNL     1      12.583   7.054 -15.353  1.00  0.00     0.041 C 
ATOM      4  O   UNL     1      12.580   7.182 -14.100  1.00  0.00    -0.550 OA
ATOM      5  O   UNL     1      12.222   5.839 -15.922  1.00  0.00    -0.550 OA
ENDBRANCH   2   3
ENDBRANCH   1   2
BRANCH   1   6
ATOM      6  C   UNL     1      10.480   8.891 -16.291  1.00  0.00     0.000 C 
BRANCH   6   7
ATOM      7  C   UNL     1       9.257   8.290 -16.994  1.00  0.00    -0.003 C 
ATOM      8  C   UNL     1       9.262   8.617 -18.485  1.00  0.00     0.004 C 
ENDBRANCH   6   7
ENDBRANCH   1   6
TORSDOF 4
ENDMDL
