MODEL 1
REMARK VINA RESULT:    -4.028      0.000      0.000
REMARK INTER + INTRA:          -6.351
REMARK INTER:                  -5.912
REMARK INTRA:                  -0.438
REMARK UNBOUND:                -0.438
REMARK SMILES O=C([O-])CCCCCCCC(=O)[O-]
REMARK SMILES IDX 7 1 6 2 5 3 4 4 2 5 1 6 3 7 8 8 9 9 10 10 11 11 12 12 13 13
REMARK H PARENT
REMARK Flexibility Score: inf
ROOT
ATOM      1  C   UNL     1      71.111 -38.799  11.088  1.00  0.00     0.000 C 
ENDROOT
BRANCH   1   2
ATOM      2  C   UNL     1      72.187 -38.016  11.849  1.00  0.00     0.000 C 
BRANCH   2   3
ATOM      3  C   UNL     1      73.224 -37.425  10.887  1.00  0.00     0.006 C 
BRANCH   3   4
ATOM      4  C   UNL     1      74.647 -37.772  11.332  1.00  0.00     0.053 C 
BRANCH   4   5
ATOM      5  C   UNL     1      75.638 -36.861  10.678  1.00  0.00     0.041 C 
ATOM      6  O   UNL     1      76.554 -36.328  11.359  1.00  0.00    -0.550 OA
ATOM      7  O   UNL     1      75.580 -36.640   9.308  1.00  0.00    -0.550 OA
ENDBRANCH   4   5
ENDBRANCH   3   4
ENDBRANCH   2   3
ENDBRANCH   1   2
BRANCH   1   8
ATOM      8  C   UNL     1      70.086 -37.852  10.452  1.00  0.00     0.000 C 
BRANCH   8   9
ATOM      9  C   UNL     1      70.211 -37.854   8.922  1.00  0.00     0.006 C 
BRANCH   9  10
ATOM     10  C   UNL     1      70.367 -36.438   8.350  1.00  0.00     0.053 C 
BRANCH  10  11
ATOM     11  C   UNL     1      71.622 -36.303   7.542  1.00  0.00     0.041 C 
ATOM     12  O   UNL     1      71.835 -37.072   6.568  1.00  0.00    -0.550 OA
ATOM     13  O   UNL     1      72.570 -35.349   7.886  1.00  0.00    -0.550 OA
ENDBRANCH  10  11
ENDBRANCH   9  10
ENDBRANCH   8   9
ENDBRANCH   1   8
TORSDOF 8
ENDMDL
MODEL 2
REMARK VINA RESULT:    -3.937      2.134      2.661
REMARK INTER + INTRA:          -6.216
REMARK INTER:                  -5.900
REMARK INTRA:                  -0.316
REMARK UNBOUND:                -0.438
REMARK SMILES O=C([O-])CCCCCCCC(=O)[O-]
REMARK SMILES IDX 7 1 6 2 5 3 4 4 2 5 1 6 3 7 8 8 9 9 10 10 11 11 12 12 13 13
REMARK H PARENT
REMARK Flexibility Score: inf
ROOT
ATOM      1  C   UNL     1      72.222 -38.183  11.768  1.00  0.00     0.000 C 
ENDROOT
BRANCH   1   2
ATOM      2  C   UNL     1      72.837 -37.058  10.927  1.00  0.00     0.000 C 
BRANCH   2   3
ATOM      3  C   UNL     1      74.248 -37.428  10.457  1.00  0.00     0.006 C 
BRANCH   3   4
ATOM      4  C   UNL     1      75.116 -37.888  11.632  1.00  0.00     0.053 C 
BRANCH   4   5
ATOM      5  C   UNL     1      76.456 -37.223  11.586  1.00  0.00     0.041 C 
ATOM      6  O   UNL     1      76.546 -35.998  11.307  1.00  0.00    -0.550 OA
ATOM      7  O   UNL     1      77.600 -37.944  11.901  1.00  0.00    -0.550 OA
ENDBRANCH   4   5
ENDBRANCH   3   4
ENDBRANCH   2   3
ENDBRANCH   1   2
BRANCH   1   8
ATOM      8  C   UNL     1      70.988 -38.776  11.077  1.00  0.00     0.000 C 
BRANCH   8   9
ATOM      9  C   UNL     1      70.228 -37.698  10.291  1.00  0.00     0.006 C 
BRANCH   9  10
ATOM     10  C   UNL     1      68.716 -37.961  10.257  1.00  0.00     0.053 C 
BRANCH  10  11
ATOM     11  C   UNL     1      68.129 -37.643   8.916  1.00  0.00     0.041 C 
ATOM     12  O   UNL     1      67.341 -38.454   8.360  1.00  0.00    -0.550 OA
ATOM     13  O   UNL     1      68.476 -36.466   8.266  1.00  0.00    -0.550 OA
ENDBRANCH  10  11
ENDBRANCH   9  10
ENDBRANCH   8   9
ENDBRANCH   1   8
TORSDOF 8
ENDMDL
MODEL 3
REMARK VINA RESULT:    -3.921      2.964      5.880
REMARK INTER + INTRA:          -6.193
REMARK INTER:                  -5.872
REMARK INTRA:                  -0.321
REMARK UNBOUND:                -0.438
REMARK SMILES O=C([O-])CCCCCCCC(=O)[O-]
REMARK SMILES IDX 7 1 6 2 5 3 4 4 2 5 1 6 3 7 8 8 9 9 10 10 11 11 12 12 13 13
REMARK H PARENT
REMARK Flexibility Score: inf
ROOT
ATOM      1  C   UNL     1      72.238 -37.866  11.635  1.00  0.00     0.000 C 
ENDROOT
BRANCH   1   2
ATOM      2  C   UNL     1      70.780 -38.326  11.513  1.00  0.00     0.000 C 
BRANCH   2   3
ATOM      3  C   UNL     1      70.698 -39.835  11.258  1.00  0.00     0.006 C 
BRANCH   3   4
ATOM      4  C   UNL     1      69.943 -40.133   9.960  1.00  0.00     0.053 C 
BRANCH   4   5
ATOM      5  C   UNL     1      69.539 -41.573   9.907  1.00  0.00     0.041 C 
ATOM      6  O   UNL     1      68.576 -41.987  10.606  1.00  0.00    -0.550 OA
ATOM      7  O   UNL     1      70.193 -42.447   9.049  1.00  0.00    -0.550 OA
ENDBRANCH   4   5
ENDBRANCH   3   4
ENDBRANCH   2   3
ENDBRANCH   1   2
BRANCH   1   8
ATOM      8  C   UNL     1      72.693 -37.131  10.368  1.00  0.00     0.000 C 
BRANCH   8   9
ATOM      9  C   UNL     1      74.217 -37.209  10.206  1.00  0.00     0.006 C 
BRANCH   9  10
ATOM     10  C   UNL     1      74.912 -37.722  11.474  1.00  0.00     0.053 C 
BRANCH  10  11
ATOM     11  C   UNL     1      76.334 -37.259  11.553  1.00  0.00     0.041 C 
ATOM     12  O   UNL     1      77.244 -38.059  11.900  1.00  0.00    -0.550 OA
ATOM     13  O   UNL     1      76.651 -35.936  11.275  1.00  0.00    -0.550 OA
ENDBRANCH  10  11
ENDBRANCH   9  10
ENDBRANCH   8   9
ENDBRANCH   1   8
TORSDOF 8
ENDMDL
MODEL 4
REMARK VINA RESULT:    -3.893      2.538      3.651
REMARK INTER + INTRA:          -6.153
REMARK INTER:                  -5.825
REMARK INTRA:                  -0.327
REMARK UNBOUND:                -0.438
REMARK SMILES O=C([O-])CCCCCCCC(=O)[O-]
REMARK SMILES IDX 7 1 6 2 5 3 4 4 2 5 1 6 3 7 8 8 9 9 10 10 11 11 12 12 13 13
REMARK H PARENT
REMARK Flexibility Score: inf
ROOT
ATOM      1  C   UNL     1      69.173 -36.352   8.159  1.00  0.00     0.000 C 
ENDROOT
BRANCH   1   2
ATOM      2  C   UNL     1      70.247 -37.428   8.360  1.00  0.00     0.000 C 
BRANCH   2   3
ATOM      3  C   UNL     1      70.745 -37.446   9.809  1.00  0.00     0.006 C 
BRANCH   3   4
ATOM      4  C   UNL     1      72.142 -36.830   9.918  1.00  0.00     0.053 C 
BRANCH   4   5
ATOM      5  C   UNL     1      72.914 -37.472  11.028  1.00  0.00     0.041 C 
ATOM      6  O   UNL     1      72.347 -38.283  11.807  1.00  0.00    -0.550 OA
ATOM      7  O   UNL     1      74.271 -37.213  11.170  1.00  0.00    -0.550 OA
ENDBRANCH   4   5
ENDBRANCH   3   4
ENDBRANCH   2   3
ENDBRANCH   1   2
BRANCH   1   8
ATOM      8  C   UNL     1      69.430 -35.548   6.879  1.00  0.00     0.000 C 
BRANCH   8   9
ATOM      9  C   UNL     1      69.514 -34.045   7.181  1.00  0.00     0.006 C 
BRANCH   9  10
ATOM     10  C   UNL     1      70.184 -33.261   6.045  1.00  0.00     0.053 C 
BRANCH  10  11
ATOM     11  C   UNL     1      71.671 -33.200   6.216  1.00  0.00     0.041 C 
ATOM     12  O   UNL     1      72.400 -32.769   5.283  1.00  0.00    -0.550 OA
ATOM     13  O   UNL     1      72.255 -33.648   7.393  1.00  0.00    -0.550 OA
ENDBRANCH  10  11
ENDBRANCH   9  10
ENDBRANCH   8   9
ENDBRANCH   1   8
TORSDOF 8
ENDMDL
MODEL 5
REMARK VINA RESULT:    -3.864      2.212      5.354
REMARK INTER + INTRA:          -6.109
REMARK INTER:                  -5.635
REMARK INTRA:                  -0.474
REMARK UNBOUND:                -0.438
REMARK SMILES O=C([O-])CCCCCCCC(=O)[O-]
REMARK SMILES IDX 7 1 6 2 5 3 4 4 2 5 1 6 3 7 8 8 9 9 10 10 11 11 12 12 13 13
REMARK H PARENT
REMARK Flexibility Score: inf
ROOT
ATOM      1  C   UNL     1      70.782 -37.000   7.155  1.00  0.00     0.000 C 
ENDROOT
BRANCH   1   2
ATOM      2  C   UNL     1      69.758 -36.058   6.510  1.00  0.00     0.000 C 
BRANCH   2   3
ATOM      3  C   UNL     1      69.697 -34.718   7.251  1.00  0.00     0.006 C 
BRANCH   3   4
ATOM      4  C   UNL     1      70.028 -33.555   6.312  1.00  0.00     0.053 C 
BRANCH   4   5
ATOM      5  C   UNL     1      71.472 -33.181   6.429  1.00  0.00     0.041 C 
ATOM      6  O   UNL     1      72.069 -33.297   7.531  1.00  0.00    -0.550 OA
ATOM      7  O   UNL     1      72.171 -32.750   5.309  1.00  0.00    -0.550 OA
ENDBRANCH   4   5
ENDBRANCH   3   4
ENDBRANCH   2   3
ENDBRANCH   1   2
BRANCH   1   8
ATOM      8  C   UNL     1      70.837 -36.797   8.674  1.00  0.00     0.000 C 
BRANCH   8   9
ATOM      9  C   UNL     1      72.272 -36.508   9.138  1.00  0.00     0.006 C 
BRANCH   9  10
ATOM     10  C   UNL     1      72.596 -37.184  10.478  1.00  0.00     0.053 C 
BRANCH  10  11
ATOM     11  C   UNL     1      74.059 -37.476  10.610  1.00  0.00     0.041 C 
ATOM     12  O   UNL     1      74.844 -37.231   9.656  1.00  0.00    -0.550 OA
ATOM     13  O   UNL     1      74.551 -38.049  11.776  1.00  0.00    -0.550 OA
ENDBRANCH  10  11
ENDBRANCH   9  10
ENDBRANCH   8   9
ENDBRANCH   1   8
TORSDOF 8
ENDMDL
MODEL 6
REMARK VINA RESULT:    -3.858      1.405      5.410
REMARK INTER + INTRA:          -6.101
REMARK INTER:                  -5.745
REMARK INTRA:                  -0.356
REMARK UNBOUND:                -0.438
REMARK SMILES O=C([O-])CCCCCCCC(=O)[O-]
REMARK SMILES IDX 7 1 6 2 5 3 4 4 2 5 1 6 3 7 8 8 9 9 10 10 11 11 12 12 13 13
REMARK H PARENT
REMARK Flexibility Score: inf
ROOT
ATOM      1  C   UNL     1      71.059 -38.692  10.837  1.00  0.00     0.000 C 
ENDROOT
BRANCH   1   2
ATOM      2  C   UNL     1      69.866 -37.856  10.356  1.00  0.00     0.000 C 
BRANCH   2   3
ATOM      3  C   UNL     1      69.846 -37.754   8.827  1.00  0.00     0.006 C 
BRANCH   3   4
ATOM      4  C   UNL     1      70.455 -36.430   8.356  1.00  0.00     0.053 C 
BRANCH   4   5
ATOM      5  C   UNL     1      69.568 -35.775   7.345  1.00  0.00     0.041 C 
ATOM      6  O   UNL     1      69.172 -36.420   6.337  1.00  0.00    -0.550 OA
ATOM      7  O   UNL     1      69.138 -34.469   7.540  1.00  0.00    -0.550 OA
ENDBRANCH   4   5
ENDBRANCH   3   4
ENDBRANCH   2   3
ENDBRANCH   1   2
BRANCH   1   8
ATOM      8  C   UNL     1      72.017 -37.848  11.686  1.00  0.00     0.000 C 
BRANCH   8   9
ATOM      9  C   UNL     1      73.321 -37.566  10.927  1.00  0.00     0.006 C 
BRANCH   9  10
ATOM     10  C   UNL     1      74.564 -37.921  11.754  1.00  0.00     0.053 C 
BRANCH  10  11
ATOM     11  C   UNL     1      75.815 -37.379  11.134  1.00  0.00     0.041 C 
ATOM     12  O   UNL     1      76.929 -37.555  11.696  1.00  0.00    -0.550 OA
ATOM     13  O   UNL     1      75.748 -36.653   9.953  1.00  0.00    -0.550 OA
ENDBRANCH  10  11
ENDBRANCH   9  10
ENDBRANCH   8   9
ENDBRANCH   1   8
TORSDOF 8
ENDMDL
MODEL 7
REMARK VINA RESULT:    -3.854      2.977      4.476
REMARK INTER + INTRA:          -6.095
REMARK INTER:                  -5.494
REMARK INTRA:                  -0.601
REMARK UNBOUND:                -0.438
REMARK SMILES O=C([O-])CCCCCCCC(=O)[O-]
REMARK SMILES IDX 7 1 6 2 5 3 4 4 2 5 1 6 3 7 8 8 9 9 10 10 11 11 12 12 13 13
REMARK H PARENT
REMARK Flexibility Score: inf
ROOT
ATOM      1  C   UNL     1      72.111 -33.780   7.113  1.00  0.00     0.000 C 
ENDROOT
BRANCH   1   2
ATOM      2  C   UNL     1      72.974 -34.234   5.929  1.00  0.00     0.000 C 
BRANCH   2   3
ATOM      3  C   UNL     1      73.594 -35.610   6.195  1.00  0.00     0.006 C 
BRANCH   3   4
ATOM      4  C   UNL     1      73.401 -36.028   7.654  1.00  0.00     0.053 C 
BRANCH   4   5
ATOM      5  C   UNL     1      74.638 -36.686   8.180  1.00  0.00     0.041 C 
ATOM      6  O   UNL     1      75.641 -36.837   7.434  1.00  0.00    -0.550 OA
ATOM      7  O   UNL     1      74.700 -37.088   9.508  1.00  0.00    -0.550 OA
ENDBRANCH   4   5
ENDBRANCH   3   4
ENDBRANCH   2   3
ENDBRANCH   1   2
BRANCH   1   8
ATOM      8  C   UNL     1      70.847 -33.059   6.630  1.00  0.00     0.000 C 
BRANCH   8   9
ATOM      9  C   UNL     1      69.583 -33.775   7.125  1.00  0.00     0.006 C 
BRANCH   9  10
ATOM     10  C   UNL     1      69.564 -35.259   6.734  1.00  0.00     0.053 C 
BRANCH  10  11
ATOM     11  C   UNL     1      69.190 -36.132   7.893  1.00  0.00     0.041 C 
ATOM     12  O   UNL     1      70.084 -36.620   8.634  1.00  0.00    -0.550 OA
ATOM     13  O   UNL     1      67.856 -36.433   8.135  1.00  0.00    -0.550 OA
ENDBRANCH  10  11
ENDBRANCH   9  10
ENDBRANCH   8   9
ENDBRANCH   1   8
TORSDOF 8
ENDMDL
MODEL 8
REMARK VINA RESULT:    -3.783      1.543      2.113
REMARK INTER + INTRA:          -5.991
REMARK INTER:                  -5.590
REMARK INTRA:                  -0.400
REMARK UNBOUND:                -0.438
REMARK SMILES O=C([O-])CCCCCCCC(=O)[O-]
REMARK SMILES IDX 7 1 6 2 5 3 4 4 2 5 1 6 3 7 8 8 9 9 10 10 11 11 12 12 13 13
REMARK H PARENT
REMARK Flexibility Score: inf
ROOT
ATOM      1  C   UNL     1      71.351 -37.239   9.593  1.00  0.00     0.000 C 
ENDROOT
BRANCH   1   2
ATOM      2  C   UNL     1      71.362 -37.960  10.947  1.00  0.00     0.000 C 
BRANCH   2   3
ATOM      3  C   UNL     1      72.742 -37.871  11.608  1.00  0.00     0.006 C 
BRANCH   3   4
ATOM      4  C   UNL     1      73.783 -37.312  10.635  1.00  0.00     0.053 C 
BRANCH   4   5
ATOM      5  C   UNL     1      75.150 -37.365  11.242  1.00  0.00     0.041 C 
ATOM      6  O   UNL     1      76.065 -36.616  10.808  1.00  0.00    -0.550 OA
ATOM      7  O   UNL     1      75.400 -38.205  12.319  1.00  0.00    -0.550 OA
ENDBRANCH   4   5
ENDBRANCH   3   4
ENDBRANCH   2   3
ENDBRANCH   1   2
BRANCH   1   8
ATOM      8  C   UNL     1      69.921 -37.082   9.063  1.00  0.00     0.000 C 
BRANCH   8   9
ATOM      9  C   UNL     1      69.918 -36.422   7.677  1.00  0.00     0.006 C 
BRANCH   9  10
ATOM     10  C   UNL     1      71.280 -35.812   7.321  1.00  0.00     0.053 C 
BRANCH  10  11
ATOM     11  C   UNL     1      71.177 -34.341   7.059  1.00  0.00     0.041 C 
ATOM     12  O   UNL     1      72.144 -33.580   7.327  1.00  0.00    -0.550 OA
ATOM     13  O   UNL     1      70.002 -33.806   6.549  1.00  0.00    -0.550 OA
ENDBRANCH  10  11
ENDBRANCH   9  10
ENDBRANCH   8   9
ENDBRANCH   1   8
TORSDOF 8
ENDMDL
MODEL 9
REMARK VINA RESULT:    -3.775     10.556     11.757
REMARK INTER + INTRA:          -5.980
REMARK INTER:                  -5.623
REMARK INTRA:                  -0.356
REMARK UNBOUND:                -0.438
REMARK SMILES O=C([O-])CCCCCCCC(=O)[O-]
REMARK SMILES IDX 7 1 6 2 5 3 4 4 2 5 1 6 3 7 8 8 9 9 10 10 11 11 12 12 13 13
REMARK H PARENT
REMARK Flexibility Score: inf
ROOT
ATOM      1  C   UNL     1      72.174 -32.313  21.269  1.00  0.00     0.000 C 
ENDROOT
BRANCH   1   2
ATOM      2  C   UNL     1      73.695 -32.139  21.346  1.00  0.00     0.000 C 
BRANCH   2   3
ATOM      3  C   UNL     1      74.347 -33.309  22.091  1.00  0.00     0.006 C 
BRANCH   3   4
ATOM      4  C   UNL     1      73.288 -34.250  22.671  1.00  0.00     0.053 C 
BRANCH   4   5
ATOM      5  C   UNL     1      73.725 -35.676  22.540  1.00  0.00     0.041 C 
ATOM      6  O   UNL     1      74.942 -35.978  22.649  1.00  0.00    -0.550 OA
ATOM      7  O   UNL     1      72.781 -36.676  22.349  1.00  0.00    -0.550 OA
ENDBRANCH   4   5
ENDBRANCH   3   4
ENDBRANCH   2   3
ENDBRANCH   1   2
BRANCH   1   8
ATOM      8  C   UNL     1      71.689 -32.290  19.814  1.00  0.00     0.000 C 
BRANCH   8   9
ATOM      9  C   UNL     1      72.459 -31.244  18.995  1.00  0.00     0.006 C 
BRANCH   9  10
ATOM     10  C   UNL     1      71.524 -30.349  18.170  1.00  0.00     0.053 C 
BRANCH  10  11
ATOM     11  C   UNL     1      72.114 -30.015  16.835  1.00  0.00     0.041 C 
ATOM     12  O   UNL     1      72.087 -28.830  16.408  1.00  0.00    -0.550 OA
ATOM     13  O   UNL     1      72.666 -31.017  16.048  1.00  0.00    -0.550 OA
ENDBRANCH  10  11
ENDBRANCH   9  10
ENDBRANCH   8   9
ENDBRANCH   1   8
TORSDOF 8
ENDMDL
