MODEL 1
REMARK VINA RESULT:    -5.489      0.000      0.000
REMARK INTER + INTRA:          -6.193
REMARK INTER:                  -6.131
REMARK INTRA:                  -0.062
REMARK UNBOUND:                -0.062
REMARK SMILES COc1ccc(C(=O)[O-])cc1
REMARK SMILES IDX 6 1 5 2 10 3 4 4 11 5 3 6 7 7 8 8 9 9 2 10 1 11
REMARK H PARENT
REMARK Flexibility Score: inf
ROOT
ATOM      1  C   UNL     1     130.517 125.525 126.692  1.00  0.00    -0.003 A 
ATOM      2  C   UNL     1     129.680 126.369 127.442  1.00  0.00     0.014 A 
ATOM      3  C   UNL     1     130.232 124.151 126.644  1.00  0.00     0.014 A 
ATOM      4  C   UNL     1     128.580 125.846 128.129  1.00  0.00     0.047 A 
ATOM      5  C   UNL     1     129.131 123.630 127.332  1.00  0.00     0.047 A 
ATOM      6  C   UNL     1     128.295 124.478 128.082  1.00  0.00     0.118 A 
ENDROOT
BRANCH   1   7
ATOM      7  C   UNL     1     131.683 126.073 125.964  1.00  0.00     0.071 C 
ATOM      8  O   UNL     1     131.716 126.060 124.705  1.00  0.00    -0.545 OA
ATOM      9  O   UNL     1     132.759 126.612 126.660  1.00  0.00    -0.545 OA
ENDBRANCH   1   7
BRANCH   6  10
ATOM     10  O   UNL     1     127.180 124.003 128.788  1.00  0.00    -0.497 OA
ATOM     11  C   UNL     1     126.087 124.815 129.204  1.00  0.00     0.278 C 
ENDBRANCH   6  10
TORSDOF 2
ENDMDL
MODEL 2
REMARK VINA RESULT:    -5.325      0.990      4.735
REMARK INTER + INTRA:          -6.009
REMARK INTER:                  -5.949
REMARK INTRA:                  -0.060
REMARK UNBOUND:                -0.062
REMARK SMILES COc1ccc(C(=O)[O-])cc1
REMARK SMILES IDX 6 1 5 2 10 3 4 4 11 5 3 6 7 7 8 8 9 9 2 10 1 11
REMARK H PARENT
REMARK Flexibility Score: inf
ROOT
ATOM      1  C   UNL     1     128.270 124.813 128.076  1.00  0.00    -0.003 A 
ATOM      2  C   UNL     1     128.641 126.128 127.751  1.00  0.00     0.014 A 
ATOM      3  C   UNL     1     128.999 123.744 127.527  1.00  0.00     0.014 A 
ATOM      4  C   UNL     1     129.718 126.369 126.892  1.00  0.00     0.047 A 
ATOM      5  C   UNL     1     130.076 123.987 126.668  1.00  0.00     0.047 A 
ATOM      6  C   UNL     1     130.443 125.306 126.344  1.00  0.00     0.118 A 
ENDROOT
BRANCH   1   7
ATOM      7  C   UNL     1     127.131 124.553 128.985  1.00  0.00     0.071 C 
ATOM      8  O   UNL     1     126.267 125.443 129.199  1.00  0.00    -0.545 OA
ATOM      9  O   UNL     1     127.000 123.320 129.614  1.00  0.00    -0.545 OA
ENDBRANCH   1   7
BRANCH   6  10
ATOM     10  O   UNL     1     131.516 125.600 125.489  1.00  0.00    -0.497 OA
ATOM     11  C   UNL     1     131.376 125.955 124.118  1.00  0.00     0.278 C 
ENDBRANCH   6  10
TORSDOF 2
ENDMDL
MODEL 3
REMARK VINA RESULT:    -5.275      0.913      5.028
REMARK INTER + INTRA:          -5.954
REMARK INTER:                  -5.896
REMARK INTRA:                  -0.057
REMARK UNBOUND:                -0.062
REMARK SMILES COc1ccc(C(=O)[O-])cc1
REMARK SMILES IDX 6 1 5 2 10 3 4 4 11 5 3 6 7 7 8 8 9 9 2 10 1 11
REMARK H PARENT
REMARK Flexibility Score: inf
ROOT
ATOM      1  C   UNL     1     128.133 124.589 128.201  1.00  0.00    -0.003 A 
ATOM      2  C   UNL     1     128.963 123.659 127.552  1.00  0.00     0.014 A 
ATOM      3  C   UNL     1     128.444 125.956 128.113  1.00  0.00     0.014 A 
ATOM      4  C   UNL     1     130.081 124.089 126.832  1.00  0.00     0.047 A 
ATOM      5  C   UNL     1     129.563 126.385 127.391  1.00  0.00     0.047 A 
ATOM      6  C   UNL     1     130.392 125.449 126.744  1.00  0.00     0.118 A 
ENDROOT
BRANCH   1   7
ATOM      7  C   UNL     1     126.948 124.139 128.965  1.00  0.00     0.071 C 
ATOM      8  O   UNL     1     127.003 123.104 129.681  1.00  0.00    -0.545 OA
ATOM      9  O   UNL     1     125.758 124.854 128.904  1.00  0.00    -0.545 OA
ENDBRANCH   1   7
BRANCH   6  10
ATOM     10  O   UNL     1     131.524 125.830 126.008  1.00  0.00    -0.497 OA
ATOM     11  C   UNL     1     132.633 126.538 126.550  1.00  0.00     0.278 C 
ENDBRANCH   6  10
TORSDOF 2
ENDMDL
MODEL 4
REMARK VINA RESULT:    -5.142      4.054      5.145
REMARK INTER + INTRA:          -5.805
REMARK INTER:                  -5.748
REMARK INTRA:                  -0.057
REMARK UNBOUND:                -0.062
REMARK SMILES COc1ccc(C(=O)[O-])cc1
REMARK SMILES IDX 6 1 5 2 10 3 4 4 11 5 3 6 7 7 8 8 9 9 2 10 1 11
REMARK H PARENT
REMARK Flexibility Score: inf
ROOT
ATOM      1  C   UNL     1     128.353 127.509 123.317  1.00  0.00    -0.003 A 
ATOM      2  C   UNL     1     128.926 128.666 123.872  1.00  0.00     0.014 A 
ATOM      3  C   UNL     1     128.423 126.303 124.035  1.00  0.00     0.014 A 
ATOM      4  C   UNL     1     129.556 128.617 125.119  1.00  0.00     0.047 A 
ATOM      5  C   UNL     1     129.055 126.256 125.283  1.00  0.00     0.047 A 
ATOM      6  C   UNL     1     129.628 127.417 125.834  1.00  0.00     0.118 A 
ENDROOT
BRANCH   1   7
ATOM      7  C   UNL     1     127.685 127.556 121.998  1.00  0.00     0.071 C 
ATOM      8  O   UNL     1     128.145 128.274 121.071  1.00  0.00    -0.545 OA
ATOM      9  O   UNL     1     126.537 126.807 121.763  1.00  0.00    -0.545 OA
ENDBRANCH   1   7
BRANCH   6  10
ATOM     10  O   UNL     1     130.270 127.420 127.081  1.00  0.00    -0.497 OA
ATOM     11  C   UNL     1     131.682 127.444 127.257  1.00  0.00     0.278 C 
ENDBRANCH   6  10
TORSDOF 2
ENDMDL
MODEL 5
REMARK VINA RESULT:    -5.120      3.557      4.270
REMARK INTER + INTRA:          -5.781
REMARK INTER:                  -5.719
REMARK INTRA:                  -0.062
REMARK UNBOUND:                -0.062
REMARK SMILES COc1ccc(C(=O)[O-])cc1
REMARK SMILES IDX 6 1 5 2 10 3 4 4 11 5 3 6 7 7 8 8 9 9 2 10 1 11
REMARK H PARENT
REMARK Flexibility Score: inf
ROOT
ATOM      1  C   UNL     1     130.949 126.698 125.462  1.00  0.00    -0.003 A 
ATOM      2  C   UNL     1     129.977 127.493 126.093  1.00  0.00     0.014 A 
ATOM      3  C   UNL     1     132.181 126.492 126.105  1.00  0.00     0.014 A 
ATOM      4  C   UNL     1     130.233 128.069 127.341  1.00  0.00     0.047 A 
ATOM      5  C   UNL     1     132.436 127.069 127.354  1.00  0.00     0.047 A 
ATOM      6  C   UNL     1     131.459 127.865 127.981  1.00  0.00     0.118 A 
ENDROOT
BRANCH   1   7
ATOM      7  C   UNL     1     130.683 126.087 124.141  1.00  0.00     0.071 C 
ATOM      8  O   UNL     1     131.518 125.303 123.618  1.00  0.00    -0.545 OA
ATOM      9  O   UNL     1     129.505 126.369 123.459  1.00  0.00    -0.545 OA
ENDBRANCH   1   7
BRANCH   6  10
ATOM     10  O   UNL     1     131.667 128.464 129.233  1.00  0.00    -0.497 OA
ATOM     11  C   UNL     1     132.732 129.361 129.527  1.00  0.00     0.278 C 
ENDBRANCH   6  10
TORSDOF 2
ENDMDL
MODEL 6
REMARK VINA RESULT:    -5.060      5.215      6.404
REMARK INTER + INTRA:          -5.713
REMARK INTER:                  -5.652
REMARK INTRA:                  -0.061
REMARK UNBOUND:                -0.062
REMARK SMILES COc1ccc(C(=O)[O-])cc1
REMARK SMILES IDX 6 1 5 2 10 3 4 4 11 5 3 6 7 7 8 8 9 9 2 10 1 11
REMARK H PARENT
REMARK Flexibility Score: inf
ROOT
ATOM      1  C   UNL     1     127.232 128.241 122.628  1.00  0.00    -0.003 A 
ATOM      2  C   UNL     1     128.369 129.031 122.869  1.00  0.00     0.014 A 
ATOM      3  C   UNL     1     127.286 126.866 122.910  1.00  0.00     0.014 A 
ATOM      4  C   UNL     1     129.536 128.456 123.381  1.00  0.00     0.047 A 
ATOM      5  C   UNL     1     128.455 126.292 123.422  1.00  0.00     0.047 A 
ATOM      6  C   UNL     1     129.592 127.087 123.661  1.00  0.00     0.118 A 
ENDROOT
BRANCH   1   7
ATOM      7  C   UNL     1     125.994 128.846 122.087  1.00  0.00     0.071 C 
ATOM      8  O   UNL     1     124.944 128.161 121.972  1.00  0.00    -0.545 OA
ATOM      9  O   UNL     1     125.974 130.180 121.696  1.00  0.00    -0.545 OA
ENDBRANCH   1   7
BRANCH   6  10
ATOM     10  O   UNL     1     130.785 126.558 124.173  1.00  0.00    -0.497 OA
ATOM     11  C   UNL     1     130.907 125.935 125.447  1.00  0.00     0.278 C 
ENDBRANCH   6  10
TORSDOF 2
ENDMDL
MODEL 7
REMARK VINA RESULT:    -5.049      3.454      3.982
REMARK INTER + INTRA:          -5.701
REMARK INTER:                  -5.638
REMARK INTRA:                  -0.063
REMARK UNBOUND:                -0.062
REMARK SMILES COc1ccc(C(=O)[O-])cc1
REMARK SMILES IDX 6 1 5 2 10 3 4 4 11 5 3 6 7 7 8 8 9 9 2 10 1 11
REMARK H PARENT
REMARK Flexibility Score: inf
ROOT
ATOM      1  C   UNL     1     130.902 127.056 126.102  1.00  0.00    -0.003 A 
ATOM      2  C   UNL     1     129.771 127.812 126.456  1.00  0.00     0.014 A 
ATOM      3  C   UNL     1     130.911 126.380 124.870  1.00  0.00     0.014 A 
ATOM      4  C   UNL     1     128.673 127.889 125.594  1.00  0.00     0.047 A 
ATOM      5  C   UNL     1     129.810 126.459 124.010  1.00  0.00     0.047 A 
ATOM      6  C   UNL     1     128.680 127.217 124.368  1.00  0.00     0.118 A 
ENDROOT
BRANCH   1   7
ATOM      7  C   UNL     1     132.067 126.970 127.010  1.00  0.00     0.071 C 
ATOM      8  O   UNL     1     132.799 125.946 127.019  1.00  0.00    -0.545 OA
ATOM      9  O   UNL     1     132.370 128.022 127.868  1.00  0.00    -0.545 OA
ENDBRANCH   1   7
BRANCH   6  10
ATOM     10  O   UNL     1     127.554 127.326 123.539  1.00  0.00    -0.497 OA
ATOM     11  C   UNL     1     127.568 127.112 122.132  1.00  0.00     0.278 C 
ENDBRANCH   6  10
TORSDOF 2
ENDMDL
MODEL 8
REMARK VINA RESULT:    -5.040      3.581      5.082
REMARK INTER + INTRA:          -5.691
REMARK INTER:                  -5.633
REMARK INTRA:                  -0.059
REMARK UNBOUND:                -0.062
REMARK SMILES COc1ccc(C(=O)[O-])cc1
REMARK SMILES IDX 6 1 5 2 10 3 4 4 11 5 3 6 7 7 8 8 9 9 2 10 1 11
REMARK H PARENT
REMARK Flexibility Score: inf
ROOT
ATOM      1  C   UNL     1     129.338 126.905 126.059  1.00  0.00    -0.003 A 
ATOM      2  C   UNL     1     128.834 126.110 125.015  1.00  0.00     0.014 A 
ATOM      3  C   UNL     1     129.550 128.275 125.830  1.00  0.00     0.014 A 
ATOM      4  C   UNL     1     128.550 126.676 123.768  1.00  0.00     0.047 A 
ATOM      5  C   UNL     1     129.265 128.839 124.581  1.00  0.00     0.047 A 
ATOM      6  C   UNL     1     128.762 128.039 123.539  1.00  0.00     0.118 A 
ENDROOT
BRANCH   1   7
ATOM      7  C   UNL     1     129.641 126.312 127.380  1.00  0.00     0.071 C 
ATOM      8  O   UNL     1     129.012 125.299 127.787  1.00  0.00    -0.545 OA
ATOM      9  O   UNL     1     130.625 126.865 128.192  1.00  0.00    -0.545 OA
ENDBRANCH   1   7
BRANCH   6  10
ATOM     10  O   UNL     1     128.460 128.558 122.271  1.00  0.00    -0.497 OA
ATOM     11  C   UNL     1     127.151 128.910 121.837  1.00  0.00     0.278 C 
ENDBRANCH   6  10
TORSDOF 2
ENDMDL
MODEL 9
REMARK VINA RESULT:    -4.135      7.950      9.444
REMARK INTER + INTRA:          -4.680
REMARK INTER:                  -4.619
REMARK INTRA:                  -0.062
REMARK UNBOUND:                -0.062
REMARK SMILES COc1ccc(C(=O)[O-])cc1
REMARK SMILES IDX 6 1 5 2 10 3 4 4 11 5 3 6 7 7 8 8 9 9 2 10 1 11
REMARK H PARENT
REMARK Flexibility Score: inf
ROOT
ATOM      1  C   UNL     1     121.865 127.195 130.356  1.00  0.00    -0.003 A 
ATOM      2  C   UNL     1     122.329 126.639 131.560  1.00  0.00     0.014 A 
ATOM      3  C   UNL     1     120.513 127.036 130.009  1.00  0.00     0.014 A 
ATOM      4  C   UNL     1     121.457 125.938 132.399  1.00  0.00     0.047 A 
ATOM      5  C   UNL     1     119.642 126.334 130.850  1.00  0.00     0.047 A 
ATOM      6  C   UNL     1     120.111 125.779 132.055  1.00  0.00     0.118 A 
ENDROOT
BRANCH   1   7
ATOM      7  C   UNL     1     122.784 127.937 129.464  1.00  0.00     0.071 C 
ATOM      8  O   UNL     1     123.753 128.586 129.939  1.00  0.00    -0.545 OA
ATOM      9  O   UNL     1     122.589 127.928 128.088  1.00  0.00    -0.545 OA
ENDBRANCH   1   7
BRANCH   6  10
ATOM     10  O   UNL     1     119.277 125.068 132.931  1.00  0.00    -0.497 OA
ATOM     11  C   UNL     1     119.545 123.754 133.406  1.00  0.00     0.278 C 
ENDBRANCH   6  10
TORSDOF 2
ENDMDL
