MODEL 1
REMARK VINA RESULT:    -5.767      0.000      0.000
REMARK INTER + INTRA:          -6.272
REMARK INTER:                  -6.272
REMARK INTRA:                   0.000
REMARK UNBOUND:                 0.000
REMARK SMILES Cc1cc(O)c2c(c1)C(=O)c1cc(O)cc(O)c1C2=O
REMARK SMILES IDX 1 1 2 2 8 3 7 4 6 5 4 6 3 7 19 8 20 9 18 10 11 11 9 12 10 13
REMARK SMILES IDX 12 14 13 15 15 16 16 17 5 18 17 20 14 22
REMARK H PARENT 5 19 17 21 14 23
REMARK Flexibility Score: inf
ROOT
ATOM      1  C   UNL     1      14.525  14.409  53.752  1.00  0.00     0.044 C 
ATOM      2  C   UNL     1      15.832  14.910  53.211  1.00  0.00    -0.047 A 
ATOM      3  C   UNL     1      17.026  14.635  53.888  1.00  0.00     0.016 A 
ATOM      4  C   UNL     1      18.260  15.070  53.372  1.00  0.00     0.038 A 
ATOM      5  C   UNL     1      18.299  15.774  52.149  1.00  0.00     0.076 A 
ATOM      6  C   UNL     1      17.092  16.039  51.464  1.00  0.00     0.127 A 
ATOM      7  C   UNL     1      15.873  15.599  51.995  1.00  0.00     0.050 A 
ATOM      8  C   UNL     1      19.615  16.193  51.599  1.00  0.00     0.201 C 
ATOM      9  O   UNL     1      19.711  16.487  50.378  1.00  0.00    -0.288 OA
ATOM     10  C   UNL     1      20.832  16.153  52.456  1.00  0.00     0.076 A 
ATOM     11  C   UNL     1      20.792  15.389  53.646  1.00  0.00     0.041 A 
ATOM     12  C   UNL     1      19.517  14.788  54.102  1.00  0.00     0.194 C 
ATOM     13  O   UNL     1      19.497  14.050  55.125  1.00  0.00    -0.289 OA
ATOM     14  C   UNL     1      21.963  15.209  54.403  1.00  0.00     0.059 A 
ATOM     15  C   UNL     1      23.164  15.788  54.001  1.00  0.00     0.120 A 
ATOM     16  C   UNL     1      23.202  16.583  52.854  1.00  0.00     0.093 A 
ATOM     17  C   UNL     1      22.046  16.801  52.097  1.00  0.00     0.131 A 
ENDROOT
BRANCH   6  18
ATOM     18  O   UNL     1      17.098  16.744  50.259  1.00  0.00    -0.507 OA
ATOM     19  H   UNL     1      16.694  16.358  49.414  1.00  0.00     0.293 HD
ENDBRANCH   6  18
BRANCH  17  20
ATOM     20  O   UNL     1      22.145  17.694  51.026  1.00  0.00    -0.507 OA
ATOM     21  H   UNL     1      23.017  18.095  50.710  1.00  0.00     0.293 HD
ENDBRANCH  17  20
BRANCH  15  22
ATOM     22  O   UNL     1      24.315  15.581  54.759  1.00  0.00    -0.508 OA
ATOM     23  H   UNL     1      24.315  14.967  55.566  1.00  0.00     0.293 HD
ENDBRANCH  15  22
TORSDOF 3
ENDMDL
