MODEL 1
REMARK VINA RESULT:    -5.986      0.000      0.000
REMARK INTER + INTRA:          -6.511
REMARK INTER:                  -6.511
REMARK INTRA:                   0.000
REMARK UNBOUND:                 0.000
REMARK SMILES Cc1cc(O)c2c(c1)C(=O)c1cc(O)cc(O)c1C2=O
REMARK SMILES IDX 1 1 2 2 8 3 7 4 6 5 4 6 3 7 19 8 20 9 18 10 11 11 9 12 10 13
REMARK SMILES IDX 12 14 13 15 15 16 16 17 5 18 17 20 14 22
REMARK H PARENT 5 19 17 21 14 23
REMARK Flexibility Score: inf
ROOT
ATOM      1  C   UNL     1      -8.955  -9.157  15.273  1.00  0.00     0.044 C 
ATOM      2  C   UNL     1      -7.740  -9.101  14.394  1.00  0.00    -0.047 A 
ATOM      3  C   UNL     1      -7.836  -9.429  13.038  1.00  0.00     0.016 A 
ATOM      4  C   UNL     1      -6.710  -9.357  12.201  1.00  0.00     0.038 A 
ATOM      5  C   UNL     1      -5.463  -8.947  12.730  1.00  0.00     0.076 A 
ATOM      6  C   UNL     1      -5.399  -8.519  14.084  1.00  0.00     0.127 A 
ATOM      7  C   UNL     1      -6.527  -8.627  14.903  1.00  0.00     0.050 A 
ATOM      8  C   UNL     1      -4.260  -9.033  11.856  1.00  0.00     0.201 C 
ATOM      9  O   UNL     1      -3.109  -9.087  12.366  1.00  0.00    -0.288 OA
ATOM     10  C   UNL     1      -4.414  -9.173  10.384  1.00  0.00     0.076 A 
ATOM     11  C   UNL     1      -5.678  -9.516   9.855  1.00  0.00     0.041 A 
ATOM     12  C   UNL     1      -6.832  -9.697  10.763  1.00  0.00     0.194 C 
ATOM     13  O   UNL     1      -7.929 -10.125  10.308  1.00  0.00    -0.289 OA
ATOM     14  C   UNL     1      -5.830  -9.688   8.468  1.00  0.00     0.059 A 
ATOM     15  C   UNL     1      -4.743  -9.515   7.607  1.00  0.00     0.120 A 
ATOM     16  C   UNL     1      -3.496  -9.167   8.125  1.00  0.00     0.093 A 
ATOM     17  C   UNL     1      -3.321  -8.993   9.504  1.00  0.00     0.131 A 
ENDROOT
BRANCH   6  18
ATOM     18  O   UNL     1      -4.255  -7.949  14.647  1.00  0.00    -0.507 OA
ATOM     19  H   UNL     1      -3.424  -8.474  14.884  1.00  0.00     0.293 HD
ENDBRANCH   6  18
BRANCH  17  20
ATOM     20  O   UNL     1      -2.066  -8.632   9.994  1.00  0.00    -0.507 OA
ATOM     21  H   UNL     1      -1.251  -9.220   9.857  1.00  0.00     0.293 HD
ENDBRANCH  17  20
BRANCH  15  22
ATOM     22  O   UNL     1      -4.892  -9.684   6.232  1.00  0.00    -0.508 OA
ATOM     23  H   UNL     1      -5.807  -9.744   5.801  1.00  0.00     0.293 HD
ENDBRANCH  15  22
TORSDOF 3
ENDMDL
MODEL 2
REMARK VINA RESULT:    -5.964      1.349      5.507
REMARK INTER + INTRA:          -6.487
REMARK INTER:                  -6.487
REMARK INTRA:                   0.000
REMARK UNBOUND:                 0.000
REMARK SMILES Cc1cc(O)c2c(c1)C(=O)c1cc(O)cc(O)c1C2=O
REMARK SMILES IDX 1 1 2 2 8 3 7 4 6 5 4 6 3 7 19 8 20 9 18 10 11 11 9 12 10 13
REMARK SMILES IDX 12 14 13 15 15 16 16 17 5 18 17 20 14 22
REMARK H PARENT 5 19 17 21 14 23
REMARK Flexibility Score: inf
ROOT
ATOM      1  C   UNL     1      -5.368  -9.912   6.078  1.00  0.00     0.044 C 
ATOM      2  C   UNL     1      -5.217  -9.515   7.517  1.00  0.00    -0.047 A 
ATOM      3  C   UNL     1      -6.255  -9.745   8.424  1.00  0.00     0.016 A 
ATOM      4  C   UNL     1      -6.114  -9.399   9.779  1.00  0.00     0.038 A 
ATOM      5  C   UNL     1      -4.911  -8.812  10.235  1.00  0.00     0.076 A 
ATOM      6  C   UNL     1      -3.825  -8.675   9.327  1.00  0.00     0.127 A 
ATOM      7  C   UNL     1      -4.001  -9.002   7.979  1.00  0.00     0.050 A 
ATOM      8  C   UNL     1      -4.853  -8.314  11.638  1.00  0.00     0.201 C 
ATOM      9  O   UNL     1      -4.005  -7.441  11.965  1.00  0.00    -0.288 OA
ATOM     10  C   UNL     1      -5.867  -8.755  12.630  1.00  0.00     0.076 A 
ATOM     11  C   UNL     1      -7.037  -9.402  12.175  1.00  0.00     0.041 A 
ATOM     12  C   UNL     1      -7.221  -9.662  10.730  1.00  0.00     0.194 C 
ATOM     13  O   UNL     1      -8.317 -10.125  10.309  1.00  0.00    -0.289 OA
ATOM     14  C   UNL     1      -8.022  -9.793  13.098  1.00  0.00     0.059 A 
ATOM     15  C   UNL     1      -7.851  -9.552  14.465  1.00  0.00     0.120 A 
ATOM     16  C   UNL     1      -6.693  -8.922  14.919  1.00  0.00     0.093 A 
ATOM     17  C   UNL     1      -5.699  -8.523  14.016  1.00  0.00     0.131 A 
ENDROOT
BRANCH   6  18
ATOM     18  O   UNL     1      -2.552  -8.257   9.722  1.00  0.00    -0.507 OA
ATOM     19  H   UNL     1      -2.226  -8.279  10.678  1.00  0.00     0.293 HD
ENDBRANCH   6  18
BRANCH  17  20
ATOM     20  O   UNL     1      -4.545  -7.905  14.498  1.00  0.00    -0.507 OA
ATOM     21  H   UNL     1      -3.624  -8.298  14.339  1.00  0.00     0.293 HD
ENDBRANCH  17  20
BRANCH  15  22
ATOM     22  O   UNL     1      -8.826  -9.939  15.382  1.00  0.00    -0.508 OA
ATOM     23  H   UNL     1      -9.525  -9.288  15.720  1.00  0.00     0.293 HD
ENDBRANCH  15  22
TORSDOF 3
ENDMDL
MODEL 3
REMARK VINA RESULT:    -5.610     17.175     18.345
REMARK INTER + INTRA:          -6.102
REMARK INTER:                  -6.102
REMARK INTRA:                   0.000
REMARK UNBOUND:                 0.000
REMARK SMILES Cc1cc(O)c2c(c1)C(=O)c1cc(O)cc(O)c1C2=O
REMARK SMILES IDX 1 1 2 2 8 3 7 4 6 5 4 6 3 7 19 8 20 9 18 10 11 11 9 12 10 13
REMARK SMILES IDX 12 14 13 15 15 16 16 17 5 18 17 20 14 22
REMARK H PARENT 5 19 17 21 14 23
REMARK Flexibility Score: inf
ROOT
ATOM      1  C   UNL     1      -5.688   9.104   8.507  1.00  0.00     0.044 C 
ATOM      2  C   UNL     1      -4.292   8.554   8.511  1.00  0.00    -0.047 A 
ATOM      3  C   UNL     1      -3.348   9.036   9.422  1.00  0.00     0.016 A 
ATOM      4  C   UNL     1      -2.045   8.510   9.451  1.00  0.00     0.038 A 
ATOM      5  C   UNL     1      -1.679   7.482   8.551  1.00  0.00     0.076 A 
ATOM      6  C   UNL     1      -2.674   6.929   7.699  1.00  0.00     0.127 A 
ATOM      7  C   UNL     1      -3.955   7.488   7.670  1.00  0.00     0.050 A 
ATOM      8  C   UNL     1      -0.252   7.058   8.501  1.00  0.00     0.201 C 
ATOM      9  O   UNL     1       0.200   6.479   7.477  1.00  0.00    -0.288 OA
ATOM     10  C   UNL     1       0.674   7.420   9.605  1.00  0.00     0.076 A 
ATOM     11  C   UNL     1       0.277   8.400  10.541  1.00  0.00     0.041 A 
ATOM     12  C   UNL     1      -1.060   9.025  10.433  1.00  0.00     0.194 C 
ATOM     13  O   UNL     1      -1.367   9.987  11.189  1.00  0.00    -0.289 OA
ATOM     14  C   UNL     1       1.157   8.778  11.570  1.00  0.00     0.059 A 
ATOM     15  C   UNL     1       2.420   8.188  11.679  1.00  0.00     0.120 A 
ATOM     16  C   UNL     1       2.811   7.214  10.762  1.00  0.00     0.093 A 
ATOM     17  C   UNL     1       1.951   6.823   9.727  1.00  0.00     0.131 A 
ENDROOT
BRANCH   6  18
ATOM     18  O   UNL     1      -2.449   5.809   6.895  1.00  0.00    -0.507 OA
ATOM     19  H   UNL     1      -1.537   5.531   6.561  1.00  0.00     0.293 HD
ENDBRANCH   6  18
BRANCH  17  20
ATOM     20  O   UNL     1       2.363   5.836   8.831  1.00  0.00    -0.507 OA
ATOM     21  H   UNL     1       2.589   6.053   7.867  1.00  0.00     0.293 HD
ENDBRANCH  17  20
BRANCH  15  22
ATOM     22  O   UNL     1       3.293   8.562  12.698  1.00  0.00    -0.508 OA
ATOM     23  H   UNL     1       4.284   8.357  12.650  1.00  0.00     0.293 HD
ENDBRANCH  15  22
TORSDOF 3
ENDMDL
MODEL 4
REMARK VINA RESULT:    -5.329      9.423     12.174
REMARK INTER + INTRA:          -5.796
REMARK INTER:                  -5.796
REMARK INTRA:                   0.000
REMARK UNBOUND:                 0.000
REMARK SMILES Cc1cc(O)c2c(c1)C(=O)c1cc(O)cc(O)c1C2=O
REMARK SMILES IDX 1 1 2 2 8 3 7 4 6 5 4 6 3 7 19 8 20 9 18 10 11 11 9 12 10 13
REMARK SMILES IDX 12 14 13 15 15 16 16 17 5 18 17 20 14 22
REMARK H PARENT 5 19 17 21 14 23
REMARK Flexibility Score: inf
ROOT
ATOM      1  C   UNL     1      -4.771  -9.933  22.005  1.00  0.00     0.044 C 
ATOM      2  C   UNL     1      -5.646  -8.774  21.627  1.00  0.00    -0.047 A 
ATOM      3  C   UNL     1      -5.526  -7.553  22.297  1.00  0.00     0.016 A 
ATOM      4  C   UNL     1      -6.323  -6.454  21.934  1.00  0.00     0.038 A 
ATOM      5  C   UNL     1      -7.259  -6.579  20.881  1.00  0.00     0.076 A 
ATOM      6  C   UNL     1      -7.302  -7.792  20.140  1.00  0.00     0.127 A 
ATOM      7  C   UNL     1      -6.518  -8.878  20.538  1.00  0.00     0.050 A 
ATOM      8  C   UNL     1      -8.195  -5.449  20.627  1.00  0.00     0.201 C 
ATOM      9  O   UNL     1      -9.279  -5.650  20.016  1.00  0.00    -0.288 OA
ATOM     10  C   UNL     1      -7.913  -4.104  21.193  1.00  0.00     0.076 A 
ATOM     11  C   UNL     1      -6.930  -3.973  22.198  1.00  0.00     0.041 A 
ATOM     12  C   UNL     1      -6.174  -5.163  22.648  1.00  0.00     0.194 C 
ATOM     13  O   UNL     1      -5.387  -5.072  23.630  1.00  0.00    -0.289 OA
ATOM     14  C   UNL     1      -6.679  -2.713  22.769  1.00  0.00     0.059 A 
ATOM     15  C   UNL     1      -7.389  -1.586  22.344  1.00  0.00     0.120 A 
ATOM     16  C   UNL     1      -8.354  -1.710  21.346  1.00  0.00     0.093 A 
ATOM     17  C   UNL     1      -8.622  -2.956  20.765  1.00  0.00     0.131 A 
ENDROOT
BRANCH   6  18
ATOM     18  O   UNL     1      -8.074  -7.951  18.987  1.00  0.00    -0.507 OA
ATOM     19  H   UNL     1      -8.466  -7.181  18.463  1.00  0.00     0.293 HD
ENDBRANCH   6  18
BRANCH  17  20
ATOM     20  O   UNL     1      -9.584  -3.049  19.758  1.00  0.00    -0.507 OA
ATOM     21  H   UNL     1     -10.444  -3.569  19.889  1.00  0.00     0.293 HD
ENDBRANCH  17  20
BRANCH  15  22
ATOM     22  O   UNL     1      -7.141  -0.337  22.908  1.00  0.00    -0.508 OA
ATOM     23  H   UNL     1      -6.735   0.418  22.368  1.00  0.00     0.293 HD
ENDBRANCH  15  22
TORSDOF 3
ENDMDL
MODEL 5
REMARK VINA RESULT:    -5.314      2.523      4.545
REMARK INTER + INTRA:          -5.780
REMARK INTER:                  -5.780
REMARK INTRA:                   0.000
REMARK UNBOUND:                 0.000
REMARK SMILES Cc1cc(O)c2c(c1)C(=O)c1cc(O)cc(O)c1C2=O
REMARK SMILES IDX 1 1 2 2 8 3 7 4 6 5 4 6 3 7 19 8 20 9 18 10 11 11 9 12 10 13
REMARK SMILES IDX 12 14 13 15 15 16 16 17 5 18 17 20 14 22
REMARK H PARENT 5 19 17 21 14 23
REMARK Flexibility Score: inf
ROOT
ATOM      1  C   UNL     1       0.973  -9.897  14.097  1.00  0.00     0.044 C 
ATOM      2  C   UNL     1      -0.369  -9.763  13.440  1.00  0.00    -0.047 A 
ATOM      3  C   UNL     1      -0.473  -9.753  12.046  1.00  0.00     0.016 A 
ATOM      4  C   UNL     1      -1.728  -9.653  11.421  1.00  0.00     0.038 A 
ATOM      5  C   UNL     1      -2.901  -9.561  12.205  1.00  0.00     0.076 A 
ATOM      6  C   UNL     1      -2.794  -9.674  13.618  1.00  0.00     0.127 A 
ATOM      7  C   UNL     1      -1.532  -9.746  14.216  1.00  0.00     0.050 A 
ATOM      8  C   UNL     1      -4.195  -9.297  11.516  1.00  0.00     0.201 C 
ATOM      9  O   UNL     1      -5.164  -8.805  12.154  1.00  0.00    -0.288 OA
ATOM     10  C   UNL     1      -4.316  -9.503  10.049  1.00  0.00     0.076 A 
ATOM     11  C   UNL     1      -3.144  -9.662   9.279  1.00  0.00     0.041 A 
ATOM     12  C   UNL     1      -1.820  -9.656   9.940  1.00  0.00     0.194 C 
ATOM     13  O   UNL     1      -0.769  -9.671   9.243  1.00  0.00    -0.289 OA
ATOM     14  C   UNL     1      -3.241  -9.821   7.885  1.00  0.00     0.059 A 
ATOM     15  C   UNL     1      -4.489  -9.830   7.256  1.00  0.00     0.120 A 
ATOM     16  C   UNL     1      -5.650  -9.683   8.015  1.00  0.00     0.093 A 
ATOM     17  C   UNL     1      -5.576  -9.522   9.405  1.00  0.00     0.131 A 
ENDROOT
BRANCH   6  18
ATOM     18  O   UNL     1      -3.905  -9.756  14.461  1.00  0.00    -0.507 OA
ATOM     19  H   UNL     1      -4.814 -10.081  14.161  1.00  0.00     0.293 HD
ENDBRANCH   6  18
BRANCH  17  20
ATOM     20  O   UNL     1      -6.754  -9.389  10.141  1.00  0.00    -0.507 OA
ATOM     21  H   UNL     1      -6.743  -9.137  11.123  1.00  0.00     0.293 HD
ENDBRANCH  17  20
BRANCH  15  22
ATOM     22  O   UNL     1      -4.588  -9.989   5.875  1.00  0.00    -0.508 OA
ATOM     23  H   UNL     1      -5.369  -9.612   5.352  1.00  0.00     0.293 HD
ENDBRANCH  15  22
TORSDOF 3
ENDMDL
MODEL 6
REMARK VINA RESULT:    -5.258     16.719     17.822
REMARK INTER + INTRA:          -5.719
REMARK INTER:                  -5.719
REMARK INTRA:                   0.000
REMARK UNBOUND:                 0.000
REMARK SMILES Cc1cc(O)c2c(c1)C(=O)c1cc(O)cc(O)c1C2=O
REMARK SMILES IDX 1 1 2 2 8 3 7 4 6 5 4 6 3 7 19 8 20 9 18 10 11 11 9 12 10 13
REMARK SMILES IDX 12 14 13 15 15 16 16 17 5 18 17 20 14 22
REMARK H PARENT 5 19 17 21 14 23
REMARK Flexibility Score: inf
ROOT
ATOM      1  C   UNL     1      -0.556   9.748  11.084  1.00  0.00     0.044 C 
ATOM      2  C   UNL     1       0.216   8.680  10.367  1.00  0.00    -0.047 A 
ATOM      3  C   UNL     1       1.364   8.132  10.948  1.00  0.00     0.016 A 
ATOM      4  C   UNL     1       2.081   7.113  10.297  1.00  0.00     0.038 A 
ATOM      5  C   UNL     1       1.642   6.634   9.041  1.00  0.00     0.076 A 
ATOM      6  C   UNL     1       0.420   7.126   8.507  1.00  0.00     0.127 A 
ATOM      7  C   UNL     1      -0.260   8.158   9.161  1.00  0.00     0.050 A 
ATOM      8  C   UNL     1       2.509   5.670   8.308  1.00  0.00     0.201 C 
ATOM      9  O   UNL     1       2.393   5.537   7.060  1.00  0.00    -0.288 OA
ATOM     10  C   UNL     1       3.593   4.947   9.022  1.00  0.00     0.076 A 
ATOM     11  C   UNL     1       3.983   5.389  10.306  1.00  0.00     0.041 A 
ATOM     12  C   UNL     1       3.289   6.535  10.933  1.00  0.00     0.194 C 
ATOM     13  O   UNL     1       3.717   7.009  12.022  1.00  0.00    -0.289 OA
ATOM     14  C   UNL     1       5.032   4.738  10.978  1.00  0.00     0.059 A 
ATOM     15  C   UNL     1       5.689   3.653  10.390  1.00  0.00     0.120 A 
ATOM     16  C   UNL     1       5.300   3.209   9.127  1.00  0.00     0.093 A 
ATOM     17  C   UNL     1       4.259   3.843   8.438  1.00  0.00     0.131 A 
ENDROOT
BRANCH   6  18
ATOM     18  O   UNL     1      -0.174   6.599   7.357  1.00  0.00    -0.507 OA
ATOM     19  H   UNL     1      -1.144   6.742   7.111  1.00  0.00     0.293 HD
ENDBRANCH   6  18
BRANCH  17  20
ATOM     20  O   UNL     1       3.882   3.371   7.180  1.00  0.00    -0.507 OA
ATOM     21  H   UNL     1       3.153   3.820   6.638  1.00  0.00     0.293 HD
ENDBRANCH  17  20
BRANCH  15  22
ATOM     22  O   UNL     1       6.728   3.006  11.055  1.00  0.00    -0.508 OA
ATOM     23  H   UNL     1       7.683   3.338  10.998  1.00  0.00     0.293 HD
ENDBRANCH  15  22
TORSDOF 3
ENDMDL
MODEL 7
REMARK VINA RESULT:    -5.192     17.088     18.000
REMARK INTER + INTRA:          -5.647
REMARK INTER:                  -5.647
REMARK INTRA:                   0.000
REMARK UNBOUND:                 0.000
REMARK SMILES Cc1cc(O)c2c(c1)C(=O)c1cc(O)cc(O)c1C2=O
REMARK SMILES IDX 1 1 2 2 8 3 7 4 6 5 4 6 3 7 19 8 20 9 18 10 11 11 9 12 10 13
REMARK SMILES IDX 12 14 13 15 15 16 16 17 5 18 17 20 14 22
REMARK H PARENT 5 19 17 21 14 23
REMARK Flexibility Score: inf
ROOT
ATOM      1  C   UNL     1      -3.142   9.523  10.446  1.00  0.00     0.044 C 
ATOM      2  C   UNL     1      -2.030   8.687   9.885  1.00  0.00    -0.047 A 
ATOM      3  C   UNL     1      -0.802   8.610  10.551  1.00  0.00     0.016 A 
ATOM      4  C   UNL     1       0.238   7.810  10.047  1.00  0.00     0.038 A 
ATOM      5  C   UNL     1       0.047   7.073   8.855  1.00  0.00     0.076 A 
ATOM      6  C   UNL     1      -1.236   7.078   8.242  1.00  0.00     0.127 A 
ATOM      7  C   UNL     1      -2.246   7.903   8.747  1.00  0.00     0.050 A 
ATOM      8  C   UNL     1       1.216   6.364   8.265  1.00  0.00     0.201 C 
ATOM      9  O   UNL     1       1.220   6.057   7.043  1.00  0.00    -0.288 OA
ATOM     10  C   UNL     1       2.432   6.118   9.084  1.00  0.00     0.076 A 
ATOM     11  C   UNL     1       2.587   6.807  10.307  1.00  0.00     0.041 A 
ATOM     12  C   UNL     1       1.529   7.731  10.772  1.00  0.00     0.194 C 
ATOM     13  O   UNL     1       1.720   8.440  11.798  1.00  0.00    -0.289 OA
ATOM     14  C   UNL     1       3.749   6.612  11.074  1.00  0.00     0.059 A 
ATOM     15  C   UNL     1       4.749   5.737  10.640  1.00  0.00     0.120 A 
ATOM     16  C   UNL     1       4.595   5.049   9.438  1.00  0.00     0.093 A 
ATOM     17  C   UNL     1       3.446   5.229   8.656  1.00  0.00     0.131 A 
ENDROOT
BRANCH   6  18
ATOM     18  O   UNL     1      -1.565   6.259   7.159  1.00  0.00    -0.507 OA
ATOM     19  H   UNL     1      -0.988   6.158   6.336  1.00  0.00     0.293 HD
ENDBRANCH   6  18
BRANCH  17  20
ATOM     20  O   UNL     1       3.313   4.518   7.463  1.00  0.00    -0.507 OA
ATOM     21  H   UNL     1       3.734   3.605   7.336  1.00  0.00     0.293 HD
ENDBRANCH  17  20
BRANCH  15  22
ATOM     22  O   UNL     1       5.901   5.543  11.400  1.00  0.00    -0.508 OA
ATOM     23  H   UNL     1       6.095   4.656  11.851  1.00  0.00     0.293 HD
ENDBRANCH  15  22
TORSDOF 3
ENDMDL
MODEL 8
REMARK VINA RESULT:    -5.184     17.186     18.349
REMARK INTER + INTRA:          -5.638
REMARK INTER:                  -5.638
REMARK INTRA:                   0.000
REMARK UNBOUND:                 0.000
REMARK SMILES Cc1cc(O)c2c(c1)C(=O)c1cc(O)cc(O)c1C2=O
REMARK SMILES IDX 1 1 2 2 8 3 7 4 6 5 4 6 3 7 19 8 20 9 18 10 11 11 9 12 10 13
REMARK SMILES IDX 12 14 13 15 15 16 16 17 5 18 17 20 14 22
REMARK H PARENT 5 19 17 21 14 23
REMARK Flexibility Score: inf
ROOT
ATOM      1  C   UNL     1       5.391   6.293  11.947  1.00  0.00     0.044 C 
ATOM      2  C   UNL     1       4.024   6.877  11.740  1.00  0.00    -0.047 A 
ATOM      3  C   UNL     1       3.286   6.553  10.598  1.00  0.00     0.016 A 
ATOM      4  C   UNL     1       1.995   7.076  10.406  1.00  0.00     0.038 A 
ATOM      5  C   UNL     1       1.432   7.938  11.376  1.00  0.00     0.076 A 
ATOM      6  C   UNL     1       2.149   8.179  12.580  1.00  0.00     0.127 A 
ATOM      7  C   UNL     1       3.442   7.670  12.734  1.00  0.00     0.050 A 
ATOM      8  C   UNL     1       0.132   8.597  11.069  1.00  0.00     0.201 C 
ATOM      9  O   UNL     1      -0.201   9.652  11.673  1.00  0.00    -0.288 OA
ATOM     10  C   UNL     1      -0.725   8.083   9.970  1.00  0.00     0.076 A 
ATOM     11  C   UNL     1      -0.178   7.170   9.042  1.00  0.00     0.041 A 
ATOM     12  C   UNL     1       1.221   6.713   9.195  1.00  0.00     0.194 C 
ATOM     13  O   UNL     1       1.750   5.997   8.300  1.00  0.00    -0.289 OA
ATOM     14  C   UNL     1      -0.966   6.703   7.975  1.00  0.00     0.059 A 
ATOM     15  C   UNL     1      -2.289   7.130   7.829  1.00  0.00     0.120 A 
ATOM     16  C   UNL     1      -2.835   8.025   8.748  1.00  0.00     0.093 A 
ATOM     17  C   UNL     1      -2.068   8.504   9.817  1.00  0.00     0.131 A 
ENDROOT
BRANCH   6  18
ATOM     18  O   UNL     1       1.608   8.883  13.659  1.00  0.00    -0.507 OA
ATOM     19  H   UNL     1       1.909   9.807  13.934  1.00  0.00     0.293 HD
ENDBRANCH   6  18
BRANCH  17  20
ATOM     20  O   UNL     1      -2.643   9.389  10.730  1.00  0.00    -0.507 OA
ATOM     21  H   UNL     1      -2.207   9.594  11.622  1.00  0.00     0.293 HD
ENDBRANCH  17  20
BRANCH  15  22
ATOM     22  O   UNL     1      -3.072   6.668   6.773  1.00  0.00    -0.508 OA
ATOM     23  H   UNL     1      -3.548   5.775   6.816  1.00  0.00     0.293 HD
ENDBRANCH  15  22
TORSDOF 3
ENDMDL
MODEL 9
REMARK VINA RESULT:    -5.149     10.753     12.881
REMARK INTER + INTRA:          -5.600
REMARK INTER:                  -5.600
REMARK INTRA:                   0.000
REMARK UNBOUND:                 0.000
REMARK SMILES Cc1cc(O)c2c(c1)C(=O)c1cc(O)cc(O)c1C2=O
REMARK SMILES IDX 1 1 2 2 8 3 7 4 6 5 4 6 3 7 19 8 20 9 18 10 11 11 9 12 10 13
REMARK SMILES IDX 12 14 13 15 15 16 16 17 5 18 17 20 14 22
REMARK H PARENT 5 19 17 21 14 23
REMARK Flexibility Score: inf
ROOT
ATOM      1  C   UNL     1      -8.711  -0.304  20.926  1.00  0.00     0.044 C 
ATOM      2  C   UNL     1      -8.056  -1.389  21.730  1.00  0.00    -0.047 A 
ATOM      3  C   UNL     1      -7.978  -2.690  21.225  1.00  0.00     0.016 A 
ATOM      4  C   UNL     1      -7.345  -3.708  21.959  1.00  0.00     0.038 A 
ATOM      5  C   UNL     1      -6.778  -3.418  23.222  1.00  0.00     0.076 A 
ATOM      6  C   UNL     1      -6.772  -2.072  23.680  1.00  0.00     0.127 A 
ATOM      7  C   UNL     1      -7.433  -1.084  22.944  1.00  0.00     0.050 A 
ATOM      8  C   UNL     1      -6.256  -4.548  24.041  1.00  0.00     0.201 C 
ATOM      9  O   UNL     1      -6.133  -4.421  25.288  1.00  0.00    -0.288 OA
ATOM     10  C   UNL     1      -5.989  -5.866  23.410  1.00  0.00     0.076 A 
ATOM     11  C   UNL     1      -6.500  -6.127  22.120  1.00  0.00     0.041 A 
ATOM     12  C   UNL     1      -7.261  -5.080  21.403  1.00  0.00     0.194 C 
ATOM     13  O   UNL     1      -7.825  -5.352  20.307  1.00  0.00    -0.289 OA
ATOM     14  C   UNL     1      -6.287  -7.383  21.525  1.00  0.00     0.059 A 
ATOM     15  C   UNL     1      -5.566  -8.374  22.198  1.00  0.00     0.120 A 
ATOM     16  C   UNL     1      -5.051  -8.117  23.468  1.00  0.00     0.093 A 
ATOM     17  C   UNL     1      -5.254  -6.873  24.080  1.00  0.00     0.131 A 
ENDROOT
BRANCH   6  18
ATOM     18  O   UNL     1      -6.097  -1.665  24.833  1.00  0.00    -0.507 OA
ATOM     19  H   UNL     1      -5.092  -1.576  24.894  1.00  0.00     0.293 HD
ENDBRANCH   6  18
BRANCH  17  20
ATOM     20  O   UNL     1      -4.717  -6.639  25.346  1.00  0.00    -0.507 OA
ATOM     21  H   UNL     1      -3.720  -6.691  25.521  1.00  0.00     0.293 HD
ENDBRANCH  17  20
BRANCH  15  22
ATOM     22  O   UNL     1      -5.352  -9.619  21.610  1.00  0.00    -0.508 OA
ATOM     23  H   UNL     1      -5.556 -10.481  22.103  1.00  0.00     0.293 HD
ENDBRANCH  15  22
TORSDOF 3
ENDMDL
