MODEL 1
REMARK VINA RESULT:    -3.732      0.000      0.000
REMARK INTER + INTRA:          -5.324
REMARK INTER:                  -5.041
REMARK INTRA:                  -0.284
REMARK UNBOUND:                -0.284
REMARK SMILES CCCCCCCC(=O)[O-]
REMARK SMILES IDX 5 1 6 2 7 3 8 4 9 5 10 6 4 7 3 8 2 9 1 10
REMARK H PARENT
REMARK Flexibility Score: inf
ROOT
ATOM      1  C   UNL     1      37.741  -7.638  10.598  1.00  0.00     0.000 C 
ENDROOT
BRANCH   1   2
ATOM      2  C   UNL     1      36.670  -7.708  11.698  1.00  0.00     0.006 C 
BRANCH   2   3
ATOM      3  C   UNL     1      37.062  -6.921  12.955  1.00  0.00     0.053 C 
BRANCH   3   4
ATOM      4  C   UNL     1      35.922  -6.883  13.923  1.00  0.00     0.041 C 
ATOM      5  O   UNL     1      36.106  -6.483  15.103  1.00  0.00    -0.550 OA
ATOM      6  O   UNL     1      34.645  -7.243  13.509  1.00  0.00    -0.550 OA
ENDBRANCH   3   4
ENDBRANCH   2   3
ENDBRANCH   1   2
BRANCH   1   7
ATOM      7  C   UNL     1      39.171  -7.679  11.161  1.00  0.00     0.000 C 
BRANCH   7   8
ATOM      8  C   UNL     1      40.158  -7.008  10.198  1.00  0.00    -0.000 C 
BRANCH   8   9
ATOM      9  C   UNL     1      39.418  -6.303   9.056  1.00  0.00    -0.003 C 
ATOM     10  C   UNL     1      39.866  -6.835   7.698  1.00  0.00     0.004 C 
ENDBRANCH   8   9
ENDBRANCH   7   8
ENDBRANCH   1   7
TORSDOF 6
ENDMDL
MODEL 2
REMARK VINA RESULT:    -3.714      3.690      5.651
REMARK INTER + INTRA:          -5.301
REMARK INTER:                  -4.991
REMARK INTRA:                  -0.310
REMARK UNBOUND:                -0.284
REMARK SMILES CCCCCCCC(=O)[O-]
REMARK SMILES IDX 5 1 6 2 7 3 8 4 9 5 10 6 4 7 3 8 2 9 1 10
REMARK H PARENT
REMARK Flexibility Score: inf
ROOT
ATOM      1  C   UNL     1      38.674  -7.510  11.506  1.00  0.00     0.000 C 
ENDROOT
BRANCH   1   2
ATOM      2  C   UNL     1      38.313  -7.745  10.031  1.00  0.00     0.006 C 
BRANCH   2   3
ATOM      3  C   UNL     1      38.628  -6.534   9.145  1.00  0.00     0.053 C 
BRANCH   3   4
ATOM      4  C   UNL     1      39.851  -6.793   8.323  1.00  0.00     0.041 C 
ATOM      5  O   UNL     1      39.837  -6.580   7.082  1.00  0.00    -0.550 OA
ATOM      6  O   UNL     1      41.022  -7.223   8.934  1.00  0.00    -0.550 OA
ENDBRANCH   3   4
ENDBRANCH   2   3
ENDBRANCH   1   2
BRANCH   1   7
ATOM      7  C   UNL     1      37.546  -7.920  12.465  1.00  0.00     0.000 C 
BRANCH   7   8
ATOM      8  C   UNL     1      36.172  -7.605  11.860  1.00  0.00    -0.000 C 
BRANCH   8   9
ATOM      9  C   UNL     1      35.309  -6.804  12.842  1.00  0.00    -0.003 C 
ATOM     10  C   UNL     1      36.157  -6.220  13.969  1.00  0.00     0.004 C 
ENDBRANCH   8   9
ENDBRANCH   7   8
ENDBRANCH   1   7
TORSDOF 6
ENDMDL
MODEL 3
REMARK VINA RESULT:    -3.703      0.486      1.109
REMARK INTER + INTRA:          -5.285
REMARK INTER:                  -4.993
REMARK INTRA:                  -0.292
REMARK UNBOUND:                -0.284
REMARK SMILES CCCCCCCC(=O)[O-]
REMARK SMILES IDX 5 1 6 2 7 3 8 4 9 5 10 6 4 7 3 8 2 9 1 10
REMARK H PARENT
REMARK Flexibility Score: inf
ROOT
ATOM      1  C   UNL     1      37.859  -7.520  10.399  1.00  0.00     0.000 C 
ENDROOT
BRANCH   1   2
ATOM      2  C   UNL     1      36.818  -7.899  11.464  1.00  0.00     0.006 C 
BRANCH   2   3
ATOM      3  C   UNL     1      37.222  -7.445  12.873  1.00  0.00     0.053 C 
BRANCH   3   4
ATOM      4  C   UNL     1      36.096  -6.707  13.526  1.00  0.00     0.041 C 
ATOM      5  O   UNL     1      35.033  -6.482  12.891  1.00  0.00    -0.550 OA
ATOM      6  O   UNL     1      36.203  -6.310  14.854  1.00  0.00    -0.550 OA
ENDBRANCH   3   4
ENDBRANCH   2   3
ENDBRANCH   1   2
BRANCH   1   7
ATOM      7  C   UNL     1      39.277  -7.395  10.977  1.00  0.00     0.000 C 
BRANCH   7   8
ATOM      8  C   UNL     1      40.267  -6.926   9.903  1.00  0.00    -0.000 C 
BRANCH   8   9
ATOM      9  C   UNL     1      39.535  -6.251   8.738  1.00  0.00    -0.003 C 
ATOM     10  C   UNL     1      39.969  -6.840   7.399  1.00  0.00     0.004 C 
ENDBRANCH   8   9
ENDBRANCH   7   8
ENDBRANCH   1   7
TORSDOF 6
ENDMDL
MODEL 4
REMARK VINA RESULT:    -3.538      3.035      5.462
REMARK INTER + INTRA:          -5.062
REMARK INTER:                  -4.659
REMARK INTRA:                  -0.403
REMARK UNBOUND:                -0.284
REMARK SMILES CCCCCCCC(=O)[O-]
REMARK SMILES IDX 5 1 6 2 7 3 8 4 9 5 10 6 4 7 3 8 2 9 1 10
REMARK H PARENT
REMARK Flexibility Score: inf
ROOT
ATOM      1  C   UNL     1      37.589  -6.985  12.854  1.00  0.00     0.000 C 
ENDROOT
BRANCH   1   2
ATOM      2  C   UNL     1      37.176  -7.767  11.597  1.00  0.00     0.006 C 
BRANCH   2   3
ATOM      3  C   UNL     1      37.981  -7.359  10.356  1.00  0.00     0.053 C 
BRANCH   3   4
ATOM      4  C   UNL     1      39.400  -7.815  10.482  1.00  0.00     0.041 C 
ATOM      5  O   UNL     1      39.662  -9.037  10.638  1.00  0.00    -0.550 OA
ATOM      6  O   UNL     1      40.438  -6.897  10.375  1.00  0.00    -0.550 OA
ENDBRANCH   3   4
ENDBRANCH   2   3
ENDBRANCH   1   2
BRANCH   1   7
ATOM      7  C   UNL     1      36.385  -6.400  13.608  1.00  0.00     0.000 C 
BRANCH   7   8
ATOM      8  C   UNL     1      35.070  -6.991  13.085  1.00  0.00    -0.000 C 
BRANCH   8   9
ATOM      9  C   UNL     1      34.351  -7.787  14.180  1.00  0.00    -0.003 C 
ATOM     10  C   UNL     1      34.674  -9.275  14.080  1.00  0.00     0.004 C 
ENDBRANCH   8   9
ENDBRANCH   7   8
ENDBRANCH   1   7
TORSDOF 6
ENDMDL
MODEL 5
REMARK VINA RESULT:    -3.418      1.503      2.171
REMARK INTER + INTRA:          -4.901
REMARK INTER:                  -4.686
REMARK INTRA:                  -0.215
REMARK UNBOUND:                -0.284
REMARK SMILES CCCCCCCC(=O)[O-]
REMARK SMILES IDX 5 1 6 2 7 3 8 4 9 5 10 6 4 7 3 8 2 9 1 10
REMARK H PARENT
REMARK Flexibility Score: inf
ROOT
ATOM      1  C   UNL     1      37.393  -6.848  13.029  1.00  0.00     0.000 C 
ENDROOT
BRANCH   1   2
ATOM      2  C   UNL     1      35.969  -6.432  13.430  1.00  0.00     0.006 C 
BRANCH   2   3
ATOM      3  C   UNL     1      35.502  -7.101  14.730  1.00  0.00     0.053 C 
BRANCH   3   4
ATOM      4  C   UNL     1      34.438  -8.113  14.443  1.00  0.00     0.041 C 
ATOM      5  O   UNL     1      33.268  -7.943  14.876  1.00  0.00    -0.550 OA
ATOM      6  O   UNL     1      34.726  -9.221  13.654  1.00  0.00    -0.550 OA
ENDBRANCH   3   4
ENDBRANCH   2   3
ENDBRANCH   1   2
BRANCH   1   7
ATOM      7  C   UNL     1      37.423  -7.692  11.745  1.00  0.00     0.000 C 
BRANCH   7   8
ATOM      8  C   UNL     1      38.722  -7.458  10.966  1.00  0.00    -0.000 C 
BRANCH   8   9
ATOM      9  C   UNL     1      38.520  -7.721   9.469  1.00  0.00    -0.003 C 
ATOM     10  C   UNL     1      38.728  -6.448   8.654  1.00  0.00     0.004 C 
ENDBRANCH   8   9
ENDBRANCH   7   8
ENDBRANCH   1   7
TORSDOF 6
ENDMDL
MODEL 6
REMARK VINA RESULT:    -3.361      2.463      4.112
REMARK INTER + INTRA:          -4.823
REMARK INTER:                  -4.605
REMARK INTRA:                  -0.218
REMARK UNBOUND:                -0.284
REMARK SMILES CCCCCCCC(=O)[O-]
REMARK SMILES IDX 5 1 6 2 7 3 8 4 9 5 10 6 4 7 3 8 2 9 1 10
REMARK H PARENT
REMARK Flexibility Score: inf
ROOT
ATOM      1  C   UNL     1      35.798  -7.148  14.312  1.00  0.00     0.000 C 
ENDROOT
BRANCH   1   2
ATOM      2  C   UNL     1      34.606  -7.535  15.202  1.00  0.00     0.006 C 
BRANCH   2   3
ATOM      3  C   UNL     1      33.682  -8.564  14.537  1.00  0.00     0.053 C 
BRANCH   3   4
ATOM      4  C   UNL     1      32.272  -8.376  15.000  1.00  0.00     0.041 C 
ATOM      5  O   UNL     1      31.360  -9.136  14.580  1.00  0.00    -0.550 OA
ATOM      6  O   UNL     1      31.973  -7.392  15.935  1.00  0.00    -0.550 OA
ENDBRANCH   3   4
ENDBRANCH   2   3
ENDBRANCH   1   2
BRANCH   1   7
ATOM      7  C   UNL     1      35.404  -6.980  12.836  1.00  0.00     0.000 C 
BRANCH   7   8
ATOM      8  C   UNL     1      36.234  -7.908  11.939  1.00  0.00    -0.000 C 
BRANCH   8   9
ATOM      9  C   UNL     1      37.658  -7.369  11.761  1.00  0.00    -0.003 C 
ATOM     10  C   UNL     1      38.036  -7.291  10.285  1.00  0.00     0.004 C 
ENDBRANCH   8   9
ENDBRANCH   7   8
ENDBRANCH   1   7
TORSDOF 6
ENDMDL
MODEL 7
REMARK VINA RESULT:    -3.326      5.058      6.818
REMARK INTER + INTRA:          -4.776
REMARK INTER:                  -4.507
REMARK INTRA:                  -0.269
REMARK UNBOUND:                -0.284
REMARK SMILES CCCCCCCC(=O)[O-]
REMARK SMILES IDX 5 1 6 2 7 3 8 4 9 5 10 6 4 7 3 8 2 9 1 10
REMARK H PARENT
REMARK Flexibility Score: inf
ROOT
ATOM      1  C   UNL     1      39.565  -6.750   8.049  1.00  0.00     0.000 C 
ENDROOT
BRANCH   1   2
ATOM      2  C   UNL     1      40.588  -7.895   7.985  1.00  0.00     0.006 C 
BRANCH   2   3
ATOM      3  C   UNL     1      41.535  -7.775   6.785  1.00  0.00     0.053 C 
BRANCH   3   4
ATOM      4  C   UNL     1      42.947  -8.034   7.206  1.00  0.00     0.041 C 
ATOM      5  O   UNL     1      43.860  -7.222   6.899  1.00  0.00    -0.550 OA
ATOM      6  O   UNL     1      43.249  -9.148   7.980  1.00  0.00    -0.550 OA
ENDBRANCH   3   4
ENDBRANCH   2   3
ENDBRANCH   1   2
BRANCH   1   7
ATOM      7  C   UNL     1      38.935  -6.597   9.442  1.00  0.00     0.000 C 
BRANCH   7   8
ATOM      8  C   UNL     1      39.891  -7.096  10.533  1.00  0.00    -0.000 C 
BRANCH   8   9
ATOM      9  C   UNL     1      39.118  -7.760  11.679  1.00  0.00    -0.003 C 
ATOM     10  C   UNL     1      37.646  -7.358  11.655  1.00  0.00     0.004 C 
ENDBRANCH   8   9
ENDBRANCH   7   8
ENDBRANCH   1   7
TORSDOF 6
ENDMDL
MODEL 8
REMARK VINA RESULT:    -3.313      4.769      6.299
REMARK INTER + INTRA:          -4.758
REMARK INTER:                  -4.527
REMARK INTRA:                  -0.231
REMARK UNBOUND:                -0.284
REMARK SMILES CCCCCCCC(=O)[O-]
REMARK SMILES IDX 5 1 6 2 7 3 8 4 9 5 10 6 4 7 3 8 2 9 1 10
REMARK H PARENT
REMARK Flexibility Score: inf
ROOT
ATOM      1  C   UNL     1      42.136  -8.837   6.786  1.00  0.00     0.000 C 
ENDROOT
BRANCH   1   2
ATOM      2  C   UNL     1      41.431  -8.269   8.028  1.00  0.00     0.006 C 
BRANCH   2   3
ATOM      3  C   UNL     1      40.367  -7.222   7.676  1.00  0.00     0.053 C 
BRANCH   3   4
ATOM      4  C   UNL     1      39.709  -6.710   8.918  1.00  0.00     0.041 C 
ATOM      5  O   UNL     1      40.360  -6.626   9.993  1.00  0.00    -0.550 OA
ATOM      6  O   UNL     1      38.388  -6.278   8.878  1.00  0.00    -0.550 OA
ENDBRANCH   3   4
ENDBRANCH   2   3
ENDBRANCH   1   2
BRANCH   1   7
ATOM      7  C   UNL     1      43.624  -8.456   6.724  1.00  0.00     0.000 C 
BRANCH   7   8
ATOM      8  C   UNL     1      44.382  -9.015   7.935  1.00  0.00    -0.000 C 
BRANCH   8   9
ATOM      9  C   UNL     1      44.661 -10.513   7.766  1.00  0.00    -0.003 C 
ATOM     10  C   UNL     1      45.875 -10.749   6.872  1.00  0.00     0.004 C 
ENDBRANCH   8   9
ENDBRANCH   7   8
ENDBRANCH   1   7
TORSDOF 6
ENDMDL
MODEL 9
REMARK VINA RESULT:    -3.285      6.991      8.909
REMARK INTER + INTRA:          -4.721
REMARK INTER:                  -4.404
REMARK INTRA:                  -0.317
REMARK UNBOUND:                -0.284
REMARK SMILES CCCCCCCC(=O)[O-]
REMARK SMILES IDX 5 1 6 2 7 3 8 4 9 5 10 6 4 7 3 8 2 9 1 10
REMARK H PARENT
REMARK Flexibility Score: inf
ROOT
ATOM      1  C   UNL     1      41.338  -5.672   2.754  1.00  0.00     0.000 C 
ENDROOT
BRANCH   1   2
ATOM      2  C   UNL     1      40.969  -6.915   3.579  1.00  0.00     0.006 C 
BRANCH   2   3
ATOM      3  C   UNL     1      40.573  -6.572   5.020  1.00  0.00     0.053 C 
BRANCH   3   4
ATOM      4  C   UNL     1      41.437  -7.315   5.990  1.00  0.00     0.041 C 
ATOM      5  O   UNL     1      42.528  -7.818   5.611  1.00  0.00    -0.550 OA
ATOM      6  O   UNL     1      41.062  -7.410   7.325  1.00  0.00    -0.550 OA
ENDBRANCH   3   4
ENDBRANCH   2   3
ENDBRANCH   1   2
BRANCH   1   7
ATOM      7  C   UNL     1      40.965  -4.360   3.463  1.00  0.00     0.000 C 
BRANCH   7   8
ATOM      8  C   UNL     1      40.733  -3.235   2.447  1.00  0.00    -0.000 C 
BRANCH   8   9
ATOM      9  C   UNL     1      39.265  -2.793   2.443  1.00  0.00    -0.003 C 
ATOM     10  C   UNL     1      38.361  -3.895   1.897  1.00  0.00     0.004 C 
ENDBRANCH   8   9
ENDBRANCH   7   8
ENDBRANCH   1   7
TORSDOF 6
ENDMDL
