MODEL 1
REMARK VINA RESULT:    -3.590      0.000      0.000
REMARK INTER + INTRA:          -5.107
REMARK INTER:                  -4.324
REMARK INTRA:                  -0.783
REMARK UNBOUND:                -0.783
REMARK SMILES C=C(C)[C@@H]1CC[C@]2(C(=O)[O-])CC[C@@]3(C)[C@@H](CC[C@@H]4[C@@]5(C)[C@H](CC[C@@]43C)C(C)(C)[C@@H](O)[C@@H]5C=O)[C@H]12
REMARK SMILES IDX 7 1 6 2 34 3 11 4 5 5 15 6 4 7 12 8 16 9 13 10 17 11 24 12
REMARK SMILES IDX 14 13 18 14 23 15 25 16 19 17 22 18 21 19 31 20 20 21 26 22
REMARK SMILES IDX 29 23 27 24 28 25 8 26 9 27 10 28 2 29 3 30 1 31 32 32 33 33
REMARK SMILES IDX 30 34
REMARK H PARENT 30 35
REMARK Flexibility Score: inf
ROOT
ATOM      1  C   UNL     1      40.322  26.053   5.159  1.00  0.00     0.014 C 
ATOM      2  C   UNL     1      41.329  25.099   4.503  1.00  0.00     0.014 C 
ATOM      3  C   UNL     1      39.360  25.090   5.935  1.00  0.00     0.012 C 
ATOM      4  C   UNL     1      41.029  27.125   6.025  1.00  0.00     0.014 C 
ATOM      5  C   UNL     1      40.512  23.904   4.046  1.00  0.00     0.009 C 
ATOM      6  C   UNL     1      39.730  24.800   7.450  1.00  0.00     0.000 C 
ATOM      7  C   UNL     1      39.305  23.824   5.001  1.00  0.00     0.018 C 
ATOM      8  C   UNL     1      41.487  26.606   7.383  1.00  0.00     0.008 C 
ATOM      9  C   UNL     1      38.483  24.249   8.204  1.00  0.00     0.005 C 
ATOM     10  C   UNL     1      40.335  26.003   8.247  1.00  0.00    -0.024 C 
ATOM     11  C   UNL     1      38.590  24.244   9.739  1.00  0.00     0.005 C 
ATOM     12  C   UNL     1      40.896  25.470   9.695  1.00  0.00    -0.024 C 
ATOM     13  C   UNL     1      39.244  27.125   8.389  1.00  0.00     0.012 C 
ATOM     14  C   UNL     1      40.047  24.208  10.243  1.00  0.00     0.002 C 
ATOM     15  C   UNL     1      40.946  26.661  10.734  1.00  0.00     0.008 C 
ATOM     16  C   UNL     1      42.374  24.978   9.537  1.00  0.00     0.012 C 
ATOM     17  C   UNL     1      40.177  23.917  11.814  1.00  0.00    -0.014 C 
ATOM     18  C   UNL     1      41.148  26.257  12.201  1.00  0.00     0.005 C 
ATOM     19  C   UNL     1      40.057  25.246  12.575  1.00  0.00     0.004 C 
ATOM     20  C   UNL     1      39.011  23.137  12.511  1.00  0.00     0.088 C 
ATOM     21  C   UNL     1      41.513  23.135  12.116  1.00  0.00     0.013 C 
ATOM     22  C   UNL     1      39.781  24.922  14.071  1.00  0.00    -0.005 C 
ATOM     23  C   UNL     1      39.137  23.495  14.017  1.00  0.00     0.131 C 
ATOM     24  C   UNL     1      38.818  25.979  14.674  1.00  0.00     0.014 C 
ATOM     25  C   UNL     1      41.065  24.918  14.934  1.00  0.00     0.014 C 
ENDROOT
BRANCH   1  26
ATOM     26  C   UNL     1      39.585  26.798   4.041  1.00  0.00     0.048 C 
ATOM     27  O   UNL     1      40.190  27.076   2.967  1.00  0.00    -0.550 OA
ATOM     28  O   UNL     1      38.236  27.124   4.150  1.00  0.00    -0.550 OA
ENDBRANCH   1  26
BRANCH   7  29
ATOM     29  C   UNL     1      39.154  22.439   5.637  1.00  0.00    -0.077 C 
ATOM     30  C   UNL     1      40.386  21.684   6.073  1.00  0.00     0.039 C 
ATOM     31  C   UNL     1      37.952  21.896   5.901  1.00  0.00     0.008 C 
ENDBRANCH   7  29
BRANCH  20  32
ATOM     32  C   UNL     1      39.012  21.644  12.264  1.00  0.00     0.230 C 
ATOM     33  O   UNL     1      38.193  20.926  12.813  1.00  0.00    -0.303 OA
ENDBRANCH  20  32
BRANCH  23  34
ATOM     34  O   UNL     1      37.875  23.451  14.639  1.00  0.00    -0.392 OA
ATOM     35  H   UNL     1      37.203  23.374  13.914  1.00  0.00     0.211 HD
ENDBRANCH  23  34
TORSDOF 4
ENDMDL
MODEL 2
REMARK VINA RESULT:    -3.383      1.916      3.107
REMARK INTER + INTRA:          -4.858
REMARK INTER:                  -4.029
REMARK INTRA:                  -0.829
REMARK UNBOUND:                -0.783
REMARK SMILES C=C(C)[C@@H]1CC[C@]2(C(=O)[O-])CC[C@@]3(C)[C@@H](CC[C@@H]4[C@@]5(C)[C@H](CC[C@@]43C)C(C)(C)[C@@H](O)[C@@H]5C=O)[C@H]12
REMARK SMILES IDX 7 1 6 2 34 3 11 4 5 5 15 6 4 7 12 8 16 9 13 10 17 11 24 12
REMARK SMILES IDX 14 13 18 14 23 15 25 16 19 17 22 18 21 19 31 20 20 21 26 22
REMARK SMILES IDX 29 23 27 24 28 25 8 26 9 27 10 28 2 29 3 30 1 31 32 32 33 33
REMARK SMILES IDX 30 34
REMARK H PARENT 30 35
REMARK Flexibility Score: inf
ROOT
ATOM      1  C   UNL     1      39.144  25.741   5.460  1.00  0.00     0.014 C 
ATOM      2  C   UNL     1      39.970  26.984   5.100  1.00  0.00     0.014 C 
ATOM      3  C   UNL     1      40.175  24.817   6.192  1.00  0.00     0.012 C 
ATOM      4  C   UNL     1      37.884  26.110   6.281  1.00  0.00     0.014 C 
ATOM      5  C   UNL     1      41.329  26.454   4.677  1.00  0.00     0.009 C 
ATOM      6  C   UNL     1      40.241  24.952   7.771  1.00  0.00     0.000 C 
ATOM      7  C   UNL     1      41.520  25.124   5.432  1.00  0.00     0.018 C 
ATOM      8  C   UNL     1      38.175  26.394   7.750  1.00  0.00     0.008 C 
ATOM      9  C   UNL     1      40.921  23.691   8.382  1.00  0.00     0.005 C 
ATOM     10  C   UNL     1      38.877  25.215   8.491  1.00  0.00    -0.024 C 
ATOM     11  C   UNL     1      40.752  23.523   9.903  1.00  0.00     0.005 C 
ATOM     12  C   UNL     1      39.156  25.585  10.067  1.00  0.00    -0.024 C 
ATOM     13  C   UNL     1      37.954  23.956   8.312  1.00  0.00     0.012 C 
ATOM     14  C   UNL     1      40.484  24.856  10.631  1.00  0.00     0.002 C 
ATOM     15  C   UNL     1      37.875  25.265  10.937  1.00  0.00     0.008 C 
ATOM     16  C   UNL     1      39.398  27.125  10.209  1.00  0.00     0.012 C 
ATOM     17  C   UNL     1      40.588  24.748  12.227  1.00  0.00    -0.014 C 
ATOM     18  C   UNL     1      38.088  25.263  12.458  1.00  0.00     0.005 C 
ATOM     19  C   UNL     1      39.230  24.292  12.781  1.00  0.00     0.004 C 
ATOM     20  C   UNL     1      41.483  23.611  12.825  1.00  0.00     0.088 C 
ATOM     21  C   UNL     1      41.092  26.113  12.835  1.00  0.00     0.013 C 
ATOM     22  C   UNL     1      39.443  23.808  14.244  1.00  0.00    -0.005 C 
ATOM     23  C   UNL     1      40.958  23.411  14.274  1.00  0.00     0.131 C 
ATOM     24  C   UNL     1      38.514  22.602  14.546  1.00  0.00     0.014 C 
ATOM     25  C   UNL     1      39.137  24.904  15.293  1.00  0.00     0.014 C 
ENDROOT
BRANCH   1  26
ATOM     26  C   UNL     1      38.655  25.110   4.152  1.00  0.00     0.048 C 
ATOM     27  O   UNL     1      38.403  25.844   3.156  1.00  0.00    -0.550 OA
ATOM     28  O   UNL     1      38.540  23.729   4.010  1.00  0.00    -0.550 OA
ENDBRANCH   1  26
BRANCH   7  29
ATOM     29  C   UNL     1      42.838  25.077   6.210  1.00  0.00    -0.077 C 
ATOM     30  C   UNL     1      43.246  26.262   7.051  1.00  0.00     0.039 C 
ATOM     31  C   UNL     1      43.617  23.981   6.240  1.00  0.00     0.008 C 
ENDBRANCH   7  29
BRANCH  20  32
ATOM     32  C   UNL     1      42.971  23.884  12.777  1.00  0.00     0.230 C 
ATOM     33  O   UNL     1      43.713  23.419  13.625  1.00  0.00    -0.303 OA
ENDBRANCH  20  32
BRANCH  23  34
ATOM     34  O   UNL     1      41.157  22.081  14.688  1.00  0.00    -0.392 OA
ATOM     35  H   UNL     1      40.489  21.529  14.205  1.00  0.00     0.211 HD
ENDBRANCH  23  34
TORSDOF 4
ENDMDL
MODEL 3
REMARK VINA RESULT:    -2.748      2.187      7.592
REMARK INTER + INTRA:          -4.093
REMARK INTER:                  -3.200
REMARK INTRA:                  -0.893
REMARK UNBOUND:                -0.783
REMARK SMILES C=C(C)[C@@H]1CC[C@]2(C(=O)[O-])CC[C@@]3(C)[C@@H](CC[C@@H]4[C@@]5(C)[C@H](CC[C@@]43C)C(C)(C)[C@@H](O)[C@@H]5C=O)[C@H]12
REMARK SMILES IDX 7 1 6 2 34 3 11 4 5 5 15 6 4 7 12 8 16 9 13 10 17 11 24 12
REMARK SMILES IDX 14 13 18 14 23 15 25 16 19 17 22 18 21 19 31 20 20 21 26 22
REMARK SMILES IDX 29 23 27 24 28 25 8 26 9 27 10 28 2 29 3 30 1 31 32 32 33 33
REMARK SMILES IDX 30 34
REMARK H PARENT 30 35
REMARK Flexibility Score: inf
ROOT
ATOM      1  C   UNL     1      39.187  25.898  13.565  1.00  0.00     0.014 C 
ATOM      2  C   UNL     1      37.968  25.040  13.931  1.00  0.00     0.014 C 
ATOM      3  C   UNL     1      40.155  24.880  12.871  1.00  0.00     0.012 C 
ATOM      4  C   UNL     1      38.788  27.124  12.707  1.00  0.00     0.014 C 
ATOM      5  C   UNL     1      38.537  23.711  14.394  1.00  0.00     0.009 C 
ATOM      6  C   UNL     1      40.042  24.769  11.293  1.00  0.00     0.000 C 
ATOM      7  C   UNL     1      39.883  23.545  13.661  1.00  0.00     0.018 C 
ATOM      8  C   UNL     1      38.533  26.787  11.243  1.00  0.00     0.008 C 
ATOM      9  C   UNL     1      41.334  24.117  10.715  1.00  0.00     0.005 C 
ATOM     10  C   UNL     1      39.745  26.105  10.535  1.00  0.00    -0.024 C 
ATOM     11  C   UNL     1      41.515  24.253   9.192  1.00  0.00     0.005 C 
ATOM     12  C   UNL     1      39.404  25.774   8.962  1.00  0.00    -0.024 C 
ATOM     13  C   UNL     1      40.970  27.075  10.705  1.00  0.00     0.012 C 
ATOM     14  C   UNL     1      40.184  24.458   8.441  1.00  0.00     0.002 C 
ATOM     15  C   UNL     1      39.692  27.043   8.063  1.00  0.00     0.008 C 
ATOM     16  C   UNL     1      37.875  25.477   8.807  1.00  0.00     0.012 C 
ATOM     17  C   UNL     1      40.316  24.317   6.850  1.00  0.00    -0.014 C 
ATOM     18  C   UNL     1      39.721  26.792   6.548  1.00  0.00     0.005 C 
ATOM     19  C   UNL     1      40.734  25.675   6.266  1.00  0.00     0.004 C 
ATOM     20  C   UNL     1      41.490  23.446   6.288  1.00  0.00     0.088 C 
ATOM     21  C   UNL     1      38.976  23.753   6.238  1.00  0.00     0.013 C 
ATOM     22  C   UNL     1      41.244  25.441   4.815  1.00  0.00    -0.005 C 
ATOM     23  C   UNL     1      41.691  23.940   4.830  1.00  0.00     0.131 C 
ATOM     24  C   UNL     1      42.422  26.402   4.505  1.00  0.00     0.014 C 
ATOM     25  C   UNL     1      40.152  25.684   3.746  1.00  0.00     0.014 C 
ENDROOT
BRANCH   1  26
ATOM     26  C   UNL     1      39.785  26.441  14.867  1.00  0.00     0.048 C 
ATOM     27  O   UNL     1      41.000  26.783  14.905  1.00  0.00    -0.550 OA
ATOM     28  O   UNL     1      39.002  26.629  16.004  1.00  0.00    -0.550 OA
ENDBRANCH   1  26
BRANCH   7  29
ATOM     29  C   UNL     1      39.984  22.210  12.918  1.00  0.00    -0.077 C 
ATOM     30  C   UNL     1      41.250  21.395  13.026  1.00  0.00     0.039 C 
ATOM     31  C   UNL     1      38.952  21.689  12.232  1.00  0.00     0.008 C 
ENDBRANCH   7  29
BRANCH  20  32
ATOM     32  C   UNL     1      41.265  21.951   6.371  1.00  0.00     0.230 C 
ATOM     33  O   UNL     1      41.587  21.224   5.447  1.00  0.00    -0.303 OA
ENDBRANCH  20  32
BRANCH  23  34
ATOM     34  O   UNL     1      43.032  23.775   4.437  1.00  0.00    -0.392 OA
ATOM     35  H   UNL     1      43.037  23.743   3.446  1.00  0.00     0.211 HD
ENDBRANCH  23  34
TORSDOF 4
ENDMDL
MODEL 4
REMARK VINA RESULT:    -2.693      2.340      4.170
REMARK INTER + INTRA:          -4.027
REMARK INTER:                  -3.399
REMARK INTRA:                  -0.628
REMARK UNBOUND:                -0.783
REMARK SMILES C=C(C)[C@@H]1CC[C@]2(C(=O)[O-])CC[C@@]3(C)[C@@H](CC[C@@H]4[C@@]5(C)[C@H](CC[C@@]43C)C(C)(C)[C@@H](O)[C@@H]5C=O)[C@H]12
REMARK SMILES IDX 7 1 6 2 34 3 11 4 5 5 15 6 4 7 12 8 16 9 13 10 17 11 24 12
REMARK SMILES IDX 14 13 18 14 23 15 25 16 19 17 22 18 21 19 31 20 20 21 26 22
REMARK SMILES IDX 29 23 27 24 28 25 8 26 9 27 10 28 2 29 3 30 1 31 32 32 33 33
REMARK SMILES IDX 30 34
REMARK H PARENT 30 35
REMARK Flexibility Score: inf
ROOT
ATOM      1  C   UNL     1      40.454  23.108   5.747  1.00  0.00     0.014 C 
ATOM      2  C   UNL     1      40.087  24.348   4.920  1.00  0.00     0.014 C 
ATOM      3  C   UNL     1      41.496  23.655   6.781  1.00  0.00     0.012 C 
ATOM      4  C   UNL     1      39.200  22.436   6.360  1.00  0.00     0.014 C 
ATOM      5  C   UNL     1      41.388  25.109   4.737  1.00  0.00     0.009 C 
ATOM      6  C   UNL     1      40.914  24.133   8.177  1.00  0.00     0.000 C 
ATOM      7  C   UNL     1      42.262  24.756   5.957  1.00  0.00     0.018 C 
ATOM      8  C   UNL     1      38.667  23.153   7.594  1.00  0.00     0.008 C 
ATOM      9  C   UNL     1      42.056  24.188   9.236  1.00  0.00     0.005 C 
ATOM     10  C   UNL     1      39.716  23.298   8.739  1.00  0.00    -0.024 C 
ATOM     11  C   UNL     1      41.592  24.305  10.699  1.00  0.00     0.005 C 
ATOM     12  C   UNL     1      39.075  24.073  10.038  1.00  0.00    -0.024 C 
ATOM     13  C   UNL     1      40.218  21.848   9.078  1.00  0.00     0.012 C 
ATOM     14  C   UNL     1      40.188  24.928  10.840  1.00  0.00     0.002 C 
ATOM     15  C   UNL     1      38.318  23.043  10.969  1.00  0.00     0.008 C 
ATOM     16  C   UNL     1      37.990  25.094   9.558  1.00  0.00     0.012 C 
ATOM     17  C   UNL     1      39.807  25.317  12.347  1.00  0.00    -0.014 C 
ATOM     18  C   UNL     1      37.942  23.560  12.365  1.00  0.00     0.005 C 
ATOM     19  C   UNL     1      39.214  24.082  13.043  1.00  0.00     0.004 C 
ATOM     20  C   UNL     1      40.978  25.612  13.344  1.00  0.00     0.088 C 
ATOM     21  C   UNL     1      38.850  26.571  12.362  1.00  0.00     0.013 C 
ATOM     22  C   UNL     1      39.225  24.340  14.577  1.00  0.00    -0.005 C 
ATOM     23  C   UNL     1      40.365  25.400  14.755  1.00  0.00     0.131 C 
ATOM     24  C   UNL     1      39.525  23.021  15.335  1.00  0.00     0.014 C 
ATOM     25  C   UNL     1      37.875  24.883  15.106  1.00  0.00     0.014 C 
ENDROOT
BRANCH   1  26
ATOM     26  C   UNL     1      41.090  22.085   4.799  1.00  0.00     0.048 C 
ATOM     27  O   UNL     1      40.841  22.138   3.562  1.00  0.00    -0.550 OA
ATOM     28  O   UNL     1      41.993  21.130   5.260  1.00  0.00    -0.550 OA
ENDBRANCH   1  26
BRANCH   7  29
ATOM     29  C   UNL     1      42.781  25.999   6.685  1.00  0.00    -0.077 C 
ATOM     30  C   UNL     1      41.825  27.122   7.011  1.00  0.00     0.039 C 
ATOM     31  C   UNL     1      44.049  26.101   7.122  1.00  0.00     0.008 C 
ENDBRANCH   7  29
BRANCH  20  32
ATOM     32  C   UNL     1      41.617  26.975  13.186  1.00  0.00     0.230 C 
ATOM     33  O   UNL     1      42.586  27.124  12.461  1.00  0.00    -0.303 OA
ENDBRANCH  20  32
BRANCH  23  34
ATOM     34  O   UNL     1      41.354  24.977  15.662  1.00  0.00    -0.392 OA
ATOM     35  H   UNL     1      41.239  25.522  16.483  1.00  0.00     0.211 HD
ENDBRANCH  23  34
TORSDOF 4
ENDMDL
MODEL 5
REMARK VINA RESULT:    -2.613      1.993      7.559
REMARK INTER + INTRA:          -3.930
REMARK INTER:                  -3.544
REMARK INTRA:                  -0.386
REMARK UNBOUND:                -0.783
REMARK SMILES C=C(C)[C@@H]1CC[C@]2(C(=O)[O-])CC[C@@]3(C)[C@@H](CC[C@@H]4[C@@]5(C)[C@H](CC[C@@]43C)C(C)(C)[C@@H](O)[C@@H]5C=O)[C@H]12
REMARK SMILES IDX 7 1 6 2 34 3 11 4 5 5 15 6 4 7 12 8 16 9 13 10 17 11 24 12
REMARK SMILES IDX 14 13 18 14 23 15 25 16 19 17 22 18 21 19 31 20 20 21 26 22
REMARK SMILES IDX 29 23 27 24 28 25 8 26 9 27 10 28 2 29 3 30 1 31 32 32 33 33
REMARK SMILES IDX 30 34
REMARK H PARENT 30 35
REMARK Flexibility Score: inf
ROOT
ATOM      1  C   UNL     1      41.604  24.561  13.129  1.00  0.00     0.014 C 
ATOM      2  C   UNL     1      40.333  24.784  13.960  1.00  0.00     0.014 C 
ATOM      3  C   UNL     1      41.168  23.486  12.076  1.00  0.00     0.012 C 
ATOM      4  C   UNL     1      42.141  25.888  12.538  1.00  0.00     0.014 C 
ATOM      5  C   UNL     1      39.712  23.408  14.120  1.00  0.00     0.009 C 
ATOM      6  C   UNL     1      40.631  24.039  10.690  1.00  0.00     0.000 C 
ATOM      7  C   UNL     1      40.153  22.596  12.886  1.00  0.00     0.018 C 
ATOM      8  C   UNL     1      41.373  26.365  11.312  1.00  0.00     0.008 C 
ATOM      9  C   UNL     1      40.694  22.915   9.612  1.00  0.00     0.005 C 
ATOM     10  C   UNL     1      41.336  25.326  10.149  1.00  0.00    -0.024 C 
ATOM     11  C   UNL     1      40.529  23.389   8.157  1.00  0.00     0.005 C 
ATOM     12  C   UNL     1      40.499  25.905   8.860  1.00  0.00    -0.024 C 
ATOM     13  C   UNL     1      42.831  24.984   9.803  1.00  0.00     0.012 C 
ATOM     14  C   UNL     1      39.764  24.723   8.039  1.00  0.00     0.002 C 
ATOM     15  C   UNL     1      41.444  26.781   7.944  1.00  0.00     0.008 C 
ATOM     16  C   UNL     1      39.371  26.870   9.358  1.00  0.00     0.012 C 
ATOM     17  C   UNL     1      39.336  25.087   6.537  1.00  0.00    -0.014 C 
ATOM     18  C   UNL     1      40.890  27.125   6.554  1.00  0.00     0.005 C 
ATOM     19  C   UNL     1      40.502  25.817   5.854  1.00  0.00     0.004 C 
ATOM     20  C   UNL     1      39.164  23.909   5.521  1.00  0.00     0.088 C 
ATOM     21  C   UNL     1      37.990  25.909   6.537  1.00  0.00     0.013 C 
ATOM     22  C   UNL     1      40.246  25.805   4.319  1.00  0.00    -0.005 C 
ATOM     23  C   UNL     1      39.310  24.565   4.120  1.00  0.00     0.131 C 
ATOM     24  C   UNL     1      41.590  25.656   3.558  1.00  0.00     0.014 C 
ATOM     25  C   UNL     1      39.566  27.100   3.813  1.00  0.00     0.014 C 
ENDROOT
BRANCH   1  26
ATOM     26  C   UNL     1      42.688  24.019  14.067  1.00  0.00     0.048 C 
ATOM     27  O   UNL     1      42.536  24.107  15.318  1.00  0.00    -0.550 OA
ATOM     28  O   UNL     1      43.817  23.369  13.575  1.00  0.00    -0.550 OA
ENDBRANCH   1  26
BRANCH   7  29
ATOM     29  C   UNL     1      38.970  21.963  12.148  1.00  0.00    -0.077 C 
ATOM     30  C   UNL     1      37.875  22.849  11.603  1.00  0.00     0.039 C 
ATOM     31  C   UNL     1      38.903  20.644  11.892  1.00  0.00     0.008 C 
ENDBRANCH   7  29
BRANCH  20  32
ATOM     32  C   UNL     1      37.875  23.129   5.667  1.00  0.00     0.230 C 
ATOM     33  O   UNL     1      37.898  21.938   5.929  1.00  0.00    -0.303 OA
ENDBRANCH  20  32
BRANCH  23  34
ATOM     34  O   UNL     1      39.833  23.640   3.197  1.00  0.00    -0.392 OA
ATOM     35  H   UNL     1      39.240  23.665   2.403  1.00  0.00     0.211 HD
ENDBRANCH  23  34
TORSDOF 4
ENDMDL
MODEL 6
REMARK VINA RESULT:    -2.343      1.666      8.072
REMARK INTER + INTRA:          -3.606
REMARK INTER:                  -3.328
REMARK INTRA:                  -0.278
REMARK UNBOUND:                -0.783
REMARK SMILES C=C(C)[C@@H]1CC[C@]2(C(=O)[O-])CC[C@@]3(C)[C@@H](CC[C@@H]4[C@@]5(C)[C@H](CC[C@@]43C)C(C)(C)[C@@H](O)[C@@H]5C=O)[C@H]12
REMARK SMILES IDX 7 1 6 2 34 3 11 4 5 5 15 6 4 7 12 8 16 9 13 10 17 11 24 12
REMARK SMILES IDX 14 13 18 14 23 15 25 16 19 17 22 18 21 19 31 20 20 21 26 22
REMARK SMILES IDX 29 23 27 24 28 25 8 26 9 27 10 28 2 29 3 30 1 31 32 32 33 33
REMARK SMILES IDX 30 34
REMARK H PARENT 30 35
REMARK Flexibility Score: inf
ROOT
ATOM      1  C   UNL     1      38.959  24.043  13.777  1.00  0.00     0.014 C 
ATOM      2  C   UNL     1      39.920  23.000  14.365  1.00  0.00     0.014 C 
ATOM      3  C   UNL     1      39.915  25.059  13.065  1.00  0.00     0.012 C 
ATOM      4  C   UNL     1      37.890  23.388  12.868  1.00  0.00     0.014 C 
ATOM      5  C   UNL     1      41.111  23.793  14.873  1.00  0.00     0.009 C 
ATOM      6  C   UNL     1      40.204  24.791  11.528  1.00  0.00     0.000 C 
ATOM      7  C   UNL     1      41.183  25.061  13.999  1.00  0.00     0.018 C 
ATOM      8  C   UNL     1      38.409  23.023  11.483  1.00  0.00     0.008 C 
ATOM      9  C   UNL     1      40.746  26.089  10.858  1.00  0.00     0.005 C 
ATOM     10  C   UNL     1      39.003  24.232  10.696  1.00  0.00    -0.024 C 
ATOM     11  C   UNL     1      40.749  26.083   9.318  1.00  0.00     0.005 C 
ATOM     12  C   UNL     1      39.537  23.771   9.213  1.00  0.00    -0.024 C 
ATOM     13  C   UNL     1      37.875  25.324  10.627  1.00  0.00     0.012 C 
ATOM     14  C   UNL     1      40.793  24.662   8.720  1.00  0.00     0.002 C 
ATOM     15  C   UNL     1      38.344  23.783   8.175  1.00  0.00     0.008 C 
ATOM     16  C   UNL     1      40.039  22.289   9.272  1.00  0.00     0.012 C 
ATOM     17  C   UNL     1      41.082  24.638   7.144  1.00  0.00    -0.014 C 
ATOM     18  C   UNL     1      38.747  23.680   6.697  1.00  0.00     0.005 C 
ATOM     19  C   UNL     1      39.751  24.799   6.394  1.00  0.00     0.004 C 
ATOM     20  C   UNL     1      41.853  25.851   6.524  1.00  0.00     0.088 C 
ATOM     21  C   UNL     1      41.872  23.329   6.754  1.00  0.00     0.013 C 
ATOM     22  C   UNL     1      40.071  25.175   4.919  1.00  0.00    -0.005 C 
ATOM     23  C   UNL     1      41.494  25.823   5.013  1.00  0.00     0.131 C 
ATOM     24  C   UNL     1      39.007  26.169   4.382  1.00  0.00     0.014 C 
ATOM     25  C   UNL     1      40.081  23.950   3.974  1.00  0.00     0.014 C 
ENDROOT
BRANCH   1  26
ATOM     26  C   UNL     1      38.212  24.700  14.943  1.00  0.00     0.048 C 
ATOM     27  O   UNL     1      37.875  24.006  15.943  1.00  0.00    -0.550 OA
ATOM     28  O   UNL     1      37.947  26.067  14.959  1.00  0.00    -0.550 OA
ENDBRANCH   1  26
BRANCH   7  29
ATOM     29  C   UNL     1      42.565  25.262  13.372  1.00  0.00    -0.077 C 
ATOM     30  C   UNL     1      43.533  24.105  13.323  1.00  0.00     0.039 C 
ATOM     31  C   UNL     1      42.928  26.416  12.784  1.00  0.00     0.008 C 
ENDBRANCH   7  29
BRANCH  20  32
ATOM     32  C   UNL     1      43.347  25.844   6.767  1.00  0.00     0.230 C 
ATOM     33  O   UNL     1      44.064  26.680   6.243  1.00  0.00    -0.303 OA
ENDBRANCH  20  32
BRANCH  23  34
ATOM     34  O   UNL     1      41.529  27.123   4.476  1.00  0.00    -0.392 OA
ATOM     35  H   UNL     1      41.029  27.091   3.620  1.00  0.00     0.211 HD
ENDBRANCH  23  34
TORSDOF 4
ENDMDL
