MODEL 1
REMARK VINA RESULT:    -5.056      0.000      0.000
REMARK INTER + INTRA:          -6.234
REMARK INTER:                  -5.943
REMARK INTRA:                  -0.291
REMARK UNBOUND:                -0.291
REMARK SMILES O=c1cc(-c2ccc(O)c(O)c2)oc2cc(O)cc(O)c12
REMARK SMILES IDX 4 1 3 2 2 3 1 4 21 5 19 6 18 7 16 8 15 9 14 10 13 11 5 12
REMARK SMILES IDX 6 13 7 14 8 15 12 16 10 17 9 18 11 20 20 22 17 24
REMARK H PARENT 9 19 11 21 20 23 17 25
REMARK Flexibility Score: inf
ROOT
ATOM      1  C   UNL     1       4.798   6.449   2.787  1.00  0.00     0.138 A 
ATOM      2  C   UNL     1       4.342   6.184   1.488  1.00  0.00     0.100 A 
ATOM      3  C   UNL     1       3.059   6.584   1.112  1.00  0.00     0.197 A 
ATOM      4  O   UNL     1       2.701   6.388  -0.079  1.00  0.00    -0.289 OA
ATOM      5  C   UNL     1       2.218   7.225   2.053  1.00  0.00     0.107 A 
ATOM      6  C   UNL     1       0.877   7.639   1.792  1.00  0.00     0.134 A 
ATOM      7  C   UNL     1       0.180   8.369   2.764  1.00  0.00     0.093 A 
ATOM      8  C   UNL     1       0.752   8.645   4.006  1.00  0.00     0.123 A 
ATOM      9  C   UNL     1       2.043   8.198   4.290  1.00  0.00     0.094 A 
ATOM     10  C   UNL     1       2.776   7.498   3.329  1.00  0.00     0.146 A 
ATOM     11  O   UNL     1       4.008   7.101   3.634  1.00  0.00    -0.456 OA
ENDROOT
BRANCH   1  12
ATOM     12  C   UNL     1       6.153   6.045   3.241  1.00  0.00     0.021 A 
ATOM     13  C   UNL     1       6.750   6.719   4.321  1.00  0.00     0.016 A 
ATOM     14  C   UNL     1       8.020   6.352   4.772  1.00  0.00     0.051 A 
ATOM     15  C   UNL     1       8.712   5.302   4.158  1.00  0.00     0.157 A 
ATOM     16  C   UNL     1       6.848   4.980   2.636  1.00  0.00     0.062 A 
ATOM     17  C   UNL     1       8.124   4.612   3.090  1.00  0.00     0.158 A 
BRANCH  15  18
ATOM     18  O   UNL     1       9.980   4.935   4.603  1.00  0.00    -0.504 OA
ATOM     19  H   UNL     1      10.799   5.488   4.383  1.00  0.00     0.293 HD
ENDBRANCH  15  18
BRANCH  17  20
ATOM     20  O   UNL     1       8.810   3.558   2.488  1.00  0.00    -0.504 OA
ATOM     21  H   UNL     1       8.971   2.684   2.974  1.00  0.00     0.293 HD
ENDBRANCH  17  20
ENDBRANCH   1  12
BRANCH   6  22
ATOM     22  O   UNL     1       0.181   7.342   0.617  1.00  0.00    -0.507 OA
ATOM     23  H   UNL     1      -0.157   6.426   0.364  1.00  0.00     0.293 HD
ENDBRANCH   6  22
BRANCH   8  24
ATOM     24  O   UNL     1       0.023   9.360   4.953  1.00  0.00    -0.508 OA
ATOM     25  H   UNL     1      -0.357  10.277   4.749  1.00  0.00     0.293 HD
ENDBRANCH   8  24
TORSDOF 5
ENDMDL
MODEL 2
REMARK VINA RESULT:    -5.028      1.586      6.967
REMARK INTER + INTRA:          -6.201
REMARK INTER:                  -5.899
REMARK INTRA:                  -0.302
REMARK UNBOUND:                -0.291
REMARK SMILES O=c1cc(-c2ccc(O)c(O)c2)oc2cc(O)cc(O)c12
REMARK SMILES IDX 4 1 3 2 2 3 1 4 21 5 19 6 18 7 16 8 15 9 14 10 13 11 5 12
REMARK SMILES IDX 6 13 7 14 8 15 12 16 10 17 9 18 11 20 20 22 17 24
REMARK H PARENT 9 19 11 21 20 23 17 25
REMARK Flexibility Score: inf
ROOT
ATOM      1  C   UNL     1       4.713   6.398   2.319  1.00  0.00     0.138 A 
ATOM      2  C   UNL     1       5.100   6.100   1.005  1.00  0.00     0.100 A 
ATOM      3  C   UNL     1       6.401   5.664   0.751  1.00  0.00     0.197 A 
ATOM      4  O   UNL     1       6.700   5.345  -0.430  1.00  0.00    -0.289 OA
ATOM      5  C   UNL     1       7.328   5.557   1.815  1.00  0.00     0.107 A 
ATOM      6  C   UNL     1       8.691   5.163   1.667  1.00  0.00     0.134 A 
ATOM      7  C   UNL     1       9.483   4.980   2.809  1.00  0.00     0.093 A 
ATOM      8  C   UNL     1       8.980   5.235   4.083  1.00  0.00     0.123 A 
ATOM      9  C   UNL     1       7.663   5.672   4.235  1.00  0.00     0.094 A 
ATOM     10  C   UNL     1       6.838   5.831   3.120  1.00  0.00     0.146 A 
ATOM     11  O   UNL     1       5.586   6.236   3.307  1.00  0.00    -0.456 OA
ENDROOT
BRANCH   1  12
ATOM     12  C   UNL     1       3.342   6.865   2.646  1.00  0.00     0.021 A 
ATOM     13  C   UNL     1       2.248   6.368   1.916  1.00  0.00     0.016 A 
ATOM     14  C   UNL     1       0.949   6.786   2.210  1.00  0.00     0.051 A 
ATOM     15  C   UNL     1       0.718   7.701   3.244  1.00  0.00     0.157 A 
ATOM     16  C   UNL     1       3.102   7.776   3.694  1.00  0.00     0.062 A 
ATOM     17  C   UNL     1       1.796   8.194   3.990  1.00  0.00     0.158 A 
BRANCH  15  18
ATOM     18  O   UNL     1      -0.577   8.122   3.539  1.00  0.00    -0.504 OA
ATOM     19  H   UNL     1      -1.388   7.606   3.218  1.00  0.00     0.293 HD
ENDBRANCH  15  18
BRANCH  17  20
ATOM     20  O   UNL     1       1.562   9.096   5.026  1.00  0.00    -0.504 OA
ATOM     21  H   UNL     1       1.100   9.983   4.863  1.00  0.00     0.293 HD
ENDBRANCH  17  20
ENDBRANCH   1  12
BRANCH   6  22
ATOM     22  O   UNL     1       9.319   4.965   0.434  1.00  0.00    -0.507 OA
ATOM     23  H   UNL     1       8.893   5.137  -0.463  1.00  0.00     0.293 HD
ENDBRANCH   6  22
BRANCH   8  24
ATOM     24  O   UNL     1       9.802   5.056   5.194  1.00  0.00    -0.508 OA
ATOM     25  H   UNL     1       9.593   5.495   6.084  1.00  0.00     0.293 HD
ENDBRANCH   8  24
TORSDOF 5
ENDMDL
MODEL 3
REMARK VINA RESULT:    -5.022      1.270      2.691
REMARK INTER + INTRA:          -6.193
REMARK INTER:                  -5.875
REMARK INTRA:                  -0.318
REMARK UNBOUND:                -0.291
REMARK SMILES O=c1cc(-c2ccc(O)c(O)c2)oc2cc(O)cc(O)c12
REMARK SMILES IDX 4 1 3 2 2 3 1 4 21 5 19 6 18 7 16 8 15 9 14 10 13 11 5 12
REMARK SMILES IDX 6 13 7 14 8 15 12 16 10 17 9 18 11 20 20 22 17 24
REMARK H PARENT 9 19 11 21 20 23 17 25
REMARK Flexibility Score: inf
ROOT
ATOM      1  C   UNL     1       5.038   6.581   3.383  1.00  0.00     0.138 A 
ATOM      2  C   UNL     1       4.402   7.592   4.117  1.00  0.00     0.100 A 
ATOM      3  C   UNL     1       3.152   8.059   3.709  1.00  0.00     0.197 A 
ATOM      4  O   UNL     1       2.579   8.922   4.423  1.00  0.00    -0.289 OA
ATOM      5  C   UNL     1       2.551   7.532   2.541  1.00  0.00     0.107 A 
ATOM      6  C   UNL     1       1.299   7.962   2.008  1.00  0.00     0.134 A 
ATOM      7  C   UNL     1       0.749   7.286   0.911  1.00  0.00     0.093 A 
ATOM      8  C   UNL     1       1.431   6.240   0.292  1.00  0.00     0.123 A 
ATOM      9  C   UNL     1       2.682   5.846   0.773  1.00  0.00     0.094 A 
ATOM     10  C   UNL     1       3.241   6.478   1.886  1.00  0.00     0.146 A 
ATOM     11  O   UNL     1       4.427   6.064   2.322  1.00  0.00    -0.456 OA
ENDROOT
BRANCH   1  12
ATOM     12  C   UNL     1       6.368   6.047   3.772  1.00  0.00     0.021 A 
ATOM     13  C   UNL     1       6.996   6.533   4.932  1.00  0.00     0.016 A 
ATOM     14  C   UNL     1       8.244   6.040   5.323  1.00  0.00     0.051 A 
ATOM     15  C   UNL     1       8.880   5.048   4.569  1.00  0.00     0.157 A 
ATOM     16  C   UNL     1       7.007   5.039   3.025  1.00  0.00     0.062 A 
ATOM     17  C   UNL     1       8.259   4.543   3.420  1.00  0.00     0.158 A 
BRANCH  15  18
ATOM     18  O   UNL     1      10.125   4.556   4.955  1.00  0.00    -0.504 OA
ATOM     19  H   UNL     1      10.211   3.749   5.561  1.00  0.00     0.293 HD
ENDBRANCH  15  18
BRANCH  17  20
ATOM     20  O   UNL     1       8.890   3.547   2.677  1.00  0.00    -0.504 OA
ATOM     21  H   UNL     1       9.509   3.771   1.907  1.00  0.00     0.293 HD
ENDBRANCH  17  20
ENDBRANCH   1  12
BRANCH   6  22
ATOM     22  O   UNL     1       0.574   9.052   2.497  1.00  0.00    -0.507 OA
ATOM     23  H   UNL     1      -0.376   9.008   2.832  1.00  0.00     0.293 HD
ENDBRANCH   6  22
BRANCH   8  24
ATOM     24  O   UNL     1       0.860   5.601  -0.806  1.00  0.00    -0.508 OA
ATOM     25  H   UNL     1       1.051   5.904  -1.754  1.00  0.00     0.293 HD
ENDBRANCH   8  24
TORSDOF 5
ENDMDL
MODEL 4
REMARK VINA RESULT:    -4.787      1.623      2.467
REMARK INTER + INTRA:          -5.918
REMARK INTER:                  -5.641
REMARK INTRA:                  -0.277
REMARK UNBOUND:                -0.291
REMARK SMILES O=c1cc(-c2ccc(O)c(O)c2)oc2cc(O)cc(O)c12
REMARK SMILES IDX 4 1 3 2 2 3 1 4 21 5 19 6 18 7 16 8 15 9 14 10 13 11 5 12
REMARK SMILES IDX 6 13 7 14 8 15 12 16 10 17 9 18 11 20 20 22 17 24
REMARK H PARENT 9 19 11 21 20 23 17 25
REMARK Flexibility Score: inf
ROOT
ATOM      1  C   UNL     1       4.250   6.584   2.406  1.00  0.00     0.138 A 
ATOM      2  C   UNL     1       3.059   6.406   1.690  1.00  0.00     0.100 A 
ATOM      3  C   UNL     1       1.850   6.830   2.245  1.00  0.00     0.197 A 
ATOM      4  O   UNL     1       0.806   6.714   1.552  1.00  0.00    -0.289 OA
ATOM      5  C   UNL     1       1.832   7.404   3.538  1.00  0.00     0.107 A 
ATOM      6  C   UNL     1       0.655   7.833   4.220  1.00  0.00     0.134 A 
ATOM      7  C   UNL     1       0.772   8.495   5.449  1.00  0.00     0.093 A 
ATOM      8  C   UNL     1       2.016   8.687   6.048  1.00  0.00     0.123 A 
ATOM      9  C   UNL     1       3.171   8.223   5.415  1.00  0.00     0.094 A 
ATOM     10  C   UNL     1       3.089   7.591   4.172  1.00  0.00     0.146 A 
ATOM     11  O   UNL     1       4.213   7.176   3.596  1.00  0.00    -0.456 OA
ENDROOT
BRANCH   1  12
ATOM     12  C   UNL     1       5.563   6.152   1.864  1.00  0.00     0.021 A 
ATOM     13  C   UNL     1       6.035   6.713   0.664  1.00  0.00     0.016 A 
ATOM     14  C   UNL     1       7.271   6.330   0.138  1.00  0.00     0.051 A 
ATOM     15  C   UNL     1       8.061   5.387   0.805  1.00  0.00     0.157 A 
ATOM     16  C   UNL     1       6.369   5.214   2.538  1.00  0.00     0.062 A 
ATOM     17  C   UNL     1       7.611   4.830   2.009  1.00  0.00     0.158 A 
BRANCH  15  18
ATOM     18  O   UNL     1       9.293   5.001   0.283  1.00  0.00    -0.504 OA
ATOM     19  H   UNL     1       9.762   5.549  -0.428  1.00  0.00     0.293 HD
ENDBRANCH  15  18
BRANCH  17  20
ATOM     20  O   UNL     1       8.405   3.900   2.678  1.00  0.00    -0.504 OA
ATOM     21  H   UNL     1       9.387   3.786   2.458  1.00  0.00     0.293 HD
ENDBRANCH  17  20
ENDBRANCH   1  12
BRANCH   6  22
ATOM     22  O   UNL     1      -0.644   7.615   3.750  1.00  0.00    -0.507 OA
ATOM     23  H   UNL     1      -1.131   8.216   3.104  1.00  0.00     0.293 HD
ENDBRANCH   6  22
BRANCH   8  24
ATOM     24  O   UNL     1       2.093   9.335   7.279  1.00  0.00    -0.508 OA
ATOM     25  H   UNL     1       1.296   9.822   7.673  1.00  0.00     0.293 HD
ENDBRANCH   8  24
TORSDOF 5
ENDMDL
MODEL 5
REMARK VINA RESULT:    -4.696      2.678      7.031
REMARK INTER + INTRA:          -5.810
REMARK INTER:                  -5.547
REMARK INTRA:                  -0.263
REMARK UNBOUND:                -0.291
REMARK SMILES O=c1cc(-c2ccc(O)c(O)c2)oc2cc(O)cc(O)c12
REMARK SMILES IDX 4 1 3 2 2 3 1 4 21 5 19 6 18 7 16 8 15 9 14 10 13 11 5 12
REMARK SMILES IDX 6 13 7 14 8 15 12 16 10 17 9 18 11 20 20 22 17 24
REMARK H PARENT 9 19 11 21 20 23 17 25
REMARK Flexibility Score: inf
ROOT
ATOM      1  C   UNL     1       4.757   6.496   2.049  1.00  0.00     0.138 A 
ATOM      2  C   UNL     1       5.530   5.441   2.553  1.00  0.00     0.100 A 
ATOM      3  C   UNL     1       6.802   5.206   2.030  1.00  0.00     0.197 A 
ATOM      4  O   UNL     1       7.496   4.291   2.545  1.00  0.00    -0.289 OA
ATOM      5  C   UNL     1       7.289   6.014   0.974  1.00  0.00     0.107 A 
ATOM      6  C   UNL     1       8.554   5.840   0.337  1.00  0.00     0.134 A 
ATOM      7  C   UNL     1       8.978   6.773  -0.618  1.00  0.00     0.093 A 
ATOM      8  C   UNL     1       8.160   7.835  -1.001  1.00  0.00     0.123 A 
ATOM      9  C   UNL     1       6.899   7.984  -0.422  1.00  0.00     0.094 A 
ATOM     10  C   UNL     1       6.461   7.090   0.558  1.00  0.00     0.146 A 
ATOM     11  O   UNL     1       5.260   7.274   1.096  1.00  0.00    -0.456 OA
ENDROOT
BRANCH   1  12
ATOM     12  C   UNL     1       3.397   6.790   2.568  1.00  0.00     0.021 A 
ATOM     13  C   UNL     1       2.278   6.213   1.943  1.00  0.00     0.016 A 
ATOM     14  C   UNL     1       0.989   6.467   2.418  1.00  0.00     0.051 A 
ATOM     15  C   UNL     1       0.797   7.296   3.529  1.00  0.00     0.157 A 
ATOM     16  C   UNL     1       3.198   7.612   3.694  1.00  0.00     0.062 A 
ATOM     17  C   UNL     1       1.903   7.866   4.171  1.00  0.00     0.158 A 
BRANCH  15  18
ATOM     18  O   UNL     1      -0.487   7.554   4.004  1.00  0.00    -0.504 OA
ATOM     19  H   UNL     1      -0.834   8.500   4.105  1.00  0.00     0.293 HD
ENDBRANCH  15  18
BRANCH  17  20
ATOM     20  O   UNL     1       1.709   8.681   5.285  1.00  0.00    -0.504 OA
ATOM     21  H   UNL     1       0.917   9.309   5.351  1.00  0.00     0.293 HD
ENDBRANCH  17  20
ENDBRANCH   1  12
BRANCH   6  22
ATOM     22  O   UNL     1       9.413   4.765   0.583  1.00  0.00    -0.507 OA
ATOM     23  H   UNL     1       9.118   3.809   0.706  1.00  0.00     0.293 HD
ENDBRANCH   6  22
BRANCH   8  24
ATOM     24  O   UNL     1       8.609   8.735  -1.965  1.00  0.00    -0.508 OA
ATOM     25  H   UNL     1       9.557   8.701  -2.322  1.00  0.00     0.293 HD
ENDBRANCH   8  24
TORSDOF 5
ENDMDL
MODEL 6
REMARK VINA RESULT:    -4.676      2.348      3.083
REMARK INTER + INTRA:          -5.787
REMARK INTER:                  -5.518
REMARK INTRA:                  -0.269
REMARK UNBOUND:                -0.291
REMARK SMILES O=c1cc(-c2ccc(O)c(O)c2)oc2cc(O)cc(O)c12
REMARK SMILES IDX 4 1 3 2 2 3 1 4 21 5 19 6 18 7 16 8 15 9 14 10 13 11 5 12
REMARK SMILES IDX 6 13 7 14 8 15 12 16 10 17 9 18 11 20 20 22 17 24
REMARK H PARENT 9 19 11 21 20 23 17 25
REMARK Flexibility Score: inf
ROOT
ATOM      1  C   UNL     1       6.473   5.036   3.715  1.00  0.00     0.138 A 
ATOM      2  C   UNL     1       6.289   4.750   2.355  1.00  0.00     0.100 A 
ATOM      3  C   UNL     1       5.409   5.527   1.600  1.00  0.00     0.197 A 
ATOM      4  O   UNL     1       5.313   5.285   0.368  1.00  0.00    -0.289 OA
ATOM      5  C   UNL     1       4.687   6.575   2.218  1.00  0.00     0.107 A 
ATOM      6  C   UNL     1       3.733   7.404   1.556  1.00  0.00     0.134 A 
ATOM      7  C   UNL     1       3.166   8.486   2.242  1.00  0.00     0.093 A 
ATOM      8  C   UNL     1       3.470   8.730   3.581  1.00  0.00     0.123 A 
ATOM      9  C   UNL     1       4.361   7.892   4.254  1.00  0.00     0.094 A 
ATOM     10  C   UNL     1       4.970   6.826   3.587  1.00  0.00     0.146 A 
ATOM     11  O   UNL     1       5.824   6.060   4.259  1.00  0.00    -0.456 OA
ENDROOT
BRANCH   1  12
ATOM     12  C   UNL     1       7.396   4.242   4.566  1.00  0.00     0.021 A 
ATOM     13  C   UNL     1       8.783   4.350   4.369  1.00  0.00     0.016 A 
ATOM     14  C   UNL     1       9.672   3.620   5.162  1.00  0.00     0.051 A 
ATOM     15  C   UNL     1       9.191   2.777   6.170  1.00  0.00     0.157 A 
ATOM     16  C   UNL     1       6.918   3.403   5.591  1.00  0.00     0.062 A 
ATOM     17  C   UNL     1       7.812   2.672   6.388  1.00  0.00     0.158 A 
BRANCH  15  18
ATOM     18  O   UNL     1      10.074   2.046   6.962  1.00  0.00    -0.504 OA
ATOM     19  H   UNL     1      11.010   2.380   7.157  1.00  0.00     0.293 HD
ENDBRANCH  15  18
BRANCH  17  20
ATOM     20  O   UNL     1       7.336   1.841   7.401  1.00  0.00    -0.504 OA
ATOM     21  H   UNL     1       6.998   2.215   8.279  1.00  0.00     0.293 HD
ENDBRANCH  17  20
ENDBRANCH   1  12
BRANCH   6  22
ATOM     22  O   UNL     1       3.293   7.197   0.245  1.00  0.00    -0.507 OA
ATOM     23  H   UNL     1       2.767   7.864  -0.298  1.00  0.00     0.293 HD
ENDBRANCH   6  22
BRANCH   8  24
ATOM     24  O   UNL     1       2.875   9.805   4.236  1.00  0.00    -0.508 OA
ATOM     25  H   UNL     1       2.475  10.583   3.723  1.00  0.00     0.293 HD
ENDBRANCH   8  24
TORSDOF 5
ENDMDL
MODEL 7
REMARK VINA RESULT:    -4.667      8.320     11.580
REMARK INTER + INTRA:          -5.777
REMARK INTER:                  -5.507
REMARK INTRA:                  -0.270
REMARK UNBOUND:                -0.291
REMARK SMILES O=c1cc(-c2ccc(O)c(O)c2)oc2cc(O)cc(O)c12
REMARK SMILES IDX 4 1 3 2 2 3 1 4 21 5 19 6 18 7 16 8 15 9 14 10 13 11 5 12
REMARK SMILES IDX 6 13 7 14 8 15 12 16 10 17 9 18 11 20 20 22 17 24
REMARK H PARENT 9 19 11 21 20 23 17 25
REMARK Flexibility Score: inf
ROOT
ATOM      1  C   UNL     1       6.800   4.676  -5.524  1.00  0.00     0.138 A 
ATOM      2  C   UNL     1       7.269   5.496  -4.488  1.00  0.00     0.100 A 
ATOM      3  C   UNL     1       8.229   5.007  -3.601  1.00  0.00     0.197 A 
ATOM      4  O   UNL     1       8.676   5.787  -2.720  1.00  0.00    -0.289 OA
ATOM      5  C   UNL     1       8.696   3.678  -3.733  1.00  0.00     0.107 A 
ATOM      6  C   UNL     1       9.642   3.059  -2.862  1.00  0.00     0.134 A 
ATOM      7  C   UNL     1      10.119   1.776  -3.161  1.00  0.00     0.093 A 
ATOM      8  C   UNL     1       9.639   1.067  -4.262  1.00  0.00     0.123 A 
ATOM      9  C   UNL     1       8.674   1.642  -5.091  1.00  0.00     0.094 A 
ATOM     10  C   UNL     1       8.205   2.934  -4.839  1.00  0.00     0.146 A 
ATOM     11  O   UNL     1       7.297   3.451  -5.660  1.00  0.00    -0.456 OA
ENDROOT
BRANCH   1  12
ATOM     12  C   UNL     1       5.780   5.146  -6.495  1.00  0.00     0.021 A 
ATOM     13  C   UNL     1       6.120   6.141  -7.428  1.00  0.00     0.016 A 
ATOM     14  C   UNL     1       5.180   6.594  -8.358  1.00  0.00     0.051 A 
ATOM     15  C   UNL     1       3.889   6.054  -8.378  1.00  0.00     0.157 A 
ATOM     16  C   UNL     1       4.484   4.597  -6.529  1.00  0.00     0.062 A 
ATOM     17  C   UNL     1       3.541   5.051  -7.464  1.00  0.00     0.158 A 
BRANCH  15  18
ATOM     18  O   UNL     1       2.949   6.504  -9.302  1.00  0.00    -0.504 OA
ATOM     19  H   UNL     1       2.908   6.127 -10.241  1.00  0.00     0.293 HD
ENDBRANCH  15  18
BRANCH  17  20
ATOM     20  O   UNL     1       2.258   4.507  -7.494  1.00  0.00    -0.504 OA
ATOM     21  H   UNL     1       1.776   4.333  -8.368  1.00  0.00     0.293 HD
ENDBRANCH  17  20
ENDBRANCH   1  12
BRANCH   6  22
ATOM     22  O   UNL     1      10.123   3.645  -1.687  1.00  0.00    -0.507 OA
ATOM     23  H   UNL     1      10.682   3.172  -0.995  1.00  0.00     0.293 HD
ENDBRANCH   6  22
BRANCH   8  24
ATOM     24  O   UNL     1      10.125  -0.212  -4.519  1.00  0.00    -0.508 OA
ATOM     25  H   UNL     1      10.628  -0.740  -3.816  1.00  0.00     0.293 HD
ENDBRANCH   8  24
TORSDOF 5
ENDMDL
MODEL 8
REMARK VINA RESULT:    -4.641      3.034      6.729
REMARK INTER + INTRA:          -5.746
REMARK INTER:                  -5.464
REMARK INTRA:                  -0.282
REMARK UNBOUND:                -0.291
REMARK SMILES O=c1cc(-c2ccc(O)c(O)c2)oc2cc(O)cc(O)c12
REMARK SMILES IDX 4 1 3 2 2 3 1 4 21 5 19 6 18 7 16 8 15 9 14 10 13 11 5 12
REMARK SMILES IDX 6 13 7 14 8 15 12 16 10 17 9 18 11 20 20 22 17 24
REMARK H PARENT 9 19 11 21 20 23 17 25
REMARK Flexibility Score: inf
ROOT
ATOM      1  C   UNL     1       1.901   7.832   5.114  1.00  0.00     0.138 A 
ATOM      2  C   UNL     1       3.288   7.993   4.985  1.00  0.00     0.100 A 
ATOM      3  C   UNL     1       3.919   7.608   3.801  1.00  0.00     0.197 A 
ATOM      4  O   UNL     1       5.155   7.822   3.691  1.00  0.00    -0.289 OA
ATOM      5  C   UNL     1       3.162   7.029   2.755  1.00  0.00     0.107 A 
ATOM      6  C   UNL     1       3.706   6.562   1.522  1.00  0.00     0.134 A 
ATOM      7  C   UNL     1       2.842   6.116   0.513  1.00  0.00     0.093 A 
ATOM      8  C   UNL     1       1.464   6.061   0.715  1.00  0.00     0.123 A 
ATOM      9  C   UNL     1       0.926   6.466   1.938  1.00  0.00     0.094 A 
ATOM     10  C   UNL     1       1.757   6.949   2.951  1.00  0.00     0.146 A 
ATOM     11  O   UNL     1       1.205   7.337   4.096  1.00  0.00    -0.456 OA
ENDROOT
BRANCH   1  12
ATOM     12  C   UNL     1       1.178   8.224   6.351  1.00  0.00     0.021 A 
ATOM     13  C   UNL     1      -0.091   8.821   6.250  1.00  0.00     0.016 A 
ATOM     14  C   UNL     1      -0.794   9.191   7.399  1.00  0.00     0.051 A 
ATOM     15  C   UNL     1      -0.248   8.963   8.667  1.00  0.00     0.157 A 
ATOM     16  C   UNL     1       1.716   7.984   7.630  1.00  0.00     0.062 A 
ATOM     17  C   UNL     1       1.008   8.355   8.783  1.00  0.00     0.158 A 
BRANCH  15  18
ATOM     18  O   UNL     1      -0.946   9.333   9.814  1.00  0.00    -0.504 OA
ATOM     19  H   UNL     1      -1.167  10.301  10.011  1.00  0.00     0.293 HD
ENDBRANCH  15  18
BRANCH  17  20
ATOM     20  O   UNL     1       1.545   8.118  10.047  1.00  0.00    -0.504 OA
ATOM     21  H   UNL     1       1.841   8.877  10.648  1.00  0.00     0.293 HD
ENDBRANCH  17  20
ENDBRANCH   1  12
BRANCH   6  22
ATOM     22  O   UNL     1       5.075   6.493   1.247  1.00  0.00    -0.507 OA
ATOM     23  H   UNL     1       5.473   6.142   0.390  1.00  0.00     0.293 HD
ENDBRANCH   6  22
BRANCH   8  24
ATOM     24  O   UNL     1       0.638   5.597  -0.305  1.00  0.00    -0.508 OA
ATOM     25  H   UNL     1       0.235   4.667  -0.279  1.00  0.00     0.293 HD
ENDBRANCH   8  24
TORSDOF 5
ENDMDL
MODEL 9
REMARK VINA RESULT:    -4.597      2.557      6.593
REMARK INTER + INTRA:          -5.695
REMARK INTER:                  -5.383
REMARK INTRA:                  -0.312
REMARK UNBOUND:                -0.291
REMARK SMILES O=c1cc(-c2ccc(O)c(O)c2)oc2cc(O)cc(O)c12
REMARK SMILES IDX 4 1 3 2 2 3 1 4 21 5 19 6 18 7 16 8 15 9 14 10 13 11 5 12
REMARK SMILES IDX 6 13 7 14 8 15 12 16 10 17 9 18 11 20 20 22 17 24
REMARK H PARENT 9 19 11 21 20 23 17 25
REMARK Flexibility Score: inf
ROOT
ATOM      1  C   UNL     1       1.360   7.856   4.608  1.00  0.00     0.138 A 
ATOM      2  C   UNL     1       0.484   7.761   3.518  1.00  0.00     0.100 A 
ATOM      3  C   UNL     1       0.975   7.377   2.270  1.00  0.00     0.197 A 
ATOM      4  O   UNL     1       0.153   7.240   1.325  1.00  0.00    -0.289 OA
ATOM      5  C   UNL     1       2.356   7.118   2.106  1.00  0.00     0.107 A 
ATOM      6  C   UNL     1       2.974   6.759   0.871  1.00  0.00     0.134 A 
ATOM      7  C   UNL     1       4.331   6.412   0.854  1.00  0.00     0.093 A 
ATOM      8  C   UNL     1       5.105   6.470   2.012  1.00  0.00     0.123 A 
ATOM      9  C   UNL     1       4.522   6.871   3.216  1.00  0.00     0.094 A 
ATOM     10  C   UNL     1       3.163   7.190   3.272  1.00  0.00     0.146 A 
ATOM     11  O   UNL     1       2.644   7.554   4.440  1.00  0.00    -0.456 OA
ENDROOT
BRANCH   1  12
ATOM     12  C   UNL     1       0.892   8.261   5.958  1.00  0.00     0.021 A 
ATOM     13  C   UNL     1      -0.325   8.950   6.091  1.00  0.00     0.016 A 
ATOM     14  C   UNL     1      -0.791   9.334   7.351  1.00  0.00     0.051 A 
ATOM     15  C   UNL     1      -0.053   9.028   8.500  1.00  0.00     0.157 A 
ATOM     16  C   UNL     1       1.623   7.944   7.120  1.00  0.00     0.062 A 
ATOM     17  C   UNL     1       1.154   8.328   8.385  1.00  0.00     0.158 A 
BRANCH  15  18
ATOM     18  O   UNL     1      -0.513   9.411   9.758  1.00  0.00    -0.504 OA
ATOM     19  H   UNL     1       0.052   9.977  10.378  1.00  0.00     0.293 HD
ENDBRANCH  15  18
BRANCH  17  20
ATOM     20  O   UNL     1       1.881   8.014   9.532  1.00  0.00    -0.504 OA
ATOM     21  H   UNL     1       1.515   7.385  10.236  1.00  0.00     0.293 HD
ENDBRANCH  17  20
ENDBRANCH   1  12
BRANCH   6  22
ATOM     22  O   UNL     1       2.313   6.752  -0.361  1.00  0.00    -0.507 OA
ATOM     23  H   UNL     1       1.670   7.463  -0.674  1.00  0.00     0.293 HD
ENDBRANCH   6  22
BRANCH   8  24
ATOM     24  O   UNL     1       6.455   6.133   1.955  1.00  0.00    -0.508 OA
ATOM     25  H   UNL     1       7.180   6.841   1.972  1.00  0.00     0.293 HD
ENDBRANCH   8  24
TORSDOF 5
ENDMDL
