MODEL 1
REMARK VINA RESULT:    -7.871      0.000      0.000
REMARK INTER + INTRA:          -9.575
REMARK INTER:                  -9.251
REMARK INTRA:                  -0.324
REMARK UNBOUND:                -0.324
REMARK SMILES O=c1c(O)c(-c2ccc(O)c(O)c2)oc2cc(O)ccc12
REMARK SMILES IDX 5 1 3 2 2 3 1 4 21 5 15 6 14 7 16 8 17 9 19 10 20 11 6 12
REMARK SMILES IDX 7 13 8 14 9 15 13 16 11 17 10 18 12 20 4 22 18 24
REMARK H PARENT 10 19 12 21 4 23 18 25
REMARK Flexibility Score: inf
ROOT
ATOM      1  C   UNL     1      13.337 -78.575  31.063  1.00  0.00     0.180 A 
ATOM      2  C   UNL     1      12.322 -77.597  31.015  1.00  0.00     0.208 A 
ATOM      3  C   UNL     1      12.135 -76.760  32.126  1.00  0.00     0.235 A 
ATOM      4  O   UNL     1      11.226 -75.885  32.111  1.00  0.00    -0.285 OA
ATOM      5  C   UNL     1      12.972 -76.900  33.244  1.00  0.00     0.069 A 
ATOM      6  C   UNL     1      13.981 -77.887  33.204  1.00  0.00     0.142 A 
ATOM      7  O   UNL     1      14.119 -78.665  32.137  1.00  0.00    -0.452 OA
ATOM      8  C   UNL     1      14.843 -78.050  34.295  1.00  0.00     0.094 A 
ATOM      9  C   UNL     1      14.707 -77.239  35.430  1.00  0.00     0.119 A 
ATOM     10  C   UNL     1      13.706 -76.262  35.472  1.00  0.00     0.047 A 
ATOM     11  C   UNL     1      12.842 -76.089  34.387  1.00  0.00     0.020 A 
ENDROOT
BRANCH   1  12
ATOM     12  C   UNL     1      13.584 -79.508  29.940  1.00  0.00     0.025 A 
ATOM     13  C   UNL     1      12.920 -80.744  29.856  1.00  0.00     0.016 A 
ATOM     14  C   UNL     1      13.188 -81.618  28.800  1.00  0.00     0.051 A 
ATOM     15  C   UNL     1      14.131 -81.279  27.821  1.00  0.00     0.157 A 
ATOM     16  C   UNL     1      14.544 -79.180  28.969  1.00  0.00     0.062 A 
ATOM     17  C   UNL     1      14.813 -80.054  27.909  1.00  0.00     0.158 A 
BRANCH  15  18
ATOM     18  O   UNL     1      14.394 -82.153  26.768  1.00  0.00    -0.504 OA
ATOM     19  H   UNL     1      13.931 -83.051  26.695  1.00  0.00     0.293 HD
ENDBRANCH  15  18
BRANCH  17  20
ATOM     20  O   UNL     1      15.763 -79.689  26.954  1.00  0.00    -0.504 OA
ATOM     21  H   UNL     1      16.622 -80.209  26.824  1.00  0.00     0.293 HD
ENDBRANCH  17  20
ENDBRANCH   1  12
BRANCH   2  22
ATOM     22  O   UNL     1      11.535 -77.449  29.869  1.00  0.00    -0.502 OA
ATOM     23  H   UNL     1      10.596 -77.071  29.902  1.00  0.00     0.293 HD
ENDBRANCH   2  22
BRANCH   9  24
ATOM     24  O   UNL     1      15.559 -77.395  36.520  1.00  0.00    -0.508 OA
ATOM     25  H   UNL     1      16.043 -78.269  36.693  1.00  0.00     0.293 HD
ENDBRANCH   9  24
TORSDOF 5
ENDMDL
MODEL 2
REMARK VINA RESULT:    -6.574      1.833      2.361
REMARK INTER + INTRA:          -8.051
REMARK INTER:                  -7.856
REMARK INTRA:                  -0.195
REMARK UNBOUND:                -0.324
REMARK SMILES O=c1c(O)c(-c2ccc(O)c(O)c2)oc2cc(O)ccc12
REMARK SMILES IDX 5 1 3 2 2 3 1 4 21 5 15 6 14 7 16 8 17 9 19 10 20 11 6 12
REMARK SMILES IDX 7 13 8 14 9 15 13 16 11 17 10 18 12 20 4 22 18 24
REMARK H PARENT 10 19 12 21 4 23 18 25
REMARK Flexibility Score: inf
ROOT
ATOM      1  C   UNL     1      13.931 -79.268  31.444  1.00  0.00     0.180 A 
ATOM      2  C   UNL     1      14.178 -77.886  31.319  1.00  0.00     0.208 A 
ATOM      3  C   UNL     1      14.348 -77.120  32.482  1.00  0.00     0.235 A 
ATOM      4  O   UNL     1      14.560 -75.879  32.396  1.00  0.00    -0.285 OA
ATOM      5  C   UNL     1      14.286 -77.748  33.737  1.00  0.00     0.069 A 
ATOM      6  C   UNL     1      14.058 -79.140  33.777  1.00  0.00     0.142 A 
ATOM      7  O   UNL     1      13.895 -79.828  32.652  1.00  0.00    -0.452 OA
ATOM      8  C   UNL     1      14.002 -79.804  35.007  1.00  0.00     0.094 A 
ATOM      9  C   UNL     1      14.168 -79.092  36.203  1.00  0.00     0.119 A 
ATOM     10  C   UNL     1      14.393 -77.711  36.165  1.00  0.00     0.047 A 
ATOM     11  C   UNL     1      14.453 -77.039  34.941  1.00  0.00     0.020 A 
ENDROOT
BRANCH   1  12
ATOM     12  C   UNL     1      13.723 -80.140  30.266  1.00  0.00     0.025 A 
ATOM     13  C   UNL     1      14.770 -80.419  29.369  1.00  0.00     0.016 A 
ATOM     14  C   UNL     1      14.545 -81.225  28.250  1.00  0.00     0.051 A 
ATOM     15  C   UNL     1      13.271 -81.753  28.003  1.00  0.00     0.157 A 
ATOM     16  C   UNL     1      12.443 -80.654  30.002  1.00  0.00     0.062 A 
ATOM     17  C   UNL     1      12.215 -81.463  28.883  1.00  0.00     0.158 A 
BRANCH  15  18
ATOM     18  O   UNL     1      13.051 -82.558  26.887  1.00  0.00    -0.504 OA
ATOM     19  H   UNL     1      12.842 -82.162  25.979  1.00  0.00     0.293 HD
ENDBRANCH  15  18
BRANCH  17  20
ATOM     20  O   UNL     1      10.933 -81.967  28.662  1.00  0.00    -0.504 OA
ATOM     21  H   UNL     1      10.459 -81.858  27.774  1.00  0.00     0.293 HD
ENDBRANCH  17  20
ENDBRANCH   1  12
BRANCH   2  22
ATOM     22  O   UNL     1      14.282 -77.297  30.055  1.00  0.00    -0.502 OA
ATOM     23  H   UNL     1      14.817 -77.716  29.305  1.00  0.00     0.293 HD
ENDBRANCH   2  22
BRANCH   9  24
ATOM     24  O   UNL     1      14.113 -79.744  37.432  1.00  0.00    -0.508 OA
ATOM     25  H   UNL     1      14.616 -79.394  38.240  1.00  0.00     0.293 HD
ENDBRANCH   9  24
TORSDOF 5
ENDMDL
MODEL 3
REMARK VINA RESULT:    -6.523      2.886      7.931
REMARK INTER + INTRA:          -7.992
REMARK INTER:                  -7.910
REMARK INTRA:                  -0.081
REMARK UNBOUND:                -0.324
REMARK SMILES O=c1c(O)c(-c2ccc(O)c(O)c2)oc2cc(O)ccc12
REMARK SMILES IDX 5 1 3 2 2 3 1 4 21 5 15 6 14 7 16 8 17 9 19 10 20 11 6 12
REMARK SMILES IDX 7 13 8 14 9 15 13 16 11 17 10 18 12 20 4 22 18 24
REMARK H PARENT 10 19 12 21 4 23 18 25
REMARK Flexibility Score: inf
ROOT
ATOM      1  C   UNL     1      12.914 -81.608  28.294  1.00  0.00     0.180 A 
ATOM      2  C   UNL     1      11.579 -82.009  28.078  1.00  0.00     0.208 A 
ATOM      3  C   UNL     1      11.321 -83.027  27.146  1.00  0.00     0.235 A 
ATOM      4  O   UNL     1      10.134 -83.396  26.928  1.00  0.00    -0.285 OA
ATOM      5  C   UNL     1      12.392 -83.632  26.470  1.00  0.00     0.069 A 
ATOM      6  C   UNL     1      13.701 -83.190  26.760  1.00  0.00     0.142 A 
ATOM      7  O   UNL     1      13.903 -82.218  27.642  1.00  0.00    -0.452 OA
ATOM      8  C   UNL     1      14.796 -83.775  26.114  1.00  0.00     0.094 A 
ATOM      9  C   UNL     1      14.599 -84.799  25.177  1.00  0.00     0.119 A 
ATOM     10  C   UNL     1      13.302 -85.238  24.888  1.00  0.00     0.047 A 
ATOM     11  C   UNL     1      12.202 -84.660  25.528  1.00  0.00     0.020 A 
ENDROOT
BRANCH   1  12
ATOM     12  C   UNL     1      13.267 -80.530  29.246  1.00  0.00     0.025 A 
ATOM     13  C   UNL     1      12.903 -80.604  30.602  1.00  0.00     0.016 A 
ATOM     14  C   UNL     1      13.226 -79.564  31.476  1.00  0.00     0.051 A 
ATOM     15  C   UNL     1      13.903 -78.430  31.009  1.00  0.00     0.157 A 
ATOM     16  C   UNL     1      13.926 -79.383  28.777  1.00  0.00     0.062 A 
ATOM     17  C   UNL     1      14.252 -78.339  29.651  1.00  0.00     0.158 A 
BRANCH  15  18
ATOM     18  O   UNL     1      14.225 -77.395  31.885  1.00  0.00    -0.504 OA
ATOM     19  H   UNL     1      15.004 -77.468  32.529  1.00  0.00     0.293 HD
ENDBRANCH  15  18
BRANCH  17  20
ATOM     20  O   UNL     1      14.920 -77.221  29.152  1.00  0.00    -0.504 OA
ATOM     21  H   UNL     1      14.810 -76.912  28.194  1.00  0.00     0.293 HD
ENDBRANCH  17  20
ENDBRANCH   1  12
BRANCH   2  22
ATOM     22  O   UNL     1      10.538 -81.422  28.802  1.00  0.00    -0.502 OA
ATOM     23  H   UNL     1       9.802 -81.969  29.233  1.00  0.00     0.293 HD
ENDBRANCH   2  22
BRANCH   9  24
ATOM     24  O   UNL     1      15.682 -85.387  24.529  1.00  0.00    -0.508 OA
ATOM     25  H   UNL     1      16.225 -86.123  24.968  1.00  0.00     0.293 HD
ENDBRANCH   9  24
TORSDOF 5
ENDMDL
MODEL 4
REMARK VINA RESULT:    -6.093      2.415      7.366
REMARK INTER + INTRA:          -7.486
REMARK INTER:                  -7.169
REMARK INTRA:                  -0.317
REMARK UNBOUND:                -0.324
REMARK SMILES O=c1c(O)c(-c2ccc(O)c(O)c2)oc2cc(O)ccc12
REMARK SMILES IDX 5 1 3 2 2 3 1 4 21 5 15 6 14 7 16 8 17 9 19 10 20 11 6 12
REMARK SMILES IDX 7 13 8 14 9 15 13 16 11 17 10 18 12 20 4 22 18 24
REMARK H PARENT 10 19 12 21 4 23 18 25
REMARK Flexibility Score: inf
ROOT
ATOM      1  C   UNL     1      13.244 -80.268  29.790  1.00  0.00     0.180 A 
ATOM      2  C   UNL     1      14.277 -80.806  28.996  1.00  0.00     0.208 A 
ATOM      3  C   UNL     1      13.948 -81.727  27.989  1.00  0.00     0.235 A 
ATOM      4  O   UNL     1      14.856 -82.230  27.272  1.00  0.00    -0.285 OA
ATOM      5  C   UNL     1      12.603 -82.075  27.785  1.00  0.00     0.069 A 
ATOM      6  C   UNL     1      11.625 -81.474  28.607  1.00  0.00     0.142 A 
ATOM      7  O   UNL     1      11.979 -80.613  29.554  1.00  0.00    -0.452 OA
ATOM      8  C   UNL     1      10.273 -81.786  28.427  1.00  0.00     0.094 A 
ATOM      9  C   UNL     1       9.884 -82.697  27.435  1.00  0.00     0.119 A 
ATOM     10  C   UNL     1      10.853 -83.294  26.620  1.00  0.00     0.047 A 
ATOM     11  C   UNL     1      12.206 -82.988  26.791  1.00  0.00     0.020 A 
ENDROOT
BRANCH   1  12
ATOM     12  C   UNL     1      13.511 -79.305  30.882  1.00  0.00     0.025 A 
ATOM     13  C   UNL     1      13.517 -77.918  30.650  1.00  0.00     0.016 A 
ATOM     14  C   UNL     1      13.796 -77.029  31.691  1.00  0.00     0.051 A 
ATOM     15  C   UNL     1      14.087 -77.510  32.974  1.00  0.00     0.157 A 
ATOM     16  C   UNL     1      13.825 -79.783  32.165  1.00  0.00     0.062 A 
ATOM     17  C   UNL     1      14.103 -78.895  33.210  1.00  0.00     0.158 A 
BRANCH  15  18
ATOM     18  O   UNL     1      14.362 -76.620  34.010  1.00  0.00    -0.504 OA
ATOM     19  H   UNL     1      14.807 -76.926  34.867  1.00  0.00     0.293 HD
ENDBRANCH  15  18
BRANCH  17  20
ATOM     20  O   UNL     1      14.396 -79.407  34.474  1.00  0.00    -0.504 OA
ATOM     21  H   UNL     1      15.343 -79.456  34.829  1.00  0.00     0.293 HD
ENDBRANCH  17  20
ENDBRANCH   1  12
BRANCH   2  22
ATOM     22  O   UNL     1      15.602 -80.404  29.190  1.00  0.00    -0.502 OA
ATOM     23  H   UNL     1      15.933 -80.043  30.076  1.00  0.00     0.293 HD
ENDBRANCH   2  22
BRANCH   9  24
ATOM     24  O   UNL     1       8.541 -83.015  27.249  1.00  0.00    -0.508 OA
ATOM     25  H   UNL     1       7.918 -83.159  28.035  1.00  0.00     0.293 HD
ENDBRANCH   9  24
TORSDOF 5
ENDMDL
MODEL 5
REMARK VINA RESULT:    -5.751      2.059      7.405
REMARK INTER + INTRA:          -7.084
REMARK INTER:                  -6.977
REMARK INTRA:                  -0.107
REMARK UNBOUND:                -0.324
REMARK SMILES O=c1c(O)c(-c2ccc(O)c(O)c2)oc2cc(O)ccc12
REMARK SMILES IDX 5 1 3 2 2 3 1 4 21 5 15 6 14 7 16 8 17 9 19 10 20 11 6 12
REMARK SMILES IDX 7 13 8 14 9 15 13 16 11 17 10 18 12 20 4 22 18 24
REMARK H PARENT 10 19 12 21 4 23 18 25
REMARK Flexibility Score: inf
ROOT
ATOM      1  C   UNL     1      13.959 -80.060  29.264  1.00  0.00     0.180 A 
ATOM      2  C   UNL     1      14.813 -79.584  28.248  1.00  0.00     0.208 A 
ATOM      3  C   UNL     1      15.025 -80.383  27.114  1.00  0.00     0.235 A 
ATOM      4  O   UNL     1      15.794 -79.984  26.196  1.00  0.00    -0.285 OA
ATOM      5  C   UNL     1      14.371 -81.621  27.009  1.00  0.00     0.069 A 
ATOM      6  C   UNL     1      13.513 -82.015  28.058  1.00  0.00     0.142 A 
ATOM      7  O   UNL     1      13.345 -81.233  29.119  1.00  0.00    -0.452 OA
ATOM      8  C   UNL     1      12.834 -83.236  27.985  1.00  0.00     0.094 A 
ATOM      9  C   UNL     1      13.005 -84.073  26.874  1.00  0.00     0.119 A 
ATOM     10  C   UNL     1      13.856 -83.685  25.833  1.00  0.00     0.047 A 
ATOM     11  C   UNL     1      14.537 -82.466  25.896  1.00  0.00     0.020 A 
ENDROOT
BRANCH   1  12
ATOM     12  C   UNL     1      13.697 -79.285  30.499  1.00  0.00     0.025 A 
ATOM     13  C   UNL     1      13.125 -78.001  30.449  1.00  0.00     0.016 A 
ATOM     14  C   UNL     1      12.910 -77.280  31.626  1.00  0.00     0.051 A 
ATOM     15  C   UNL     1      13.275 -77.820  32.866  1.00  0.00     0.157 A 
ATOM     16  C   UNL     1      14.081 -79.814  31.741  1.00  0.00     0.062 A 
ATOM     17  C   UNL     1      13.866 -79.094  32.922  1.00  0.00     0.158 A 
BRANCH  15  18
ATOM     18  O   UNL     1      13.057 -77.098  34.037  1.00  0.00    -0.504 OA
ATOM     19  H   UNL     1      12.868 -76.103  34.020  1.00  0.00     0.293 HD
ENDBRANCH  15  18
BRANCH  17  20
ATOM     20  O   UNL     1      14.247 -79.658  34.139  1.00  0.00    -0.504 OA
ATOM     21  H   UNL     1      14.001 -79.238  35.027  1.00  0.00     0.293 HD
ENDBRANCH  17  20
ENDBRANCH   1  12
BRANCH   2  22
ATOM     22  O   UNL     1      15.412 -78.327  28.359  1.00  0.00    -0.502 OA
ATOM     23  H   UNL     1      14.922 -77.523  28.732  1.00  0.00     0.293 HD
ENDBRANCH   2  22
BRANCH   9  24
ATOM     24  O   UNL     1      12.334 -85.291  26.793  1.00  0.00    -0.508 OA
ATOM     25  H   UNL     1      12.793 -86.165  27.026  1.00  0.00     0.293 HD
ENDBRANCH   9  24
TORSDOF 5
ENDMDL
MODEL 6
REMARK VINA RESULT:    -5.440      3.001      5.258
REMARK INTER + INTRA:          -6.718
REMARK INTER:                  -6.425
REMARK INTRA:                  -0.293
REMARK UNBOUND:                -0.324
REMARK SMILES O=c1c(O)c(-c2ccc(O)c(O)c2)oc2cc(O)ccc12
REMARK SMILES IDX 5 1 3 2 2 3 1 4 21 5 15 6 14 7 16 8 17 9 19 10 20 11 6 12
REMARK SMILES IDX 7 13 8 14 9 15 13 16 11 17 10 18 12 20 4 22 18 24
REMARK H PARENT 10 19 12 21 4 23 18 25
REMARK Flexibility Score: inf
ROOT
ATOM      1  C   UNL     1      13.261 -82.097  27.704  1.00  0.00     0.180 A 
ATOM      2  C   UNL     1      11.897 -82.119  28.061  1.00  0.00     0.208 A 
ATOM      3  C   UNL     1      11.419 -81.159  28.966  1.00  0.00     0.235 A 
ATOM      4  O   UNL     1      10.205 -81.164  29.309  1.00  0.00    -0.285 OA
ATOM      5  C   UNL     1      12.301 -80.193  29.477  1.00  0.00     0.069 A 
ATOM      6  C   UNL     1      13.646 -80.224  29.052  1.00  0.00     0.142 A 
ATOM      7  O   UNL     1      14.061 -81.155  28.199  1.00  0.00    -0.452 OA
ATOM      8  C   UNL     1      14.553 -79.271  29.530  1.00  0.00     0.094 A 
ATOM      9  C   UNL     1      14.132 -78.286  30.433  1.00  0.00     0.119 A 
ATOM     10  C   UNL     1      12.798 -78.254  30.856  1.00  0.00     0.047 A 
ATOM     11  C   UNL     1      11.884 -79.200  30.383  1.00  0.00     0.020 A 
ENDROOT
BRANCH   1  12
ATOM     12  C   UNL     1      13.846 -83.087  26.769  1.00  0.00     0.025 A 
ATOM     13  C   UNL     1      13.710 -82.946  25.377  1.00  0.00     0.016 A 
ATOM     14  C   UNL     1      14.249 -83.905  24.516  1.00  0.00     0.051 A 
ATOM     15  C   UNL     1      14.918 -85.023  25.030  1.00  0.00     0.157 A 
ATOM     16  C   UNL     1      14.498 -84.220  27.281  1.00  0.00     0.062 A 
ATOM     17  C   UNL     1      15.040 -85.181  26.421  1.00  0.00     0.158 A 
BRANCH  15  18
ATOM     18  O   UNL     1      15.456 -85.976  24.168  1.00  0.00    -0.504 OA
ATOM     19  H   UNL     1      14.907 -86.758  23.832  1.00  0.00     0.293 HD
ENDBRANCH  15  18
BRANCH  17  20
ATOM     20  O   UNL     1      15.694 -86.287  26.966  1.00  0.00    -0.504 OA
ATOM     21  H   UNL     1      16.637 -86.228  27.330  1.00  0.00     0.293 HD
ENDBRANCH  17  20
ENDBRANCH   1  12
BRANCH   2  22
ATOM     22  O   UNL     1      11.033 -83.063  27.499  1.00  0.00    -0.502 OA
ATOM     23  H   UNL     1      10.345 -83.562  28.049  1.00  0.00     0.293 HD
ENDBRANCH   2  22
BRANCH   9  24
ATOM     24  O   UNL     1      15.027 -77.334  30.914  1.00  0.00    -0.508 OA
ATOM     25  H   UNL     1      15.648 -76.829  30.292  1.00  0.00     0.293 HD
ENDBRANCH   9  24
TORSDOF 5
ENDMDL
MODEL 7
REMARK VINA RESULT:    -5.195      1.681      3.315
REMARK INTER + INTRA:          -6.430
REMARK INTER:                  -6.257
REMARK INTRA:                  -0.173
REMARK UNBOUND:                -0.324
REMARK SMILES O=c1c(O)c(-c2ccc(O)c(O)c2)oc2cc(O)ccc12
REMARK SMILES IDX 5 1 3 2 2 3 1 4 21 5 15 6 14 7 16 8 17 9 19 10 20 11 6 12
REMARK SMILES IDX 7 13 8 14 9 15 13 16 11 17 10 18 12 20 4 22 18 24
REMARK H PARENT 10 19 12 21 4 23 18 25
REMARK Flexibility Score: inf
ROOT
ATOM      1  C   UNL     1      13.119 -78.304  30.517  1.00  0.00     0.180 A 
ATOM      2  C   UNL     1      14.043 -77.816  31.464  1.00  0.00     0.208 A 
ATOM      3  C   UNL     1      13.635 -76.806  32.349  1.00  0.00     0.235 A 
ATOM      4  O   UNL     1      14.447 -76.345  33.198  1.00  0.00    -0.285 OA
ATOM      5  C   UNL     1      12.318 -76.323  32.286  1.00  0.00     0.069 A 
ATOM      6  C   UNL     1      11.447 -76.881  31.326  1.00  0.00     0.142 A 
ATOM      7  O   UNL     1      11.875 -77.830  30.500  1.00  0.00    -0.452 OA
ATOM      8  C   UNL     1      10.124 -76.434  31.239  1.00  0.00     0.094 A 
ATOM      9  C   UNL     1       9.660 -75.430  32.100  1.00  0.00     0.119 A 
ATOM     10  C   UNL     1      10.523 -74.875  33.052  1.00  0.00     0.047 A 
ATOM     11  C   UNL     1      11.845 -75.316  33.148  1.00  0.00     0.020 A 
ENDROOT
BRANCH   1  12
ATOM     12  C   UNL     1      13.478 -79.355  29.537  1.00  0.00     0.025 A 
ATOM     13  C   UNL     1      12.917 -80.643  29.608  1.00  0.00     0.016 A 
ATOM     14  C   UNL     1      13.289 -81.625  28.687  1.00  0.00     0.051 A 
ATOM     15  C   UNL     1      14.234 -81.343  27.693  1.00  0.00     0.157 A 
ATOM     16  C   UNL     1      14.441 -79.083  28.553  1.00  0.00     0.062 A 
ATOM     17  C   UNL     1      14.814 -80.065  27.629  1.00  0.00     0.158 A 
BRANCH  15  18
ATOM     18  O   UNL     1      14.601 -82.325  26.775  1.00  0.00    -0.504 OA
ATOM     19  H   UNL     1      15.095 -82.096  25.921  1.00  0.00     0.293 HD
ENDBRANCH  15  18
BRANCH  17  20
ATOM     20  O   UNL     1      15.764 -79.753  26.655  1.00  0.00    -0.504 OA
ATOM     21  H   UNL     1      15.520 -79.266  25.802  1.00  0.00     0.293 HD
ENDBRANCH  17  20
ENDBRANCH   1  12
BRANCH   2  22
ATOM     22  O   UNL     1      15.333 -78.350  31.535  1.00  0.00    -0.502 OA
ATOM     23  H   UNL     1      16.093 -77.869  32.000  1.00  0.00     0.293 HD
ENDBRANCH   2  22
BRANCH   9  24
ATOM     24  O   UNL     1       8.345 -74.978  32.020  1.00  0.00    -0.508 OA
ATOM     25  H   UNL     1       7.562 -75.585  32.240  1.00  0.00     0.293 HD
ENDBRANCH   9  24
TORSDOF 5
ENDMDL
MODEL 8
REMARK VINA RESULT:    -5.021      1.928      7.099
REMARK INTER + INTRA:          -6.226
REMARK INTER:                  -6.063
REMARK INTRA:                  -0.163
REMARK UNBOUND:                -0.324
REMARK SMILES O=c1c(O)c(-c2ccc(O)c(O)c2)oc2cc(O)ccc12
REMARK SMILES IDX 5 1 3 2 2 3 1 4 21 5 15 6 14 7 16 8 17 9 19 10 20 11 6 12
REMARK SMILES IDX 7 13 8 14 9 15 13 16 11 17 10 18 12 20 4 22 18 24
REMARK H PARENT 10 19 12 21 4 23 18 25
REMARK Flexibility Score: inf
ROOT
ATOM      1  C   UNL     1      13.579 -76.826  34.201  1.00  0.00     0.180 A 
ATOM      2  C   UNL     1      12.502 -75.994  33.831  1.00  0.00     0.208 A 
ATOM      3  C   UNL     1      11.885 -76.200  32.587  1.00  0.00     0.235 A 
ATOM      4  O   UNL     1      10.927 -75.461  32.228  1.00  0.00    -0.285 OA
ATOM      5  C   UNL     1      12.337 -77.236  31.755  1.00  0.00     0.069 A 
ATOM      6  C   UNL     1      13.405 -78.040  32.209  1.00  0.00     0.142 A 
ATOM      7  O   UNL     1      13.968 -77.807  33.389  1.00  0.00    -0.452 OA
ATOM      8  C   UNL     1      13.877 -79.090  31.413  1.00  0.00     0.094 A 
ATOM      9  C   UNL     1      13.296 -79.345  30.163  1.00  0.00     0.119 A 
ATOM     10  C   UNL     1      12.238 -78.548  29.711  1.00  0.00     0.047 A 
ATOM     11  C   UNL     1      11.758 -77.498  30.499  1.00  0.00     0.020 A 
ENDROOT
BRANCH   1  12
ATOM     12  C   UNL     1      14.294 -76.661  35.487  1.00  0.00     0.025 A 
ATOM     13  C   UNL     1      14.999 -75.482  35.786  1.00  0.00     0.016 A 
ATOM     14  C   UNL     1      15.686 -75.359  36.997  1.00  0.00     0.051 A 
ATOM     15  C   UNL     1      15.692 -76.414  37.918  1.00  0.00     0.157 A 
ATOM     16  C   UNL     1      14.320 -77.724  36.404  1.00  0.00     0.062 A 
ATOM     17  C   UNL     1      15.006 -77.603  37.618  1.00  0.00     0.158 A 
BRANCH  15  18
ATOM     18  O   UNL     1      16.377 -76.287  39.125  1.00  0.00    -0.504 OA
ATOM     19  H   UNL     1      16.867 -75.435  39.370  1.00  0.00     0.293 HD
ENDBRANCH  15  18
BRANCH  17  20
ATOM     20  O   UNL     1      14.998 -78.675  38.511  1.00  0.00    -0.504 OA
ATOM     21  H   UNL     1      14.170 -78.933  39.034  1.00  0.00     0.293 HD
ENDBRANCH  17  20
ENDBRANCH   1  12
BRANCH   2  22
ATOM     22  O   UNL     1      12.042 -75.001  34.701  1.00  0.00    -0.502 OA
ATOM     23  H   UNL     1      12.549 -74.737  35.537  1.00  0.00     0.293 HD
ENDBRANCH   2  22
BRANCH   9  24
ATOM     24  O   UNL     1      13.759 -80.387  29.364  1.00  0.00    -0.508 OA
ATOM     25  H   UNL     1      14.631 -80.863  29.567  1.00  0.00     0.293 HD
ENDBRANCH   9  24
TORSDOF 5
ENDMDL
MODEL 9
REMARK VINA RESULT:    -4.989      2.028      7.260
REMARK INTER + INTRA:          -6.188
REMARK INTER:                  -6.325
REMARK INTRA:                   0.137
REMARK UNBOUND:                -0.324
REMARK SMILES O=c1c(O)c(-c2ccc(O)c(O)c2)oc2cc(O)ccc12
REMARK SMILES IDX 5 1 3 2 2 3 1 4 21 5 15 6 14 7 16 8 17 9 19 10 20 11 6 12
REMARK SMILES IDX 7 13 8 14 9 15 13 16 11 17 10 18 12 20 4 22 18 24
REMARK H PARENT 10 19 12 21 4 23 18 25
REMARK Flexibility Score: inf
ROOT
ATOM      1  C   UNL     1      13.005 -79.494  29.956  1.00  0.00     0.180 A 
ATOM      2  C   UNL     1      14.243 -79.929  29.439  1.00  0.00     0.208 A 
ATOM      3  C   UNL     1      14.262 -81.014  28.550  1.00  0.00     0.235 A 
ATOM      4  O   UNL     1      15.358 -81.429  28.083  1.00  0.00    -0.285 OA
ATOM      5  C   UNL     1      13.052 -81.626  28.182  1.00  0.00     0.069 A 
ATOM      6  C   UNL     1      11.853 -81.115  28.724  1.00  0.00     0.142 A 
ATOM      7  O   UNL     1      11.879 -80.091  29.569  1.00  0.00    -0.452 OA
ATOM      8  C   UNL     1      10.627 -81.690  28.372  1.00  0.00     0.094 A 
ATOM      9  C   UNL     1      10.583 -82.774  27.485  1.00  0.00     0.119 A 
ATOM     10  C   UNL     1      11.771 -83.282  26.948  1.00  0.00     0.047 A 
ATOM     11  C   UNL     1      13.001 -82.714  27.291  1.00  0.00     0.020 A 
ENDROOT
BRANCH   1  12
ATOM     12  C   UNL     1      12.904 -78.367  30.912  1.00  0.00     0.025 A 
ATOM     13  C   UNL     1      13.858 -78.183  31.928  1.00  0.00     0.016 A 
ATOM     14  C   UNL     1      13.727 -77.127  32.834  1.00  0.00     0.051 A 
ATOM     15  C   UNL     1      12.639 -76.250  32.748  1.00  0.00     0.157 A 
ATOM     16  C   UNL     1      11.802 -77.499  30.842  1.00  0.00     0.062 A 
ATOM     17  C   UNL     1      11.670 -76.440  31.747  1.00  0.00     0.158 A 
BRANCH  15  18
ATOM     18  O   UNL     1      12.514 -75.197  33.651  1.00  0.00    -0.504 OA
ATOM     19  H   UNL     1      12.460 -75.358  34.650  1.00  0.00     0.293 HD
ENDBRANCH  15  18
BRANCH  17  20
ATOM     20  O   UNL     1      10.570 -75.589  31.639  1.00  0.00    -0.504 OA
ATOM     21  H   UNL     1      10.248 -75.024  32.415  1.00  0.00     0.293 HD
ENDBRANCH  17  20
ENDBRANCH   1  12
BRANCH   2  22
ATOM     22  O   UNL     1      15.426 -79.270  29.787  1.00  0.00    -0.502 OA
ATOM     23  H   UNL     1      16.340 -79.665  29.603  1.00  0.00     0.293 HD
ENDBRANCH   2  22
BRANCH   9  24
ATOM     24  O   UNL     1       9.367 -83.353  27.130  1.00  0.00    -0.508 OA
ATOM     25  H   UNL     1       8.599 -82.795  26.774  1.00  0.00     0.293 HD
ENDBRANCH   9  24
TORSDOF 5
ENDMDL
