MODEL 1
REMARK VINA RESULT:    -2.858      0.000      0.000
REMARK INTER + INTRA:          -3.230
REMARK INTER:                  -3.192
REMARK INTRA:                  -0.038
REMARK UNBOUND:                -0.038
REMARK SMILES CCCC(=O)[O-]
REMARK SMILES IDX 3 1 4 2 5 3 6 4 2 5 1 6
REMARK H PARENT
REMARK Flexibility Score: inf
ROOT
ATOM      1  C   UNL     1     -19.357   4.946 -19.453  1.00  0.00     0.052 C 
ENDROOT
BRANCH   1   2
ATOM      2  C   UNL     1     -18.242   3.959 -19.283  1.00  0.00     0.041 C 
ATOM      3  O   UNL     1     -18.078   3.038 -20.125  1.00  0.00    -0.550 OA
ATOM      4  O   UNL     1     -17.406   4.039 -18.178  1.00  0.00    -0.550 OA
ENDBRANCH   1   2
BRANCH   1   5
ATOM      5  C   UNL     1     -20.730   4.265 -19.392  1.00  0.00     0.003 C 
ATOM      6  C   UNL     1     -20.874   3.355 -18.172  1.00  0.00     0.004 C 
ENDBRANCH   1   5
TORSDOF 2
ENDMDL
MODEL 2
REMARK VINA RESULT:    -2.685      2.284      3.297
REMARK INTER + INTRA:          -3.037
REMARK INTER:                  -3.029
REMARK INTRA:                  -0.008
REMARK UNBOUND:                -0.038
REMARK SMILES CCCC(=O)[O-]
REMARK SMILES IDX 3 1 4 2 5 3 6 4 2 5 1 6
REMARK H PARENT
REMARK Flexibility Score: inf
ROOT
ATOM      1  C   UNL     1     -19.057   3.123 -18.633  1.00  0.00     0.052 C 
ENDROOT
BRANCH   1   2
ATOM      2  C   UNL     1     -20.481   3.590 -18.636  1.00  0.00     0.041 C 
ATOM      3  O   UNL     1     -21.287   3.169 -17.765  1.00  0.00    -0.550 OA
ATOM      4  O   UNL     1     -20.924   4.464 -19.619  1.00  0.00    -0.550 OA
ENDBRANCH   1   2
BRANCH   1   5
ATOM      5  C   UNL     1     -18.117   4.170 -19.243  1.00  0.00     0.003 C 
ATOM      6  C   UNL     1     -16.699   4.077 -18.679  1.00  0.00     0.004 C 
ENDBRANCH   1   5
TORSDOF 2
ENDMDL
MODEL 3
REMARK VINA RESULT:    -1.909     19.088     19.680
REMARK INTER + INTRA:          -2.170
REMARK INTER:                  -2.162
REMARK INTRA:                  -0.008
REMARK UNBOUND:                -0.038
REMARK SMILES CCCC(=O)[O-]
REMARK SMILES IDX 3 1 4 2 5 3 6 4 2 5 1 6
REMARK H PARENT
REMARK Flexibility Score: inf
ROOT
ATOM      1  C   UNL     1     -15.094  10.556  -1.813  1.00  0.00     0.052 C 
ENDROOT
BRANCH   1   2
ATOM      2  C   UNL     1     -14.880  11.870  -1.125  1.00  0.00     0.041 C 
ATOM      3  O   UNL     1     -14.277  11.916  -0.021  1.00  0.00    -0.550 OA
ATOM      4  O   UNL     1     -15.375  13.038  -1.688  1.00  0.00    -0.550 OA
ENDBRANCH   1   2
BRANCH   1   5
ATOM      5  C   UNL     1     -13.875   9.636  -1.668  1.00  0.00     0.003 C 
ATOM      6  C   UNL     1     -13.876   8.503  -2.694  1.00  0.00     0.004 C 
ENDBRANCH   1   5
TORSDOF 2
ENDMDL
MODEL 4
REMARK VINA RESULT:    -1.725     22.437     22.946
REMARK INTER + INTRA:          -1.965
REMARK INTER:                  -1.952
REMARK INTRA:                  -0.013
REMARK UNBOUND:                -0.038
REMARK SMILES CCCC(=O)[O-]
REMARK SMILES IDX 3 1 4 2 5 3 6 4 2 5 1 6
REMARK H PARENT
REMARK Flexibility Score: inf
ROOT
ATOM      1  C   UNL     1     -32.986  20.623 -10.155  1.00  0.00     0.052 C 
ENDROOT
BRANCH   1   2
ATOM      2  C   UNL     1     -32.242  19.354 -10.440  1.00  0.00     0.041 C 
ATOM      3  O   UNL     1     -32.859  18.259 -10.504  1.00  0.00    -0.550 OA
ATOM      4  O   UNL     1     -30.863  19.378 -10.602  1.00  0.00    -0.550 OA
ENDBRANCH   1   2
BRANCH   1   5
ATOM      5  C   UNL     1     -32.236  21.850 -10.689  1.00  0.00     0.003 C 
ATOM      6  C   UNL     1     -32.587  23.125  -9.921  1.00  0.00     0.004 C 
ENDBRANCH   1   5
TORSDOF 2
ENDMDL
MODEL 5
REMARK VINA RESULT:    -1.678     19.635     20.131
REMARK INTER + INTRA:          -1.912
REMARK INTER:                  -1.903
REMARK INTRA:                  -0.009
REMARK UNBOUND:                -0.038
REMARK SMILES CCCC(=O)[O-]
REMARK SMILES IDX 3 1 4 2 5 3 6 4 2 5 1 6
REMARK H PARENT
REMARK Flexibility Score: inf
ROOT
ATOM      1  C   UNL     1     -15.374  12.430  -1.927  1.00  0.00     0.052 C 
ENDROOT
BRANCH   1   2
ATOM      2  C   UNL     1     -14.778  11.165  -1.390  1.00  0.00     0.041 C 
ATOM      3  O   UNL     1     -15.056  10.058  -1.923  1.00  0.00    -0.550 OA
ATOM      4  O   UNL     1     -13.943  11.205  -0.282  1.00  0.00    -0.550 OA
ENDBRANCH   1   2
BRANCH   1   5
ATOM      5  C   UNL     1     -15.140  13.613  -0.978  1.00  0.00     0.003 C 
ATOM      6  C   UNL     1     -15.637  14.935  -1.562  1.00  0.00     0.004 C 
ENDBRANCH   1   5
TORSDOF 2
ENDMDL
MODEL 6
REMARK VINA RESULT:    -1.470      2.132      3.228
REMARK INTER + INTRA:          -1.680
REMARK INTER:                  -1.653
REMARK INTRA:                  -0.027
REMARK UNBOUND:                -0.038
REMARK SMILES CCCC(=O)[O-]
REMARK SMILES IDX 3 1 4 2 5 3 6 4 2 5 1 6
REMARK H PARENT
REMARK Flexibility Score: inf
ROOT
ATOM      1  C   UNL     1     -18.162   3.538 -17.916  1.00  0.00     0.052 C 
ENDROOT
BRANCH   1   2
ATOM      2  C   UNL     1     -18.847   4.199 -19.073  1.00  0.00     0.041 C 
ATOM      3  O   UNL     1     -18.205   4.463 -20.124  1.00  0.00    -0.550 OA
ATOM      4  O   UNL     1     -20.187   4.553 -18.978  1.00  0.00    -0.550 OA
ENDBRANCH   1   2
BRANCH   1   5
ATOM      5  C   UNL     1     -16.845   2.876 -18.341  1.00  0.00     0.003 C 
ATOM      6  C   UNL     1     -15.695   3.205 -17.390  1.00  0.00     0.004 C 
ENDBRANCH   1   5
TORSDOF 2
ENDMDL
MODEL 7
REMARK VINA RESULT:    -1.445     19.390     19.877
REMARK INTER + INTRA:          -1.652
REMARK INTER:                  -1.646
REMARK INTRA:                  -0.006
REMARK UNBOUND:                -0.038
REMARK SMILES CCCC(=O)[O-]
REMARK SMILES IDX 3 1 4 2 5 3 6 4 2 5 1 6
REMARK H PARENT
REMARK Flexibility Score: inf
ROOT
ATOM      1  C   UNL     1     -30.428  18.372 -10.772  1.00  0.00     0.052 C 
ENDROOT
BRANCH   1   2
ATOM      2  C   UNL     1     -30.056  17.132 -11.526  1.00  0.00     0.041 C 
ATOM      3  O   UNL     1     -30.337  15.998 -11.059  1.00  0.00    -0.550 OA
ATOM      4  O   UNL     1     -29.369  17.230 -12.729  1.00  0.00    -0.550 OA
ENDBRANCH   1   2
BRANCH   1   5
ATOM      5  C   UNL     1     -31.933  18.426 -10.480  1.00  0.00     0.003 C 
ATOM      6  C   UNL     1     -32.468  19.858 -10.448  1.00  0.00     0.004 C 
ENDBRANCH   1   5
TORSDOF 2
ENDMDL
MODEL 8
REMARK VINA RESULT:    -1.397     20.026     20.549
REMARK INTER + INTRA:          -1.598
REMARK INTER:                  -1.564
REMARK INTRA:                  -0.035
REMARK UNBOUND:                -0.038
REMARK SMILES CCCC(=O)[O-]
REMARK SMILES IDX 3 1 4 2 5 3 6 4 2 5 1 6
REMARK H PARENT
REMARK Flexibility Score: inf
ROOT
ATOM      1  C   UNL     1     -30.346  18.603 -10.703  1.00  0.00     0.052 C 
ENDROOT
BRANCH   1   2
ATOM      2  C   UNL     1     -31.826  18.705 -10.494  1.00  0.00     0.041 C 
ATOM      3  O   UNL     1     -32.535  17.666 -10.466  1.00  0.00    -0.550 OA
ATOM      4  O   UNL     1     -32.424  19.951 -10.361  1.00  0.00    -0.550 OA
ENDBRANCH   1   2
BRANCH   1   5
ATOM      5  C   UNL     1     -29.930  17.187 -11.123  1.00  0.00     0.003 C 
ATOM      6  C   UNL     1     -29.453  17.127 -12.573  1.00  0.00     0.004 C 
ENDBRANCH   1   5
TORSDOF 2
ENDMDL
