MODEL 1
REMARK VINA RESULT:    -3.734      0.000      0.000
REMARK INTER + INTRA:         -12.239
REMARK INTER:                  -8.537
REMARK INTRA:                  -3.701
REMARK UNBOUND:                -3.701
REMARK SMILES CCCCCCCCCCCCCCCCCCCCCCCC(=O)[O-]
REMARK SMILES IDX 13 1 14 2 15 3 16 4 17 5 18 6 19 7 20 8 21 9 22 10 23 11
REMARK SMILES IDX 24 12 25 13 26 14 12 15 11 16 10 17 9 18 8 19 7 20 6 21 5 22
REMARK SMILES IDX 4 23 3 24 2 25 1 26
REMARK H PARENT
REMARK Flexibility Score: inf
ROOT
ATOM      1  C   UNL     1      -4.566  -7.784  28.094  1.00  0.00     0.000 C 
ENDROOT
BRANCH   1   2
ATOM      2  C   UNL     1      -4.276  -9.291  28.237  1.00  0.00     0.000 C 
BRANCH   2   3
ATOM      3  C   UNL     1      -5.405 -10.170  27.676  1.00  0.00     0.000 C 
BRANCH   3   4
ATOM      4  C   UNL     1      -4.870 -11.125  26.600  1.00  0.00     0.000 C 
BRANCH   4   5
ATOM      5  C   UNL     1      -3.385 -10.884  26.269  1.00  0.00     0.000 C 
BRANCH   5   6
ATOM      6  C   UNL     1      -3.052 -10.835  24.764  1.00  0.00     0.000 C 
BRANCH   6   7
ATOM      7  C   UNL     1      -2.677  -9.444  24.215  1.00  0.00     0.000 C 
BRANCH   7   8
ATOM      8  C   UNL     1      -3.589  -8.291  24.675  1.00  0.00     0.000 C 
BRANCH   8   9
ATOM      9  C   UNL     1      -3.137  -6.923  24.138  1.00  0.00     0.000 C 
BRANCH   9  10
ATOM     10  C   UNL     1      -2.917  -5.887  25.258  1.00  0.00     0.006 C 
BRANCH  10  11
ATOM     11  C   UNL     1      -1.685  -4.988  25.060  1.00  0.00     0.053 C 
BRANCH  11  12
ATOM     12  C   UNL     1      -2.060  -3.604  24.627  1.00  0.00     0.041 C 
ATOM     13  O   UNL     1      -1.390  -2.612  25.020  1.00  0.00    -0.550 OA
ATOM     14  O   UNL     1      -3.176  -3.404  23.824  1.00  0.00    -0.550 OA
ENDBRANCH  11  12
ENDBRANCH  10  11
ENDBRANCH   9  10
ENDBRANCH   8   9
ENDBRANCH   7   8
ENDBRANCH   6   7
ENDBRANCH   5   6
ENDBRANCH   4   5
ENDBRANCH   3   4
ENDBRANCH   2   3
ENDBRANCH   1   2
BRANCH   1  15
ATOM     15  C   UNL     1      -3.966  -6.903  29.210  1.00  0.00     0.000 C 
BRANCH  15  16
ATOM     16  C   UNL     1      -3.913  -7.567  30.603  1.00  0.00     0.000 C 
BRANCH  16  17
ATOM     17  C   UNL     1      -2.505  -7.653  31.223  1.00  0.00     0.000 C 
BRANCH  17  18
ATOM     18  C   UNL     1      -1.573  -6.533  30.729  1.00  0.00    -0.000 C 
BRANCH  18  19
ATOM     19  C   UNL     1      -0.952  -5.739  31.890  1.00  0.00    -0.000 C 
BRANCH  19  20
ATOM     20  C   UNL     1      -1.969  -5.458  33.009  1.00  0.00    -0.000 C 
BRANCH  20  21
ATOM     21  C   UNL     1      -2.719  -4.130  32.813  1.00  0.00    -0.000 C 
BRANCH  21  22
ATOM     22  C   UNL     1      -4.196  -4.328  32.439  1.00  0.00    -0.000 C 
BRANCH  22  23
ATOM     23  C   UNL     1      -4.511  -3.659  31.092  1.00  0.00    -0.000 C 
BRANCH  23  24
ATOM     24  C   UNL     1      -3.262  -3.072  30.407  1.00  0.00    -0.000 C 
BRANCH  24  25
ATOM     25  C   UNL     1      -3.054  -3.520  28.950  1.00  0.00    -0.003 C 
ATOM     26  C   UNL     1      -1.585  -3.525  28.528  1.00  0.00     0.004 C 
ENDBRANCH  24  25
ENDBRANCH  23  24
ENDBRANCH  22  23
ENDBRANCH  21  22
ENDBRANCH  20  21
ENDBRANCH  19  20
ENDBRANCH  18  19
ENDBRANCH  17  18
ENDBRANCH  16  17
ENDBRANCH  15  16
ENDBRANCH   1  15
TORSDOF 22
ENDMDL
MODEL 2
REMARK VINA RESULT:    -3.682      7.743     12.015
REMARK INTER + INTRA:         -12.119
REMARK INTER:                  -7.932
REMARK INTRA:                  -4.187
REMARK UNBOUND:                -3.701
REMARK SMILES CCCCCCCCCCCCCCCCCCCCCCCC(=O)[O-]
REMARK SMILES IDX 13 1 14 2 15 3 16 4 17 5 18 6 19 7 20 8 21 9 22 10 23 11
REMARK SMILES IDX 24 12 25 13 26 14 12 15 11 16 10 17 9 18 8 19 7 20 6 21 5 22
REMARK SMILES IDX 4 23 3 24 2 25 1 26
REMARK H PARENT
REMARK Flexibility Score: inf
ROOT
ATOM      1  C   UNL     1      -6.840  -1.150  37.423  1.00  0.00     0.000 C 
ENDROOT
BRANCH   1   2
ATOM      2  C   UNL     1      -5.933  -0.681  38.578  1.00  0.00     0.000 C 
BRANCH   2   3
ATOM      3  C   UNL     1      -4.516  -0.315  38.110  1.00  0.00     0.000 C 
BRANCH   3   4
ATOM      4  C   UNL     1      -4.213   1.163  38.393  1.00  0.00     0.000 C 
BRANCH   4   5
ATOM      5  C   UNL     1      -3.659   1.908  37.164  1.00  0.00     0.000 C 
BRANCH   5   6
ATOM      6  C   UNL     1      -3.048   1.003  36.075  1.00  0.00     0.000 C 
BRANCH   6   7
ATOM      7  C   UNL     1      -2.943   1.636  34.672  1.00  0.00     0.000 C 
BRANCH   7   8
ATOM      8  C   UNL     1      -3.138   0.661  33.497  1.00  0.00     0.000 C 
BRANCH   8   9
ATOM      9  C   UNL     1      -3.029  -0.813  33.921  1.00  0.00     0.000 C 
BRANCH   9  10
ATOM     10  C   UNL     1      -3.628  -1.778  32.879  1.00  0.00     0.006 C 
BRANCH  10  11
ATOM     11  C   UNL     1      -3.233  -3.252  33.075  1.00  0.00     0.053 C 
BRANCH  11  12
ATOM     12  C   UNL     1      -4.385  -4.180  32.838  1.00  0.00     0.041 C 
ATOM     13  O   UNL     1      -5.485  -3.988  33.422  1.00  0.00    -0.550 OA
ATOM     14  O   UNL     1      -4.233  -5.281  32.006  1.00  0.00    -0.550 OA
ENDBRANCH  11  12
ENDBRANCH  10  11
ENDBRANCH   9  10
ENDBRANCH   8   9
ENDBRANCH   7   8
ENDBRANCH   6   7
ENDBRANCH   5   6
ENDBRANCH   4   5
ENDBRANCH   3   4
ENDBRANCH   2   3
ENDBRANCH   1   2
BRANCH   1  15
ATOM     15  C   UNL     1      -6.125  -1.311  36.065  1.00  0.00     0.000 C 
BRANCH  15  16
ATOM     16  C   UNL     1      -6.856  -0.669  34.867  1.00  0.00     0.000 C 
BRANCH  16  17
ATOM     17  C   UNL     1      -6.479   0.799  34.593  1.00  0.00     0.000 C 
BRANCH  17  18
ATOM     18  C   UNL     1      -7.155   1.776  35.571  1.00  0.00    -0.000 C 
BRANCH  18  19
ATOM     19  C   UNL     1      -6.793   3.240  35.274  1.00  0.00    -0.000 C 
BRANCH  19  20
ATOM     20  C   UNL     1      -6.566   4.053  36.559  1.00  0.00    -0.000 C 
BRANCH  20  21
ATOM     21  C   UNL     1      -7.199   3.398  37.798  1.00  0.00    -0.000 C 
BRANCH  21  22
ATOM     22  C   UNL     1      -8.494   4.093  38.245  1.00  0.00    -0.000 C 
BRANCH  22  23
ATOM     23  C   UNL     1      -9.717   3.214  37.940  1.00  0.00    -0.000 C 
BRANCH  23  24
ATOM     24  C   UNL     1     -10.533   3.716  36.734  1.00  0.00    -0.000 C 
BRANCH  24  25
ATOM     25  C   UNL     1     -10.163   5.128  36.248  1.00  0.00    -0.003 C 
ATOM     26  C   UNL     1     -10.197   5.266  34.726  1.00  0.00     0.004 C 
ENDBRANCH  24  25
ENDBRANCH  23  24
ENDBRANCH  22  23
ENDBRANCH  21  22
ENDBRANCH  20  21
ENDBRANCH  19  20
ENDBRANCH  18  19
ENDBRANCH  17  18
ENDBRANCH  16  17
ENDBRANCH  15  16
ENDBRANCH   1  15
TORSDOF 22
ENDMDL
MODEL 3
REMARK VINA RESULT:    -3.537      8.643     13.054
REMARK INTER + INTRA:         -11.788
REMARK INTER:                  -7.362
REMARK INTRA:                  -4.426
REMARK UNBOUND:                -3.701
REMARK SMILES CCCCCCCCCCCCCCCCCCCCCCCC(=O)[O-]
REMARK SMILES IDX 13 1 14 2 15 3 16 4 17 5 18 6 19 7 20 8 21 9 22 10 23 11
REMARK SMILES IDX 24 12 25 13 26 14 12 15 11 16 10 17 9 18 8 19 7 20 6 21 5 22
REMARK SMILES IDX 4 23 3 24 2 25 1 26
REMARK H PARENT
REMARK Flexibility Score: inf
ROOT
ATOM      1  C   UNL     1      -3.405   0.152  36.881  1.00  0.00     0.000 C 
ENDROOT
BRANCH   1   2
ATOM      2  C   UNL     1      -4.216   0.333  38.178  1.00  0.00     0.000 C 
BRANCH   2   3
ATOM      3  C   UNL     1      -5.086  -0.889  38.511  1.00  0.00     0.000 C 
BRANCH   3   4
ATOM      4  C   UNL     1      -6.511  -0.459  38.885  1.00  0.00     0.000 C 
BRANCH   4   5
ATOM      5  C   UNL     1      -6.838   0.980  38.444  1.00  0.00     0.000 C 
BRANCH   5   6
ATOM      6  C   UNL     1      -7.852   1.093  37.288  1.00  0.00     0.000 C 
BRANCH   6   7
ATOM      7  C   UNL     1      -7.273   1.588  35.947  1.00  0.00     0.000 C 
BRANCH   7   8
ATOM      8  C   UNL     1      -6.706   0.486  35.033  1.00  0.00     0.000 C 
BRANCH   8   9
ATOM      9  C   UNL     1      -7.170  -0.922  35.438  1.00  0.00     0.000 C 
BRANCH   9  10
ATOM     10  C   UNL     1      -6.271  -2.034  34.862  1.00  0.00     0.006 C 
BRANCH  10  11
ATOM     11  C   UNL     1      -5.077  -1.525  34.037  1.00  0.00     0.053 C 
BRANCH  11  12
ATOM     12  C   UNL     1      -4.338  -2.641  33.365  1.00  0.00     0.041 C 
ATOM     13  O   UNL     1      -4.952  -3.680  33.001  1.00  0.00    -0.550 OA
ATOM     14  O   UNL     1      -2.965  -2.555  33.179  1.00  0.00    -0.550 OA
ENDBRANCH  11  12
ENDBRANCH  10  11
ENDBRANCH   9  10
ENDBRANCH   8   9
ENDBRANCH   7   8
ENDBRANCH   6   7
ENDBRANCH   5   6
ENDBRANCH   4   5
ENDBRANCH   3   4
ENDBRANCH   2   3
ENDBRANCH   1   2
BRANCH   1  15
ATOM     15  C   UNL     1      -3.310   1.414  35.997  1.00  0.00     0.000 C 
BRANCH  15  16
ATOM     16  C   UNL     1      -3.523   2.748  36.746  1.00  0.00     0.000 C 
BRANCH  16  17
ATOM     17  C   UNL     1      -4.284   3.822  35.945  1.00  0.00     0.000 C 
BRANCH  17  18
ATOM     18  C   UNL     1      -5.012   4.829  36.852  1.00  0.00    -0.000 C 
BRANCH  18  19
ATOM     19  C   UNL     1      -5.255   4.271  38.264  1.00  0.00    -0.000 C 
BRANCH  19  20
ATOM     20  C   UNL     1      -6.705   4.485  38.730  1.00  0.00    -0.000 C 
BRANCH  20  21
ATOM     21  C   UNL     1      -7.591   5.121  37.646  1.00  0.00    -0.000 C 
BRANCH  21  22
ATOM     22  C   UNL     1      -9.028   4.577  37.655  1.00  0.00    -0.000 C 
BRANCH  22  23
ATOM     23  C   UNL     1      -9.607   4.549  36.231  1.00  0.00    -0.000 C 
BRANCH  23  24
ATOM     24  C   UNL     1     -10.972   3.839  36.152  1.00  0.00    -0.000 C 
BRANCH  24  25
ATOM     25  C   UNL     1     -11.388   3.095  37.433  1.00  0.00    -0.003 C 
ATOM     26  C   UNL     1     -12.814   3.418  37.877  1.00  0.00     0.004 C 
ENDBRANCH  24  25
ENDBRANCH  23  24
ENDBRANCH  22  23
ENDBRANCH  21  22
ENDBRANCH  20  21
ENDBRANCH  19  20
ENDBRANCH  18  19
ENDBRANCH  17  18
ENDBRANCH  16  17
ENDBRANCH  15  16
ENDBRANCH   1  15
TORSDOF 22
ENDMDL
MODEL 4
REMARK VINA RESULT:    -3.529     10.219     14.281
REMARK INTER + INTRA:         -11.770
REMARK INTER:                  -7.282
REMARK INTRA:                  -4.488
REMARK UNBOUND:                -3.701
REMARK SMILES CCCCCCCCCCCCCCCCCCCCCCCC(=O)[O-]
REMARK SMILES IDX 13 1 14 2 15 3 16 4 17 5 18 6 19 7 20 8 21 9 22 10 23 11
REMARK SMILES IDX 24 12 25 13 26 14 12 15 11 16 10 17 9 18 8 19 7 20 6 21 5 22
REMARK SMILES IDX 4 23 3 24 2 25 1 26
REMARK H PARENT
REMARK Flexibility Score: inf
ROOT
ATOM      1  C   UNL     1      -3.679   1.076  37.835  1.00  0.00     0.000 C 
ENDROOT
BRANCH   1   2
ATOM      2  C   UNL     1      -3.673   2.129  38.961  1.00  0.00     0.000 C 
BRANCH   2   3
ATOM      3  C   UNL     1      -4.454   3.400  38.591  1.00  0.00     0.000 C 
BRANCH   3   4
ATOM      4  C   UNL     1      -5.487   3.740  39.674  1.00  0.00     0.000 C 
BRANCH   4   5
ATOM      5  C   UNL     1      -6.764   2.884  39.574  1.00  0.00     0.000 C 
BRANCH   5   6
ATOM      6  C   UNL     1      -8.039   3.658  39.181  1.00  0.00     0.000 C 
BRANCH   6   7
ATOM      7  C   UNL     1      -7.803   5.068  38.602  1.00  0.00     0.000 C 
BRANCH   7   8
ATOM      8  C   UNL     1      -8.690   5.439  37.399  1.00  0.00     0.000 C 
BRANCH   8   9
ATOM      9  C   UNL     1      -9.719   4.348  37.059  1.00  0.00     0.000 C 
BRANCH   9  10
ATOM     10  C   UNL     1     -10.644   4.746  35.892  1.00  0.00     0.006 C 
BRANCH  10  11
ATOM     11  C   UNL     1     -10.023   4.569  34.497  1.00  0.00     0.053 C 
BRANCH  11  12
ATOM     12  C   UNL     1     -11.064   4.438  33.428  1.00  0.00     0.041 C 
ATOM     13  O   UNL     1     -11.720   5.446  33.053  1.00  0.00    -0.550 OA
ATOM     14  O   UNL     1     -11.341   3.195  32.874  1.00  0.00    -0.550 OA
ENDBRANCH  11  12
ENDBRANCH  10  11
ENDBRANCH   9  10
ENDBRANCH   8   9
ENDBRANCH   7   8
ENDBRANCH   6   7
ENDBRANCH   5   6
ENDBRANCH   4   5
ENDBRANCH   3   4
ENDBRANCH   2   3
ENDBRANCH   1   2
BRANCH   1  15
ATOM     15  C   UNL     1      -4.185  -0.319  38.260  1.00  0.00     0.000 C 
BRANCH  15  16
ATOM     16  C   UNL     1      -5.645  -0.628  37.864  1.00  0.00     0.000 C 
BRANCH  16  17
ATOM     17  C   UNL     1      -6.595  -0.879  39.051  1.00  0.00     0.000 C 
BRANCH  17  18
ATOM     18  C   UNL     1      -8.031  -0.403  38.770  1.00  0.00    -0.000 C 
BRANCH  18  19
ATOM     19  C   UNL     1      -8.380  -0.461  37.273  1.00  0.00    -0.000 C 
BRANCH  19  20
ATOM     20  C   UNL     1      -8.885   0.891  36.743  1.00  0.00    -0.000 C 
BRANCH  20  21
ATOM     21  C   UNL     1      -8.091   1.386  35.523  1.00  0.00    -0.000 C 
BRANCH  21  22
ATOM     22  C   UNL     1      -6.910   2.291  35.906  1.00  0.00    -0.000 C 
BRANCH  22  23
ATOM     23  C   UNL     1      -5.678   1.970  35.045  1.00  0.00    -0.000 C 
BRANCH  23  24
ATOM     24  C   UNL     1      -5.729   0.561  34.426  1.00  0.00    -0.000 C 
BRANCH  24  25
ATOM     25  C   UNL     1      -4.377  -0.173  34.377  1.00  0.00    -0.003 C 
ATOM     26  C   UNL     1      -3.189   0.772  34.193  1.00  0.00     0.004 C 
ENDBRANCH  24  25
ENDBRANCH  23  24
ENDBRANCH  22  23
ENDBRANCH  21  22
ENDBRANCH  20  21
ENDBRANCH  19  20
ENDBRANCH  18  19
ENDBRANCH  17  18
ENDBRANCH  16  17
ENDBRANCH  15  16
ENDBRANCH   1  15
TORSDOF 22
ENDMDL
MODEL 5
REMARK VINA RESULT:    -3.505     10.183     13.622
REMARK INTER + INTRA:         -11.714
REMARK INTER:                  -6.933
REMARK INTRA:                  -4.780
REMARK UNBOUND:                -3.701
REMARK SMILES CCCCCCCCCCCCCCCCCCCCCCCC(=O)[O-]
REMARK SMILES IDX 13 1 14 2 15 3 16 4 17 5 18 6 19 7 20 8 21 9 22 10 23 11
REMARK SMILES IDX 24 12 25 13 26 14 12 15 11 16 10 17 9 18 8 19 7 20 6 21 5 22
REMARK SMILES IDX 4 23 3 24 2 25 1 26
REMARK H PARENT
REMARK Flexibility Score: inf
ROOT
ATOM      1  C   UNL     1      -6.919   2.090  35.529  1.00  0.00     0.000 C 
ENDROOT
BRANCH   1   2
ATOM      2  C   UNL     1      -6.905   1.142  34.314  1.00  0.00     0.000 C 
BRANCH   2   3
ATOM      3  C   UNL     1      -5.525   1.054  33.644  1.00  0.00     0.000 C 
BRANCH   3   4
ATOM      4  C   UNL     1      -4.737  -0.152  34.174  1.00  0.00     0.000 C 
BRANCH   4   5
ATOM      5  C   UNL     1      -3.238   0.148  34.362  1.00  0.00     0.000 C 
BRANCH   5   6
ATOM      6  C   UNL     1      -2.778   0.277  35.828  1.00  0.00     0.000 C 
BRANCH   6   7
ATOM      7  C   UNL     1      -3.283   1.530  36.572  1.00  0.00     0.000 C 
BRANCH   7   8
ATOM      8  C   UNL     1      -4.142   1.249  37.819  1.00  0.00     0.000 C 
BRANCH   8   9
ATOM      9  C   UNL     1      -4.230  -0.248  38.158  1.00  0.00     0.000 C 
BRANCH   9  10
ATOM     10  C   UNL     1      -5.654  -0.687  38.547  1.00  0.00     0.006 C 
BRANCH  10  11
ATOM     11  C   UNL     1      -6.577  -0.990  37.353  1.00  0.00     0.053 C 
BRANCH  11  12
ATOM     12  C   UNL     1      -7.992  -1.228  37.781  1.00  0.00     0.041 C 
ATOM     13  O   UNL     1      -8.883  -1.465  36.922  1.00  0.00    -0.550 OA
ATOM     14  O   UNL     1      -8.338  -1.146  39.123  1.00  0.00    -0.550 OA
ENDBRANCH  11  12
ENDBRANCH  10  11
ENDBRANCH   9  10
ENDBRANCH   8   9
ENDBRANCH   7   8
ENDBRANCH   6   7
ENDBRANCH   5   6
ENDBRANCH   4   5
ENDBRANCH   3   4
ENDBRANCH   2   3
ENDBRANCH   1   2
BRANCH   1  15
ATOM     15  C   UNL     1      -6.484   3.539  35.221  1.00  0.00     0.000 C 
BRANCH  15  16
ATOM     16  C   UNL     1      -5.730   4.247  36.367  1.00  0.00     0.000 C 
BRANCH  16  17
ATOM     17  C   UNL     1      -6.615   4.674  37.554  1.00  0.00     0.000 C 
BRANCH  17  18
ATOM     18  C   UNL     1      -6.009   4.284  38.913  1.00  0.00    -0.000 C 
BRANCH  18  19
ATOM     19  C   UNL     1      -7.022   3.557  39.814  1.00  0.00    -0.000 C 
BRANCH  19  20
ATOM     20  C   UNL     1      -7.698   2.379  39.093  1.00  0.00    -0.000 C 
BRANCH  20  21
ATOM     21  C   UNL     1      -9.228   2.515  39.034  1.00  0.00    -0.000 C 
BRANCH  21  22
ATOM     22  C   UNL     1      -9.801   2.226  37.638  1.00  0.00    -0.000 C 
BRANCH  22  23
ATOM     23  C   UNL     1     -10.763   3.343  37.203  1.00  0.00    -0.000 C 
BRANCH  23  24
ATOM     24  C   UNL     1     -10.035   4.628  36.769  1.00  0.00    -0.000 C 
BRANCH  24  25
ATOM     25  C   UNL     1      -9.936   4.832  35.247  1.00  0.00    -0.003 C 
ATOM     26  C   UNL     1     -10.574   3.697  34.447  1.00  0.00     0.004 C 
ENDBRANCH  24  25
ENDBRANCH  23  24
ENDBRANCH  22  23
ENDBRANCH  21  22
ENDBRANCH  20  21
ENDBRANCH  19  20
ENDBRANCH  18  19
ENDBRANCH  17  18
ENDBRANCH  16  17
ENDBRANCH  15  16
ENDBRANCH   1  15
TORSDOF 22
ENDMDL
MODEL 6
REMARK VINA RESULT:    -3.429     11.804     14.256
REMARK INTER + INTRA:         -11.540
REMARK INTER:                  -7.628
REMARK INTRA:                  -3.912
REMARK UNBOUND:                -3.701
REMARK SMILES CCCCCCCCCCCCCCCCCCCCCCCC(=O)[O-]
REMARK SMILES IDX 13 1 14 2 15 3 16 4 17 5 18 6 19 7 20 8 21 9 22 10 23 11
REMARK SMILES IDX 24 12 25 13 26 14 12 15 11 16 10 17 9 18 8 19 7 20 6 21 5 22
REMARK SMILES IDX 4 23 3 24 2 25 1 26
REMARK H PARENT
REMARK Flexibility Score: inf
ROOT
ATOM      1  C   UNL     1      -7.898   3.112  39.232  1.00  0.00     0.000 C 
ENDROOT
BRANCH   1   2
ATOM      2  C   UNL     1      -8.242   4.225  38.222  1.00  0.00     0.000 C 
BRANCH   2   3
ATOM      3  C   UNL     1      -9.540   3.945  37.449  1.00  0.00     0.000 C 
BRANCH   3   4
ATOM      4  C   UNL     1      -9.870   5.105  36.499  1.00  0.00     0.000 C 
BRANCH   4   5
ATOM      5  C   UNL     1     -10.241   4.631  35.081  1.00  0.00     0.000 C 
BRANCH   5   6
ATOM      6  C   UNL     1     -10.497   3.116  34.946  1.00  0.00     0.000 C 
BRANCH   6   7
ATOM      7  C   UNL     1     -11.892   2.726  34.416  1.00  0.00     0.000 C 
BRANCH   7   8
ATOM      8  C   UNL     1     -12.856   3.904  34.182  1.00  0.00     0.000 C 
BRANCH   8   9
ATOM      9  C   UNL     1     -13.146   4.151  32.693  1.00  0.00     0.000 C 
BRANCH   9  10
ATOM     10  C   UNL     1     -12.006   4.906  31.982  1.00  0.00     0.006 C 
BRANCH  10  11
ATOM     11  C   UNL     1     -11.781   4.490  30.518  1.00  0.00     0.053 C 
BRANCH  11  12
ATOM     12  C   UNL     1     -12.604   5.305  29.568  1.00  0.00     0.041 C 
ATOM     13  O   UNL     1     -12.975   4.814  28.468  1.00  0.00    -0.550 OA
ATOM     14  O   UNL     1     -12.926   6.620  29.876  1.00  0.00    -0.550 OA
ENDBRANCH  11  12
ENDBRANCH  10  11
ENDBRANCH   9  10
ENDBRANCH   8   9
ENDBRANCH   7   8
ENDBRANCH   6   7
ENDBRANCH   5   6
ENDBRANCH   4   5
ENDBRANCH   3   4
ENDBRANCH   2   3
ENDBRANCH   1   2
BRANCH   1  15
ATOM     15  C   UNL     1      -6.388   2.838  39.401  1.00  0.00     0.000 C 
BRANCH  15  16
ATOM     16  C   UNL     1      -5.468   3.714  38.524  1.00  0.00     0.000 C 
BRANCH  16  17
ATOM     17  C   UNL     1      -4.286   2.964  37.880  1.00  0.00     0.000 C 
BRANCH  17  18
ATOM     18  C   UNL     1      -3.772   1.808  38.756  1.00  0.00    -0.000 C 
BRANCH  18  19
ATOM     19  C   UNL     1      -3.690   0.483  37.981  1.00  0.00    -0.000 C 
BRANCH  19  20
ATOM     20  C   UNL     1      -4.889  -0.435  38.273  1.00  0.00    -0.000 C 
BRANCH  20  21
ATOM     21  C   UNL     1      -5.826  -0.594  37.065  1.00  0.00    -0.000 C 
BRANCH  21  22
ATOM     22  C   UNL     1      -7.269  -0.164  37.368  1.00  0.00    -0.000 C 
BRANCH  22  23
ATOM     23  C   UNL     1      -7.758   0.864  36.336  1.00  0.00    -0.000 C 
BRANCH  23  24
ATOM     24  C   UNL     1      -6.625   1.405  35.444  1.00  0.00    -0.000 C 
BRANCH  24  25
ATOM     25  C   UNL     1      -6.700   2.913  35.149  1.00  0.00    -0.003 C 
ATOM     26  C   UNL     1      -7.029   3.223  33.689  1.00  0.00     0.004 C 
ENDBRANCH  24  25
ENDBRANCH  23  24
ENDBRANCH  22  23
ENDBRANCH  21  22
ENDBRANCH  20  21
ENDBRANCH  19  20
ENDBRANCH  18  19
ENDBRANCH  17  18
ENDBRANCH  16  17
ENDBRANCH  15  16
ENDBRANCH   1  15
TORSDOF 22
ENDMDL
MODEL 7
REMARK VINA RESULT:    -3.411     11.453     14.588
REMARK INTER + INTRA:         -11.499
REMARK INTER:                  -6.852
REMARK INTRA:                  -4.647
REMARK UNBOUND:                -3.701
REMARK SMILES CCCCCCCCCCCCCCCCCCCCCCCC(=O)[O-]
REMARK SMILES IDX 13 1 14 2 15 3 16 4 17 5 18 6 19 7 20 8 21 9 22 10 23 11
REMARK SMILES IDX 24 12 25 13 26 14 12 15 11 16 10 17 9 18 8 19 7 20 6 21 5 22
REMARK SMILES IDX 4 23 3 24 2 25 1 26
REMARK H PARENT
REMARK Flexibility Score: inf
ROOT
ATOM      1  C   UNL     1      -8.560   3.600  36.569  1.00  0.00     0.000 C 
ENDROOT
BRANCH   1   2
ATOM      2  C   UNL     1      -7.096   3.677  36.096  1.00  0.00     0.000 C 
BRANCH   2   3
ATOM      3  C   UNL     1      -6.676   2.459  35.259  1.00  0.00     0.000 C 
BRANCH   3   4
ATOM      4  C   UNL     1      -7.889   1.581  34.926  1.00  0.00     0.000 C 
BRANCH   4   5
ATOM      5  C   UNL     1      -7.652   0.089  35.229  1.00  0.00     0.000 C 
BRANCH   5   6
ATOM      6  C   UNL     1      -8.749  -0.587  36.076  1.00  0.00     0.000 C 
BRANCH   6   7
ATOM      7  C   UNL     1      -8.703  -0.278  37.586  1.00  0.00     0.000 C 
BRANCH   7   8
ATOM      8  C   UNL     1      -7.296  -0.287  38.213  1.00  0.00     0.000 C 
BRANCH   8   9
ATOM      9  C   UNL     1      -6.954   1.031  38.926  1.00  0.00     0.000 C 
BRANCH   9  10
ATOM     10  C   UNL     1      -5.526   1.522  38.616  1.00  0.00     0.006 C 
BRANCH  10  11
ATOM     11  C   UNL     1      -4.580   0.433  38.080  1.00  0.00     0.053 C 
BRANCH  11  12
ATOM     12  C   UNL     1      -3.584   0.982  37.105  1.00  0.00     0.041 C 
ATOM     13  O   UNL     1      -3.019   0.219  36.277  1.00  0.00    -0.550 OA
ATOM     14  O   UNL     1      -3.248   2.329  37.136  1.00  0.00    -0.550 OA
ENDBRANCH  11  12
ENDBRANCH  10  11
ENDBRANCH   9  10
ENDBRANCH   8   9
ENDBRANCH   7   8
ENDBRANCH   6   7
ENDBRANCH   5   6
ENDBRANCH   4   5
ENDBRANCH   3   4
ENDBRANCH   2   3
ENDBRANCH   1   2
BRANCH   1  15
ATOM     15  C   UNL     1      -9.182   4.955  36.967  1.00  0.00     0.000 C 
BRANCH  15  16
ATOM     16  C   UNL     1     -10.214   5.515  35.964  1.00  0.00     0.000 C 
BRANCH  16  17
ATOM     17  C   UNL     1      -9.963   5.123  34.495  1.00  0.00     0.000 C 
BRANCH  17  18
ATOM     18  C   UNL     1     -11.256   5.100  33.661  1.00  0.00    -0.000 C 
BRANCH  18  19
ATOM     19  C   UNL     1     -11.473   3.746  32.963  1.00  0.00    -0.000 C 
BRANCH  19  20
ATOM     20  C   UNL     1     -12.555   2.903  33.658  1.00  0.00    -0.000 C 
BRANCH  20  21
ATOM     21  C   UNL     1     -11.985   1.651  34.344  1.00  0.00    -0.000 C 
BRANCH  21  22
ATOM     22  C   UNL     1     -11.688   1.871  35.836  1.00  0.00    -0.000 C 
BRANCH  22  23
ATOM     23  C   UNL     1     -12.716   2.827  36.460  1.00  0.00    -0.000 C 
BRANCH  23  24
ATOM     24  C   UNL     1     -12.407   3.163  37.931  1.00  0.00    -0.000 C 
BRANCH  24  25
ATOM     25  C   UNL     1     -12.013   1.956  38.801  1.00  0.00    -0.003 C 
ATOM     26  C   UNL     1     -10.637   2.109  39.448  1.00  0.00     0.004 C 
ENDBRANCH  24  25
ENDBRANCH  23  24
ENDBRANCH  22  23
ENDBRANCH  21  22
ENDBRANCH  20  21
ENDBRANCH  19  20
ENDBRANCH  18  19
ENDBRANCH  17  18
ENDBRANCH  16  17
ENDBRANCH  15  16
ENDBRANCH   1  15
TORSDOF 22
ENDMDL
MODEL 8
REMARK VINA RESULT:    -3.406      8.533     12.972
REMARK INTER + INTRA:         -11.488
REMARK INTER:                  -6.448
REMARK INTRA:                  -5.040
REMARK UNBOUND:                -3.701
REMARK SMILES CCCCCCCCCCCCCCCCCCCCCCCC(=O)[O-]
REMARK SMILES IDX 13 1 14 2 15 3 16 4 17 5 18 6 19 7 20 8 21 9 22 10 23 11
REMARK SMILES IDX 24 12 25 13 26 14 12 15 11 16 10 17 9 18 8 19 7 20 6 21 5 22
REMARK SMILES IDX 4 23 3 24 2 25 1 26
REMARK H PARENT
REMARK Flexibility Score: inf
ROOT
ATOM      1  C   UNL     1      -5.619  -0.519  37.742  1.00  0.00     0.000 C 
ENDROOT
BRANCH   1   2
ATOM      2  C   UNL     1      -4.242  -0.076  38.272  1.00  0.00     0.000 C 
BRANCH   2   3
ATOM      3  C   UNL     1      -3.359   0.551  37.181  1.00  0.00     0.000 C 
BRANCH   3   4
ATOM      4  C   UNL     1      -3.352   2.081  37.299  1.00  0.00     0.000 C 
BRANCH   4   5
ATOM      5  C   UNL     1      -2.854   2.779  36.019  1.00  0.00     0.000 C 
BRANCH   5   6
ATOM      6  C   UNL     1      -3.954   3.458  35.176  1.00  0.00     0.000 C 
BRANCH   6   7
ATOM      7  C   UNL     1      -5.386   3.330  35.734  1.00  0.00     0.000 C 
BRANCH   7   8
ATOM      8  C   UNL     1      -6.382   2.594  34.818  1.00  0.00     0.000 C 
BRANCH   8   9
ATOM      9  C   UNL     1      -5.687   1.698  33.780  1.00  0.00     0.000 C 
BRANCH   9  10
ATOM     10  C   UNL     1      -5.624   0.221  34.216  1.00  0.00     0.006 C 
BRANCH  10  11
ATOM     11  C   UNL     1      -4.273  -0.465  33.951  1.00  0.00     0.053 C 
BRANCH  11  12
ATOM     12  C   UNL     1      -4.429  -1.738  33.177  1.00  0.00     0.041 C 
ATOM     13  O   UNL     1      -5.409  -1.892  32.400  1.00  0.00    -0.550 OA
ATOM     14  O   UNL     1      -3.517  -2.771  33.343  1.00  0.00    -0.550 OA
ENDBRANCH  11  12
ENDBRANCH  10  11
ENDBRANCH   9  10
ENDBRANCH   8   9
ENDBRANCH   7   8
ENDBRANCH   6   7
ENDBRANCH   5   6
ENDBRANCH   4   5
ENDBRANCH   3   4
ENDBRANCH   2   3
ENDBRANCH   1   2
BRANCH   1  15
ATOM     15  C   UNL     1      -6.722   0.556  37.833  1.00  0.00     0.000 C 
BRANCH  15  16
ATOM     16  C   UNL     1      -7.398   0.678  39.216  1.00  0.00     0.000 C 
BRANCH  16  17
ATOM     17  C   UNL     1      -7.399   2.100  39.809  1.00  0.00     0.000 C 
BRANCH  17  18
ATOM     18  C   UNL     1      -6.112   2.877  39.484  1.00  0.00    -0.000 C 
BRANCH  18  19
ATOM     19  C   UNL     1      -6.400   4.330  39.069  1.00  0.00    -0.000 C 
BRANCH  19  20
ATOM     20  C   UNL     1      -7.903   4.591  38.878  1.00  0.00    -0.000 C 
BRANCH  20  21
ATOM     21  C   UNL     1      -8.224   5.269  37.536  1.00  0.00    -0.000 C 
BRANCH  21  22
ATOM     22  C   UNL     1      -9.134   4.416  36.638  1.00  0.00    -0.000 C 
BRANCH  22  23
ATOM     23  C   UNL     1     -10.075   3.547  37.487  1.00  0.00    -0.000 C 
BRANCH  23  24
ATOM     24  C   UNL     1     -10.051   2.062  37.078  1.00  0.00    -0.000 C 
BRANCH  24  25
ATOM     25  C   UNL     1      -9.916   1.810  35.567  1.00  0.00    -0.003 C 
ATOM     26  C   UNL     1      -9.396   0.411  35.236  1.00  0.00     0.004 C 
ENDBRANCH  24  25
ENDBRANCH  23  24
ENDBRANCH  22  23
ENDBRANCH  21  22
ENDBRANCH  20  21
ENDBRANCH  19  20
ENDBRANCH  18  19
ENDBRANCH  17  18
ENDBRANCH  16  17
ENDBRANCH  15  16
ENDBRANCH   1  15
TORSDOF 22
ENDMDL
MODEL 9
REMARK VINA RESULT:    -3.406     10.814     14.214
REMARK INTER + INTRA:         -11.488
REMARK INTER:                  -6.728
REMARK INTRA:                  -4.760
REMARK UNBOUND:                -3.701
REMARK SMILES CCCCCCCCCCCCCCCCCCCCCCCC(=O)[O-]
REMARK SMILES IDX 13 1 14 2 15 3 16 4 17 5 18 6 19 7 20 8 21 9 22 10 23 11
REMARK SMILES IDX 24 12 25 13 26 14 12 15 11 16 10 17 9 18 8 19 7 20 6 21 5 22
REMARK SMILES IDX 4 23 3 24 2 25 1 26
REMARK H PARENT
REMARK Flexibility Score: inf
ROOT
ATOM      1  C   UNL     1      -7.415   1.624  35.009  1.00  0.00     0.000 C 
ENDROOT
BRANCH   1   2
ATOM      2  C   UNL     1      -7.548   0.433  35.978  1.00  0.00     0.000 C 
BRANCH   2   3
ATOM      3  C   UNL     1      -7.091   0.773  37.405  1.00  0.00     0.000 C 
BRANCH   3   4
ATOM      4  C   UNL     1      -8.237   0.579  38.406  1.00  0.00     0.000 C 
BRANCH   4   5
ATOM      5  C   UNL     1      -7.998   1.309  39.741  1.00  0.00     0.000 C 
BRANCH   5   6
ATOM      6  C   UNL     1      -7.073   2.541  39.654  1.00  0.00     0.000 C 
BRANCH   6   7
ATOM      7  C   UNL     1      -7.747   3.895  39.956  1.00  0.00     0.000 C 
BRANCH   7   8
ATOM      8  C   UNL     1      -7.712   4.916  38.804  1.00  0.00     0.000 C 
BRANCH   8   9
ATOM      9  C   UNL     1      -8.079   4.295  37.446  1.00  0.00     0.000 C 
BRANCH   9  10
ATOM     10  C   UNL     1      -9.561   4.501  37.078  1.00  0.00     0.006 C 
BRANCH  10  11
ATOM     11  C   UNL     1     -10.369   3.200  36.933  1.00  0.00     0.053 C 
BRANCH  11  12
ATOM     12  C   UNL     1     -11.829   3.463  36.726  1.00  0.00     0.041 C 
ATOM     13  O   UNL     1     -12.574   3.717  37.709  1.00  0.00    -0.550 OA
ATOM     14  O   UNL     1     -12.377   3.387  35.452  1.00  0.00    -0.550 OA
ENDBRANCH  11  12
ENDBRANCH  10  11
ENDBRANCH   9  10
ENDBRANCH   8   9
ENDBRANCH   7   8
ENDBRANCH   6   7
ENDBRANCH   5   6
ENDBRANCH   4   5
ENDBRANCH   3   4
ENDBRANCH   2   3
ENDBRANCH   1   2
BRANCH   1  15
ATOM     15  C   UNL     1      -5.972   2.131  34.804  1.00  0.00     0.000 C 
BRANCH  15  16
ATOM     16  C   UNL     1      -5.228   1.504  33.605  1.00  0.00     0.000 C 
BRANCH  16  17
ATOM     17  C   UNL     1      -3.883   0.840  33.958  1.00  0.00     0.000 C 
BRANCH  17  18
ATOM     18  C   UNL     1      -3.959  -0.002  35.244  1.00  0.00    -0.000 C 
BRANCH  18  19
ATOM     19  C   UNL     1      -2.947   0.464  36.304  1.00  0.00    -0.000 C 
BRANCH  19  20
ATOM     20  C   UNL     1      -3.462   0.237  37.736  1.00  0.00    -0.000 C 
BRANCH  20  21
ATOM     21  C   UNL     1      -3.642   1.547  38.518  1.00  0.00    -0.000 C 
BRANCH  21  22
ATOM     22  C   UNL     1      -3.223   2.787  37.713  1.00  0.00    -0.000 C 
BRANCH  22  23
ATOM     23  C   UNL     1      -4.341   3.842  37.717  1.00  0.00    -0.000 C 
BRANCH  23  24
ATOM     24  C   UNL     1      -4.196   4.875  36.584  1.00  0.00    -0.000 C 
BRANCH  24  25
ATOM     25  C   UNL     1      -2.945   4.698  35.705  1.00  0.00    -0.003 C 
ATOM     26  C   UNL     1      -3.268   4.603  34.215  1.00  0.00     0.004 C 
ENDBRANCH  24  25
ENDBRANCH  23  24
ENDBRANCH  22  23
ENDBRANCH  21  22
ENDBRANCH  20  21
ENDBRANCH  19  20
ENDBRANCH  18  19
ENDBRANCH  17  18
ENDBRANCH  16  17
ENDBRANCH  15  16
ENDBRANCH   1  15
TORSDOF 22
ENDMDL
