MODEL 1
REMARK VINA RESULT:    -2.726      0.000      0.000
REMARK INTER + INTRA:          -4.744
REMARK INTER:                  -4.160
REMARK INTRA:                  -0.584
REMARK UNBOUND:                -0.584
REMARK SMILES CC(=O)CCC=C(C)CCC=C(C)CCC=C(C)C
REMARK SMILES IDX 10 1 11 2 12 3 13 4 14 5 15 6 16 7 18 8 17 9 19 10 9 11 7 12
REMARK SMILES IDX 6 13 8 14 5 15 4 16 2 17 3 18 1 19
REMARK H PARENT
REMARK Flexibility Score: inf
ROOT
ATOM      1  C   UNL     1      11.225  75.280  22.275  1.00  0.00     0.032 C 
ENDROOT
BRANCH   1   2
ATOM      2  C   UNL     1      11.470  76.124  21.047  1.00  0.00    -0.028 C 
ATOM      3  C   UNL     1      11.868  77.417  21.072  1.00  0.00    -0.077 C 
ATOM      4  C   UNL     1      12.125  78.147  22.369  1.00  0.00     0.039 C 
BRANCH   3   5
ATOM      5  C   UNL     1      12.082  78.161  19.769  1.00  0.00     0.034 C 
BRANCH   5   6
ATOM      6  C   UNL     1      10.769  78.707  19.190  1.00  0.00     0.032 C 
BRANCH   6   7
ATOM      7  C   UNL     1      10.792  80.207  19.022  1.00  0.00    -0.028 C 
ATOM      8  C   UNL     1      11.282  82.318  17.852  1.00  0.00     0.039 C 
ATOM      9  C   UNL     1      11.330  80.815  17.943  1.00  0.00    -0.080 C 
ATOM     10  C   UNL     1      11.969  80.022  16.827  1.00  0.00     0.039 C 
ENDBRANCH   6   7
ENDBRANCH   5   6
ENDBRANCH   3   5
ENDBRANCH   1   2
BRANCH   1  11
ATOM     11  C   UNL     1      12.041  73.980  22.247  1.00  0.00     0.034 C 
BRANCH  11  12
ATOM     12  C   UNL     1      11.950  73.229  23.560  1.00  0.00    -0.077 C 
ATOM     13  C   UNL     1      12.125  71.888  23.564  1.00  0.00    -0.028 C 
ATOM     14  C   UNL     1      11.705  74.003  24.832  1.00  0.00     0.039 C 
BRANCH  13  15
ATOM     15  C   UNL     1      11.996  71.011  24.786  1.00  0.00     0.035 C 
BRANCH  15  16
ATOM     16  C   UNL     1      11.775  69.540  24.405  1.00  0.00     0.079 C 
BRANCH  16  17
ATOM     17  C   UNL     1      11.690  68.657  25.624  1.00  0.00     0.130 C 
ATOM     18  O   UNL     1      12.003  69.108  26.715  1.00  0.00    -0.300 OA
ATOM     19  C   UNL     1      11.231  67.233  25.526  1.00  0.00     0.087 C 
ENDBRANCH  16  17
ENDBRANCH  15  16
ENDBRANCH  13  15
ENDBRANCH  11  12
ENDBRANCH   1  11
TORSDOF 9
ENDMDL
MODEL 2
REMARK VINA RESULT:    -0.903      4.047     10.615
REMARK INTER + INTRA:          -1.962
REMARK INTER:                  -1.741
REMARK INTRA:                  -0.221
REMARK UNBOUND:                -0.584
REMARK SMILES CC(=O)CCC=C(C)CCC=C(C)CCC=C(C)C
REMARK SMILES IDX 10 1 11 2 12 3 13 4 14 5 15 6 16 7 18 8 17 9 19 10 9 11 7 12
REMARK SMILES IDX 6 13 8 14 5 15 4 16 2 17 3 18 1 19
REMARK H PARENT
REMARK Flexibility Score: inf
ROOT
ATOM      1  C   UNL     1      10.937  76.433  21.203  1.00  0.00     0.032 C 
ENDROOT
BRANCH   1   2
ATOM      2  C   UNL     1      11.696  75.631  22.233  1.00  0.00    -0.028 C 
ATOM      3  C   UNL     1      11.200  74.555  22.886  1.00  0.00    -0.077 C 
ATOM      4  C   UNL     1       9.806  74.037  22.622  1.00  0.00     0.039 C 
BRANCH   3   5
ATOM      5  C   UNL     1      12.061  73.831  23.900  1.00  0.00     0.034 C 
BRANCH   5   6
ATOM      6  C   UNL     1      12.103  72.317  23.650  1.00  0.00     0.032 C 
BRANCH   6   7
ATOM      7  C   UNL     1      12.093  71.520  24.932  1.00  0.00    -0.028 C 
ATOM      8  C   UNL     1      12.125  69.462  26.285  1.00  0.00     0.039 C 
ATOM      9  C   UNL     1      12.109  70.169  24.955  1.00  0.00    -0.080 C 
ATOM     10  C   UNL     1      12.119  69.358  23.682  1.00  0.00     0.039 C 
ENDBRANCH   6   7
ENDBRANCH   5   6
ENDBRANCH   3   5
ENDBRANCH   1   2
BRANCH   1  11
ATOM     11  C   UNL     1      11.879  77.106  20.193  1.00  0.00     0.034 C 
BRANCH  11  12
ATOM     12  C   UNL     1      11.626  78.596  20.093  1.00  0.00    -0.077 C 
ATOM     13  C   UNL     1      10.941  79.076  19.030  1.00  0.00    -0.028 C 
ATOM     14  C   UNL     1      12.112  79.499  21.200  1.00  0.00     0.039 C 
BRANCH  13  15
ATOM     15  C   UNL     1      10.676  80.540  18.772  1.00  0.00     0.035 C 
BRANCH  15  16
ATOM     16  C   UNL     1      11.981  81.348  18.707  1.00  0.00     0.079 C 
BRANCH  16  17
ATOM     17  C   UNL     1      11.750  82.732  18.159  1.00  0.00     0.130 C 
ATOM     18  O   UNL     1      12.034  82.974  16.996  1.00  0.00    -0.300 OA
ATOM     19  C   UNL     1      11.178  83.825  19.013  1.00  0.00     0.087 C 
ENDBRANCH  16  17
ENDBRANCH  15  16
ENDBRANCH  13  15
ENDBRANCH  11  12
ENDBRANCH   1  11
TORSDOF 9
ENDMDL
MODEL 3
REMARK VINA RESULT:    -0.506      1.462      2.180
REMARK INTER + INTRA:          -1.356
REMARK INTER:                  -0.791
REMARK INTRA:                  -0.565
REMARK UNBOUND:                -0.584
REMARK SMILES CC(=O)CCC=C(C)CCC=C(C)CCC=C(C)C
REMARK SMILES IDX 10 1 11 2 12 3 13 4 14 5 15 6 16 7 18 8 17 9 19 10 9 11 7 12
REMARK SMILES IDX 6 13 8 14 5 15 4 16 2 17 3 18 1 19
REMARK H PARENT
REMARK Flexibility Score: inf
ROOT
ATOM      1  C   UNL     1      11.000  76.136  21.308  1.00  0.00     0.032 C 
ENDROOT
BRANCH   1   2
ATOM      2  C   UNL     1      11.757  77.270  20.659  1.00  0.00    -0.028 C 
ATOM      3  C   UNL     1      11.261  78.062  19.680  1.00  0.00    -0.077 C 
ATOM      4  C   UNL     1       9.860  77.885  19.146  1.00  0.00     0.039 C 
BRANCH   3   5
ATOM      5  C   UNL     1      12.119  79.172  19.107  1.00  0.00     0.034 C 
BRANCH   5   6
ATOM      6  C   UNL     1      12.088  80.437  19.976  1.00  0.00     0.032 C 
BRANCH   6   7
ATOM      7  C   UNL     1      11.943  81.696  19.157  1.00  0.00    -0.028 C 
ATOM      8  C   UNL     1      11.674  84.120  18.811  1.00  0.00     0.039 C 
ATOM      9  C   UNL     1      11.783  82.917  19.712  1.00  0.00    -0.080 C 
ATOM     10  C   UNL     1      11.717  83.101  21.209  1.00  0.00     0.039 C 
ENDBRANCH   6   7
ENDBRANCH   5   6
ENDBRANCH   3   5
ENDBRANCH   1   2
BRANCH   1  11
ATOM     11  C   UNL     1      11.891  74.904  21.524  1.00  0.00     0.034 C 
BRANCH  11  12
ATOM     12  C   UNL     1      11.520  74.155  22.787  1.00  0.00    -0.077 C 
ATOM     13  C   UNL     1      12.108  72.964  23.042  1.00  0.00    -0.028 C 
ATOM     14  C   UNL     1      10.531  74.775  23.745  1.00  0.00     0.039 C 
BRANCH  13  15
ATOM     15  C   UNL     1      11.784  72.084  24.226  1.00  0.00     0.035 C 
BRANCH  15  16
ATOM     16  C   UNL     1      12.120  70.612  23.945  1.00  0.00     0.079 C 
BRANCH  16  17
ATOM     17  C   UNL     1      11.598  69.707  25.030  1.00  0.00     0.130 C 
ATOM     18  O   UNL     1      10.755  70.125  25.808  1.00  0.00    -0.300 OA
ATOM     19  C   UNL     1      12.094  68.299  25.178  1.00  0.00     0.087 C 
ENDBRANCH  16  17
ENDBRANCH  15  16
ENDBRANCH  13  15
ENDBRANCH  11  12
ENDBRANCH   1  11
TORSDOF 9
ENDMDL
MODEL 4
REMARK VINA RESULT:    -0.388      3.331     10.114
REMARK INTER + INTRA:          -1.176
REMARK INTER:                  -1.816
REMARK INTRA:                   0.639
REMARK UNBOUND:                -0.584
REMARK SMILES CC(=O)CCC=C(C)CCC=C(C)CCC=C(C)C
REMARK SMILES IDX 10 1 11 2 12 3 13 4 14 5 15 6 16 7 18 8 17 9 19 10 9 11 7 12
REMARK SMILES IDX 6 13 8 14 5 15 4 16 2 17 3 18 1 19
REMARK H PARENT
REMARK Flexibility Score: inf
ROOT
ATOM      1  C   UNL     1       9.771  75.229  22.883  1.00  0.00     0.032 C 
ENDROOT
BRANCH   1   2
ATOM      2  C   UNL     1      10.465  74.342  23.889  1.00  0.00    -0.028 C 
ATOM      3  C   UNL     1      11.478  73.494  23.594  1.00  0.00    -0.077 C 
ATOM      4  C   UNL     1      12.029  73.368  22.194  1.00  0.00     0.039 C 
BRANCH   3   5
ATOM      5  C   UNL     1      12.095  72.654  24.694  1.00  0.00     0.034 C 
BRANCH   5   6
ATOM      6  C   UNL     1      12.097  71.158  24.349  1.00  0.00     0.032 C 
BRANCH   6   7
ATOM      7  C   UNL     1      12.105  70.282  25.578  1.00  0.00    -0.028 C 
ATOM      8  C   UNL     1      12.090  68.144  26.801  1.00  0.00     0.039 C 
ATOM      9  C   UNL     1      12.050  68.934  25.519  1.00  0.00    -0.080 C 
ATOM     10  C   UNL     1      11.955  68.206  24.199  1.00  0.00     0.039 C 
ENDBRANCH   6   7
ENDBRANCH   5   6
ENDBRANCH   3   5
ENDBRANCH   1   2
BRANCH   1  11
ATOM     11  C   UNL     1      10.586  75.372  21.588  1.00  0.00     0.034 C 
BRANCH  11  12
ATOM     12  C   UNL     1      11.351  76.678  21.545  1.00  0.00    -0.077 C 
ATOM     13  C   UNL     1      11.353  77.401  20.403  1.00  0.00    -0.028 C 
ATOM     14  C   UNL     1      12.059  77.155  22.790  1.00  0.00     0.039 C 
BRANCH  13  15
ATOM     15  C   UNL     1      12.124  78.684  20.201  1.00  0.00     0.035 C 
BRANCH  15  16
ATOM     16  C   UNL     1      12.070  79.152  18.740  1.00  0.00     0.079 C 
BRANCH  16  17
ATOM     17  C   UNL     1      11.333  80.460  18.603  1.00  0.00     0.130 C 
ATOM     18  O   UNL     1      10.469  80.751  19.415  1.00  0.00    -0.300 OA
ATOM     19  C   UNL     1      11.637  81.414  17.486  1.00  0.00     0.087 C 
ENDBRANCH  16  17
ENDBRANCH  15  16
ENDBRANCH  13  15
ENDBRANCH  11  12
ENDBRANCH   1  11
TORSDOF 9
ENDMDL
