MODEL 1
REMARK VINA RESULT:    -5.147      0.000      0.000
REMARK INTER + INTRA:          -8.106
REMARK INTER:                  -7.554
REMARK INTRA:                  -0.552
REMARK UNBOUND:                -0.552
REMARK SMILES O=C([O-])CCCCCCCC(=O)[O-]
REMARK SMILES IDX 7 1 6 2 5 3 4 4 2 5 1 6 3 7 8 8 9 9 10 10 11 11 12 12 13 13
REMARK H PARENT
REMARK Flexibility Score: inf
ROOT
ATOM      1  C   UNL     1       9.814 -25.104  10.002  1.00  0.00     0.000 C 
ENDROOT
BRANCH   1   2
ATOM      2  C   UNL     1       9.607 -25.270  11.519  1.00  0.00     0.000 C 
BRANCH   2   3
ATOM      3  C   UNL     1      10.835 -25.781  12.295  1.00  0.00     0.006 C 
BRANCH   3   4
ATOM      4  C   UNL     1      10.493 -26.899  13.288  1.00  0.00     0.053 C 
BRANCH   4   5
ATOM      5  C   UNL     1      10.200 -28.173  12.560  1.00  0.00     0.041 C 
ATOM      6  O   UNL     1       9.450 -29.041  13.079  1.00  0.00    -0.550 OA
ATOM      7  O   UNL     1      10.715 -28.381  11.286  1.00  0.00    -0.550 OA
ENDBRANCH   4   5
ENDBRANCH   3   4
ENDBRANCH   2   3
ENDBRANCH   1   2
BRANCH   1   8
ATOM      8  C   UNL     1      11.291 -24.907   9.618  1.00  0.00     0.000 C 
BRANCH   8   9
ATOM      9  C   UNL     1      11.808 -26.012   8.682  1.00  0.00     0.006 C 
BRANCH   9  10
ATOM     10  C   UNL     1      10.674 -26.782   7.992  1.00  0.00     0.053 C 
BRANCH  10  11
ATOM     11  C   UNL     1      10.639 -26.461   6.532  1.00  0.00     0.041 C 
ATOM     12  O   UNL     1       9.566 -26.576   5.882  1.00  0.00    -0.550 OA
ATOM     13  O   UNL     1      11.804 -26.082   5.876  1.00  0.00    -0.550 OA
ENDBRANCH  10  11
ENDBRANCH   9  10
ENDBRANCH   8   9
ENDBRANCH   1   8
TORSDOF 8
ENDMDL
MODEL 2
REMARK VINA RESULT:    -5.097      0.130      5.383
REMARK INTER + INTRA:          -8.032
REMARK INTER:                  -7.525
REMARK INTRA:                  -0.507
REMARK UNBOUND:                -0.552
REMARK SMILES O=C([O-])CCCCCCCC(=O)[O-]
REMARK SMILES IDX 7 1 6 2 5 3 4 4 2 5 1 6 3 7 8 8 9 9 10 10 11 11 12 12 13 13
REMARK H PARENT
REMARK Flexibility Score: inf
ROOT
ATOM      1  C   UNL     1       9.716 -25.181   9.953  1.00  0.00     0.000 C 
ENDROOT
BRANCH   1   2
ATOM      2  C   UNL     1      11.176 -24.849   9.595  1.00  0.00     0.000 C 
BRANCH   2   3
ATOM      3  C   UNL     1      11.881 -25.881   8.695  1.00  0.00     0.006 C 
BRANCH   3   4
ATOM      4  C   UNL     1      10.902 -26.829   7.992  1.00  0.00     0.053 C 
BRANCH   4   5
ATOM      5  C   UNL     1      10.788 -26.481   6.541  1.00  0.00     0.041 C 
ATOM      6  O   UNL     1      11.820 -26.200   5.875  1.00  0.00    -0.550 OA
ATOM      7  O   UNL     1       9.550 -26.513   5.913  1.00  0.00    -0.550 OA
ENDBRANCH   4   5
ENDBRANCH   3   4
ENDBRANCH   2   3
ENDBRANCH   1   2
BRANCH   1   8
ATOM      8  C   UNL     1       9.485 -25.302  11.469  1.00  0.00     0.000 C 
BRANCH   8   9
ATOM      9  C   UNL     1      10.759 -25.706  12.228  1.00  0.00     0.006 C 
BRANCH   9  10
ATOM     10  C   UNL     1      10.512 -26.828  13.246  1.00  0.00     0.053 C 
BRANCH  10  11
ATOM     11  C   UNL     1      10.234 -28.118  12.541  1.00  0.00     0.041 C 
ATOM     12  O   UNL     1      10.686 -28.319  11.383  1.00  0.00    -0.550 OA
ATOM     13  O   UNL     1       9.433 -29.081  13.145  1.00  0.00    -0.550 OA
ENDBRANCH  10  11
ENDBRANCH   9  10
ENDBRANCH   8   9
ENDBRANCH   1   8
TORSDOF 8
ENDMDL
MODEL 3
REMARK VINA RESULT:    -5.019      0.678      1.089
REMARK INTER + INTRA:          -7.919
REMARK INTER:                  -7.278
REMARK INTRA:                  -0.641
REMARK UNBOUND:                -0.552
REMARK SMILES O=C([O-])CCCCCCCC(=O)[O-]
REMARK SMILES IDX 7 1 6 2 5 3 4 4 2 5 1 6 3 7 8 8 9 9 10 10 11 11 12 12 13 13
REMARK H PARENT
REMARK Flexibility Score: inf
ROOT
ATOM      1  C   UNL     1      10.733 -24.920  10.264  1.00  0.00     0.000 C 
ENDROOT
BRANCH   1   2
ATOM      2  C   UNL     1      11.065 -25.099  11.757  1.00  0.00     0.000 C 
BRANCH   2   3
ATOM      3  C   UNL     1       9.979 -25.807  12.588  1.00  0.00     0.006 C 
BRANCH   3   4
ATOM      4  C   UNL     1      10.500 -27.050  13.320  1.00  0.00     0.053 C 
BRANCH   4   5
ATOM      5  C   UNL     1      10.141 -28.290  12.564  1.00  0.00     0.041 C 
ATOM      6  O   UNL     1       9.333 -29.121  13.057  1.00  0.00    -0.550 OA
ATOM      7  O   UNL     1      10.661 -28.506  11.294  1.00  0.00    -0.550 OA
ENDBRANCH   4   5
ENDBRANCH   3   4
ENDBRANCH   2   3
ENDBRANCH   1   2
BRANCH   1   8
ATOM      8  C   UNL     1       9.290 -25.328   9.919  1.00  0.00     0.000 C 
BRANCH   8   9
ATOM      9  C   UNL     1       9.224 -26.329   8.755  1.00  0.00     0.006 C 
BRANCH   9  10
ATOM     10  C   UNL     1      10.611 -26.698   8.212  1.00  0.00     0.053 C 
BRANCH  10  11
ATOM     11  C   UNL     1      10.683 -26.431   6.742  1.00  0.00     0.041 C 
ATOM     12  O   UNL     1       9.724 -26.750   5.991  1.00  0.00    -0.550 OA
ATOM     13  O   UNL     1      11.831 -25.872   6.193  1.00  0.00    -0.550 OA
ENDBRANCH  10  11
ENDBRANCH   9  10
ENDBRANCH   8   9
ENDBRANCH   1   8
TORSDOF 8
ENDMDL
MODEL 4
REMARK VINA RESULT:    -4.722     13.373     15.927
REMARK INTER + INTRA:          -7.482
REMARK INTER:                  -7.106
REMARK INTRA:                  -0.376
REMARK UNBOUND:                -0.552
REMARK SMILES O=C([O-])CCCCCCCC(=O)[O-]
REMARK SMILES IDX 7 1 6 2 5 3 4 4 2 5 1 6 3 7 8 8 9 9 10 10 11 11 12 12 13 13
REMARK H PARENT
REMARK Flexibility Score: inf
ROOT
ATOM      1  C   UNL     1       4.922 -29.665  24.663  1.00  0.00     0.000 C 
ENDROOT
BRANCH   1   2
ATOM      2  C   UNL     1       3.917 -28.950  25.585  1.00  0.00     0.000 C 
BRANCH   2   3
ATOM      3  C   UNL     1       2.566 -28.599  24.934  1.00  0.00     0.006 C 
BRANCH   3   4
ATOM      4  C   UNL     1       2.242 -29.475  23.718  1.00  0.00     0.053 C 
BRANCH   4   5
ATOM      5  C   UNL     1       0.943 -30.189  23.920  1.00  0.00     0.041 C 
ATOM      6  O   UNL     1       0.290 -30.027  24.985  1.00  0.00    -0.550 OA
ATOM      7  O   UNL     1       0.428 -30.996  22.913  1.00  0.00    -0.550 OA
ENDBRANCH   4   5
ENDBRANCH   3   4
ENDBRANCH   2   3
ENDBRANCH   1   2
BRANCH   1   8
ATOM      8  C   UNL     1       6.274 -29.931  25.345  1.00  0.00     0.000 C 
BRANCH   8   9
ATOM      9  C   UNL     1       7.231 -30.745  24.458  1.00  0.00     0.006 C 
BRANCH   9  10
ATOM     10  C   UNL     1       6.557 -31.262  23.180  1.00  0.00     0.053 C 
BRANCH  10  11
ATOM     11  C   UNL     1       7.480 -31.123  22.011  1.00  0.00     0.041 C 
ATOM     12  O   UNL     1       8.045 -32.137  21.525  1.00  0.00    -0.550 OA
ATOM     13  O   UNL     1       7.754 -29.864  21.489  1.00  0.00    -0.550 OA
ENDBRANCH  10  11
ENDBRANCH   9  10
ENDBRANCH   8   9
ENDBRANCH   1   8
TORSDOF 8
ENDMDL
MODEL 5
REMARK VINA RESULT:    -4.712     13.227     16.157
REMARK INTER + INTRA:          -7.467
REMARK INTER:                  -7.092
REMARK INTRA:                  -0.375
REMARK UNBOUND:                -0.552
REMARK SMILES O=C([O-])CCCCCCCC(=O)[O-]
REMARK SMILES IDX 7 1 6 2 5 3 4 4 2 5 1 6 3 7 8 8 9 9 10 10 11 11 12 12 13 13
REMARK H PARENT
REMARK Flexibility Score: inf
ROOT
ATOM      1  C   UNL     1       4.728 -29.729  24.417  1.00  0.00     0.000 C 
ENDROOT
BRANCH   1   2
ATOM      2  C   UNL     1       6.189 -29.780  24.901  1.00  0.00     0.000 C 
BRANCH   2   3
ATOM      3  C   UNL     1       7.023 -30.947  24.340  1.00  0.00     0.006 C 
BRANCH   3   4
ATOM      4  C   UNL     1       6.641 -31.319  22.901  1.00  0.00     0.053 C 
BRANCH   4   5
ATOM      5  C   UNL     1       7.620 -30.735  21.933  1.00  0.00     0.041 C 
ATOM      6  O   UNL     1       7.674 -29.488  21.762  1.00  0.00    -0.550 OA
ATOM      7  O   UNL     1       8.507 -31.562  21.256  1.00  0.00    -0.550 OA
ENDBRANCH   4   5
ENDBRANCH   3   4
ENDBRANCH   2   3
ENDBRANCH   1   2
BRANCH   1   8
ATOM      8  C   UNL     1       3.801 -28.985  25.394  1.00  0.00     0.000 C 
BRANCH   8   9
ATOM      9  C   UNL     1       2.477 -28.558  24.739  1.00  0.00     0.006 C 
BRANCH   9  10
ATOM     10  C   UNL     1       2.080 -29.460  23.563  1.00  0.00     0.053 C 
BRANCH  10  11
ATOM     11  C   UNL     1       0.807 -30.185  23.868  1.00  0.00     0.041 C 
ATOM     12  O   UNL     1       0.276 -30.082  25.006  1.00  0.00    -0.550 OA
ATOM     13  O   UNL     1       0.233 -31.013  22.912  1.00  0.00    -0.550 OA
ENDBRANCH  10  11
ENDBRANCH   9  10
ENDBRANCH   8   9
ENDBRANCH   1   8
TORSDOF 8
ENDMDL
MODEL 6
REMARK VINA RESULT:    -4.615     13.327     16.314
REMARK INTER + INTRA:          -7.325
REMARK INTER:                  -6.990
REMARK INTRA:                  -0.335
REMARK UNBOUND:                -0.552
REMARK SMILES O=C([O-])CCCCCCCC(=O)[O-]
REMARK SMILES IDX 7 1 6 2 5 3 4 4 2 5 1 6 3 7 8 8 9 9 10 10 11 11 12 12 13 13
REMARK H PARENT
REMARK Flexibility Score: inf
ROOT
ATOM      1  C   UNL     1       4.670 -29.710  24.471  1.00  0.00     0.000 C 
ENDROOT
BRANCH   1   2
ATOM      2  C   UNL     1       6.039 -29.777  25.174  1.00  0.00     0.000 C 
BRANCH   2   3
ATOM      3  C   UNL     1       6.986 -30.876  24.659  1.00  0.00     0.006 C 
BRANCH   3   4
ATOM      4  C   UNL     1       6.958 -31.024  23.132  1.00  0.00     0.053 C 
BRANCH   4   5
ATOM      5  C   UNL     1       7.985 -30.138  22.502  1.00  0.00     0.041 C 
ATOM      6  O   UNL     1       9.158 -30.105  22.959  1.00  0.00    -0.550 OA
ATOM      7  O   UNL     1       7.662 -29.385  21.381  1.00  0.00    -0.550 OA
ENDBRANCH   4   5
ENDBRANCH   3   4
ENDBRANCH   2   3
ENDBRANCH   1   2
BRANCH   1   8
ATOM      8  C   UNL     1       3.603 -28.984  25.308  1.00  0.00     0.000 C 
BRANCH   8   9
ATOM      9  C   UNL     1       2.328 -28.685  24.503  1.00  0.00     0.006 C 
BRANCH   9  10
ATOM     10  C   UNL     1       1.942 -29.830  23.557  1.00  0.00     0.053 C 
BRANCH  10  11
ATOM     11  C   UNL     1       0.564 -30.322  23.869  1.00  0.00     0.041 C 
ATOM     12  O   UNL     1      -0.125 -30.886  22.979  1.00  0.00    -0.550 OA
ATOM     13  O   UNL     1       0.022 -30.114  25.132  1.00  0.00    -0.550 OA
ENDBRANCH  10  11
ENDBRANCH   9  10
ENDBRANCH   8   9
ENDBRANCH   1   8
TORSDOF 8
ENDMDL
MODEL 7
REMARK VINA RESULT:    -4.603      1.820      5.320
REMARK INTER + INTRA:          -7.307
REMARK INTER:                  -6.781
REMARK INTRA:                  -0.526
REMARK UNBOUND:                -0.552
REMARK SMILES O=C([O-])CCCCCCCC(=O)[O-]
REMARK SMILES IDX 7 1 6 2 5 3 4 4 2 5 1 6 3 7 8 8 9 9 10 10 11 11 12 12 13 13
REMARK H PARENT
REMARK Flexibility Score: inf
ROOT
ATOM      1  C   UNL     1       8.914 -26.612   9.259  1.00  0.00     0.000 C 
ENDROOT
BRANCH   1   2
ATOM      2  C   UNL     1       8.877 -26.382   7.736  1.00  0.00     0.000 C 
BRANCH   2   3
ATOM      3  C   UNL     1      10.207 -26.639   7.004  1.00  0.00     0.006 C 
BRANCH   3   4
ATOM      4  C   UNL     1      11.224 -25.506   7.194  1.00  0.00     0.053 C 
BRANCH   4   5
ATOM      5  C   UNL     1      12.077 -25.766   8.395  1.00  0.00     0.041 C 
ATOM      6  O   UNL     1      12.476 -26.934   8.647  1.00  0.00    -0.550 OA
ATOM      7  O   UNL     1      12.473 -24.712   9.209  1.00  0.00    -0.550 OA
ENDBRANCH   4   5
ENDBRANCH   3   4
ENDBRANCH   2   3
ENDBRANCH   1   2
BRANCH   1   8
ATOM      8  C   UNL     1       8.932 -25.299  10.061  1.00  0.00     0.000 C 
BRANCH   8   9
ATOM      9  C   UNL     1       9.670 -25.439  11.401  1.00  0.00     0.006 C 
BRANCH   9  10
ATOM     10  C   UNL     1      10.482 -26.738  11.498  1.00  0.00     0.053 C 
BRANCH  10  11
ATOM     11  C   UNL     1      10.381 -27.314  12.875  1.00  0.00     0.041 C 
ATOM     12  O   UNL     1      10.867 -26.696  13.858  1.00  0.00    -0.550 OA
ATOM     13  O   UNL     1       9.793 -28.559  13.065  1.00  0.00    -0.550 OA
ENDBRANCH  10  11
ENDBRANCH   9  10
ENDBRANCH   8   9
ENDBRANCH   1   8
TORSDOF 8
ENDMDL
MODEL 8
REMARK VINA RESULT:    -4.467     12.582     14.079
REMARK INTER + INTRA:          -7.107
REMARK INTER:                  -6.452
REMARK INTRA:                  -0.655
REMARK UNBOUND:                -0.552
REMARK SMILES O=C([O-])CCCCCCCC(=O)[O-]
REMARK SMILES IDX 7 1 6 2 5 3 4 4 2 5 1 6 3 7 8 8 9 9 10 10 11 11 12 12 13 13
REMARK H PARENT
REMARK Flexibility Score: inf
ROOT
ATOM      1  C   UNL     1       7.776 -29.684  21.673  1.00  0.00     0.000 C 
ENDROOT
BRANCH   1   2
ATOM      2  C   UNL     1       7.453 -31.131  22.089  1.00  0.00     0.000 C 
BRANCH   2   3
ATOM      3  C   UNL     1       6.397 -31.273  23.201  1.00  0.00     0.006 C 
BRANCH   3   4
ATOM      4  C   UNL     1       6.974 -31.058  24.605  1.00  0.00     0.053 C 
BRANCH   4   5
ATOM      5  C   UNL     1       6.601 -29.704  25.121  1.00  0.00     0.041 C 
ATOM      6  O   UNL     1       7.461 -28.784  25.165  1.00  0.00    -0.550 OA
ATOM      7  O   UNL     1       5.293 -29.442  25.509  1.00  0.00    -0.550 OA
ENDBRANCH   4   5
ENDBRANCH   3   4
ENDBRANCH   2   3
ENDBRANCH   1   2
BRANCH   1   8
ATOM      8  C   UNL     1       9.248 -29.307  21.914  1.00  0.00     0.000 C 
BRANCH   8   9
ATOM      9  C   UNL     1      10.047 -30.443  22.571  1.00  0.00     0.006 C 
BRANCH   9  10
ATOM     10  C   UNL     1      11.445 -30.613  21.962  1.00  0.00     0.053 C 
BRANCH  10  11
ATOM     11  C   UNL     1      11.546 -31.922  21.244  1.00  0.00     0.041 C 
ATOM     12  O   UNL     1      10.567 -32.360  20.584  1.00  0.00    -0.550 OA
ATOM     13  O   UNL     1      12.705 -32.682  21.344  1.00  0.00    -0.550 OA
ENDBRANCH  10  11
ENDBRANCH   9  10
ENDBRANCH   8   9
ENDBRANCH   1   8
TORSDOF 8
ENDMDL
MODEL 9
REMARK VINA RESULT:    -4.328     13.103     14.416
REMARK INTER + INTRA:          -6.904
REMARK INTER:                  -6.359
REMARK INTRA:                  -0.545
REMARK UNBOUND:                -0.552
REMARK SMILES O=C([O-])CCCCCCCC(=O)[O-]
REMARK SMILES IDX 7 1 6 2 5 3 4 4 2 5 1 6 3 7 8 8 9 9 10 10 11 11 12 12 13 13
REMARK H PARENT
REMARK Flexibility Score: inf
ROOT
ATOM      1  C   UNL     1       7.379 -31.773  21.640  1.00  0.00     0.000 C 
ENDROOT
BRANCH   1   2
ATOM      2  C   UNL     1       7.790 -30.289  21.607  1.00  0.00     0.000 C 
BRANCH   2   3
ATOM      3  C   UNL     1       7.605 -29.530  22.933  1.00  0.00     0.006 C 
BRANCH   3   4
ATOM      4  C   UNL     1       6.521 -30.142  23.828  1.00  0.00     0.053 C 
BRANCH   4   5
ATOM      5  C   UNL     1       6.579 -29.548  25.200  1.00  0.00     0.041 C 
ATOM      6  O   UNL     1       5.565 -29.580  25.947  1.00  0.00    -0.550 OA
ATOM      7  O   UNL     1       7.766 -29.002  25.672  1.00  0.00    -0.550 OA
ENDBRANCH   4   5
ENDBRANCH   3   4
ENDBRANCH   2   3
ENDBRANCH   1   2
BRANCH   1   8
ATOM      8  C   UNL     1       8.358 -32.681  20.876  1.00  0.00     0.000 C 
BRANCH   8   9
ATOM      9  C   UNL     1       9.743 -32.038  20.701  1.00  0.00     0.006 C 
BRANCH   9  10
ATOM     10  C   UNL     1      10.852 -32.816  21.423  1.00  0.00     0.053 C 
BRANCH  10  11
ATOM     11  C   UNL     1      11.458 -31.977  22.503  1.00  0.00     0.041 C 
ATOM     12  O   UNL     1      12.708 -31.840  22.575  1.00  0.00    -0.550 OA
ATOM     13  O   UNL     1      10.644 -31.384  23.461  1.00  0.00    -0.550 OA
ENDBRANCH  10  11
ENDBRANCH   9  10
ENDBRANCH   8   9
ENDBRANCH   1   8
TORSDOF 8
ENDMDL
