MODEL 1
REMARK VINA RESULT:    -3.449      0.000      0.000
REMARK INTER + INTRA:          -6.279
REMARK INTER:                  -5.466
REMARK INTRA:                  -0.813
REMARK UNBOUND:                -0.813
REMARK SMILES CCCCCCCCCCCC(=O)[O-]
REMARK SMILES IDX 7 1 8 2 9 3 10 4 11 5 12 6 13 7 14 8 6 9 5 10 4 11 3 12 2 13
REMARK SMILES IDX 1 14
REMARK H PARENT
REMARK Flexibility Score: inf
ROOT
ATOM      1  C   UNL     1      -4.729  -4.817   8.857  1.00  0.00     0.000 C 
ENDROOT
BRANCH   1   2
ATOM      2  C   UNL     1      -4.513  -6.218   9.451  1.00  0.00     0.000 C 
BRANCH   2   3
ATOM      3  C   UNL     1      -3.303  -6.942   8.840  1.00  0.00     0.000 C 
BRANCH   3   4
ATOM      4  C   UNL     1      -3.647  -8.356   8.345  1.00  0.00     0.006 C 
BRANCH   4   5
ATOM      5  C   UNL     1      -3.826  -8.408   6.823  1.00  0.00     0.053 C 
BRANCH   5   6
ATOM      6  C   UNL     1      -2.635  -7.851   6.103  1.00  0.00     0.041 C 
ATOM      7  O   UNL     1      -1.493  -8.345   6.291  1.00  0.00    -0.550 OA
ATOM      8  O   UNL     1      -2.785  -6.767   5.247  1.00  0.00    -0.550 OA
ENDBRANCH   5   6
ENDBRANCH   4   5
ENDBRANCH   3   4
ENDBRANCH   2   3
ENDBRANCH   1   2
BRANCH   1   9
ATOM      9  C   UNL     1      -4.918  -4.888   7.337  1.00  0.00     0.000 C 
BRANCH   9  10
ATOM     10  C   UNL     1      -5.960  -3.862   6.864  1.00  0.00    -0.000 C 
BRANCH  10  11
ATOM     11  C   UNL     1      -7.049  -3.594   7.915  1.00  0.00    -0.000 C 
BRANCH  11  12
ATOM     12  C   UNL     1      -8.428  -4.126   7.487  1.00  0.00    -0.000 C 
BRANCH  12  13
ATOM     13  C   UNL     1      -8.470  -4.518   6.001  1.00  0.00    -0.003 C 
ATOM     14  C   UNL     1      -9.805  -4.181   5.337  1.00  0.00     0.004 C 
ENDBRANCH  12  13
ENDBRANCH  11  12
ENDBRANCH  10  11
ENDBRANCH   9  10
ENDBRANCH   1   9
TORSDOF 10
ENDMDL
MODEL 2
REMARK VINA RESULT:    -3.420     18.654     20.459
REMARK INTER + INTRA:          -6.232
REMARK INTER:                  -4.707
REMARK INTRA:                  -1.525
REMARK UNBOUND:                -0.813
REMARK SMILES CCCCCCCCCCCC(=O)[O-]
REMARK SMILES IDX 7 1 8 2 9 3 10 4 11 5 12 6 13 7 14 8 6 9 5 10 4 11 3 12 2 13
REMARK SMILES IDX 1 14
REMARK H PARENT
REMARK Flexibility Score: inf
ROOT
ATOM      1  C   UNL     1       4.918  -0.415  -9.621  1.00  0.00     0.000 C 
ENDROOT
BRANCH   1   2
ATOM      2  C   UNL     1       5.049   1.093  -9.357  1.00  0.00     0.000 C 
BRANCH   2   3
ATOM      3  C   UNL     1       6.496   1.521  -9.066  1.00  0.00     0.000 C 
BRANCH   3   4
ATOM      4  C   UNL     1       6.612   2.399  -7.809  1.00  0.00     0.006 C 
BRANCH   4   5
ATOM      5  C   UNL     1       5.514   2.089  -6.784  1.00  0.00     0.053 C 
BRANCH   5   6
ATOM      6  C   UNL     1       4.803   3.331  -6.336  1.00  0.00     0.041 C 
ATOM      7  O   UNL     1       3.777   3.247  -5.613  1.00  0.00    -0.550 OA
ATOM      8  O   UNL     1       5.258   4.577  -6.744  1.00  0.00    -0.550 OA
ENDBRANCH   5   6
ENDBRANCH   4   5
ENDBRANCH   3   4
ENDBRANCH   2   3
ENDBRANCH   1   2
BRANCH   1   9
ATOM      9  C   UNL     1       5.962  -1.206  -8.823  1.00  0.00     0.000 C 
BRANCH   9  10
ATOM     10  C   UNL     1       5.381  -1.690  -7.486  1.00  0.00    -0.000 C 
BRANCH  10  11
ATOM     11  C   UNL     1       6.358  -1.507  -6.313  1.00  0.00    -0.000 C 
BRANCH  11  12
ATOM     12  C   UNL     1       7.760  -1.074  -6.774  1.00  0.00    -0.000 C 
BRANCH  12  13
ATOM     13  C   UNL     1       8.380  -0.012  -5.851  1.00  0.00    -0.003 C 
ATOM     14  C   UNL     1       9.680   0.570  -6.406  1.00  0.00     0.004 C 
ENDBRANCH  12  13
ENDBRANCH  11  12
ENDBRANCH  10  11
ENDBRANCH   9  10
ENDBRANCH   1   9
TORSDOF 10
ENDMDL
MODEL 3
REMARK VINA RESULT:    -3.385     18.685     20.425
REMARK INTER + INTRA:          -6.177
REMARK INTER:                  -4.618
REMARK INTRA:                  -1.560
REMARK UNBOUND:                -0.813
REMARK SMILES CCCCCCCCCCCC(=O)[O-]
REMARK SMILES IDX 7 1 8 2 9 3 10 4 11 5 12 6 13 7 14 8 6 9 5 10 4 11 3 12 2 13
REMARK SMILES IDX 1 14
REMARK H PARENT
REMARK Flexibility Score: inf
ROOT
ATOM      1  C   UNL     1       8.498   0.669  -6.313  1.00  0.00     0.000 C 
ENDROOT
BRANCH   1   2
ATOM      2  C   UNL     1       8.683   0.856  -7.827  1.00  0.00     0.000 C 
BRANCH   2   3
ATOM      3  C   UNL     1       7.763   1.942  -8.408  1.00  0.00     0.000 C 
BRANCH   3   4
ATOM      4  C   UNL     1       7.141   2.834  -7.321  1.00  0.00     0.006 C 
BRANCH   4   5
ATOM      5  C   UNL     1       5.610   2.881  -7.418  1.00  0.00     0.053 C 
BRANCH   5   6
ATOM      6  C   UNL     1       5.000   3.597  -6.252  1.00  0.00     0.041 C 
ATOM      7  O   UNL     1       4.042   3.078  -5.621  1.00  0.00    -0.550 OA
ATOM      8  O   UNL     1       5.470   4.850  -5.882  1.00  0.00    -0.550 OA
ENDBRANCH   5   6
ENDBRANCH   4   5
ENDBRANCH   3   4
ENDBRANCH   2   3
ENDBRANCH   1   2
BRANCH   1   9
ATOM      9  C   UNL     1       7.832  -0.677  -6.003  1.00  0.00     0.000 C 
BRANCH   9  10
ATOM     10  C   UNL     1       6.302  -0.566  -6.085  1.00  0.00    -0.000 C 
BRANCH  10  11
ATOM     11  C   UNL     1       5.695  -1.494  -7.150  1.00  0.00    -0.000 C 
BRANCH  11  12
ATOM     12  C   UNL     1       5.256  -0.735  -8.415  1.00  0.00    -0.000 C 
BRANCH  12  13
ATOM     13  C   UNL     1       5.954  -1.253  -9.683  1.00  0.00    -0.003 C 
ATOM     14  C   UNL     1       7.148  -2.157  -9.376  1.00  0.00     0.004 C 
ENDBRANCH  12  13
ENDBRANCH  11  12
ENDBRANCH  10  11
ENDBRANCH   9  10
ENDBRANCH   1   9
TORSDOF 10
ENDMDL
MODEL 4
REMARK VINA RESULT:    -3.362      0.923      1.885
REMARK INTER + INTRA:          -6.141
REMARK INTER:                  -5.275
REMARK INTRA:                  -0.866
REMARK UNBOUND:                -0.813
REMARK SMILES CCCCCCCCCCCC(=O)[O-]
REMARK SMILES IDX 7 1 8 2 9 3 10 4 11 5 12 6 13 7 14 8 6 9 5 10 4 11 3 12 2 13
REMARK SMILES IDX 1 14
REMARK H PARENT
REMARK Flexibility Score: inf
ROOT
ATOM      1  C   UNL     1      -5.572  -3.894   7.836  1.00  0.00     0.000 C 
ENDROOT
BRANCH   1   2
ATOM      2  C   UNL     1      -4.816  -4.438   9.057  1.00  0.00     0.000 C 
BRANCH   2   3
ATOM      3  C   UNL     1      -4.060  -5.742   8.756  1.00  0.00     0.000 C 
BRANCH   3   4
ATOM      4  C   UNL     1      -4.577  -6.446   7.490  1.00  0.00     0.006 C 
BRANCH   4   5
ATOM      5  C   UNL     1      -3.856  -7.776   7.234  1.00  0.00     0.053 C 
BRANCH   5   6
ATOM      6  C   UNL     1      -2.621  -7.590   6.406  1.00  0.00     0.041 C 
ATOM      7  O   UNL     1      -2.707  -7.143   5.232  1.00  0.00    -0.550 OA
ATOM      8  O   UNL     1      -1.380  -7.938   6.921  1.00  0.00    -0.550 OA
ENDBRANCH   5   6
ENDBRANCH   4   5
ENDBRANCH   3   4
ENDBRANCH   2   3
ENDBRANCH   1   2
BRANCH   1   9
ATOM      9  C   UNL     1      -6.790  -3.068   8.266  1.00  0.00     0.000 C 
BRANCH   9  10
ATOM     10  C   UNL     1      -7.823  -3.948   8.990  1.00  0.00    -0.000 C 
BRANCH  10  11
ATOM     11  C   UNL     1      -8.740  -4.709   8.018  1.00  0.00    -0.000 C 
BRANCH  11  12
ATOM     12  C   UNL     1      -9.704  -3.777   7.264  1.00  0.00    -0.000 C 
BRANCH  12  13
ATOM     13  C   UNL     1      -9.800  -4.116   5.768  1.00  0.00    -0.003 C 
ATOM     14  C   UNL     1      -8.495  -4.677   5.203  1.00  0.00     0.004 C 
ENDBRANCH  12  13
ENDBRANCH  11  12
ENDBRANCH  10  11
ENDBRANCH   9  10
ENDBRANCH   1   9
TORSDOF 10
ENDMDL
MODEL 5
REMARK VINA RESULT:    -3.348     18.570     20.591
REMARK INTER + INTRA:          -6.118
REMARK INTER:                  -4.441
REMARK INTRA:                  -1.678
REMARK UNBOUND:                -0.813
REMARK SMILES CCCCCCCCCCCC(=O)[O-]
REMARK SMILES IDX 7 1 8 2 9 3 10 4 11 5 12 6 13 7 14 8 6 9 5 10 4 11 3 12 2 13
REMARK SMILES IDX 1 14
REMARK H PARENT
REMARK Flexibility Score: inf
ROOT
ATOM      1  C   UNL     1       6.859  -0.704  -5.634  1.00  0.00     0.000 C 
ENDROOT
BRANCH   1   2
ATOM      2  C   UNL     1       6.306   0.640  -6.135  1.00  0.00     0.000 C 
BRANCH   2   3
ATOM      3  C   UNL     1       7.384   1.518  -6.789  1.00  0.00     0.000 C 
BRANCH   3   4
ATOM      4  C   UNL     1       6.799   2.519  -7.800  1.00  0.00     0.006 C 
BRANCH   4   5
ATOM      5  C   UNL     1       5.319   2.243  -8.095  1.00  0.00     0.053 C 
BRANCH   5   6
ATOM      6  C   UNL     1       4.449   3.400  -7.707  1.00  0.00     0.041 C 
ATOM      7  O   UNL     1       4.083   3.544  -6.511  1.00  0.00    -0.550 OA
ATOM      8  O   UNL     1       4.018   4.300  -8.673  1.00  0.00    -0.550 OA
ENDBRANCH   5   6
ENDBRANCH   4   5
ENDBRANCH   3   4
ENDBRANCH   2   3
ENDBRANCH   1   2
BRANCH   1   9
ATOM      9  C   UNL     1       6.097  -1.879  -6.259  1.00  0.00     0.000 C 
BRANCH   9  10
ATOM     10  C   UNL     1       5.478  -1.478  -7.607  1.00  0.00    -0.000 C 
BRANCH  10  11
ATOM     11  C   UNL     1       6.326  -1.930  -8.808  1.00  0.00    -0.000 C 
BRANCH  11  12
ATOM     12  C   UNL     1       6.570  -0.797  -9.819  1.00  0.00    -0.000 C 
BRANCH  12  13
ATOM     13  C   UNL     1       8.045  -0.369  -9.878  1.00  0.00    -0.003 C 
ATOM     14  C   UNL     1       8.932  -1.168  -8.924  1.00  0.00     0.004 C 
ENDBRANCH  12  13
ENDBRANCH  11  12
ENDBRANCH  10  11
ENDBRANCH   9  10
ENDBRANCH   1   9
TORSDOF 10
ENDMDL
MODEL 6
REMARK VINA RESULT:    -3.277     18.477     20.035
REMARK INTER + INTRA:          -6.006
REMARK INTER:                  -4.808
REMARK INTRA:                  -1.197
REMARK UNBOUND:                -0.813
REMARK SMILES CCCCCCCCCCCC(=O)[O-]
REMARK SMILES IDX 7 1 8 2 9 3 10 4 11 5 12 6 13 7 14 8 6 9 5 10 4 11 3 12 2 13
REMARK SMILES IDX 1 14
REMARK H PARENT
REMARK Flexibility Score: inf
ROOT
ATOM      1  C   UNL     1       9.169   0.723  -6.005  1.00  0.00     0.000 C 
ENDROOT
BRANCH   1   2
ATOM      2  C   UNL     1       8.513  -0.329  -6.911  1.00  0.00     0.000 C 
BRANCH   2   3
ATOM      3  C   UNL     1       7.380  -1.094  -6.209  1.00  0.00     0.000 C 
BRANCH   3   4
ATOM      4  C   UNL     1       6.002  -0.451  -6.435  1.00  0.00     0.006 C 
BRANCH   4   5
ATOM      5  C   UNL     1       5.642  -0.365  -7.924  1.00  0.00     0.053 C 
BRANCH   5   6
ATOM      6  C   UNL     1       5.385  -1.718  -8.515  1.00  0.00     0.041 C 
ATOM      7  O   UNL     1       4.327  -2.341  -8.236  1.00  0.00    -0.550 OA
ATOM      8  O   UNL     1       6.329  -2.303  -9.348  1.00  0.00    -0.550 OA
ENDBRANCH   5   6
ENDBRANCH   4   5
ENDBRANCH   3   4
ENDBRANCH   2   3
ENDBRANCH   1   2
BRANCH   1   9
ATOM      9  C   UNL     1       9.308   2.066  -6.733  1.00  0.00     0.000 C 
BRANCH   9  10
ATOM     10  C   UNL     1       8.168   2.264  -7.744  1.00  0.00    -0.000 C 
BRANCH  10  11
ATOM     11  C   UNL     1       7.426   3.596  -7.549  1.00  0.00    -0.000 C 
BRANCH  11  12
ATOM     12  C   UNL     1       5.896   3.429  -7.573  1.00  0.00    -0.000 C 
BRANCH  12  13
ATOM     13  C   UNL     1       5.226   3.974  -6.302  1.00  0.00    -0.003 C 
ATOM     14  C   UNL     1       4.259   2.976  -5.666  1.00  0.00     0.004 C 
ENDBRANCH  12  13
ENDBRANCH  11  12
ENDBRANCH  10  11
ENDBRANCH   9  10
ENDBRANCH   1   9
TORSDOF 10
ENDMDL
MODEL 7
REMARK VINA RESULT:    -3.268     18.605     20.632
REMARK INTER + INTRA:          -5.992
REMARK INTER:                  -4.565
REMARK INTRA:                  -1.427
REMARK UNBOUND:                -0.813
REMARK SMILES CCCCCCCCCCCC(=O)[O-]
REMARK SMILES IDX 7 1 8 2 9 3 10 4 11 5 12 6 13 7 14 8 6 9 5 10 4 11 3 12 2 13
REMARK SMILES IDX 1 14
REMARK H PARENT
REMARK Flexibility Score: inf
ROOT
ATOM      1  C   UNL     1       7.863   0.881  -9.462  1.00  0.00     0.000 C 
ENDROOT
BRANCH   1   2
ATOM      2  C   UNL     1       8.255   1.403  -8.071  1.00  0.00     0.000 C 
BRANCH   2   3
ATOM      3  C   UNL     1       7.288   2.474  -7.544  1.00  0.00     0.000 C 
BRANCH   3   4
ATOM      4  C   UNL     1       5.816   2.139  -7.838  1.00  0.00     0.006 C 
BRANCH   4   5
ATOM      5  C   UNL     1       4.898   3.354  -7.654  1.00  0.00     0.053 C 
BRANCH   5   6
ATOM      6  C   UNL     1       4.812   3.775  -6.218  1.00  0.00     0.041 C 
ATOM      7  O   UNL     1       5.422   4.802  -5.821  1.00  0.00    -0.550 OA
ATOM      8  O   UNL     1       4.082   3.015  -5.314  1.00  0.00    -0.550 OA
ENDBRANCH   5   6
ENDBRANCH   4   5
ENDBRANCH   3   4
ENDBRANCH   2   3
ENDBRANCH   1   2
BRANCH   1   9
ATOM      9  C   UNL     1       8.396  -0.539  -9.687  1.00  0.00     0.000 C 
BRANCH   9  10
ATOM     10  C   UNL     1       7.885  -1.497  -8.599  1.00  0.00    -0.000 C 
BRANCH  10  11
ATOM     11  C   UNL     1       6.360  -1.684  -8.641  1.00  0.00    -0.000 C 
BRANCH  11  12
ATOM     12  C   UNL     1       5.703  -1.496  -7.262  1.00  0.00    -0.000 C 
BRANCH  12  13
ATOM     13  C   UNL     1       6.729  -1.504  -6.117  1.00  0.00    -0.003 C 
ATOM     14  C   UNL     1       6.588  -0.301  -5.186  1.00  0.00     0.004 C 
ENDBRANCH  12  13
ENDBRANCH  11  12
ENDBRANCH  10  11
ENDBRANCH   9  10
ENDBRANCH   1   9
TORSDOF 10
ENDMDL
MODEL 8
REMARK VINA RESULT:    -3.250      1.248      1.999
REMARK INTER + INTRA:          -5.963
REMARK INTER:                  -4.759
REMARK INTRA:                  -1.204
REMARK UNBOUND:                -0.813
REMARK SMILES CCCCCCCCCCCC(=O)[O-]
REMARK SMILES IDX 7 1 8 2 9 3 10 4 11 5 12 6 13 7 14 8 6 9 5 10 4 11 3 12 2 13
REMARK SMILES IDX 1 14
REMARK H PARENT
REMARK Flexibility Score: inf
ROOT
ATOM      1  C   UNL     1      -4.996  -4.867   7.138  1.00  0.00     0.000 C 
ENDROOT
BRANCH   1   2
ATOM      2  C   UNL     1      -4.570  -4.957   8.611  1.00  0.00     0.000 C 
BRANCH   2   3
ATOM      3  C   UNL     1      -3.828  -6.263   8.937  1.00  0.00     0.000 C 
BRANCH   3   4
ATOM      4  C   UNL     1      -4.088  -7.366   7.897  1.00  0.00     0.006 C 
BRANCH   4   5
ATOM      5  C   UNL     1      -2.785  -7.955   7.343  1.00  0.00     0.053 C 
BRANCH   5   6
ATOM      6  C   UNL     1      -2.727  -7.871   5.848  1.00  0.00     0.041 C 
ATOM      7  O   UNL     1      -2.772  -6.751   5.274  1.00  0.00    -0.550 OA
ATOM      8  O   UNL     1      -2.653  -9.031   5.088  1.00  0.00    -0.550 OA
ENDBRANCH   5   6
ENDBRANCH   4   5
ENDBRANCH   3   4
ENDBRANCH   2   3
ENDBRANCH   1   2
BRANCH   1   9
ATOM      9  C   UNL     1      -5.993  -3.723   6.922  1.00  0.00     0.000 C 
BRANCH   9  10
ATOM     10  C   UNL     1      -6.376  -3.067   8.258  1.00  0.00    -0.000 C 
BRANCH  10  11
ATOM     11  C   UNL     1      -7.874  -3.195   8.576  1.00  0.00    -0.000 C 
BRANCH  11  12
ATOM     12  C   UNL     1      -8.531  -4.386   7.856  1.00  0.00    -0.000 C 
BRANCH  12  13
ATOM     13  C   UNL     1      -8.796  -5.570   8.800  1.00  0.00    -0.003 C 
ATOM     14  C   UNL     1      -7.883  -6.764   8.525  1.00  0.00     0.004 C 
ENDBRANCH  12  13
ENDBRANCH  11  12
ENDBRANCH  10  11
ENDBRANCH   9  10
ENDBRANCH   1   9
TORSDOF 10
ENDMDL
MODEL 9
REMARK VINA RESULT:    -3.162     19.000     20.893
REMARK INTER + INTRA:          -5.824
REMARK INTER:                  -4.251
REMARK INTRA:                  -1.572
REMARK UNBOUND:                -0.813
REMARK SMILES CCCCCCCCCCCC(=O)[O-]
REMARK SMILES IDX 7 1 8 2 9 3 10 4 11 5 12 6 13 7 14 8 6 9 5 10 4 11 3 12 2 13
REMARK SMILES IDX 1 14
REMARK H PARENT
REMARK Flexibility Score: inf
ROOT
ATOM      1  C   UNL     1       9.583   2.286  -6.688  1.00  0.00     0.000 C 
ENDROOT
BRANCH   1   2
ATOM      2  C   UNL     1       9.035   2.223  -8.122  1.00  0.00     0.000 C 
BRANCH   2   3
ATOM      3  C   UNL     1       7.705   2.975  -8.282  1.00  0.00     0.000 C 
BRANCH   3   4
ATOM      4  C   UNL     1       7.249   3.657  -6.981  1.00  0.00     0.006 C 
BRANCH   4   5
ATOM      5  C   UNL     1       6.009   4.534  -7.192  1.00  0.00     0.053 C 
BRANCH   5   6
ATOM      6  C   UNL     1       4.745   3.729  -7.162  1.00  0.00     0.041 C 
ATOM      7  O   UNL     1       4.219   3.415  -6.062  1.00  0.00    -0.550 OA
ATOM      8  O   UNL     1       4.166   3.300  -8.349  1.00  0.00    -0.550 OA
ENDBRANCH   5   6
ENDBRANCH   4   5
ENDBRANCH   3   4
ENDBRANCH   2   3
ENDBRANCH   1   2
BRANCH   1   9
ATOM      9  C   UNL     1       9.637   0.889  -6.058  1.00  0.00     0.000 C 
BRANCH   9  10
ATOM     10  C   UNL     1       9.355  -0.199  -7.107  1.00  0.00    -0.000 C 
BRANCH  10  11
ATOM     11  C   UNL     1       8.067  -0.986  -6.815  1.00  0.00    -0.000 C 
BRANCH  11  12
ATOM     12  C   UNL     1       7.260  -0.387  -5.650  1.00  0.00    -0.000 C 
BRANCH  12  13
ATOM     13  C   UNL     1       5.981   0.322  -6.124  1.00  0.00    -0.003 C 
ATOM     14  C   UNL     1       5.667   0.056  -7.595  1.00  0.00     0.004 C 
ENDBRANCH  12  13
ENDBRANCH  11  12
ENDBRANCH  10  11
ENDBRANCH   9  10
ENDBRANCH   1   9
TORSDOF 10
ENDMDL
