MODEL 1
REMARK VINA RESULT:    -5.447      0.000      0.000
REMARK INTER + INTRA:         -13.730
REMARK INTER:                 -11.816
REMARK INTRA:                  -1.914
REMARK UNBOUND:                -1.914
REMARK SMILES CCCCCCCCCCCCCCCCCCCCCC(=O)[O-]
REMARK SMILES IDX 12 1 11 2 10 3 9 4 8 5 7 6 6 7 5 8 4 9 3 10 2 11 1 12 13 13
REMARK SMILES IDX 14 14 15 15 16 16 17 17 18 18 19 19 20 20 21 21 22 22 23 23
REMARK SMILES IDX 24 24
REMARK H PARENT
REMARK Flexibility Score: inf
ROOT
ATOM      1  C   UNL     1    -129.377 109.897  39.093  1.00  0.00     0.000 C 
ENDROOT
BRANCH   1   2
ATOM      2  C   UNL     1    -130.718 109.185  39.338  1.00  0.00     0.000 C 
BRANCH   2   3
ATOM      3  C   UNL     1    -130.653 107.672  39.061  1.00  0.00     0.000 C 
BRANCH   3   4
ATOM      4  C   UNL     1    -129.337 106.987  39.477  1.00  0.00    -0.000 C 
BRANCH   4   5
ATOM      5  C   UNL     1    -129.364 106.468  40.925  1.00  0.00    -0.000 C 
BRANCH   5   6
ATOM      6  C   UNL     1    -128.125 106.889  41.730  1.00  0.00    -0.000 C 
BRANCH   6   7
ATOM      7  C   UNL     1    -128.323 108.229  42.459  1.00  0.00    -0.000 C 
BRANCH   7   8
ATOM      8  C   UNL     1    -129.807 108.576  42.664  1.00  0.00    -0.000 C 
BRANCH   8   9
ATOM      9  C   UNL     1    -130.088 109.201  44.042  1.00  0.00    -0.000 C 
BRANCH   9  10
ATOM     10  C   UNL     1    -131.184 108.438  44.814  1.00  0.00    -0.000 C 
BRANCH  10  11
ATOM     11  C   UNL     1    -131.375 108.929  46.260  1.00  0.00    -0.003 C 
ATOM     12  C   UNL     1    -130.506 108.177  47.267  1.00  0.00     0.004 C 
ENDBRANCH  10  11
ENDBRANCH   9  10
ENDBRANCH   8   9
ENDBRANCH   7   8
ENDBRANCH   6   7
ENDBRANCH   5   6
ENDBRANCH   4   5
ENDBRANCH   3   4
ENDBRANCH   2   3
ENDBRANCH   1   2
BRANCH   1  13
ATOM     13  C   UNL     1    -129.340 111.325  39.670  1.00  0.00     0.000 C 
BRANCH  13  14
ATOM     14  C   UNL     1    -130.107 111.517  40.991  1.00  0.00     0.000 C 
BRANCH  14  15
ATOM     15  C   UNL     1    -130.005 112.950  41.540  1.00  0.00     0.000 C 
BRANCH  15  16
ATOM     16  C   UNL     1    -129.596 112.986  43.021  1.00  0.00     0.000 C 
BRANCH  16  17
ATOM     17  C   UNL     1    -129.815 114.370  43.658  1.00  0.00     0.000 C 
BRANCH  17  18
ATOM     18  C   UNL     1    -129.755 115.508  42.628  1.00  0.00     0.000 C 
BRANCH  18  19
ATOM     19  C   UNL     1    -129.626 116.892  43.287  1.00  0.00     0.000 C 
BRANCH  19  20
ATOM     20  C   UNL     1    -129.459 116.818  44.816  1.00  0.00     0.006 C 
BRANCH  20  21
ATOM     21  C   UNL     1    -130.145 117.967  45.575  1.00  0.00     0.053 C 
BRANCH  21  22
ATOM     22  C   UNL     1    -131.077 117.480  46.642  1.00  0.00     0.041 C 
ATOM     23  O   UNL     1    -130.893 116.358  47.182  1.00  0.00    -0.550 OA
ATOM     24  O   UNL     1    -132.134 118.278  47.059  1.00  0.00    -0.550 OA
ENDBRANCH  21  22
ENDBRANCH  20  21
ENDBRANCH  19  20
ENDBRANCH  18  19
ENDBRANCH  17  18
ENDBRANCH  16  17
ENDBRANCH  15  16
ENDBRANCH  14  15
ENDBRANCH  13  14
ENDBRANCH   1  13
TORSDOF 20
ENDMDL
MODEL 2
REMARK VINA RESULT:    -5.279      2.669      7.748
REMARK INTER + INTRA:         -13.366
REMARK INTER:                 -11.167
REMARK INTRA:                  -2.198
REMARK UNBOUND:                -1.914
REMARK SMILES CCCCCCCCCCCCCCCCCCCCCC(=O)[O-]
REMARK SMILES IDX 12 1 11 2 10 3 9 4 8 5 7 6 6 7 5 8 4 9 3 10 2 11 1 12 13 13
REMARK SMILES IDX 14 14 15 15 16 16 17 17 18 18 19 19 20 20 21 21 22 22 23 23
REMARK SMILES IDX 24 24
REMARK H PARENT
REMARK Flexibility Score: inf
ROOT
ATOM      1  C   UNL     1    -129.771 110.420  39.479  1.00  0.00     0.000 C 
ENDROOT
BRANCH   1   2
ATOM      2  C   UNL     1    -129.491 111.171  40.792  1.00  0.00     0.000 C 
BRANCH   2   3
ATOM      3  C   UNL     1    -129.928 112.646  40.744  1.00  0.00     0.000 C 
BRANCH   3   4
ATOM      4  C   UNL     1    -130.297 113.264  42.106  1.00  0.00    -0.000 C 
BRANCH   4   5
ATOM      5  C   UNL     1    -129.332 112.850  43.231  1.00  0.00    -0.000 C 
BRANCH   5   6
ATOM      6  C   UNL     1    -129.722 113.439  44.596  1.00  0.00    -0.000 C 
BRANCH   6   7
ATOM      7  C   UNL     1    -129.395 114.939  44.705  1.00  0.00    -0.000 C 
BRANCH   7   8
ATOM      8  C   UNL     1    -129.981 115.580  45.973  1.00  0.00    -0.000 C 
BRANCH   8   9
ATOM      9  C   UNL     1    -130.146 117.105  45.848  1.00  0.00    -0.000 C 
BRANCH   9  10
ATOM     10  C   UNL     1    -130.047 117.582  44.384  1.00  0.00    -0.000 C 
BRANCH  10  11
ATOM     11  C   UNL     1    -128.940 118.624  44.149  1.00  0.00    -0.003 C 
ATOM     12  C   UNL     1    -128.315 118.529  42.758  1.00  0.00     0.004 C 
ENDBRANCH  10  11
ENDBRANCH   9  10
ENDBRANCH   8   9
ENDBRANCH   7   8
ENDBRANCH   6   7
ENDBRANCH   5   6
ENDBRANCH   4   5
ENDBRANCH   3   4
ENDBRANCH   2   3
ENDBRANCH   1   2
BRANCH   1  13
ATOM     13  C   UNL     1    -131.153 109.741  39.457  1.00  0.00     0.000 C 
BRANCH  13  14
ATOM     14  C   UNL     1    -131.146 108.254  39.062  1.00  0.00     0.000 C 
BRANCH  14  15
ATOM     15  C   UNL     1    -129.729 107.705  38.821  1.00  0.00     0.000 C 
BRANCH  15  16
ATOM     16  C   UNL     1    -129.557 106.268  39.338  1.00  0.00     0.000 C 
BRANCH  16  17
ATOM     17  C   UNL     1    -129.512 106.196  40.875  1.00  0.00     0.000 C 
BRANCH  17  18
ATOM     18  C   UNL     1    -128.191 106.730  41.450  1.00  0.00     0.000 C 
BRANCH  18  19
ATOM     19  C   UNL     1    -128.369 108.069  42.188  1.00  0.00     0.000 C 
BRANCH  19  20
ATOM     20  C   UNL     1    -129.808 108.294  42.687  1.00  0.00     0.006 C 
BRANCH  20  21
ATOM     21  C   UNL     1    -129.894 109.080  44.007  1.00  0.00     0.053 C 
BRANCH  21  22
ATOM     22  C   UNL     1    -131.057 108.662  44.854  1.00  0.00     0.041 C 
ATOM     23  O   UNL     1    -132.033 108.055  44.340  1.00  0.00    -0.550 OA
ATOM     24  O   UNL     1    -131.052 108.920  46.219  1.00  0.00    -0.550 OA
ENDBRANCH  21  22
ENDBRANCH  20  21
ENDBRANCH  19  20
ENDBRANCH  18  19
ENDBRANCH  17  18
ENDBRANCH  16  17
ENDBRANCH  15  16
ENDBRANCH  14  15
ENDBRANCH  13  14
ENDBRANCH   1  13
TORSDOF 20
ENDMDL
MODEL 3
REMARK VINA RESULT:    -5.274      2.646      7.622
REMARK INTER + INTRA:         -13.353
REMARK INTER:                 -11.081
REMARK INTRA:                  -2.273
REMARK UNBOUND:                -1.914
REMARK SMILES CCCCCCCCCCCCCCCCCCCCCC(=O)[O-]
REMARK SMILES IDX 12 1 11 2 10 3 9 4 8 5 7 6 6 7 5 8 4 9 3 10 2 11 1 12 13 13
REMARK SMILES IDX 14 14 15 15 16 16 17 17 18 18 19 19 20 20 21 21 22 22 23 23
REMARK SMILES IDX 24 24
REMARK H PARENT
REMARK Flexibility Score: inf
ROOT
ATOM      1  C   UNL     1    -129.404 109.858  39.386  1.00  0.00     0.000 C 
ENDROOT
BRANCH   1   2
ATOM      2  C   UNL     1    -129.475 111.340  39.790  1.00  0.00     0.000 C 
BRANCH   2   3
ATOM      3  C   UNL     1    -130.118 111.555  41.172  1.00  0.00     0.000 C 
BRANCH   3   4
ATOM      4  C   UNL     1    -130.061 113.000  41.702  1.00  0.00    -0.000 C 
BRANCH   4   5
ATOM      5  C   UNL     1    -129.447 113.098  43.110  1.00  0.00    -0.000 C 
BRANCH   5   6
ATOM      6  C   UNL     1    -129.610 114.492  43.734  1.00  0.00    -0.000 C 
BRANCH   6   7
ATOM      7  C   UNL     1    -129.548 115.617  42.687  1.00  0.00    -0.000 C 
BRANCH   7   8
ATOM      8  C   UNL     1    -129.713 117.014  43.310  1.00  0.00    -0.000 C 
BRANCH   8   9
ATOM      9  C   UNL     1    -129.418 117.031  44.820  1.00  0.00    -0.000 C 
BRANCH   9  10
ATOM     10  C   UNL     1    -130.183 118.155  45.549  1.00  0.00    -0.000 C 
BRANCH  10  11
ATOM     11  C   UNL     1    -130.794 117.715  46.890  1.00  0.00    -0.003 C 
ATOM     12  C   UNL     1    -131.098 116.218  46.947  1.00  0.00     0.004 C 
ENDBRANCH  10  11
ENDBRANCH   9  10
ENDBRANCH   8   9
ENDBRANCH   7   8
ENDBRANCH   6   7
ENDBRANCH   5   6
ENDBRANCH   4   5
ENDBRANCH   3   4
ENDBRANCH   2   3
ENDBRANCH   1   2
BRANCH   1  13
ATOM     13  C   UNL     1    -130.746 109.122  39.563  1.00  0.00     0.000 C 
BRANCH  13  14
ATOM     14  C   UNL     1    -130.882 107.809  38.771  1.00  0.00     0.000 C 
BRANCH  14  15
ATOM     15  C   UNL     1    -129.577 106.996  38.731  1.00  0.00     0.000 C 
BRANCH  15  16
ATOM     16  C   UNL     1    -129.660 105.706  39.563  1.00  0.00     0.000 C 
BRANCH  16  17
ATOM     17  C   UNL     1    -129.485 105.966  41.070  1.00  0.00     0.000 C 
BRANCH  17  18
ATOM     18  C   UNL     1    -128.213 106.768  41.384  1.00  0.00     0.000 C 
BRANCH  18  19
ATOM     19  C   UNL     1    -128.503 108.031  42.214  1.00  0.00     0.000 C 
BRANCH  19  20
ATOM     20  C   UNL     1    -129.880 107.995  42.904  1.00  0.00     0.006 C 
BRANCH  20  21
ATOM     21  C   UNL     1    -130.061 109.069  43.990  1.00  0.00     0.053 C 
BRANCH  21  22
ATOM     22  C   UNL     1    -131.080 108.684  45.019  1.00  0.00     0.041 C 
ATOM     23  O   UNL     1    -132.266 108.438  44.679  1.00  0.00    -0.550 OA
ATOM     24  O   UNL     1    -130.710 108.571  46.353  1.00  0.00    -0.550 OA
ENDBRANCH  21  22
ENDBRANCH  20  21
ENDBRANCH  19  20
ENDBRANCH  18  19
ENDBRANCH  17  18
ENDBRANCH  16  17
ENDBRANCH  15  16
ENDBRANCH  14  15
ENDBRANCH  13  14
ENDBRANCH   1  13
TORSDOF 20
ENDMDL
MODEL 4
REMARK VINA RESULT:    -5.183      1.563      4.232
REMARK INTER + INTRA:         -13.157
REMARK INTER:                 -11.076
REMARK INTRA:                  -2.081
REMARK UNBOUND:                -1.914
REMARK SMILES CCCCCCCCCCCCCCCCCCCCCC(=O)[O-]
REMARK SMILES IDX 12 1 11 2 10 3 9 4 8 5 7 6 6 7 5 8 4 9 3 10 2 11 1 12 13 13
REMARK SMILES IDX 14 14 15 15 16 16 17 17 18 18 19 19 20 20 21 21 22 22 23 23
REMARK SMILES IDX 24 24
REMARK H PARENT
REMARK Flexibility Score: inf
ROOT
ATOM      1  C   UNL     1    -129.375 108.998  42.996  1.00  0.00     0.000 C 
ENDROOT
BRANCH   1   2
ATOM      2  C   UNL     1    -127.966 108.500  42.631  1.00  0.00     0.000 C 
BRANCH   2   3
ATOM      3  C   UNL     1    -127.986 107.226  41.766  1.00  0.00     0.000 C 
BRANCH   3   4
ATOM      4  C   UNL     1    -129.388 106.710  41.395  1.00  0.00    -0.000 C 
BRANCH   4   5
ATOM      5  C   UNL     1    -129.508 106.312  39.913  1.00  0.00    -0.000 C 
BRANCH   5   6
ATOM      6  C   UNL     1    -129.474 107.523  38.968  1.00  0.00    -0.000 C 
BRANCH   6   7
ATOM      7  C   UNL     1    -130.717 108.419  39.114  1.00  0.00    -0.000 C 
BRANCH   7   8
ATOM      8  C   UNL     1    -130.357 109.882  39.419  1.00  0.00    -0.000 C 
BRANCH   8   9
ATOM      9  C   UNL     1    -128.838 110.127  39.459  1.00  0.00    -0.000 C 
BRANCH   9  10
ATOM     10  C   UNL     1    -128.330 110.836  38.187  1.00  0.00    -0.000 C 
BRANCH  10  11
ATOM     11  C   UNL     1    -128.369 112.371  38.281  1.00  0.00    -0.003 C 
ATOM     12  C   UNL     1    -128.359 113.054  36.913  1.00  0.00     0.004 C 
ENDBRANCH  10  11
ENDBRANCH   9  10
ENDBRANCH   8   9
ENDBRANCH   7   8
ENDBRANCH   6   7
ENDBRANCH   5   6
ENDBRANCH   4   5
ENDBRANCH   3   4
ENDBRANCH   2   3
ENDBRANCH   1   2
BRANCH   1  13
ATOM     13  C   UNL     1    -129.371 110.403  43.626  1.00  0.00     0.000 C 
BRANCH  13  14
ATOM     14  C   UNL     1    -129.586 111.564  42.638  1.00  0.00     0.000 C 
BRANCH  14  15
ATOM     15  C   UNL     1    -129.324 112.943  43.267  1.00  0.00     0.000 C 
BRANCH  15  16
ATOM     16  C   UNL     1    -130.216 114.042  42.671  1.00  0.00     0.000 C 
BRANCH  16  17
ATOM     17  C   UNL     1    -129.410 115.267  42.203  1.00  0.00     0.000 C 
BRANCH  17  18
ATOM     18  C   UNL     1    -130.081 116.594  42.587  1.00  0.00     0.000 C 
BRANCH  18  19
ATOM     19  C   UNL     1    -129.084 117.612  43.169  1.00  0.00     0.000 C 
BRANCH  19  20
ATOM     20  C   UNL     1    -129.272 117.841  44.681  1.00  0.00     0.006 C 
BRANCH  20  21
ATOM     21  C   UNL     1    -129.972 116.678  45.406  1.00  0.00     0.053 C 
BRANCH  21  22
ATOM     22  C   UNL     1    -130.744 117.128  46.608  1.00  0.00     0.041 C 
ATOM     23  O   UNL     1    -131.288 116.284  47.368  1.00  0.00    -0.550 OA
ATOM     24  O   UNL     1    -130.842 118.482  46.904  1.00  0.00    -0.550 OA
ENDBRANCH  21  22
ENDBRANCH  20  21
ENDBRANCH  19  20
ENDBRANCH  18  19
ENDBRANCH  17  18
ENDBRANCH  16  17
ENDBRANCH  15  16
ENDBRANCH  14  15
ENDBRANCH  13  14
ENDBRANCH   1  13
TORSDOF 20
ENDMDL
MODEL 5
REMARK VINA RESULT:    -5.001      2.978      8.652
REMARK INTER + INTRA:         -12.761
REMARK INTER:                 -10.949
REMARK INTRA:                  -1.812
REMARK UNBOUND:                -1.914
REMARK SMILES CCCCCCCCCCCCCCCCCCCCCC(=O)[O-]
REMARK SMILES IDX 12 1 11 2 10 3 9 4 8 5 7 6 6 7 5 8 4 9 3 10 2 11 1 12 13 13
REMARK SMILES IDX 14 14 15 15 16 16 17 17 18 18 19 19 20 20 21 21 22 22 23 23
REMARK SMILES IDX 24 24
REMARK H PARENT
REMARK Flexibility Score: inf
ROOT
ATOM      1  C   UNL     1    -129.882 109.666  43.685  1.00  0.00     0.000 C 
ENDROOT
BRANCH   1   2
ATOM      2  C   UNL     1    -128.948 110.828  43.304  1.00  0.00     0.000 C 
BRANCH   2   3
ATOM      3  C   UNL     1    -129.238 112.115  44.098  1.00  0.00     0.000 C 
BRANCH   3   4
ATOM      4  C   UNL     1    -129.471 113.373  43.241  1.00  0.00    -0.000 C 
BRANCH   4   5
ATOM      5  C   UNL     1    -129.970 114.574  44.064  1.00  0.00    -0.000 C 
BRANCH   5   6
ATOM      6  C   UNL     1    -129.742 115.917  43.354  1.00  0.00    -0.000 C 
BRANCH   6   7
ATOM      7  C   UNL     1    -129.889 117.118  44.304  1.00  0.00    -0.000 C 
BRANCH   7   8
ATOM      8  C   UNL     1    -130.123 116.693  45.763  1.00  0.00    -0.000 C 
BRANCH   8   9
ATOM      9  C   UNL     1    -130.573 117.860  46.659  1.00  0.00    -0.000 C 
BRANCH   9  10
ATOM     10  C   UNL     1    -132.066 117.762  47.035  1.00  0.00    -0.000 C 
BRANCH  10  11
ATOM     11  C   UNL     1    -132.718 119.124  47.327  1.00  0.00    -0.003 C 
ATOM     12  C   UNL     1    -134.188 119.009  47.730  1.00  0.00     0.004 C 
ENDBRANCH  10  11
ENDBRANCH   9  10
ENDBRANCH   8   9
ENDBRANCH   7   8
ENDBRANCH   6   7
ENDBRANCH   5   6
ENDBRANCH   4   5
ENDBRANCH   3   4
ENDBRANCH   2   3
ENDBRANCH   1   2
BRANCH   1  13
ATOM     13  C   UNL     1    -129.686 108.422  42.798  1.00  0.00     0.000 C 
BRANCH  13  14
ATOM     14  C   UNL     1    -128.239 108.169  42.337  1.00  0.00     0.000 C 
BRANCH  14  15
ATOM     15  C   UNL     1    -128.067 106.820  41.618  1.00  0.00     0.000 C 
BRANCH  15  16
ATOM     16  C   UNL     1    -129.409 106.201  41.195  1.00  0.00     0.000 C 
BRANCH  16  17
ATOM     17  C   UNL     1    -129.404 105.730  39.730  1.00  0.00     0.000 C 
BRANCH  17  18
ATOM     18  C   UNL     1    -129.566 106.893  38.739  1.00  0.00     0.000 C 
BRANCH  18  19
ATOM     19  C   UNL     1    -130.873 107.675  38.957  1.00  0.00     0.000 C 
BRANCH  19  20
ATOM     20  C   UNL     1    -130.638 109.106  39.477  1.00  0.00     0.006 C 
BRANCH  20  21
ATOM     21  C   UNL     1    -129.221 109.641  39.211  1.00  0.00     0.053 C 
BRANCH  21  22
ATOM     22  C   UNL     1    -129.160 111.138  39.208  1.00  0.00     0.041 C 
ATOM     23  O   UNL     1    -129.747 111.801  40.103  1.00  0.00    -0.550 OA
ATOM     24  O   UNL     1    -128.431 111.801  38.229  1.00  0.00    -0.550 OA
ENDBRANCH  21  22
ENDBRANCH  20  21
ENDBRANCH  19  20
ENDBRANCH  18  19
ENDBRANCH  17  18
ENDBRANCH  16  17
ENDBRANCH  15  16
ENDBRANCH  14  15
ENDBRANCH  13  14
ENDBRANCH   1  13
TORSDOF 20
ENDMDL
MODEL 6
REMARK VINA RESULT:    -4.985      1.605      2.173
REMARK INTER + INTRA:         -12.727
REMARK INTER:                 -10.585
REMARK INTRA:                  -2.142
REMARK UNBOUND:                -1.914
REMARK SMILES CCCCCCCCCCCCCCCCCCCCCC(=O)[O-]
REMARK SMILES IDX 12 1 11 2 10 3 9 4 8 5 7 6 6 7 5 8 4 9 3 10 2 11 1 12 13 13
REMARK SMILES IDX 14 14 15 15 16 16 17 17 18 18 19 19 20 20 21 21 22 22 23 23
REMARK SMILES IDX 24 24
REMARK H PARENT
REMARK Flexibility Score: inf
ROOT
ATOM      1  C   UNL     1    -129.554 109.881  39.335  1.00  0.00     0.000 C 
ENDROOT
BRANCH   1   2
ATOM      2  C   UNL     1    -131.046 109.519  39.238  1.00  0.00     0.000 C 
BRANCH   2   3
ATOM      3  C   UNL     1    -131.281 108.048  38.846  1.00  0.00     0.000 C 
BRANCH   3   4
ATOM      4  C   UNL     1    -130.010 107.182  38.765  1.00  0.00    -0.000 C 
BRANCH   4   5
ATOM      5  C   UNL     1    -130.206 105.775  39.357  1.00  0.00    -0.000 C 
BRANCH   5   6
ATOM      6  C   UNL     1    -129.393 105.553  40.642  1.00  0.00    -0.000 C 
BRANCH   6   7
ATOM      7  C   UNL     1    -128.271 106.591  40.816  1.00  0.00    -0.000 C 
BRANCH   7   8
ATOM      8  C   UNL     1    -128.411 107.400  42.116  1.00  0.00    -0.000 C 
BRANCH   8   9
ATOM      9  C   UNL     1    -129.827 107.968  42.314  1.00  0.00    -0.000 C 
BRANCH   9  10
ATOM     10  C   UNL     1    -129.933 108.835  43.586  1.00  0.00    -0.000 C 
BRANCH  10  11
ATOM     11  C   UNL     1    -131.128 108.469  44.483  1.00  0.00    -0.003 C 
ATOM     12  C   UNL     1    -130.884 108.778  45.960  1.00  0.00     0.004 C 
ENDBRANCH  10  11
ENDBRANCH   9  10
ENDBRANCH   8   9
ENDBRANCH   7   8
ENDBRANCH   6   7
ENDBRANCH   5   6
ENDBRANCH   4   5
ENDBRANCH   3   4
ENDBRANCH   2   3
ENDBRANCH   1   2
BRANCH   1  13
ATOM     13  C   UNL     1    -129.316 111.375  39.628  1.00  0.00     0.000 C 
BRANCH  13  14
ATOM     14  C   UNL     1    -129.808 111.857  41.004  1.00  0.00     0.000 C 
BRANCH  14  15
ATOM     15  C   UNL     1    -129.983 113.384  41.076  1.00  0.00     0.000 C 
BRANCH  15  16
ATOM     16  C   UNL     1    -130.309 113.874  42.496  1.00  0.00     0.000 C 
BRANCH  16  17
ATOM     17  C   UNL     1    -129.303 113.361  43.541  1.00  0.00     0.000 C 
BRANCH  17  18
ATOM     18  C   UNL     1    -129.665 113.797  44.969  1.00  0.00     0.000 C 
BRANCH  18  19
ATOM     19  C   UNL     1    -129.016 115.137  45.358  1.00  0.00     0.000 C 
BRANCH  19  20
ATOM     20  C   UNL     1    -130.033 116.173  45.872  1.00  0.00     0.006 C 
BRANCH  20  21
ATOM     21  C   UNL     1    -130.478 117.191  44.808  1.00  0.00     0.053 C 
BRANCH  21  22
ATOM     22  C   UNL     1    -129.347 117.645  43.935  1.00  0.00     0.041 C 
ATOM     23  O   UNL     1    -128.524 118.501  44.354  1.00  0.00    -0.550 OA
ATOM     24  O   UNL     1    -129.188 117.103  42.667  1.00  0.00    -0.550 OA
ENDBRANCH  21  22
ENDBRANCH  20  21
ENDBRANCH  19  20
ENDBRANCH  18  19
ENDBRANCH  17  18
ENDBRANCH  16  17
ENDBRANCH  15  16
ENDBRANCH  14  15
ENDBRANCH  13  14
ENDBRANCH   1  13
TORSDOF 20
ENDMDL
MODEL 7
REMARK VINA RESULT:    -4.914      5.680      7.439
REMARK INTER + INTRA:         -12.574
REMARK INTER:                 -11.266
REMARK INTRA:                  -1.308
REMARK UNBOUND:                -1.914
REMARK SMILES CCCCCCCCCCCCCCCCCCCCCC(=O)[O-]
REMARK SMILES IDX 12 1 11 2 10 3 9 4 8 5 7 6 6 7 5 8 4 9 3 10 2 11 1 12 13 13
REMARK SMILES IDX 14 14 15 15 16 16 17 17 18 18 19 19 20 20 21 21 22 22 23 23
REMARK SMILES IDX 24 24
REMARK H PARENT
REMARK Flexibility Score: inf
ROOT
ATOM      1  C   UNL     1    -129.032 109.253  39.123  1.00  0.00     0.000 C 
ENDROOT
BRANCH   1   2
ATOM      2  C   UNL     1    -130.462 108.695  39.228  1.00  0.00     0.000 C 
BRANCH   2   3
ATOM      3  C   UNL     1    -130.539 107.185  38.937  1.00  0.00     0.000 C 
BRANCH   3   4
ATOM      4  C   UNL     1    -129.357 106.355  39.473  1.00  0.00    -0.000 C 
BRANCH   4   5
ATOM      5  C   UNL     1    -129.306 106.309  41.010  1.00  0.00    -0.000 C 
BRANCH   5   6
ATOM      6  C   UNL     1    -127.997 106.881  41.578  1.00  0.00    -0.000 C 
BRANCH   6   7
ATOM      7  C   UNL     1    -128.240 107.903  42.702  1.00  0.00    -0.000 C 
BRANCH   7   8
ATOM      8  C   UNL     1    -129.642 108.532  42.635  1.00  0.00    -0.000 C 
BRANCH   8   9
ATOM      9  C   UNL     1    -130.169 108.959  44.017  1.00  0.00    -0.000 C 
BRANCH   9  10
ATOM     10  C   UNL     1    -131.524 108.302  44.350  1.00  0.00    -0.000 C 
BRANCH  10  11
ATOM     11  C   UNL     1    -131.973 108.518  45.806  1.00  0.00    -0.003 C 
ATOM     12  C   UNL     1    -130.803 108.617  46.783  1.00  0.00     0.004 C 
ENDBRANCH  10  11
ENDBRANCH   9  10
ENDBRANCH   8   9
ENDBRANCH   7   8
ENDBRANCH   6   7
ENDBRANCH   5   6
ENDBRANCH   4   5
ENDBRANCH   3   4
ENDBRANCH   2   3
ENDBRANCH   1   2
BRANCH   1  13
ATOM     13  C   UNL     1    -128.987 110.793  39.117  1.00  0.00     0.000 C 
BRANCH  13  14
ATOM     14  C   UNL     1    -127.942 111.413  38.172  1.00  0.00     0.000 C 
BRANCH  14  15
ATOM     15  C   UNL     1    -128.292 112.851  37.753  1.00  0.00     0.000 C 
BRANCH  15  16
ATOM     16  C   UNL     1    -128.224 113.055  36.232  1.00  0.00     0.000 C 
BRANCH  16  17
ATOM     17  C   UNL     1    -129.357 113.954  35.707  1.00  0.00     0.000 C 
BRANCH  17  18
ATOM     18  C   UNL     1    -129.667 113.703  34.223  1.00  0.00     0.000 C 
BRANCH  18  19
ATOM     19  C   UNL     1    -131.074 114.184  33.827  1.00  0.00     0.000 C 
BRANCH  19  20
ATOM     20  C   UNL     1    -132.186 113.205  34.245  1.00  0.00     0.006 C 
BRANCH  20  21
ATOM     21  C   UNL     1    -133.025 112.674  33.069  1.00  0.00     0.053 C 
BRANCH  21  22
ATOM     22  C   UNL     1    -134.294 113.445  32.870  1.00  0.00     0.041 C 
ATOM     23  O   UNL     1    -134.677 114.275  33.736  1.00  0.00    -0.550 OA
ATOM     24  O   UNL     1    -135.041 113.266  31.713  1.00  0.00    -0.550 OA
ENDBRANCH  21  22
ENDBRANCH  20  21
ENDBRANCH  19  20
ENDBRANCH  18  19
ENDBRANCH  17  18
ENDBRANCH  16  17
ENDBRANCH  15  16
ENDBRANCH  14  15
ENDBRANCH  13  14
ENDBRANCH   1  13
TORSDOF 20
ENDMDL
MODEL 8
REMARK VINA RESULT:    -4.826      2.811      6.892
REMARK INTER + INTRA:         -12.382
REMARK INTER:                 -10.724
REMARK INTRA:                  -1.658
REMARK UNBOUND:                -1.914
REMARK SMILES CCCCCCCCCCCCCCCCCCCCCC(=O)[O-]
REMARK SMILES IDX 12 1 11 2 10 3 9 4 8 5 7 6 6 7 5 8 4 9 3 10 2 11 1 12 13 13
REMARK SMILES IDX 14 14 15 15 16 16 17 17 18 18 19 19 20 20 21 21 22 22 23 23
REMARK SMILES IDX 24 24
REMARK H PARENT
REMARK Flexibility Score: inf
ROOT
ATOM      1  C   UNL     1    -129.692 106.349  39.501  1.00  0.00     0.000 C 
ENDROOT
BRANCH   1   2
ATOM      2  C   UNL     1    -129.780 107.821  39.064  1.00  0.00     0.000 C 
BRANCH   2   3
ATOM      3  C   UNL     1    -131.226 108.348  39.018  1.00  0.00     0.000 C 
BRANCH   3   4
ATOM      4  C   UNL     1    -131.389 109.841  39.360  1.00  0.00    -0.000 C 
BRANCH   4   5
ATOM      5  C   UNL     1    -130.063 110.513  39.756  1.00  0.00    -0.000 C 
BRANCH   5   6
ATOM      6  C   UNL     1    -130.099 111.111  41.171  1.00  0.00    -0.000 C 
BRANCH   6   7
ATOM      7  C   UNL     1    -129.877 112.634  41.172  1.00  0.00    -0.000 C 
BRANCH   7   8
ATOM      8  C   UNL     1    -129.828 113.222  42.592  1.00  0.00    -0.000 C 
BRANCH   8   9
ATOM      9  C   UNL     1    -129.853 114.761  42.600  1.00  0.00    -0.000 C 
BRANCH   9  10
ATOM     10  C   UNL     1    -129.681 115.338  44.021  1.00  0.00    -0.000 C 
BRANCH  10  11
ATOM     11  C   UNL     1    -129.823 116.868  44.086  1.00  0.00    -0.003 C 
ATOM     12  C   UNL     1    -130.198 117.375  45.478  1.00  0.00     0.004 C 
ENDBRANCH  10  11
ENDBRANCH   9  10
ENDBRANCH   8   9
ENDBRANCH   7   8
ENDBRANCH   6   7
ENDBRANCH   5   6
ENDBRANCH   4   5
ENDBRANCH   3   4
ENDBRANCH   2   3
ENDBRANCH   1   2
BRANCH   1  13
ATOM     13  C   UNL     1    -129.347 106.185  40.993  1.00  0.00     0.000 C 
BRANCH  13  14
ATOM     14  C   UNL     1    -128.112 106.971  41.470  1.00  0.00     0.000 C 
BRANCH  14  15
ATOM     15  C   UNL     1    -128.470 108.139  42.404  1.00  0.00     0.000 C 
BRANCH  15  16
ATOM     16  C   UNL     1    -129.960 108.159  42.779  1.00  0.00     0.000 C 
BRANCH  16  17
ATOM     17  C   UNL     1    -130.208 108.759  44.175  1.00  0.00     0.000 C 
BRANCH  17  18
ATOM     18  C   UNL     1    -131.564 108.340  44.763  1.00  0.00     0.000 C 
BRANCH  18  19
ATOM     19  C   UNL     1    -131.736 108.789  46.224  1.00  0.00     0.000 C 
BRANCH  19  20
ATOM     20  C   UNL     1    -130.452 108.630  47.059  1.00  0.00     0.006 C 
BRANCH  20  21
ATOM     21  C   UNL     1    -130.521 107.497  48.098  1.00  0.00     0.053 C 
BRANCH  21  22
ATOM     22  C   UNL     1    -129.376 107.530  49.064  1.00  0.00     0.041 C 
ATOM     23  O   UNL     1    -128.731 106.479  49.322  1.00  0.00    -0.550 OA
ATOM     24  O   UNL     1    -129.004 108.727  49.660  1.00  0.00    -0.550 OA
ENDBRANCH  21  22
ENDBRANCH  20  21
ENDBRANCH  19  20
ENDBRANCH  18  19
ENDBRANCH  17  18
ENDBRANCH  16  17
ENDBRANCH  15  16
ENDBRANCH  14  15
ENDBRANCH  13  14
ENDBRANCH   1  13
TORSDOF 20
ENDMDL
MODEL 9
REMARK VINA RESULT:    -4.747      2.762      8.172
REMARK INTER + INTRA:         -12.211
REMARK INTER:                 -10.112
REMARK INTRA:                  -2.099
REMARK UNBOUND:                -1.914
REMARK SMILES CCCCCCCCCCCCCCCCCCCCCC(=O)[O-]
REMARK SMILES IDX 12 1 11 2 10 3 9 4 8 5 7 6 6 7 5 8 4 9 3 10 2 11 1 12 13 13
REMARK SMILES IDX 14 14 15 15 16 16 17 17 18 18 19 19 20 20 21 21 22 22 23 23
REMARK SMILES IDX 24 24
REMARK H PARENT
REMARK Flexibility Score: inf
ROOT
ATOM      1  C   UNL     1    -130.134 112.800  40.821  1.00  0.00     0.000 C 
ENDROOT
BRANCH   1   2
ATOM      2  C   UNL     1    -130.075 113.485  42.197  1.00  0.00     0.000 C 
BRANCH   2   3
ATOM      3  C   UNL     1    -129.339 112.642  43.255  1.00  0.00     0.000 C 
BRANCH   3   4
ATOM      4  C   UNL     1    -129.387 113.205  44.688  1.00  0.00    -0.000 C 
BRANCH   4   5
ATOM      5  C   UNL     1    -130.090 114.572  44.771  1.00  0.00    -0.000 C 
BRANCH   5   6
ATOM      6  C   UNL     1    -129.712 115.359  46.035  1.00  0.00    -0.000 C 
BRANCH   6   7
ATOM      7  C   UNL     1    -130.752 116.435  46.393  1.00  0.00    -0.000 C 
BRANCH   7   8
ATOM      8  C   UNL     1    -130.422 117.804  45.775  1.00  0.00    -0.000 C 
BRANCH   8   9
ATOM      9  C   UNL     1    -129.059 117.822  45.061  1.00  0.00    -0.000 C 
BRANCH   9  10
ATOM     10  C   UNL     1    -128.993 118.905  43.964  1.00  0.00    -0.000 C 
BRANCH  10  11
ATOM     11  C   UNL     1    -128.538 118.370  42.596  1.00  0.00    -0.003 C 
ATOM     12  C   UNL     1    -129.033 116.952  42.314  1.00  0.00     0.004 C 
ENDBRANCH  10  11
ENDBRANCH   9  10
ENDBRANCH   8   9
ENDBRANCH   7   8
ENDBRANCH   6   7
ENDBRANCH   5   6
ENDBRANCH   4   5
ENDBRANCH   3   4
ENDBRANCH   2   3
ENDBRANCH   1   2
BRANCH   1  13
ATOM     13  C   UNL     1    -129.854 111.287  40.890  1.00  0.00     0.000 C 
BRANCH  13  14
ATOM     14  C   UNL     1    -129.936 110.544  39.545  1.00  0.00     0.000 C 
BRANCH  14  15
ATOM     15  C   UNL     1    -131.166 109.626  39.441  1.00  0.00     0.000 C 
BRANCH  15  16
ATOM     16  C   UNL     1    -130.795 108.181  39.073  1.00  0.00     0.000 C 
BRANCH  16  17
ATOM     17  C   UNL     1    -129.371 107.807  39.520  1.00  0.00     0.000 C 
BRANCH  17  18
ATOM     18  C   UNL     1    -129.361 106.984  40.818  1.00  0.00     0.000 C 
BRANCH  18  19
ATOM     19  C   UNL     1    -129.067 107.845  42.059  1.00  0.00     0.000 C 
BRANCH  19  20
ATOM     20  C   UNL     1    -130.341 108.267  42.815  1.00  0.00     0.006 C 
BRANCH  20  21
ATOM     21  C   UNL     1    -130.066 108.988  44.145  1.00  0.00     0.053 C 
BRANCH  21  22
ATOM     22  C   UNL     1    -131.064 108.641  45.208  1.00  0.00     0.041 C 
ATOM     23  O   UNL     1    -132.275 108.472  44.911  1.00  0.00    -0.550 OA
ATOM     24  O   UNL     1    -130.650 108.479  46.523  1.00  0.00    -0.550 OA
ENDBRANCH  21  22
ENDBRANCH  20  21
ENDBRANCH  19  20
ENDBRANCH  18  19
ENDBRANCH  17  18
ENDBRANCH  16  17
ENDBRANCH  15  16
ENDBRANCH  14  15
ENDBRANCH  13  14
ENDBRANCH   1  13
TORSDOF 20
ENDMDL
