MODEL 1
REMARK VINA RESULT:    -3.687      0.000      0.000
REMARK INTER + INTRA:         -10.085
REMARK INTER:                  -7.136
REMARK INTRA:                  -2.949
REMARK UNBOUND:                -2.949
REMARK SMILES CCCCCC=CCC=CCCCCCCCCOC(C)=O
REMARK SMILES IDX 12 1 11 2 10 3 9 4 8 5 7 6 6 7 5 8 4 9 3 10 2 11 1 12 13 13
REMARK SMILES IDX 14 14 15 15 16 16 17 17 18 18 19 19 20 20 22 21 21 22
REMARK H PARENT
REMARK Flexibility Score: inf
ROOT
ATOM      1  C   UNL     1       2.881 -15.335  16.638  1.00  0.00     0.004 C 
ENDROOT
BRANCH   1   2
ATOM      2  C   UNL     1       2.238 -15.149  18.021  1.00  0.00     0.027 C 
BRANCH   2   3
ATOM      3  C   UNL     1       2.361 -16.384  18.881  1.00  0.00    -0.031 C 
ATOM      4  C   UNL     1       1.327 -17.123  19.324  1.00  0.00    -0.027 C 
BRANCH   4   5
ATOM      5  C   UNL     1      -0.122 -16.887  18.982  1.00  0.00     0.054 C 
BRANCH   5   6
ATOM      6  C   UNL     1      -0.934 -18.100  19.330  1.00  0.00    -0.027 C 
ATOM      7  C   UNL     1      -2.074 -18.386  18.683  1.00  0.00    -0.031 C 
BRANCH   7   8
ATOM      8  C   UNL     1      -2.883 -19.610  19.014  1.00  0.00     0.027 C 
BRANCH   8   9
ATOM      9  C   UNL     1      -2.025 -20.885  19.047  1.00  0.00     0.004 C 
BRANCH   9  10
ATOM     10  C   UNL     1      -2.128 -21.683  17.736  1.00  0.00     0.000 C 
BRANCH  10  11
ATOM     11  C   UNL     1      -0.939 -22.635  17.531  1.00  0.00    -0.003 C 
ATOM     12  C   UNL     1      -0.009 -22.189  16.404  1.00  0.00     0.004 C 
ENDBRANCH  10  11
ENDBRANCH   9  10
ENDBRANCH   8   9
ENDBRANCH   7   8
ENDBRANCH   5   6
ENDBRANCH   4   5
ENDBRANCH   2   3
ENDBRANCH   1   2
BRANCH   1  13
ATOM     13  C   UNL     1       2.872 -16.805  16.184  1.00  0.00     0.000 C 
BRANCH  13  14
ATOM     14  C   UNL     1       2.481 -16.955  14.699  1.00  0.00     0.000 C 
BRANCH  14  15
ATOM     15  C   UNL     1       1.421 -18.044  14.443  1.00  0.00     0.000 C 
BRANCH  15  16
ATOM     16  C   UNL     1       0.699 -18.558  15.702  1.00  0.00     0.003 C 
BRANCH  16  17
ATOM     17  C   UNL     1      -0.814 -18.728  15.489  1.00  0.00     0.042 C 
BRANCH  17  18
ATOM     18  C   UNL     1      -1.368 -17.685  14.514  1.00  0.00     0.233 C 
BRANCH  18  19
ATOM     19  O   UNL     1      -2.303 -16.817  15.153  1.00  0.00    -0.466 OA
BRANCH  19  20
ATOM     20  C   UNL     1      -1.927 -15.720  15.937  1.00  0.00     0.302 C 
ATOM     21  O   UNL     1      -2.654 -15.323  16.887  1.00  0.00    -0.253 OA
ATOM     22  C   UNL     1      -0.644 -15.018  15.651  1.00  0.00     0.139 C 
ENDBRANCH  19  20
ENDBRANCH  18  19
ENDBRANCH  17  18
ENDBRANCH  16  17
ENDBRANCH  15  16
ENDBRANCH  14  15
ENDBRANCH  13  14
ENDBRANCH   1  13
TORSDOF 16
ENDMDL
MODEL 2
REMARK VINA RESULT:    -3.497     19.845     23.226
REMARK INTER + INTRA:          -9.716
REMARK INTER:                  -7.540
REMARK INTRA:                  -2.176
REMARK UNBOUND:                -2.949
REMARK SMILES CCCCCC=CCC=CCCCCCCCCOC(C)=O
REMARK SMILES IDX 12 1 11 2 10 3 9 4 8 5 7 6 6 7 5 8 4 9 3 10 2 11 1 12 13 13
REMARK SMILES IDX 14 14 15 15 16 16 17 17 18 18 19 19 20 20 22 21 21 22
REMARK H PARENT
REMARK Flexibility Score: inf
ROOT
ATOM      1  C   UNL     1      13.016  -9.829  34.125  1.00  0.00     0.004 C 
ENDROOT
BRANCH   1   2
ATOM      2  C   UNL     1      14.485 -10.253  33.967  1.00  0.00     0.027 C 
BRANCH   2   3
ATOM      3  C   UNL     1      15.137  -9.621  32.762  1.00  0.00    -0.031 C 
ATOM      4  C   UNL     1      15.851  -8.480  32.779  1.00  0.00    -0.027 C 
BRANCH   4   5
ATOM      5  C   UNL     1      16.180  -7.676  34.010  1.00  0.00     0.054 C 
BRANCH   5   6
ATOM      6  C   UNL     1      15.304  -6.459  34.077  1.00  0.00    -0.027 C 
ATOM      7  C   UNL     1      15.735  -5.264  33.645  1.00  0.00    -0.031 C 
BRANCH   7   8
ATOM      8  C   UNL     1      14.854  -4.045  33.692  1.00  0.00     0.027 C 
BRANCH   8   9
ATOM      9  C   UNL     1      13.377  -4.383  33.440  1.00  0.00     0.004 C 
BRANCH   9  10
ATOM     10  C   UNL     1      12.873  -3.808  32.105  1.00  0.00     0.000 C 
BRANCH  10  11
ATOM     11  C   UNL     1      12.324  -4.894  31.166  1.00  0.00    -0.003 C 
ATOM     12  C   UNL     1      12.957  -6.263  31.409  1.00  0.00     0.004 C 
ENDBRANCH  10  11
ENDBRANCH   9  10
ENDBRANCH   8   9
ENDBRANCH   7   8
ENDBRANCH   5   6
ENDBRANCH   4   5
ENDBRANCH   2   3
ENDBRANCH   1   2
BRANCH   1  13
ATOM     13  C   UNL     1      12.058 -10.751  33.351  1.00  0.00     0.000 C 
BRANCH  13  14
ATOM     14  C   UNL     1      10.988  -9.958  32.572  1.00  0.00     0.000 C 
BRANCH  14  15
ATOM     15  C   UNL     1      11.422  -9.565  31.146  1.00  0.00     0.000 C 
BRANCH  15  16
ATOM     16  C   UNL     1      12.552 -10.423  30.550  1.00  0.00     0.003 C 
BRANCH  16  17
ATOM     17  C   UNL     1      12.249 -10.889  29.117  1.00  0.00     0.042 C 
BRANCH  17  18
ATOM     18  C   UNL     1      13.526 -10.997  28.277  1.00  0.00     0.233 C 
BRANCH  18  19
ATOM     19  O   UNL     1      14.667 -11.255  29.094  1.00  0.00    -0.466 OA
BRANCH  19  20
ATOM     20  C   UNL     1      15.929 -10.698  28.854  1.00  0.00     0.302 C 
ATOM     21  O   UNL     1      16.067  -9.723  28.068  1.00  0.00    -0.253 OA
ATOM     22  C   UNL     1      17.124 -11.259  29.545  1.00  0.00     0.139 C 
ENDBRANCH  19  20
ENDBRANCH  18  19
ENDBRANCH  17  18
ENDBRANCH  16  17
ENDBRANCH  15  16
ENDBRANCH  14  15
ENDBRANCH  13  14
ENDBRANCH   1  13
TORSDOF 16
ENDMDL
MODEL 3
REMARK VINA RESULT:    -3.406      1.982      5.192
REMARK INTER + INTRA:          -9.541
REMARK INTER:                  -6.848
REMARK INTRA:                  -2.693
REMARK UNBOUND:                -2.949
REMARK SMILES CCCCCC=CCC=CCCCCCCCCOC(C)=O
REMARK SMILES IDX 12 1 11 2 10 3 9 4 8 5 7 6 6 7 5 8 4 9 3 10 2 11 1 12 13 13
REMARK SMILES IDX 14 14 15 15 16 16 17 17 18 18 19 19 20 20 22 21 21 22
REMARK H PARENT
REMARK Flexibility Score: inf
ROOT
ATOM      1  C   UNL     1      -0.798 -18.148  18.902  1.00  0.00     0.004 C 
ENDROOT
BRANCH   1   2
ATOM      2  C   UNL     1       0.012 -16.898  19.279  1.00  0.00     0.027 C 
BRANCH   2   3
ATOM      3  C   UNL     1       1.481 -17.198  19.453  1.00  0.00    -0.031 C 
ATOM      4  C   UNL     1       2.486 -16.419  19.012  1.00  0.00    -0.027 C 
BRANCH   4   5
ATOM      5  C   UNL     1       2.321 -15.084  18.332  1.00  0.00     0.054 C 
BRANCH   5   6
ATOM      6  C   UNL     1       1.906 -15.286  16.904  1.00  0.00    -0.027 C 
ATOM      7  C   UNL     1       0.695 -14.908  16.468  1.00  0.00    -0.031 C 
BRANCH   7   8
ATOM      8  C   UNL     1       0.281 -15.091  15.033  1.00  0.00     0.027 C 
BRANCH   8   9
ATOM      9  C   UNL     1      -1.031 -15.879  14.901  1.00  0.00     0.004 C 
BRANCH   9  10
ATOM     10  C   UNL     1      -2.015 -15.557  16.040  1.00  0.00     0.000 C 
BRANCH  10  11
ATOM     11  C   UNL     1      -2.839 -16.781  16.470  1.00  0.00    -0.003 C 
ATOM     12  C   UNL     1      -2.616 -17.993  15.567  1.00  0.00     0.004 C 
ENDBRANCH  10  11
ENDBRANCH   9  10
ENDBRANCH   8   9
ENDBRANCH   7   8
ENDBRANCH   5   6
ENDBRANCH   4   5
ENDBRANCH   2   3
ENDBRANCH   1   2
BRANCH   1  13
ATOM     13  C   UNL     1      -1.752 -18.585  20.028  1.00  0.00     0.000 C 
BRANCH  13  14
ATOM     14  C   UNL     1      -2.785 -19.625  19.545  1.00  0.00     0.000 C 
BRANCH  14  15
ATOM     15  C   UNL     1      -2.153 -20.922  19.001  1.00  0.00     0.000 C 
BRANCH  15  16
ATOM     16  C   UNL     1      -2.278 -21.119  17.480  1.00  0.00     0.003 C 
BRANCH  16  17
ATOM     17  C   UNL     1      -0.937 -21.468  16.815  1.00  0.00     0.042 C 
BRANCH  17  18
ATOM     18  C   UNL     1      -1.051 -21.478  15.287  1.00  0.00     0.233 C 
BRANCH  18  19
ATOM     19  O   UNL     1      -0.118 -20.579  14.689  1.00  0.00    -0.466 OA
BRANCH  19  20
ATOM     20  C   UNL     1       1.051 -20.144  15.324  1.00  0.00     0.302 C 
ATOM     21  O   UNL     1       2.051 -20.904  15.431  1.00  0.00    -0.253 OA
ATOM     22  C   UNL     1       1.119 -18.760  15.874  1.00  0.00     0.139 C 
ENDBRANCH  19  20
ENDBRANCH  18  19
ENDBRANCH  17  18
ENDBRANCH  16  17
ENDBRANCH  15  16
ENDBRANCH  14  15
ENDBRANCH  13  14
ENDBRANCH   1  13
TORSDOF 16
ENDMDL
MODEL 4
REMARK VINA RESULT:    -3.380      3.633      5.020
REMARK INTER + INTRA:          -9.490
REMARK INTER:                  -7.247
REMARK INTRA:                  -2.243
REMARK UNBOUND:                -2.949
REMARK SMILES CCCCCC=CCC=CCCCCCCCCOC(C)=O
REMARK SMILES IDX 12 1 11 2 10 3 9 4 8 5 7 6 6 7 5 8 4 9 3 10 2 11 1 12 13 13
REMARK SMILES IDX 14 14 15 15 16 16 17 17 18 18 19 19 20 20 22 21 21 22
REMARK H PARENT
REMARK Flexibility Score: inf
ROOT
ATOM      1  C   UNL     1       1.958 -16.566  14.897  1.00  0.00     0.004 C 
ENDROOT
BRANCH   1   2
ATOM      2  C   UNL     1       2.915 -16.441  16.092  1.00  0.00     0.027 C 
BRANCH   2   3
ATOM      3  C   UNL     1       2.520 -15.325  17.029  1.00  0.00    -0.031 C 
ATOM      4  C   UNL     1       2.268 -15.471  18.343  1.00  0.00    -0.027 C 
BRANCH   4   5
ATOM      5  C   UNL     1       2.402 -16.756  19.118  1.00  0.00     0.054 C 
BRANCH   5   6
ATOM      6  C   UNL     1       1.073 -17.151  19.690  1.00  0.00    -0.027 C 
ATOM      7  C   UNL     1      -0.045 -17.112  18.949  1.00  0.00    -0.031 C 
BRANCH   7   8
ATOM      8  C   UNL     1      -1.378 -17.524  19.511  1.00  0.00     0.027 C 
BRANCH   8   9
ATOM      9  C   UNL     1      -1.329 -18.911  20.170  1.00  0.00     0.004 C 
BRANCH   9  10
ATOM     10  C   UNL     1      -2.203 -19.935  19.426  1.00  0.00     0.000 C 
BRANCH  10  11
ATOM     11  C   UNL     1      -1.580 -20.387  18.096  1.00  0.00    -0.003 C 
ATOM     12  C   UNL     1      -1.814 -21.868  17.804  1.00  0.00     0.004 C 
ENDBRANCH  10  11
ENDBRANCH   9  10
ENDBRANCH   8   9
ENDBRANCH   7   8
ENDBRANCH   5   6
ENDBRANCH   4   5
ENDBRANCH   2   3
ENDBRANCH   1   2
BRANCH   1  13
ATOM     13  C   UNL     1       0.686 -17.357  15.249  1.00  0.00     0.000 C 
BRANCH  13  14
ATOM     14  C   UNL     1       0.997 -18.622  16.076  1.00  0.00     0.000 C 
BRANCH  14  15
ATOM     15  C   UNL     1       0.788 -19.938  15.299  1.00  0.00     0.000 C 
BRANCH  15  16
ATOM     16  C   UNL     1       2.021 -20.856  15.232  1.00  0.00     0.003 C 
BRANCH  16  17
ATOM     17  C   UNL     1       3.244 -20.161  14.612  1.00  0.00     0.042 C 
BRANCH  17  18
ATOM     18  C   UNL     1       4.490 -21.052  14.670  1.00  0.00     0.233 C 
BRANCH  18  19
ATOM     19  O   UNL     1       5.619 -20.408  14.082  1.00  0.00    -0.466 OA
BRANCH  19  20
ATOM     20  C   UNL     1       6.814 -20.167  14.769  1.00  0.00     0.302 C 
ATOM     21  O   UNL     1       7.806 -19.656  14.182  1.00  0.00    -0.253 OA
ATOM     22  C   UNL     1       6.913 -20.509  16.216  1.00  0.00     0.139 C 
ENDBRANCH  19  20
ENDBRANCH  18  19
ENDBRANCH  17  18
ENDBRANCH  16  17
ENDBRANCH  15  16
ENDBRANCH  14  15
ENDBRANCH  13  14
ENDBRANCH   1  13
TORSDOF 16
ENDMDL
MODEL 5
REMARK VINA RESULT:    -3.350      1.952      5.069
REMARK INTER + INTRA:          -9.431
REMARK INTER:                  -6.520
REMARK INTRA:                  -2.911
REMARK UNBOUND:                -2.949
REMARK SMILES CCCCCC=CCC=CCCCCCCCCOC(C)=O
REMARK SMILES IDX 12 1 11 2 10 3 9 4 8 5 7 6 6 7 5 8 4 9 3 10 2 11 1 12 13 13
REMARK SMILES IDX 14 14 15 15 16 16 17 17 18 18 19 19 20 20 22 21 21 22
REMARK H PARENT
REMARK Flexibility Score: inf
ROOT
ATOM      1  C   UNL     1       2.480 -16.189  18.587  1.00  0.00     0.004 C 
ENDROOT
BRANCH   1   2
ATOM      2  C   UNL     1       1.739 -15.565  17.395  1.00  0.00     0.027 C 
BRANCH   2   3
ATOM      3  C   UNL     1       2.577 -15.556  16.140  1.00  0.00    -0.031 C 
ATOM      4  C   UNL     1       2.805 -16.624  15.354  1.00  0.00    -0.027 C 
BRANCH   4   5
ATOM      5  C   UNL     1       2.209 -17.995  15.553  1.00  0.00     0.054 C 
BRANCH   5   6
ATOM      6  C   UNL     1       0.856 -18.063  14.909  1.00  0.00    -0.027 C 
ATOM      7  C   UNL     1      -0.136 -18.791  15.444  1.00  0.00    -0.031 C 
BRANCH   7   8
ATOM      8  C   UNL     1      -1.500 -18.849  14.812  1.00  0.00     0.027 C 
BRANCH   8   9
ATOM      9  C   UNL     1      -2.608 -18.396  15.776  1.00  0.00     0.004 C 
BRANCH   9  10
ATOM     10  C   UNL     1      -3.049 -16.947  15.507  1.00  0.00     0.000 C 
BRANCH  10  11
ATOM     11  C   UNL     1      -2.311 -15.932  16.394  1.00  0.00    -0.003 C 
ATOM     12  C   UNL     1      -1.178 -15.217  15.658  1.00  0.00     0.004 C 
ENDBRANCH  10  11
ENDBRANCH   9  10
ENDBRANCH   8   9
ENDBRANCH   7   8
ENDBRANCH   5   6
ENDBRANCH   4   5
ENDBRANCH   2   3
ENDBRANCH   1   2
BRANCH   1  13
ATOM     13  C   UNL     1       1.566 -17.092  19.434  1.00  0.00     0.000 C 
BRANCH  13  14
ATOM     14  C   UNL     1       0.204 -17.344  18.755  1.00  0.00     0.000 C 
BRANCH  14  15
ATOM     15  C   UNL     1      -0.962 -17.518  19.749  1.00  0.00     0.000 C 
BRANCH  15  16
ATOM     16  C   UNL     1      -1.354 -18.976  20.043  1.00  0.00     0.003 C 
BRANCH  16  17
ATOM     17  C   UNL     1      -2.228 -19.590  18.937  1.00  0.00     0.042 C 
BRANCH  17  18
ATOM     18  C   UNL     1      -2.134 -21.119  18.927  1.00  0.00     0.233 C 
BRANCH  18  19
ATOM     19  O   UNL     1      -2.704 -21.668  17.739  1.00  0.00    -0.466 OA
BRANCH  19  20
ATOM     20  C   UNL     1      -1.943 -22.085  16.640  1.00  0.00     0.302 C 
ATOM     21  O   UNL     1      -2.492 -22.358  15.539  1.00  0.00    -0.253 OA
ATOM     22  C   UNL     1      -0.463 -22.197  16.770  1.00  0.00     0.139 C 
ENDBRANCH  19  20
ENDBRANCH  18  19
ENDBRANCH  17  18
ENDBRANCH  16  17
ENDBRANCH  15  16
ENDBRANCH  14  15
ENDBRANCH  13  14
ENDBRANCH   1  13
TORSDOF 16
ENDMDL
MODEL 6
REMARK VINA RESULT:    -3.307      2.054      4.094
REMARK INTER + INTRA:          -9.350
REMARK INTER:                  -6.715
REMARK INTRA:                  -2.634
REMARK UNBOUND:                -2.949
REMARK SMILES CCCCCC=CCC=CCCCCCCCCOC(C)=O
REMARK SMILES IDX 12 1 11 2 10 3 9 4 8 5 7 6 6 7 5 8 4 9 3 10 2 11 1 12 13 13
REMARK SMILES IDX 14 14 15 15 16 16 17 17 18 18 19 19 20 20 22 21 21 22
REMARK H PARENT
REMARK Flexibility Score: inf
ROOT
ATOM      1  C   UNL     1      -0.990 -17.907  17.234  1.00  0.00     0.004 C 
ENDROOT
BRANCH   1   2
ATOM      2  C   UNL     1      -1.510 -17.192  18.491  1.00  0.00     0.027 C 
BRANCH   2   3
ATOM      3  C   UNL     1      -1.165 -17.937  19.758  1.00  0.00    -0.031 C 
ATOM      4  C   UNL     1      -1.790 -19.044  20.198  1.00  0.00    -0.027 C 
BRANCH   4   5
ATOM      5  C   UNL     1      -2.893 -19.770  19.470  1.00  0.00     0.054 C 
BRANCH   5   6
ATOM      6  C   UNL     1      -2.427 -21.138  19.068  1.00  0.00    -0.027 C 
ATOM      7  C   UNL     1      -1.567 -21.314  18.054  1.00  0.00    -0.031 C 
BRANCH   7   8
ATOM      8  C   UNL     1      -1.083 -22.682  17.658  1.00  0.00     0.027 C 
BRANCH   8   9
ATOM      9  C   UNL     1      -0.334 -22.670  16.317  1.00  0.00     0.004 C 
BRANCH   9  10
ATOM     10  C   UNL     1      -0.291 -21.265  15.692  1.00  0.00     0.000 C 
BRANCH  10  11
ATOM     11  C   UNL     1       1.017 -20.997  14.932  1.00  0.00    -0.003 C 
ATOM     12  C   UNL     1       1.703 -19.703  15.369  1.00  0.00     0.004 C 
ENDBRANCH  10  11
ENDBRANCH   9  10
ENDBRANCH   8   9
ENDBRANCH   7   8
ENDBRANCH   5   6
ENDBRANCH   4   5
ENDBRANCH   2   3
ENDBRANCH   1   2
BRANCH   1  13
ATOM     13  C   UNL     1      -2.034 -17.931  16.104  1.00  0.00     0.000 C 
BRANCH  13  14
ATOM     14  C   UNL     1      -1.382 -17.894  14.706  1.00  0.00     0.000 C 
BRANCH  14  15
ATOM     15  C   UNL     1      -0.926 -16.487  14.271  1.00  0.00     0.000 C 
BRANCH  15  16
ATOM     16  C   UNL     1       0.593 -16.250  14.320  1.00  0.00     0.003 C 
BRANCH  16  17
ATOM     17  C   UNL     1       1.024 -15.411  15.533  1.00  0.00     0.042 C 
BRANCH  17  18
ATOM     18  C   UNL     1       2.547 -15.394  15.697  1.00  0.00     0.233 C 
BRANCH  18  19
ATOM     19  O   UNL     1       2.953 -16.099  16.870  1.00  0.00    -0.466 OA
BRANCH  19  20
ATOM     20  C   UNL     1       2.564 -15.733  18.163  1.00  0.00     0.302 C 
ATOM     21  O   UNL     1       2.605 -14.530  18.536  1.00  0.00    -0.253 OA
ATOM     22  C   UNL     1       2.086 -16.779  19.111  1.00  0.00     0.139 C 
ENDBRANCH  19  20
ENDBRANCH  18  19
ENDBRANCH  17  18
ENDBRANCH  16  17
ENDBRANCH  15  16
ENDBRANCH  14  15
ENDBRANCH  13  14
ENDBRANCH   1  13
TORSDOF 16
ENDMDL
MODEL 7
REMARK VINA RESULT:    -3.257      3.453      5.506
REMARK INTER + INTRA:          -9.252
REMARK INTER:                  -7.028
REMARK INTRA:                  -2.224
REMARK UNBOUND:                -2.949
REMARK SMILES CCCCCC=CCC=CCCCCCCCCOC(C)=O
REMARK SMILES IDX 12 1 11 2 10 3 9 4 8 5 7 6 6 7 5 8 4 9 3 10 2 11 1 12 13 13
REMARK SMILES IDX 14 14 15 15 16 16 17 17 18 18 19 19 20 20 22 21 21 22
REMARK H PARENT
REMARK Flexibility Score: inf
ROOT
ATOM      1  C   UNL     1       1.528 -18.410  15.696  1.00  0.00     0.004 C 
ENDROOT
BRANCH   1   2
ATOM      2  C   UNL     1       1.778 -17.052  15.023  1.00  0.00     0.027 C 
BRANCH   2   3
ATOM      3  C   UNL     1       0.934 -15.952  15.619  1.00  0.00    -0.031 C 
ATOM      4  C   UNL     1       1.259 -15.233  16.709  1.00  0.00    -0.027 C 
BRANCH   4   5
ATOM      5  C   UNL     1       2.548 -15.354  17.480  1.00  0.00     0.054 C 
BRANCH   5   6
ATOM      6  C   UNL     1       2.321 -16.139  18.739  1.00  0.00    -0.027 C 
ATOM      7  C   UNL     1       1.133 -16.701  19.006  1.00  0.00    -0.031 C 
BRANCH   7   8
ATOM      8  C   UNL     1       0.904 -17.504  20.257  1.00  0.00     0.027 C 
BRANCH   8   9
ATOM      9  C   UNL     1      -0.496 -18.136  20.297  1.00  0.00     0.004 C 
BRANCH   9  10
ATOM     10  C   UNL     1      -1.313 -17.807  19.036  1.00  0.00     0.000 C 
BRANCH  10  11
ATOM     11  C   UNL     1      -1.395 -18.992  18.061  1.00  0.00    -0.003 C 
ATOM     12  C   UNL     1      -2.010 -18.611  16.715  1.00  0.00     0.004 C 
ENDBRANCH  10  11
ENDBRANCH   9  10
ENDBRANCH   8   9
ENDBRANCH   7   8
ENDBRANCH   5   6
ENDBRANCH   4   5
ENDBRANCH   2   3
ENDBRANCH   1   2
BRANCH   1  13
ATOM     13  C   UNL     1       1.589 -19.577  14.696  1.00  0.00     0.000 C 
BRANCH  13  14
ATOM     14  C   UNL     1       0.517 -20.649  14.985  1.00  0.00     0.000 C 
BRANCH  14  15
ATOM     15  C   UNL     1       1.041 -21.844  15.806  1.00  0.00     0.000 C 
BRANCH  15  16
ATOM     16  C   UNL     1       2.422 -22.371  15.381  1.00  0.00     0.003 C 
BRANCH  16  17
ATOM     17  C   UNL     1       3.248 -22.895  16.566  1.00  0.00     0.042 C 
BRANCH  17  18
ATOM     18  C   UNL     1       4.752 -22.817  16.286  1.00  0.00     0.233 C 
BRANCH  18  19
ATOM     19  O   UNL     1       5.036 -21.925  15.208  1.00  0.00    -0.466 OA
BRANCH  19  20
ATOM     20  C   UNL     1       5.650 -20.680  15.380  1.00  0.00     0.302 C 
ATOM     21  O   UNL     1       5.140 -19.634  14.894  1.00  0.00    -0.253 OA
ATOM     22  C   UNL     1       6.920 -20.586  16.155  1.00  0.00     0.139 C 
ENDBRANCH  19  20
ENDBRANCH  18  19
ENDBRANCH  17  18
ENDBRANCH  16  17
ENDBRANCH  15  16
ENDBRANCH  14  15
ENDBRANCH  13  14
ENDBRANCH   1  13
TORSDOF 16
ENDMDL
MODEL 8
REMARK VINA RESULT:    -3.208      2.212      4.423
REMARK INTER + INTRA:          -9.156
REMARK INTER:                  -6.260
REMARK INTRA:                  -2.896
REMARK UNBOUND:                -2.949
REMARK SMILES CCCCCC=CCC=CCCCCCCCCOC(C)=O
REMARK SMILES IDX 12 1 11 2 10 3 9 4 8 5 7 6 6 7 5 8 4 9 3 10 2 11 1 12 13 13
REMARK SMILES IDX 14 14 15 15 16 16 17 17 18 18 19 19 20 20 22 21 21 22
REMARK H PARENT
REMARK Flexibility Score: inf
ROOT
ATOM      1  C   UNL     1       0.976 -17.103  19.493  1.00  0.00     0.004 C 
ENDROOT
BRANCH   1   2
ATOM      2  C   UNL     1       0.088 -17.558  18.325  1.00  0.00     0.027 C 
BRANCH   2   3
ATOM      3  C   UNL     1      -1.201 -16.777  18.246  1.00  0.00    -0.031 C 
ATOM      4  C   UNL     1      -1.571 -16.000  17.211  1.00  0.00    -0.027 C 
BRANCH   4   5
ATOM      5  C   UNL     1      -0.799 -15.831  15.928  1.00  0.00     0.054 C 
BRANCH   5   6
ATOM      6  C   UNL     1      -0.879 -17.088  15.113  1.00  0.00    -0.027 C 
ATOM      7  C   UNL     1      -2.033 -17.756  14.972  1.00  0.00    -0.031 C 
BRANCH   7   8
ATOM      8  C   UNL     1      -2.124 -19.007  14.140  1.00  0.00     0.027 C 
BRANCH   8   9
ATOM      9  C   UNL     1      -1.996 -20.281  14.989  1.00  0.00     0.004 C 
BRANCH   9  10
ATOM     10  C   UNL     1      -2.493 -20.068  16.430  1.00  0.00     0.000 C 
BRANCH  10  11
ATOM     11  C   UNL     1      -1.642 -20.820  17.465  1.00  0.00    -0.003 C 
ATOM     12  C   UNL     1      -2.041 -20.502  18.905  1.00  0.00     0.004 C 
ENDBRANCH  10  11
ENDBRANCH   9  10
ENDBRANCH   8   9
ENDBRANCH   7   8
ENDBRANCH   5   6
ENDBRANCH   4   5
ENDBRANCH   2   3
ENDBRANCH   1   2
BRANCH   1  13
ATOM     13  C   UNL     1       2.354 -16.608  19.020  1.00  0.00     0.000 C 
BRANCH  13  14
ATOM     14  C   UNL     1       2.272 -15.232  18.327  1.00  0.00     0.000 C 
BRANCH  14  15
ATOM     15  C   UNL     1       2.760 -15.243  16.864  1.00  0.00     0.000 C 
BRANCH  15  16
ATOM     16  C   UNL     1       2.857 -16.638  16.222  1.00  0.00     0.003 C 
BRANCH  16  17
ATOM     17  C   UNL     1       2.885 -16.583  14.686  1.00  0.00     0.042 C 
BRANCH  17  18
ATOM     18  C   UNL     1       2.868 -17.986  14.070  1.00  0.00     0.233 C 
BRANCH  18  19
ATOM     19  O   UNL     1       2.237 -18.928  14.937  1.00  0.00    -0.466 OA
BRANCH  19  20
ATOM     20  C   UNL     1       2.514 -20.300  14.917  1.00  0.00     0.302 C 
ATOM     21  O   UNL     1       3.591 -20.736  14.428  1.00  0.00    -0.253 OA
ATOM     22  C   UNL     1       1.526 -21.258  15.489  1.00  0.00     0.139 C 
ENDBRANCH  19  20
ENDBRANCH  18  19
ENDBRANCH  17  18
ENDBRANCH  16  17
ENDBRANCH  15  16
ENDBRANCH  14  15
ENDBRANCH  13  14
ENDBRANCH   1  13
TORSDOF 16
ENDMDL
MODEL 9
REMARK VINA RESULT:    -3.193      1.712      5.840
REMARK INTER + INTRA:          -9.129
REMARK INTER:                  -6.513
REMARK INTRA:                  -2.616
REMARK UNBOUND:                -2.949
REMARK SMILES CCCCCC=CCC=CCCCCCCCCOC(C)=O
REMARK SMILES IDX 12 1 11 2 10 3 9 4 8 5 7 6 6 7 5 8 4 9 3 10 2 11 1 12 13 13
REMARK SMILES IDX 14 14 15 15 16 16 17 17 18 18 19 19 20 20 22 21 21 22
REMARK H PARENT
REMARK Flexibility Score: inf
ROOT
ATOM      1  C   UNL     1      -0.853 -17.887  19.548  1.00  0.00     0.004 C 
ENDROOT
BRANCH   1   2
ATOM      2  C   UNL     1      -1.081 -17.537  18.069  1.00  0.00     0.027 C 
BRANCH   2   3
ATOM      3  C   UNL     1      -1.589 -16.127  17.886  1.00  0.00    -0.031 C 
ATOM      4  C   UNL     1      -1.851 -15.548  16.699  1.00  0.00    -0.027 C 
BRANCH   4   5
ATOM      5  C   UNL     1      -1.749 -16.227  15.357  1.00  0.00     0.054 C 
BRANCH   5   6
ATOM      6  C   UNL     1      -0.329 -16.200  14.876  1.00  0.00    -0.027 C 
ATOM      7  C   UNL     1       0.506 -15.208  15.221  1.00  0.00    -0.031 C 
BRANCH   7   8
ATOM      8  C   UNL     1       1.937 -15.185  14.755  1.00  0.00     0.027 C 
BRANCH   8   9
ATOM      9  C   UNL     1       2.923 -15.519  15.886  1.00  0.00     0.004 C 
BRANCH   9  10
ATOM     10  C   UNL     1       2.390 -16.631  16.806  1.00  0.00     0.000 C 
BRANCH  10  11
ATOM     11  C   UNL     1       2.447 -16.243  18.292  1.00  0.00    -0.003 C 
ATOM     12  C   UNL     1       2.588 -14.737  18.507  1.00  0.00     0.004 C 
ENDBRANCH  10  11
ENDBRANCH   9  10
ENDBRANCH   8   9
ENDBRANCH   7   8
ENDBRANCH   5   6
ENDBRANCH   4   5
ENDBRANCH   2   3
ENDBRANCH   1   2
BRANCH   1  13
ATOM     13  C   UNL     1      -1.591 -19.172  19.963  1.00  0.00     0.000 C 
BRANCH  13  14
ATOM     14  C   UNL     1      -2.859 -19.415  19.117  1.00  0.00     0.000 C 
BRANCH  14  15
ATOM     15  C   UNL     1      -2.871 -20.777  18.394  1.00  0.00     0.000 C 
BRANCH  15  16
ATOM     16  C   UNL     1      -1.903 -21.826  18.967  1.00  0.00     0.003 C 
BRANCH  16  17
ATOM     17  C   UNL     1      -1.311 -22.741  17.883  1.00  0.00     0.042 C 
BRANCH  17  18
ATOM     18  C   UNL     1      -1.797 -22.346  16.484  1.00  0.00     0.233 C 
BRANCH  18  19
ATOM     19  O   UNL     1      -0.748 -21.760  15.714  1.00  0.00    -0.466 OA
BRANCH  19  20
ATOM     20  C   UNL     1      -0.623 -20.382  15.502  1.00  0.00     0.302 C 
ATOM     21  O   UNL     1      -1.620 -19.686  15.169  1.00  0.00    -0.253 OA
ATOM     22  C   UNL     1       0.703 -19.727  15.683  1.00  0.00     0.139 C 
ENDBRANCH  19  20
ENDBRANCH  18  19
ENDBRANCH  17  18
ENDBRANCH  16  17
ENDBRANCH  15  16
ENDBRANCH  14  15
ENDBRANCH  13  14
ENDBRANCH   1  13
TORSDOF 16
ENDMDL
