MODEL 1
REMARK VINA RESULT:    77.927      0.000      0.000
REMARK INTER + INTRA:          84.984
REMARK INTER:                  84.760
REMARK INTRA:                   0.224
REMARK UNBOUND:                 0.224
REMARK SMILES C[C@H]1[C@H](C)CC[C@@]2(C(=O)[O-])CC[C@@]3(C)C(=CC[C@H]4[C@]5(C)CC[C@H](O)C(C)(C)[C@@H]5CC[C@]43C)[C@@H]12
REMARK SMILES IDX 7 1 6 2 11 3 33 4 5 5 12 6 15 7 2 8 3 9 13 10 16 11 1 12
REMARK SMILES IDX 4 13 14 14 31 15 17 16 18 17 30 18 32 19 19 20 29 21 28 22
REMARK SMILES IDX 21 23 20 24 25 25 22 26 23 27 26 28 27 29 8 30 9 31 10 32
REMARK SMILES IDX 24 33
REMARK H PARENT 24 34
REMARK Flexibility Score: inf
ROOT
ATOM      1  C   UNL     1      19.901  26.347  34.487  1.00  0.00     0.017 C 
ATOM      2  C   UNL     1      19.023  27.574  34.087  1.00  0.00     0.014 C 
ATOM      3  C   UNL     1      20.992  26.832  35.456  1.00  0.00     0.014 C 
ATOM      4  C   UNL     1      19.030  25.225  35.171  1.00  0.00     0.030 C 
ATOM      5  C   UNL     1      17.634  27.141  33.627  1.00  0.00     0.004 C 
ATOM      6  C   UNL     1      21.926  25.701  35.884  1.00  0.00     0.013 C 
ATOM      7  C   UNL     1      19.811  24.261  36.089  1.00  0.00    -0.063 C 
ATOM      8  C   UNL     1      17.690  25.735  35.813  1.00  0.00    -0.003 C 
ATOM      9  C   UNL     1      16.821  26.566  34.807  1.00  0.00    -0.011 C 
ATOM     10  C   UNL     1      21.225  24.515  36.640  1.00  0.00    -0.006 C 
ATOM     11  C   UNL     1      19.213  23.092  36.377  1.00  0.00    -0.027 C 
ATOM     12  C   UNL     1      17.874  26.482  37.144  1.00  0.00     0.008 C 
ATOM     13  C   UNL     1      15.644  25.739  34.266  1.00  0.00     0.008 C 
ATOM     14  C   UNL     1      21.066  24.965  38.125  1.00  0.00     0.017 C 
ATOM     15  C   UNL     1      22.091  23.148  36.563  1.00  0.00    -0.020 C 
ATOM     16  C   UNL     1      19.833  21.988  37.176  1.00  0.00     0.032 C 
ATOM     17  C   UNL     1      21.390  22.013  37.421  1.00  0.00     0.006 C 
ATOM     18  C   UNL     1      22.173  22.613  35.101  1.00  0.00     0.008 C 
ATOM     19  C   UNL     1      23.539  23.445  37.093  1.00  0.00     0.012 C 
ATOM     20  C   UNL     1      21.998  20.523  37.327  1.00  0.00    -0.025 C 
ATOM     21  C   UNL     1      22.807  21.221  34.965  1.00  0.00     0.005 C 
ATOM     22  C   UNL     1      22.143  20.090  35.811  1.00  0.00     0.003 C 
ATOM     23  C   UNL     1      23.388  20.391  38.033  1.00  0.00     0.010 C 
ATOM     24  C   UNL     1      21.017  19.586  38.125  1.00  0.00     0.012 C 
ATOM     25  C   UNL     1      22.879  18.687  35.592  1.00  0.00    -0.006 C 
ATOM     26  C   UNL     1      24.050  19.008  37.881  1.00  0.00     0.033 C 
ATOM     27  C   UNL     1      24.212  18.590  36.413  1.00  0.00     0.120 C 
ATOM     28  C   UNL     1      21.948  17.501  35.981  1.00  0.00     0.014 C 
ATOM     29  C   UNL     1      23.199  18.447  34.086  1.00  0.00     0.014 C 
ENDROOT
BRANCH   1  30
ATOM     30  C   UNL     1      20.585  25.827  33.217  1.00  0.00     0.048 C 
ATOM     31  O   UNL     1      20.825  26.584  32.240  1.00  0.00    -0.550 OA
ATOM     32  O   UNL     1      20.895  24.475  33.101  1.00  0.00    -0.550 OA
ENDBRANCH   1  30
BRANCH  27  33
ATOM     33  O   UNL     1      25.228  19.378  35.839  1.00  0.00    -0.393 OA
ATOM     34  H   UNL     1      25.459  20.091  36.491  1.00  0.00     0.210 HD
ENDBRANCH  27  33
TORSDOF 2
ENDMDL
