MODEL 1
REMARK VINA RESULT:    -3.007      0.000      0.000
REMARK INTER + INTRA:          -3.672
REMARK INTER:                  -3.534
REMARK INTRA:                  -0.138
REMARK UNBOUND:                -0.138
REMARK SMILES O=C([O-])C=Cc1ccc(O)c(O)c1
REMARK SMILES IDX 6 1 13 2 7 3 11 4 8 5 9 6 5 7 4 8 2 9 1 10 3 11 12 12 10 14
REMARK H PARENT 12 13 10 15
REMARK Flexibility Score: inf
ROOT
ATOM      1  C   UNL     1      -2.998   1.364  18.177  1.00  0.00    -0.022 A 
ATOM      2  C   UNL     1      -2.973   0.045  18.673  1.00  0.00     0.058 A 
ATOM      3  C   UNL     1      -2.956   2.431  19.088  1.00  0.00     0.012 A 
ATOM      4  C   UNL     1      -2.934  -0.196  20.055  1.00  0.00     0.157 A 
ATOM      5  C   UNL     1      -2.919   2.192  20.464  1.00  0.00     0.051 A 
ATOM      6  C   UNL     1      -2.911   0.879  20.951  1.00  0.00     0.157 A 
ENDROOT
BRANCH   1   7
ATOM      7  C   UNL     1      -3.028   1.671  16.725  1.00  0.00     0.010 C 
ATOM      8  C   UNL     1      -3.976   2.416  16.142  1.00  0.00     0.025 C 
BRANCH   8   9
ATOM      9  C   UNL     1      -3.961   2.704  14.698  1.00  0.00     0.064 C 
ATOM     10  O   UNL     1      -2.989   3.328  14.200  1.00  0.00    -0.545 OA
ATOM     11  O   UNL     1      -5.005   2.299  13.875  1.00  0.00    -0.545 OA
ENDBRANCH   8   9
ENDBRANCH   1   7
BRANCH   4  12
ATOM     12  O   UNL     1      -2.914  -1.501  20.544  1.00  0.00    -0.504 OA
ATOM     13  H   UNL     1      -2.627  -2.280  19.963  1.00  0.00     0.293 HD
ENDBRANCH   4  12
BRANCH   6  14
ATOM     14  O   UNL     1      -2.875   0.635  22.323  1.00  0.00    -0.504 OA
ATOM     15  H   UNL     1      -2.482   1.308  22.971  1.00  0.00     0.293 HD
ENDBRANCH   6  14
TORSDOF 4
ENDMDL
MODEL 2
REMARK VINA RESULT:    -2.718      0.866      1.874
REMARK INTER + INTRA:          -3.333
REMARK INTER:                  -3.199
REMARK INTRA:                  -0.134
REMARK UNBOUND:                -0.138
REMARK SMILES O=C([O-])C=Cc1ccc(O)c(O)c1
REMARK SMILES IDX 6 1 13 2 7 3 11 4 8 5 9 6 5 7 4 8 2 9 1 10 3 11 12 12 10 14
REMARK H PARENT 12 13 10 15
REMARK Flexibility Score: inf
ROOT
ATOM      1  C   UNL     1      -2.949   1.522  18.033  1.00  0.00    -0.022 A 
ATOM      2  C   UNL     1      -2.927   2.110  19.313  1.00  0.00     0.058 A 
ATOM      3  C   UNL     1      -2.971   0.122  17.929  1.00  0.00     0.012 A 
ATOM      4  C   UNL     1      -2.901   1.307  20.465  1.00  0.00     0.157 A 
ATOM      5  C   UNL     1      -2.942  -0.677  19.075  1.00  0.00     0.051 A 
ATOM      6  C   UNL     1      -2.905  -0.087  20.345  1.00  0.00     0.157 A 
ENDROOT
BRANCH   1   7
ATOM      7  C   UNL     1      -2.989   2.326  16.785  1.00  0.00     0.010 C 
ATOM      8  C   UNL     1      -4.103   2.540  16.073  1.00  0.00     0.025 C 
BRANCH   8   9
ATOM      9  C   UNL     1      -4.099   3.355  14.847  1.00  0.00     0.064 C 
ATOM     10  O   UNL     1      -3.062   3.404  14.138  1.00  0.00    -0.545 OA
ATOM     11  O   UNL     1      -5.225   4.072  14.460  1.00  0.00    -0.545 OA
ENDBRANCH   8   9
ENDBRANCH   1   7
BRANCH   4  12
ATOM     12  O   UNL     1      -2.875   1.890  21.730  1.00  0.00    -0.504 OA
ATOM     13  H   UNL     1      -3.711   1.960  22.299  1.00  0.00     0.293 HD
ENDBRANCH   4  12
BRANCH   6  14
ATOM     14  O   UNL     1      -2.875  -0.880  21.490  1.00  0.00    -0.504 OA
ATOM     15  H   UNL     1      -3.440  -0.661  22.302  1.00  0.00     0.293 HD
ENDBRANCH   6  14
TORSDOF 4
ENDMDL
MODEL 3
REMARK VINA RESULT:    -2.652      1.431      5.812
REMARK INTER + INTRA:          -3.256
REMARK INTER:                  -3.130
REMARK INTRA:                  -0.126
REMARK UNBOUND:                -0.138
REMARK SMILES O=C([O-])C=Cc1ccc(O)c(O)c1
REMARK SMILES IDX 6 1 13 2 7 3 11 4 8 5 9 6 5 7 4 8 2 9 1 10 3 11 12 12 10 14
REMARK H PARENT 12 13 10 15
REMARK Flexibility Score: inf
ROOT
ATOM      1  C   UNL     1      -3.244   1.021  18.672  1.00  0.00    -0.022 A 
ATOM      2  C   UNL     1      -3.812   0.198  17.678  1.00  0.00     0.058 A 
ATOM      3  C   UNL     1      -2.934   2.353  18.354  1.00  0.00     0.012 A 
ATOM      4  C   UNL     1      -4.038   0.697  16.385  1.00  0.00     0.157 A 
ATOM      5  C   UNL     1      -3.157   2.848  17.067  1.00  0.00     0.051 A 
ATOM      6  C   UNL     1      -3.707   2.021  16.079  1.00  0.00     0.157 A 
ENDROOT
BRANCH   1   7
ATOM      7  C   UNL     1      -2.995   0.545  20.056  1.00  0.00     0.010 C 
ATOM      8  C   UNL     1      -3.274  -0.696  20.477  1.00  0.00     0.025 C 
BRANCH   8   9
ATOM      9  C   UNL     1      -3.000  -1.129  21.857  1.00  0.00     0.064 C 
ATOM     10  O   UNL     1      -2.875  -0.268  22.765  1.00  0.00    -0.545 OA
ATOM     11  O   UNL     1      -2.878  -2.477  22.174  1.00  0.00    -0.545 OA
ENDBRANCH   8   9
ENDBRANCH   1   7
BRANCH   4  12
ATOM     12  O   UNL     1      -4.596  -0.119  15.403  1.00  0.00    -0.504 OA
ATOM     13  H   UNL     1      -5.581  -0.356  15.406  1.00  0.00     0.293 HD
ENDBRANCH   4  12
BRANCH   6  14
ATOM     14  O   UNL     1      -3.931   2.511  14.794  1.00  0.00    -0.504 OA
ATOM     15  H   UNL     1      -3.251   3.099  14.325  1.00  0.00     0.293 HD
ENDBRANCH   6  14
TORSDOF 4
ENDMDL
MODEL 4
REMARK VINA RESULT:    -2.464      1.328      6.093
REMARK INTER + INTRA:          -3.034
REMARK INTER:                  -2.887
REMARK INTRA:                  -0.147
REMARK UNBOUND:                -0.138
REMARK SMILES O=C([O-])C=Cc1ccc(O)c(O)c1
REMARK SMILES IDX 6 1 13 2 7 3 11 4 8 5 9 6 5 7 4 8 2 9 1 10 3 11 12 12 10 14
REMARK H PARENT 12 13 10 15
REMARK Flexibility Score: inf
ROOT
ATOM      1  C   UNL     1      -3.237   0.958  18.575  1.00  0.00    -0.022 A 
ATOM      2  C   UNL     1      -3.062   2.297  18.169  1.00  0.00     0.058 A 
ATOM      3  C   UNL     1      -3.735   0.028  17.649  1.00  0.00     0.012 A 
ATOM      4  C   UNL     1      -3.405   2.696  16.868  1.00  0.00     0.157 A 
ATOM      5  C   UNL     1      -4.078   0.426  16.354  1.00  0.00     0.051 A 
ATOM      6  C   UNL     1      -3.916   1.761  15.961  1.00  0.00     0.157 A 
ENDROOT
BRANCH   1   7
ATOM      7  C   UNL     1      -2.880   0.483  19.936  1.00  0.00     0.010 C 
ATOM      8  C   UNL     1      -3.447  -0.577  20.526  1.00  0.00     0.025 C 
BRANCH   8   9
ATOM      9  C   UNL     1      -3.053  -1.020  21.874  1.00  0.00     0.064 C 
ATOM     10  O   UNL     1      -2.875  -2.245  22.098  1.00  0.00    -0.545 OA
ATOM     11  O   UNL     1      -2.875  -0.105  22.905  1.00  0.00    -0.545 OA
ENDBRANCH   8   9
ENDBRANCH   1   7
BRANCH   4  12
ATOM     12  O   UNL     1      -3.235   4.020  16.469  1.00  0.00    -0.504 OA
ATOM     13  H   UNL     1      -2.796   4.257  15.587  1.00  0.00     0.293 HD
ENDBRANCH   4  12
BRANCH   6  14
ATOM     14  O   UNL     1      -4.258   2.163  14.671  1.00  0.00    -0.504 OA
ATOM     15  H   UNL     1      -4.849   1.593  14.078  1.00  0.00     0.293 HD
ENDBRANCH   6  14
TORSDOF 4
ENDMDL
MODEL 5
REMARK VINA RESULT:    -2.057      1.702      2.742
REMARK INTER + INTRA:          -2.556
REMARK INTER:                  -2.421
REMARK INTRA:                  -0.135
REMARK UNBOUND:                -0.138
REMARK SMILES O=C([O-])C=Cc1ccc(O)c(O)c1
REMARK SMILES IDX 6 1 13 2 7 3 11 4 8 5 9 6 5 7 4 8 2 9 1 10 3 11 12 12 10 14
REMARK H PARENT 12 13 10 15
REMARK Flexibility Score: inf
ROOT
ATOM      1  C   UNL     1      -3.077   1.020  19.740  1.00  0.00    -0.022 A 
ATOM      2  C   UNL     1      -3.010   1.275  21.125  1.00  0.00     0.058 A 
ATOM      3  C   UNL     1      -3.105  -0.311  19.296  1.00  0.00     0.012 A 
ATOM      4  C   UNL     1      -2.946   0.213  22.041  1.00  0.00     0.157 A 
ATOM      5  C   UNL     1      -3.039  -1.367  20.207  1.00  0.00     0.051 A 
ATOM      6  C   UNL     1      -2.956  -1.108  21.582  1.00  0.00     0.157 A 
ENDROOT
BRANCH   1   7
ATOM      7  C   UNL     1      -3.158   2.107  18.731  1.00  0.00     0.010 C 
ATOM      8  C   UNL     1      -4.257   2.376  18.014  1.00  0.00     0.025 C 
BRANCH   8   9
ATOM      9  C   UNL     1      -4.296   3.472  17.032  1.00  0.00     0.064 C 
ATOM     10  O   UNL     1      -5.375   4.083  16.827  1.00  0.00    -0.545 OA
ATOM     11  O   UNL     1      -3.157   3.842  16.325  1.00  0.00    -0.545 OA
ENDBRANCH   8   9
ENDBRANCH   1   7
BRANCH   4  12
ATOM     12  O   UNL     1      -2.875   0.466  23.409  1.00  0.00    -0.504 OA
ATOM     13  H   UNL     1      -3.648   0.252  24.029  1.00  0.00     0.293 HD
ENDBRANCH   4  12
BRANCH   6  14
ATOM     14  O   UNL     1      -2.889  -2.159  22.495  1.00  0.00    -0.504 OA
ATOM     15  H   UNL     1      -3.723  -2.539  22.928  1.00  0.00     0.293 HD
ENDBRANCH   6  14
TORSDOF 4
ENDMDL
MODEL 6
REMARK VINA RESULT:    -1.267      1.622      6.022
REMARK INTER + INTRA:          -1.628
REMARK INTER:                  -1.496
REMARK INTRA:                  -0.131
REMARK UNBOUND:                -0.138
REMARK SMILES O=C([O-])C=Cc1ccc(O)c(O)c1
REMARK SMILES IDX 6 1 13 2 7 3 11 4 8 5 9 6 5 7 4 8 2 9 1 10 3 11 12 12 10 14
REMARK H PARENT 12 13 10 15
REMARK Flexibility Score: inf
ROOT
ATOM      1  C   UNL     1      -4.738   1.979  17.439  1.00  0.00    -0.022 A 
ATOM      2  C   UNL     1      -4.089   2.205  16.208  1.00  0.00     0.058 A 
ATOM      3  C   UNL     1      -6.108   2.265  17.545  1.00  0.00     0.012 A 
ATOM      4  C   UNL     1      -4.797   2.733  15.117  1.00  0.00     0.157 A 
ATOM      5  C   UNL     1      -6.812   2.793  16.460  1.00  0.00     0.051 A 
ATOM      6  C   UNL     1      -6.158   3.030  15.244  1.00  0.00     0.157 A 
ENDROOT
BRANCH   1   7
ATOM      7  C   UNL     1      -4.038   1.412  18.619  1.00  0.00     0.010 C 
ATOM      8  C   UNL     1      -3.912   0.099  18.849  1.00  0.00     0.025 C 
BRANCH   8   9
ATOM      9  C   UNL     1      -3.199  -0.420  20.028  1.00  0.00     0.064 C 
ATOM     10  O   UNL     1      -2.875   0.367  20.954  1.00  0.00    -0.545 OA
ATOM     11  O   UNL     1      -2.876  -1.768  20.134  1.00  0.00    -0.545 OA
ENDBRANCH   8   9
ENDBRANCH   1   7
BRANCH   4  12
ATOM     12  O   UNL     1      -4.153   2.960  13.902  1.00  0.00    -0.504 OA
ATOM     13  H   UNL     1      -3.920   3.896  13.592  1.00  0.00     0.293 HD
ENDBRANCH   4  12
BRANCH   6  14
ATOM     14  O   UNL     1      -6.856   3.557  14.159  1.00  0.00    -0.504 OA
ATOM     15  H   UNL     1      -6.883   3.082  13.264  1.00  0.00     0.293 HD
ENDBRANCH   6  14
TORSDOF 4
ENDMDL
MODEL 7
REMARK VINA RESULT:    -0.988      1.466      1.791
REMARK INTER + INTRA:          -1.299
REMARK INTER:                  -1.167
REMARK INTRA:                  -0.132
REMARK UNBOUND:                -0.138
REMARK SMILES O=C([O-])C=Cc1ccc(O)c(O)c1
REMARK SMILES IDX 6 1 13 2 7 3 11 4 8 5 9 6 5 7 4 8 2 9 1 10 3 11 12 12 10 14
REMARK H PARENT 12 13 10 15
REMARK Flexibility Score: inf
ROOT
ATOM      1  C   UNL     1      -3.386   0.244  19.018  1.00  0.00    -0.022 A 
ATOM      2  C   UNL     1      -3.509  -0.905  19.824  1.00  0.00     0.058 A 
ATOM      3  C   UNL     1      -3.067   1.468  19.627  1.00  0.00     0.012 A 
ATOM      4  C   UNL     1      -3.341  -0.821  21.215  1.00  0.00     0.157 A 
ATOM      5  C   UNL     1      -2.902   1.553  21.012  1.00  0.00     0.051 A 
ATOM      6  C   UNL     1      -3.041   0.410  21.809  1.00  0.00     0.157 A 
ENDROOT
BRANCH   1   7
ATOM      7  C   UNL     1      -3.543   0.205  17.542  1.00  0.00     0.010 C 
ATOM      8  C   UNL     1      -4.564   0.773  16.888  1.00  0.00     0.025 C 
BRANCH   8   9
ATOM      9  C   UNL     1      -4.675   0.719  15.421  1.00  0.00     0.064 C 
ATOM     10  O   UNL     1      -4.491  -0.372  14.824  1.00  0.00    -0.545 OA
ATOM     11  O   UNL     1      -4.978   1.858  14.683  1.00  0.00    -0.545 OA
ENDBRANCH   8   9
ENDBRANCH   1   7
BRANCH   4  12
ATOM     12  O   UNL     1      -3.468  -1.957  22.011  1.00  0.00    -0.504 OA
ATOM     13  H   UNL     1      -3.844  -2.824  21.644  1.00  0.00     0.293 HD
ENDBRANCH   4  12
BRANCH   6  14
ATOM     14  O   UNL     1      -2.878   0.490  23.191  1.00  0.00    -0.504 OA
ATOM     15  H   UNL     1      -2.154  -0.031  23.671  1.00  0.00     0.293 HD
ENDBRANCH   6  14
TORSDOF 4
ENDMDL
