MODEL 1
REMARK VINA RESULT:    -3.415      0.000      0.000
REMARK INTER + INTRA:          -8.102
REMARK INTER:                  -6.210
REMARK INTRA:                  -1.892
REMARK UNBOUND:                -1.892
REMARK SMILES CCCCCCCCCCCCCC[C@H](C)C(=O)[O-]
REMARK SMILES IDX 9 1 10 2 11 3 12 4 13 5 14 6 15 7 16 8 17 9 18 10 19 11 8 12
REMARK SMILES IDX 7 13 6 14 5 15 4 16 3 17 2 18 1 19
REMARK H PARENT
REMARK Flexibility Score: inf
ROOT
ATOM      1  C   UNL     1     -96.631 -41.109  91.951  1.00  0.00     0.000 C 
ENDROOT
BRANCH   1   2
ATOM      2  C   UNL     1     -97.425 -41.067  93.265  1.00  0.00     0.000 C 
BRANCH   2   3
ATOM      3  C   UNL     1     -98.762 -40.321  93.125  1.00  0.00     0.000 C 
BRANCH   3   4
ATOM      4  C   UNL     1     -99.137 -40.140  91.650  1.00  0.00     0.000 C 
BRANCH   4   5
ATOM      5  C   UNL     1     -99.855 -38.803  91.422  1.00  0.00     0.001 C 
BRANCH   5   6
ATOM      6  C   UNL     1    -100.293 -38.100  92.725  1.00  0.00     0.009 C 
BRANCH   6   7
ATOM      7  C   UNL     1    -100.808 -36.641  92.606  1.00  0.00     0.032 C 
ATOM      8  C   UNL     1    -100.448 -35.771  93.820  1.00  0.00     0.014 C 
BRANCH   7   9
ATOM      9  C   UNL     1    -102.271 -36.564  92.259  1.00  0.00     0.044 C 
ATOM     10  O   UNL     1    -102.777 -35.496  91.819  1.00  0.00    -0.550 OA
ATOM     11  O   UNL     1    -103.088 -37.667  92.474  1.00  0.00    -0.550 OA
ENDBRANCH   7   9
ENDBRANCH   6   7
ENDBRANCH   5   6
ENDBRANCH   4   5
ENDBRANCH   3   4
ENDBRANCH   2   3
ENDBRANCH   1   2
BRANCH   1  12
ATOM     12  C   UNL     1     -96.273 -42.544  91.522  1.00  0.00     0.000 C 
BRANCH  12  13
ATOM     13  C   UNL     1     -97.380 -43.556  91.858  1.00  0.00    -0.000 C 
BRANCH  13  14
ATOM     14  C   UNL     1     -98.431 -43.673  90.741  1.00  0.00    -0.000 C 
BRANCH  14  15
ATOM     15  C   UNL     1     -97.850 -43.366  89.350  1.00  0.00    -0.000 C 
BRANCH  15  16
ATOM     16  C   UNL     1     -98.662 -42.306  88.589  1.00  0.00    -0.000 C 
BRANCH  16  17
ATOM     17  C   UNL     1     -97.938 -41.885  87.301  1.00  0.00    -0.000 C 
BRANCH  17  18
ATOM     18  C   UNL     1     -96.817 -40.866  87.559  1.00  0.00    -0.003 C 
ATOM     19  C   UNL     1     -97.256 -39.720  88.468  1.00  0.00     0.004 C 
ENDBRANCH  17  18
ENDBRANCH  16  17
ENDBRANCH  15  16
ENDBRANCH  14  15
ENDBRANCH  13  14
ENDBRANCH  12  13
ENDBRANCH   1  12
TORSDOF 14
ENDMDL
MODEL 2
REMARK VINA RESULT:    -3.337      1.465      2.240
REMARK INTER + INTRA:          -7.959
REMARK INTER:                  -6.674
REMARK INTRA:                  -1.286
REMARK UNBOUND:                -1.892
REMARK SMILES CCCCCCCCCCCCCC[C@H](C)C(=O)[O-]
REMARK SMILES IDX 9 1 10 2 11 3 12 4 13 5 14 6 15 7 16 8 17 9 18 10 19 11 8 12
REMARK SMILES IDX 7 13 6 14 5 15 4 16 3 17 2 18 1 19
REMARK H PARENT
REMARK Flexibility Score: inf
ROOT
ATOM      1  C   UNL     1     -97.938 -40.758  93.591  1.00  0.00     0.000 C 
ENDROOT
BRANCH   1   2
ATOM      2  C   UNL     1     -99.470 -40.708  93.683  1.00  0.00     0.000 C 
BRANCH   2   3
ATOM      3  C   UNL     1    -100.035 -39.311  93.382  1.00  0.00     0.000 C 
BRANCH   3   4
ATOM      4  C   UNL     1     -99.858 -38.955  91.901  1.00  0.00     0.000 C 
BRANCH   4   5
ATOM      5  C   UNL     1    -100.920 -37.945  91.444  1.00  0.00     0.001 C 
BRANCH   5   6
ATOM      6  C   UNL     1    -101.683 -37.273  92.606  1.00  0.00     0.009 C 
BRANCH   6   7
ATOM      7  C   UNL     1    -101.252 -35.835  92.999  1.00  0.00     0.032 C 
ATOM      8  C   UNL     1    -100.548 -35.765  94.364  1.00  0.00     0.014 C 
BRANCH   7   9
ATOM      9  C   UNL     1    -102.372 -34.836  92.881  1.00  0.00     0.044 C 
ATOM     10  O   UNL     1    -103.164 -34.863  91.900  1.00  0.00    -0.550 OA
ATOM     11  O   UNL     1    -102.506 -33.836  93.837  1.00  0.00    -0.550 OA
ENDBRANCH   7   9
ENDBRANCH   6   7
ENDBRANCH   5   6
ENDBRANCH   4   5
ENDBRANCH   3   4
ENDBRANCH   2   3
ENDBRANCH   1   2
BRANCH   1  12
ATOM     12  C   UNL     1     -97.440 -41.801  92.572  1.00  0.00     0.000 C 
BRANCH  12  13
ATOM     13  C   UNL     1     -96.800 -41.158  91.331  1.00  0.00    -0.000 C 
BRANCH  13  14
ATOM     14  C   UNL     1     -97.721 -41.207  90.101  1.00  0.00    -0.000 C 
BRANCH  14  15
ATOM     15  C   UNL     1     -97.426 -40.078  89.098  1.00  0.00    -0.000 C 
BRANCH  15  16
ATOM     16  C   UNL     1     -97.189 -40.598  87.672  1.00  0.00    -0.000 C 
BRANCH  16  17
ATOM     17  C   UNL     1     -96.436 -41.937  87.697  1.00  0.00    -0.000 C 
BRANCH  17  18
ATOM     18  C   UNL     1     -97.296 -43.108  87.197  1.00  0.00    -0.003 C 
ATOM     19  C   UNL     1     -98.645 -42.656  86.640  1.00  0.00     0.004 C 
ENDBRANCH  17  18
ENDBRANCH  16  17
ENDBRANCH  15  16
ENDBRANCH  14  15
ENDBRANCH  13  14
ENDBRANCH  12  13
ENDBRANCH   1  12
TORSDOF 14
ENDMDL
MODEL 3
REMARK VINA RESULT:    -3.301      3.170      6.876
REMARK INTER + INTRA:          -7.895
REMARK INTER:                  -5.812
REMARK INTRA:                  -2.083
REMARK UNBOUND:                -1.892
REMARK SMILES CCCCCCCCCCCCCC[C@H](C)C(=O)[O-]
REMARK SMILES IDX 9 1 10 2 11 3 12 4 13 5 14 6 15 7 16 8 17 9 18 10 19 11 8 12
REMARK SMILES IDX 7 13 6 14 5 15 4 16 3 17 2 18 1 19
REMARK H PARENT
REMARK Flexibility Score: inf
ROOT
ATOM      1  C   UNL     1     -99.594 -41.153  93.982  1.00  0.00     0.000 C 
ENDROOT
BRANCH   1   2
ATOM      2  C   UNL     1     -98.245 -41.868  94.151  1.00  0.00     0.000 C 
BRANCH   2   3
ATOM      3  C   UNL     1     -97.082 -40.889  94.381  1.00  0.00     0.000 C 
BRANCH   3   4
ATOM      4  C   UNL     1     -95.969 -41.107  93.349  1.00  0.00     0.000 C 
BRANCH   4   5
ATOM      5  C   UNL     1     -96.510 -41.803  92.092  1.00  0.00     0.001 C 
BRANCH   5   6
ATOM      6  C   UNL     1     -96.382 -40.957  90.806  1.00  0.00     0.009 C 
BRANCH   6   7
ATOM      7  C   UNL     1     -97.570 -40.996  89.810  1.00  0.00     0.032 C 
ATOM      8  C   UNL     1     -98.793 -41.752  90.355  1.00  0.00     0.014 C 
BRANCH   7   9
ATOM      9  C   UNL     1     -97.169 -41.469  88.438  1.00  0.00     0.044 C 
ATOM     10  O   UNL     1     -96.641 -42.602  88.272  1.00  0.00    -0.550 OA
ATOM     11  O   UNL     1     -97.334 -40.627  87.344  1.00  0.00    -0.550 OA
ENDBRANCH   7   9
ENDBRANCH   6   7
ENDBRANCH   5   6
ENDBRANCH   4   5
ENDBRANCH   3   4
ENDBRANCH   2   3
ENDBRANCH   1   2
BRANCH   1  12
ATOM     12  C   UNL     1     -99.439 -39.715  93.453  1.00  0.00     0.000 C 
BRANCH  12  13
ATOM     13  C   UNL     1    -100.566 -39.313  92.488  1.00  0.00    -0.000 C 
BRANCH  13  14
ATOM     14  C   UNL     1    -100.311 -37.953  91.818  1.00  0.00    -0.000 C 
BRANCH  14  15
ATOM     15  C   UNL     1    -101.152 -36.823  92.438  1.00  0.00    -0.000 C 
BRANCH  15  16
ATOM     16  C   UNL     1    -100.356 -35.973  93.441  1.00  0.00    -0.000 C 
BRANCH  16  17
ATOM     17  C   UNL     1    -101.108 -35.858  94.776  1.00  0.00    -0.000 C 
BRANCH  17  18
ATOM     18  C   UNL     1    -100.538 -36.790  95.857  1.00  0.00    -0.003 C 
ATOM     19  C   UNL     1    -101.355 -38.069  96.027  1.00  0.00     0.004 C 
ENDBRANCH  17  18
ENDBRANCH  16  17
ENDBRANCH  15  16
ENDBRANCH  14  15
ENDBRANCH  13  14
ENDBRANCH  12  13
ENDBRANCH   1  12
TORSDOF 14
ENDMDL
MODEL 4
REMARK VINA RESULT:    -3.293     13.511     15.919
REMARK INTER + INTRA:          -7.880
REMARK INTER:                  -5.847
REMARK INTRA:                  -2.033
REMARK UNBOUND:                -1.892
REMARK SMILES CCCCCCCCCCCCCC[C@H](C)C(=O)[O-]
REMARK SMILES IDX 9 1 10 2 11 3 12 4 13 5 14 6 15 7 16 8 17 9 18 10 19 11 8 12
REMARK SMILES IDX 7 13 6 14 5 15 4 16 3 17 2 18 1 19
REMARK H PARENT
REMARK Flexibility Score: inf
ROOT
ATOM      1  C   UNL     1     -96.386 -27.523  78.343  1.00  0.00     0.000 C 
ENDROOT
BRANCH   1   2
ATOM      2  C   UNL     1     -96.276 -28.835  79.134  1.00  0.00     0.000 C 
BRANCH   2   3
ATOM      3  C   UNL     1     -97.644 -29.487  79.391  1.00  0.00     0.000 C 
BRANCH   3   4
ATOM      4  C   UNL     1     -98.713 -28.426  79.674  1.00  0.00     0.000 C 
BRANCH   4   5
ATOM      5  C   UNL     1     -99.552 -28.801  80.904  1.00  0.00     0.001 C 
BRANCH   5   6
ATOM      6  C   UNL     1     -99.942 -27.595  81.785  1.00  0.00     0.009 C 
BRANCH   6   7
ATOM      7  C   UNL     1    -100.887 -27.869  82.984  1.00  0.00     0.032 C 
ATOM      8  C   UNL     1    -100.606 -26.966  84.196  1.00  0.00     0.014 C 
BRANCH   7   9
ATOM      9  C   UNL     1    -100.951 -29.327  83.358  1.00  0.00     0.044 C 
ATOM     10  O   UNL     1    -100.234 -29.789  84.287  1.00  0.00    -0.550 OA
ATOM     11  O   UNL     1    -101.771 -30.186  82.638  1.00  0.00    -0.550 OA
ENDBRANCH   7   9
ENDBRANCH   6   7
ENDBRANCH   5   6
ENDBRANCH   4   5
ENDBRANCH   3   4
ENDBRANCH   2   3
ENDBRANCH   1   2
BRANCH   1  12
ATOM     12  C   UNL     1     -95.436 -26.432  78.872  1.00  0.00     0.000 C 
BRANCH  12  13
ATOM     13  C   UNL     1     -96.038 -25.639  80.044  1.00  0.00    -0.000 C 
BRANCH  13  14
ATOM     14  C   UNL     1     -95.394 -26.000  81.392  1.00  0.00    -0.000 C 
BRANCH  14  15
ATOM     15  C   UNL     1     -96.425 -26.467  82.434  1.00  0.00    -0.000 C 
BRANCH  15  16
ATOM     16  C   UNL     1     -96.372 -27.982  82.684  1.00  0.00    -0.000 C 
BRANCH  16  17
ATOM     17  C   UNL     1     -97.078 -28.344  83.999  1.00  0.00    -0.000 C 
BRANCH  17  18
ATOM     18  C   UNL     1     -96.136 -28.283  85.212  1.00  0.00    -0.003 C 
ATOM     19  C   UNL     1     -95.793 -29.665  85.764  1.00  0.00     0.004 C 
ENDBRANCH  17  18
ENDBRANCH  16  17
ENDBRANCH  15  16
ENDBRANCH  14  15
ENDBRANCH  13  14
ENDBRANCH  12  13
ENDBRANCH   1  12
TORSDOF 14
ENDMDL
MODEL 5
REMARK VINA RESULT:    -3.260     13.454     15.786
REMARK INTER + INTRA:          -7.819
REMARK INTER:                  -5.513
REMARK INTRA:                  -2.306
REMARK UNBOUND:                -1.892
REMARK SMILES CCCCCCCCCCCCCC[C@H](C)C(=O)[O-]
REMARK SMILES IDX 9 1 10 2 11 3 12 4 13 5 14 6 15 7 16 8 17 9 18 10 19 11 8 12
REMARK SMILES IDX 7 13 6 14 5 15 4 16 3 17 2 18 1 19
REMARK H PARENT
REMARK Flexibility Score: inf
ROOT
ATOM      1  C   UNL     1     -95.882 -27.729  78.579  1.00  0.00     0.000 C 
ENDROOT
BRANCH   1   2
ATOM      2  C   UNL     1     -96.903 -26.584  78.667  1.00  0.00     0.000 C 
BRANCH   2   3
ATOM      3  C   UNL     1     -96.648 -25.656  79.865  1.00  0.00     0.000 C 
BRANCH   3   4
ATOM      4  C   UNL     1     -97.477 -26.088  81.080  1.00  0.00     0.000 C 
BRANCH   4   5
ATOM      5  C   UNL     1     -96.571 -26.521  82.241  1.00  0.00     0.001 C 
BRANCH   5   6
ATOM      6  C   UNL     1     -96.725 -28.007  82.633  1.00  0.00     0.009 C 
BRANCH   6   7
ATOM      7  C   UNL     1     -97.441 -28.316  83.974  1.00  0.00     0.032 C 
ATOM      8  C   UNL     1     -98.528 -27.289  84.331  1.00  0.00     0.014 C 
BRANCH   7   9
ATOM      9  C   UNL     1     -96.480 -28.552  85.109  1.00  0.00     0.044 C 
ATOM     10  O   UNL     1     -95.906 -27.587  85.683  1.00  0.00    -0.550 OA
ATOM     11  O   UNL     1     -96.180 -29.852  85.498  1.00  0.00    -0.550 OA
ENDBRANCH   7   9
ENDBRANCH   6   7
ENDBRANCH   5   6
ENDBRANCH   4   5
ENDBRANCH   3   4
ENDBRANCH   2   3
ENDBRANCH   1   2
BRANCH   1  12
ATOM     12  C   UNL     1     -96.470 -29.081  79.025  1.00  0.00     0.000 C 
BRANCH  12  13
ATOM     13  C   UNL     1     -98.003 -29.124  78.921  1.00  0.00    -0.000 C 
BRANCH  13  14
ATOM     14  C   UNL     1     -98.628 -30.170  79.859  1.00  0.00    -0.000 C 
BRANCH  14  15
ATOM     15  C   UNL     1    -100.064 -29.808  80.274  1.00  0.00    -0.000 C 
BRANCH  15  16
ATOM     16  C   UNL     1    -100.113 -28.696  81.334  1.00  0.00    -0.000 C 
BRANCH  16  17
ATOM     17  C   UNL     1    -101.320 -28.884  82.266  1.00  0.00    -0.000 C 
BRANCH  17  18
ATOM     18  C   UNL     1    -101.260 -30.202  83.053  1.00  0.00    -0.003 C 
ATOM     19  C   UNL     1    -100.968 -29.993  84.537  1.00  0.00     0.004 C 
ENDBRANCH  17  18
ENDBRANCH  16  17
ENDBRANCH  15  16
ENDBRANCH  14  15
ENDBRANCH  13  14
ENDBRANCH  12  13
ENDBRANCH   1  12
TORSDOF 14
ENDMDL
MODEL 6
REMARK VINA RESULT:    -3.252      2.959      7.319
REMARK INTER + INTRA:          -7.806
REMARK INTER:                  -6.672
REMARK INTRA:                  -1.134
REMARK UNBOUND:                -1.892
REMARK SMILES CCCCCCCCCCCCCC[C@H](C)C(=O)[O-]
REMARK SMILES IDX 9 1 10 2 11 3 12 4 13 5 14 6 15 7 16 8 17 9 18 10 19 11 8 12
REMARK SMILES IDX 7 13 6 14 5 15 4 16 3 17 2 18 1 19
REMARK H PARENT
REMARK Flexibility Score: inf
ROOT
ATOM      1  C   UNL     1     -99.667 -39.813  93.375  1.00  0.00     0.000 C 
ENDROOT
BRANCH   1   2
ATOM      2  C   UNL     1     -98.382 -40.653  93.429  1.00  0.00     0.000 C 
BRANCH   2   3
ATOM      3  C   UNL     1     -98.107 -41.396  92.112  1.00  0.00     0.000 C 
BRANCH   3   4
ATOM      4  C   UNL     1     -96.600 -41.545  91.872  1.00  0.00     0.000 C 
BRANCH   4   5
ATOM      5  C   UNL     1     -96.216 -41.077  90.461  1.00  0.00     0.001 C 
BRANCH   5   6
ATOM      6  C   UNL     1     -96.515 -42.114  89.356  1.00  0.00     0.009 C 
BRANCH   6   7
ATOM      7  C   UNL     1     -97.080 -41.578  88.014  1.00  0.00     0.032 C 
ATOM      8  C   UNL     1     -97.197 -40.046  87.975  1.00  0.00     0.014 C 
BRANCH   7   9
ATOM      9  C   UNL     1     -98.357 -42.261  87.602  1.00  0.00     0.044 C 
ATOM     10  O   UNL     1     -98.658 -42.393  86.385  1.00  0.00    -0.550 OA
ATOM     11  O   UNL     1     -99.244 -42.707  88.575  1.00  0.00    -0.550 OA
ENDBRANCH   7   9
ENDBRANCH   6   7
ENDBRANCH   5   6
ENDBRANCH   4   5
ENDBRANCH   3   4
ENDBRANCH   2   3
ENDBRANCH   1   2
BRANCH   1  12
ATOM     12  C   UNL     1    -100.047 -39.405  91.939  1.00  0.00     0.000 C 
BRANCH  12  13
ATOM     13  C   UNL     1    -100.188 -37.884  91.772  1.00  0.00    -0.000 C 
BRANCH  13  14
ATOM     14  C   UNL     1    -101.553 -37.362  92.250  1.00  0.00    -0.000 C 
BRANCH  14  15
ATOM     15  C   UNL     1    -101.478 -35.927  92.797  1.00  0.00    -0.000 C 
BRANCH  15  16
ATOM     16  C   UNL     1    -100.411 -35.763  93.890  1.00  0.00    -0.000 C 
BRANCH  16  17
ATOM     17  C   UNL     1    -100.719 -36.666  95.095  1.00  0.00    -0.000 C 
BRANCH  17  18
ATOM     18  C   UNL     1    -101.696 -36.015  96.086  1.00  0.00    -0.003 C 
ATOM     19  C   UNL     1    -101.672 -34.489  96.025  1.00  0.00     0.004 C 
ENDBRANCH  17  18
ENDBRANCH  16  17
ENDBRANCH  15  16
ENDBRANCH  14  15
ENDBRANCH  13  14
ENDBRANCH  12  13
ENDBRANCH   1  12
TORSDOF 14
ENDMDL
MODEL 7
REMARK VINA RESULT:    -3.188      1.989      2.728
REMARK INTER + INTRA:          -7.689
REMARK INTER:                  -6.071
REMARK INTRA:                  -1.618
REMARK UNBOUND:                -1.892
REMARK SMILES CCCCCCCCCCCCCC[C@H](C)C(=O)[O-]
REMARK SMILES IDX 9 1 10 2 11 3 12 4 13 5 14 6 15 7 16 8 17 9 18 10 19 11 8 12
REMARK SMILES IDX 7 13 6 14 5 15 4 16 3 17 2 18 1 19
REMARK H PARENT
REMARK Flexibility Score: inf
ROOT
ATOM      1  C   UNL     1     -98.330 -40.371  93.595  1.00  0.00     0.000 C 
ENDROOT
BRANCH   1   2
ATOM      2  C   UNL     1     -99.575 -41.077  93.039  1.00  0.00     0.000 C 
BRANCH   2   3
ATOM      3  C   UNL     1    -100.638 -40.090  92.531  1.00  0.00     0.000 C 
BRANCH   3   4
ATOM      4  C   UNL     1     -99.996 -38.973  91.699  1.00  0.00     0.000 C 
BRANCH   4   5
ATOM      5  C   UNL     1    -100.495 -37.593  92.147  1.00  0.00     0.001 C 
BRANCH   5   6
ATOM      6  C   UNL     1    -101.601 -37.648  93.223  1.00  0.00     0.009 C 
BRANCH   6   7
ATOM      7  C   UNL     1    -101.483 -36.660  94.413  1.00  0.00     0.032 C 
ATOM      8  C   UNL     1    -100.637 -35.419  94.088  1.00  0.00     0.014 C 
BRANCH   7   9
ATOM      9  C   UNL     1    -101.048 -37.331  95.690  1.00  0.00     0.044 C 
ATOM     10  O   UNL     1    -100.050 -38.102  95.709  1.00  0.00    -0.550 OA
ATOM     11  O   UNL     1    -101.785 -37.141  96.852  1.00  0.00    -0.550 OA
ENDBRANCH   7   9
ENDBRANCH   6   7
ENDBRANCH   5   6
ENDBRANCH   4   5
ENDBRANCH   3   4
ENDBRANCH   2   3
ENDBRANCH   1   2
BRANCH   1  12
ATOM     12  C   UNL     1     -97.023 -41.097  93.224  1.00  0.00     0.000 C 
BRANCH  12  13
ATOM     13  C   UNL     1     -97.150 -41.923  91.934  1.00  0.00    -0.000 C 
BRANCH  13  14
ATOM     14  C   UNL     1     -96.684 -41.148  90.690  1.00  0.00    -0.000 C 
BRANCH  14  15
ATOM     15  C   UNL     1     -97.848 -40.778  89.755  1.00  0.00    -0.000 C 
BRANCH  15  16
ATOM     16  C   UNL     1     -97.393 -39.963  88.534  1.00  0.00    -0.000 C 
BRANCH  16  17
ATOM     17  C   UNL     1     -96.912 -40.890  87.407  1.00  0.00    -0.000 C 
BRANCH  17  18
ATOM     18  C   UNL     1     -97.779 -42.152  87.269  1.00  0.00    -0.003 C 
ATOM     19  C   UNL     1     -96.959 -43.440  87.303  1.00  0.00     0.004 C 
ENDBRANCH  17  18
ENDBRANCH  16  17
ENDBRANCH  15  16
ENDBRANCH  14  15
ENDBRANCH  13  14
ENDBRANCH  12  13
ENDBRANCH   1  12
TORSDOF 14
ENDMDL
MODEL 8
REMARK VINA RESULT:    -3.188     14.510     16.791
REMARK INTER + INTRA:          -7.688
REMARK INTER:                  -5.445
REMARK INTRA:                  -2.244
REMARK UNBOUND:                -1.892
REMARK SMILES CCCCCCCCCCCCCC[C@H](C)C(=O)[O-]
REMARK SMILES IDX 9 1 10 2 11 3 12 4 13 5 14 6 15 7 16 8 17 9 18 10 19 11 8 12
REMARK SMILES IDX 7 13 6 14 5 15 4 16 3 17 2 18 1 19
REMARK H PARENT
REMARK Flexibility Score: inf
ROOT
ATOM      1  C   UNL     1     -94.981 -25.428  78.258  1.00  0.00     0.000 C 
ENDROOT
BRANCH   1   2
ATOM      2  C   UNL     1     -94.823 -26.142  79.609  1.00  0.00     0.000 C 
BRANCH   2   3
ATOM      3  C   UNL     1     -94.766 -25.164  80.792  1.00  0.00     0.000 C 
BRANCH   3   4
ATOM      4  C   UNL     1     -95.388 -25.785  82.049  1.00  0.00     0.000 C 
BRANCH   4   5
ATOM      5  C   UNL     1     -96.362 -26.913  81.683  1.00  0.00     0.001 C 
BRANCH   5   6
ATOM      6  C   UNL     1     -96.280 -28.137  82.619  1.00  0.00     0.009 C 
BRANCH   6   7
ATOM      7  C   UNL     1     -96.590 -27.904  84.121  1.00  0.00     0.032 C 
ATOM      8  C   UNL     1     -96.169 -29.081  85.017  1.00  0.00     0.014 C 
BRANCH   7   9
ATOM      9  C   UNL     1     -98.013 -27.479  84.366  1.00  0.00     0.044 C 
ATOM     10  O   UNL     1     -98.967 -28.287  84.207  1.00  0.00    -0.550 OA
ATOM     11  O   UNL     1     -98.287 -26.164  84.723  1.00  0.00    -0.550 OA
ENDBRANCH   7   9
ENDBRANCH   6   7
ENDBRANCH   5   6
ENDBRANCH   4   5
ENDBRANCH   3   4
ENDBRANCH   2   3
ENDBRANCH   1   2
BRANCH   1  12
ATOM     12  C   UNL     1     -95.928 -26.176  77.301  1.00  0.00     0.000 C 
BRANCH  12  13
ATOM     13  C   UNL     1     -97.131 -26.801  78.025  1.00  0.00    -0.000 C 
BRANCH  13  14
ATOM     14  C   UNL     1     -97.299 -28.296  77.705  1.00  0.00    -0.000 C 
BRANCH  14  15
ATOM     15  C   UNL     1     -96.896 -29.201  78.881  1.00  0.00    -0.000 C 
BRANCH  15  16
ATOM     16  C   UNL     1     -97.949 -30.275  79.193  1.00  0.00    -0.000 C 
BRANCH  16  17
ATOM     17  C   UNL     1     -99.334 -29.641  79.391  1.00  0.00    -0.000 C 
BRANCH  17  18
ATOM     18  C   UNL     1     -99.496 -28.995  80.776  1.00  0.00    -0.003 C 
ATOM     19  C   UNL     1     -99.781 -27.496  80.700  1.00  0.00     0.004 C 
ENDBRANCH  17  18
ENDBRANCH  16  17
ENDBRANCH  15  16
ENDBRANCH  14  15
ENDBRANCH  13  14
ENDBRANCH  12  13
ENDBRANCH   1  12
TORSDOF 14
ENDMDL
MODEL 9
REMARK VINA RESULT:    -3.158     15.068     16.460
REMARK INTER + INTRA:          -7.635
REMARK INTER:                  -4.697
REMARK INTRA:                  -2.938
REMARK UNBOUND:                -1.892
REMARK SMILES CCCCCCCCCCCCCC[C@H](C)C(=O)[O-]
REMARK SMILES IDX 9 1 10 2 11 3 12 4 13 5 14 6 15 7 16 8 17 9 18 10 19 11 8 12
REMARK SMILES IDX 7 13 6 14 5 15 4 16 3 17 2 18 1 19
REMARK H PARENT
REMARK Flexibility Score: inf
ROOT
ATOM      1  C   UNL     1    -100.026 -26.463  83.735  1.00  0.00     0.000 C 
ENDROOT
BRANCH   1   2
ATOM      2  C   UNL     1     -98.711 -25.867  84.261  1.00  0.00     0.000 C 
BRANCH   2   3
ATOM      3  C   UNL     1     -97.782 -26.930  84.868  1.00  0.00     0.000 C 
BRANCH   3   4
ATOM      4  C   UNL     1     -96.452 -26.995  84.106  1.00  0.00     0.000 C 
BRANCH   4   5
ATOM      5  C   UNL     1     -96.437 -28.172  83.121  1.00  0.00     0.001 C 
BRANCH   5   6
ATOM      6  C   UNL     1     -96.524 -27.748  81.640  1.00  0.00     0.009 C 
BRANCH   6   7
ATOM      7  C   UNL     1     -96.457 -26.229  81.332  1.00  0.00     0.032 C 
ATOM      8  C   UNL     1     -97.640 -25.729  80.488  1.00  0.00     0.014 C 
BRANCH   7   9
ATOM      9  C   UNL     1     -95.128 -25.806  80.763  1.00  0.00     0.044 C 
ATOM     10  O   UNL     1     -94.700 -26.296  79.683  1.00  0.00    -0.550 OA
ATOM     11  O   UNL     1     -94.338 -24.901  81.461  1.00  0.00    -0.550 OA
ENDBRANCH   7   9
ENDBRANCH   6   7
ENDBRANCH   5   6
ENDBRANCH   4   5
ENDBRANCH   3   4
ENDBRANCH   2   3
ENDBRANCH   1   2
BRANCH   1  12
ATOM     12  C   UNL     1    -100.108 -27.987  83.941  1.00  0.00     0.000 C 
BRANCH  12  13
ATOM     13  C   UNL     1    -100.050 -28.767  82.618  1.00  0.00    -0.000 C 
BRANCH  13  14
ATOM     14  C   UNL     1    -100.368 -27.885  81.399  1.00  0.00    -0.000 C 
BRANCH  14  15
ATOM     15  C   UNL     1    -100.308 -28.665  80.074  1.00  0.00    -0.000 C 
BRANCH  15  16
ATOM     16  C   UNL     1     -99.688 -30.061  80.235  1.00  0.00    -0.000 C 
BRANCH  16  17
ATOM     17  C   UNL     1     -98.335 -30.145  79.510  1.00  0.00    -0.000 C 
BRANCH  17  18
ATOM     18  C   UNL     1     -98.295 -29.289  78.234  1.00  0.00    -0.003 C 
ATOM     19  C   UNL     1     -96.971 -28.547  78.062  1.00  0.00     0.004 C 
ENDBRANCH  17  18
ENDBRANCH  16  17
ENDBRANCH  15  16
ENDBRANCH  14  15
ENDBRANCH  13  14
ENDBRANCH  12  13
ENDBRANCH   1  12
TORSDOF 14
ENDMDL
