MODEL 1
REMARK VINA RESULT:    21.180      0.000      0.000
REMARK INTER + INTRA:          25.223
REMARK INTER:                  25.513
REMARK INTRA:                  -0.290
REMARK UNBOUND:                -0.290
REMARK SMILES Oc1cc(O)c2cc(O)c(-c3ccc(O)c(O)c3)[o+]c2c1
REMARK SMILES IDX 10 1 19 2 20 3 21 4 2 5 3 6 4 7 6 8 7 9 8 10 11 11 12 12
REMARK SMILES IDX 13 13 14 14 18 15 16 16 15 17 17 19 9 21 1 23 5 25
REMARK H PARENT 15 18 17 20 9 22 1 24 5 26
REMARK Flexibility Score: inf
ROOT
ATOM      1  C   UNL     1      -6.289   7.503  16.002  1.00  0.00     0.402 A 
ATOM      2  O   UNL     1      -5.856   6.504  16.765  1.00  0.00    -0.202 OA
ATOM      3  C   UNL     1      -6.057   5.223  16.475  1.00  0.00     0.368 A 
ATOM      4  C   UNL     1      -5.565   4.244  17.342  1.00  0.00     0.162 A 
ATOM      5  C   UNL     1      -5.765   2.888  17.062  1.00  0.00     0.128 A 
ATOM      6  C   UNL     1      -6.461   2.511  15.911  1.00  0.00     0.093 A 
ATOM      7  C   UNL     1      -6.964   3.473  15.026  1.00  0.00     0.136 A 
ATOM      8  C   UNL     1      -6.760   4.850  15.305  1.00  0.00     0.125 A 
ATOM      9  C   UNL     1      -7.217   5.882  14.468  1.00  0.00     0.078 A 
ATOM     10  C   UNL     1      -6.975   7.217  14.806  1.00  0.00     0.223 A 
ENDROOT
BRANCH   1  11
ATOM     11  C   UNL     1      -6.011   8.890  16.438  1.00  0.00     0.087 A 
ATOM     12  C   UNL     1      -4.692   9.371  16.411  1.00  0.00     0.022 A 
ATOM     13  C   UNL     1      -4.403  10.670  16.838  1.00  0.00     0.051 A 
ATOM     14  C   UNL     1      -5.426  11.502  17.311  1.00  0.00     0.157 A 
ATOM     15  C   UNL     1      -7.032   9.722  16.934  1.00  0.00     0.068 A 
ATOM     16  C   UNL     1      -6.746  11.023  17.364  1.00  0.00     0.158 A 
BRANCH  14  17
ATOM     17  O   UNL     1      -5.134  12.798  17.734  1.00  0.00    -0.504 OA
ATOM     18  H   UNL     1      -4.684  13.467  17.121  1.00  0.00     0.293 HD
ENDBRANCH  14  17
BRANCH  16  19
ATOM     19  O   UNL     1      -7.783  11.821  17.843  1.00  0.00    -0.504 OA
ATOM     20  H   UNL     1      -8.719  11.459  17.982  1.00  0.00     0.293 HD
ENDBRANCH  16  19
ENDBRANCH   1  11
BRANCH  10  21
ATOM     21  O   UNL     1      -7.385   8.241  13.951  1.00  0.00    -0.500 OA
ATOM     22  H   UNL     1      -6.735   8.705  13.328  1.00  0.00     0.294 HD
ENDBRANCH  10  21
BRANCH   5  23
ATOM     23  O   UNL     1      -5.278   1.907  17.922  1.00  0.00    -0.507 OA
ATOM     24  H   UNL     1      -4.410   1.419  17.733  1.00  0.00     0.293 HD
ENDBRANCH   5  23
BRANCH   7  25
ATOM     25  O   UNL     1      -7.650   3.014  13.899  1.00  0.00    -0.507 OA
ATOM     26  H   UNL     1      -8.272   2.218  13.894  1.00  0.00     0.293 HD
ENDBRANCH   7  25
TORSDOF 6
ENDMDL
MODEL 2
REMARK VINA RESULT:    23.197      1.756      6.874
REMARK INTER + INTRA:          27.653
REMARK INTER:                  28.004
REMARK INTRA:                  -0.351
REMARK UNBOUND:                -0.290
REMARK SMILES Oc1cc(O)c2cc(O)c(-c3ccc(O)c(O)c3)[o+]c2c1
REMARK SMILES IDX 10 1 19 2 20 3 21 4 2 5 3 6 4 7 6 8 7 9 8 10 11 11 12 12
REMARK SMILES IDX 13 13 14 14 18 15 16 16 15 17 17 19 9 21 1 23 5 25
REMARK H PARENT 15 18 17 20 9 22 1 24 5 26
REMARK Flexibility Score: inf
ROOT
ATOM      1  C   UNL     1      -6.043   4.932  15.572  1.00  0.00     0.402 A 
ATOM      2  O   UNL     1      -5.813   6.078  16.206  1.00  0.00    -0.202 OA
ATOM      3  C   UNL     1      -6.434   7.214  15.908  1.00  0.00     0.368 A 
ATOM      4  C   UNL     1      -6.121   8.369  16.630  1.00  0.00     0.162 A 
ATOM      5  C   UNL     1      -6.759   9.579  16.336  1.00  0.00     0.128 A 
ATOM      6  C   UNL     1      -7.710   9.634  15.316  1.00  0.00     0.093 A 
ATOM      7  C   UNL     1      -8.042   8.490  14.578  1.00  0.00     0.136 A 
ATOM      8  C   UNL     1      -7.400   7.259  14.875  1.00  0.00     0.125 A 
ATOM      9  C   UNL     1      -7.677   6.061  14.196  1.00  0.00     0.078 A 
ATOM     10  C   UNL     1      -7.007   4.885  14.548  1.00  0.00     0.223 A 
ENDROOT
BRANCH   1  11
ATOM     11  C   UNL     1      -5.278   3.735  15.989  1.00  0.00     0.087 A 
ATOM     12  C   UNL     1      -5.696   3.004  17.112  1.00  0.00     0.022 A 
ATOM     13  C   UNL     1      -4.979   1.883  17.536  1.00  0.00     0.051 A 
ATOM     14  C   UNL     1      -3.823   1.484  16.852  1.00  0.00     0.157 A 
ATOM     15  C   UNL     1      -4.105   3.342  15.317  1.00  0.00     0.068 A 
ATOM     16  C   UNL     1      -3.382   2.221  15.740  1.00  0.00     0.158 A 
BRANCH  14  17
ATOM     17  O   UNL     1      -3.110   0.363  17.276  1.00  0.00    -0.504 OA
ATOM     18  H   UNL     1      -3.203  -0.532  16.811  1.00  0.00     0.293 HD
ENDBRANCH  14  17
BRANCH  16  19
ATOM     19  O   UNL     1      -2.229   1.859  15.046  1.00  0.00    -0.504 OA
ATOM     20  H   UNL     1      -1.622   2.546  14.615  1.00  0.00     0.293 HD
ENDBRANCH  16  19
ENDBRANCH   1  11
BRANCH  10  21
ATOM     21  O   UNL     1      -7.319   3.685  13.909  1.00  0.00    -0.500 OA
ATOM     22  H   UNL     1      -7.928   2.997  14.336  1.00  0.00     0.294 HD
ENDBRANCH  10  21
BRANCH   5  23
ATOM     23  O   UNL     1      -6.452  10.734  17.052  1.00  0.00    -0.507 OA
ATOM     24  H   UNL     1      -5.502  10.949  17.331  1.00  0.00     0.293 HD
ENDBRANCH   5  23
BRANCH   7  25
ATOM     25  O   UNL     1      -9.001   8.629  13.572  1.00  0.00    -0.507 OA
ATOM     26  H   UNL     1      -8.839   8.429  12.596  1.00  0.00     0.293 HD
ENDBRANCH   7  25
TORSDOF 6
ENDMDL
MODEL 3
REMARK VINA RESULT:    23.628      1.109      2.633
REMARK INTER + INTRA:          28.172
REMARK INTER:                  28.425
REMARK INTRA:                  -0.253
REMARK UNBOUND:                -0.290
REMARK SMILES Oc1cc(O)c2cc(O)c(-c3ccc(O)c(O)c3)[o+]c2c1
REMARK SMILES IDX 10 1 19 2 20 3 21 4 2 5 3 6 4 7 6 8 7 9 8 10 11 11 12 12
REMARK SMILES IDX 13 13 14 14 18 15 16 16 15 17 17 19 9 21 1 23 5 25
REMARK H PARENT 15 18 17 20 9 22 1 24 5 26
REMARK Flexibility Score: inf
ROOT
ATOM      1  C   UNL     1      -5.886   7.703  16.710  1.00  0.00     0.402 A 
ATOM      2  O   UNL     1      -6.592   7.229  15.687  1.00  0.00    -0.202 OA
ATOM      3  C   UNL     1      -6.815   5.934  15.492  1.00  0.00     0.368 A 
ATOM      4  C   UNL     1      -7.567   5.533  14.385  1.00  0.00     0.162 A 
ATOM      5  C   UNL     1      -7.816   4.176  14.154  1.00  0.00     0.128 A 
ATOM      6  C   UNL     1      -7.309   3.217  15.034  1.00  0.00     0.093 A 
ATOM      7  C   UNL     1      -6.552   3.593  16.152  1.00  0.00     0.136 A 
ATOM      8  C   UNL     1      -6.300   4.970  16.391  1.00  0.00     0.125 A 
ATOM      9  C   UNL     1      -5.564   5.439  17.491  1.00  0.00     0.078 A 
ATOM     10  C   UNL     1      -5.360   6.812  17.664  1.00  0.00     0.223 A 
ENDROOT
BRANCH   1  11
ATOM     11  C   UNL     1      -5.697   9.168  16.812  1.00  0.00     0.087 A 
ATOM     12  C   UNL     1      -4.420   9.715  16.610  1.00  0.00     0.022 A 
ATOM     13  C   UNL     1      -4.213  11.092  16.721  1.00  0.00     0.051 A 
ATOM     14  C   UNL     1      -5.278  11.941  17.050  1.00  0.00     0.157 A 
ATOM     15  C   UNL     1      -6.758  10.022  17.162  1.00  0.00     0.068 A 
ATOM     16  C   UNL     1      -6.555  11.402  17.277  1.00  0.00     0.158 A 
BRANCH  14  17
ATOM     17  O   UNL     1      -5.069  13.316  17.159  1.00  0.00    -0.504 OA
ATOM     18  H   UNL     1      -5.187  13.803  18.039  1.00  0.00     0.293 HD
ENDBRANCH  14  17
BRANCH  16  19
ATOM     19  O   UNL     1      -7.632  12.218  17.620  1.00  0.00    -0.504 OA
ATOM     20  H   UNL     1      -7.714  12.643  18.536  1.00  0.00     0.293 HD
ENDBRANCH  16  19
ENDBRANCH   1  11
BRANCH  10  21
ATOM     21  O   UNL     1      -4.672   7.281  18.783  1.00  0.00    -0.500 OA
ATOM     22  H   UNL     1      -4.949   8.130  19.261  1.00  0.00     0.294 HD
ENDBRANCH  10  21
BRANCH   5  23
ATOM     23  O   UNL     1      -8.565   3.769  13.052  1.00  0.00    -0.507 OA
ATOM     24  H   UNL     1      -8.131   3.581  12.156  1.00  0.00     0.293 HD
ENDBRANCH   5  23
BRANCH   7  25
ATOM     25  O   UNL     1      -6.079   2.573  16.981  1.00  0.00    -0.507 OA
ATOM     26  H   UNL     1      -6.594   1.734  17.204  1.00  0.00     0.293 HD
ENDBRANCH   7  25
TORSDOF 6
ENDMDL
MODEL 4
REMARK VINA RESULT:    23.659      1.806      3.144
REMARK INTER + INTRA:          28.210
REMARK INTER:                  27.806
REMARK INTRA:                   0.404
REMARK UNBOUND:                -0.290
REMARK SMILES Oc1cc(O)c2cc(O)c(-c3ccc(O)c(O)c3)[o+]c2c1
REMARK SMILES IDX 10 1 19 2 20 3 21 4 2 5 3 6 4 7 6 8 7 9 8 10 11 11 12 12
REMARK SMILES IDX 13 13 14 14 18 15 16 16 15 17 17 19 9 21 1 23 5 25
REMARK H PARENT 15 18 17 20 9 22 1 24 5 26
REMARK Flexibility Score: inf
ROOT
ATOM      1  C   UNL     1      -6.893   8.084  16.489  1.00  0.00     0.402 A 
ATOM      2  O   UNL     1      -7.307   7.259  15.531  1.00  0.00    -0.202 OA
ATOM      3  C   UNL     1      -6.888   6.003  15.419  1.00  0.00     0.368 A 
ATOM      4  C   UNL     1      -7.378   5.213  14.375  1.00  0.00     0.162 A 
ATOM      5  C   UNL     1      -6.952   3.889  14.232  1.00  0.00     0.128 A 
ATOM      6  C   UNL     1      -6.033   3.352  15.135  1.00  0.00     0.093 A 
ATOM      7  C   UNL     1      -5.527   4.123  16.191  1.00  0.00     0.136 A 
ATOM      8  C   UNL     1      -5.958   5.467  16.341  1.00  0.00     0.125 A 
ATOM      9  C   UNL     1      -5.514   6.308  17.375  1.00  0.00     0.078 A 
ATOM     10  C   UNL     1      -5.988   7.621  17.462  1.00  0.00     0.223 A 
ENDROOT
BRANCH   1  11
ATOM     11  C   UNL     1      -7.425   9.465  16.501  1.00  0.00     0.087 A 
ATOM     12  C   UNL     1      -7.368  10.216  17.686  1.00  0.00     0.022 A 
ATOM     13  C   UNL     1      -7.882  11.515  17.727  1.00  0.00     0.051 A 
ATOM     14  C   UNL     1      -8.473  12.076  16.588  1.00  0.00     0.157 A 
ATOM     15  C   UNL     1      -8.038  10.026  15.366  1.00  0.00     0.068 A 
ATOM     16  C   UNL     1      -8.556  11.326  15.403  1.00  0.00     0.158 A 
BRANCH  14  17
ATOM     17  O   UNL     1      -8.983  13.374  16.631  1.00  0.00    -0.504 OA
ATOM     18  H   UNL     1      -9.713  13.678  15.998  1.00  0.00     0.293 HD
ENDBRANCH  14  17
BRANCH  16  19
ATOM     19  O   UNL     1      -9.151  11.851  14.257  1.00  0.00    -0.504 OA
ATOM     20  H   UNL     1      -9.972  12.442  14.300  1.00  0.00     0.293 HD
ENDBRANCH  16  19
ENDBRANCH   1  11
BRANCH  10  21
ATOM     21  O   UNL     1      -5.586   8.441  18.517  1.00  0.00    -0.500 OA
ATOM     22  H   UNL     1      -6.252   8.990  19.047  1.00  0.00     0.294 HD
ENDBRANCH  10  21
BRANCH   5  23
ATOM     23  O   UNL     1      -7.437   3.097  13.194  1.00  0.00    -0.507 OA
ATOM     24  H   UNL     1      -8.179   2.423  13.342  1.00  0.00     0.293 HD
ENDBRANCH   5  23
BRANCH   7  25
ATOM     25  O   UNL     1      -4.608   3.513  17.049  1.00  0.00    -0.507 OA
ATOM     26  H   UNL     1      -3.627   3.746  17.094  1.00  0.00     0.293 HD
ENDBRANCH   7  25
TORSDOF 6
ENDMDL
MODEL 5
REMARK VINA RESULT:    23.989      5.534      6.416
REMARK INTER + INTRA:          28.607
REMARK INTER:                  28.428
REMARK INTRA:                   0.179
REMARK UNBOUND:                -0.290
REMARK SMILES Oc1cc(O)c2cc(O)c(-c3ccc(O)c(O)c3)[o+]c2c1
REMARK SMILES IDX 10 1 19 2 20 3 21 4 2 5 3 6 4 7 6 8 7 9 8 10 11 11 12 12
REMARK SMILES IDX 13 13 14 14 18 15 16 16 15 17 17 19 9 21 1 23 5 25
REMARK H PARENT 15 18 17 20 9 22 1 24 5 26
REMARK Flexibility Score: inf
ROOT
ATOM      1  C   UNL     1     -10.054   9.070  19.466  1.00  0.00     0.402 A 
ATOM      2  O   UNL     1     -11.118   8.370  19.086  1.00  0.00    -0.202 OA
ATOM      3  C   UNL     1     -11.469   7.215  19.641  1.00  0.00     0.368 A 
ATOM      4  C   UNL     1     -12.604   6.550  19.170  1.00  0.00     0.162 A 
ATOM      5  C   UNL     1     -12.994   5.332  19.734  1.00  0.00     0.128 A 
ATOM      6  C   UNL     1     -12.246   4.776  20.773  1.00  0.00     0.093 A 
ATOM      7  C   UNL     1     -11.103   5.422  21.264  1.00  0.00     0.136 A 
ATOM      8  C   UNL     1     -10.705   6.661  20.696  1.00  0.00     0.125 A 
ATOM      9  C   UNL     1      -9.583   7.384  21.132  1.00  0.00     0.078 A 
ATOM     10  C   UNL     1      -9.256   8.601  20.526  1.00  0.00     0.223 A 
ENDROOT
BRANCH   1  11
ATOM     11  C   UNL     1      -9.761  10.339  18.762  1.00  0.00     0.087 A 
ATOM     12  C   UNL     1     -10.815  11.072  18.194  1.00  0.00     0.022 A 
ATOM     13  C   UNL     1     -10.561  12.262  17.507  1.00  0.00     0.051 A 
ATOM     14  C   UNL     1      -9.248  12.729  17.365  1.00  0.00     0.157 A 
ATOM     15  C   UNL     1      -8.442  10.801  18.599  1.00  0.00     0.068 A 
ATOM     16  C   UNL     1      -8.183  11.991  17.909  1.00  0.00     0.158 A 
BRANCH  14  17
ATOM     17  O   UNL     1      -8.997  13.917  16.680  1.00  0.00    -0.504 OA
ATOM     18  H   UNL     1      -9.624  14.710  16.747  1.00  0.00     0.293 HD
ENDBRANCH  14  17
BRANCH  16  19
ATOM     19  O   UNL     1      -6.864  12.421  17.772  1.00  0.00    -0.504 OA
ATOM     20  H   UNL     1      -6.158  12.220  18.470  1.00  0.00     0.293 HD
ENDBRANCH  16  19
ENDBRANCH   1  11
BRANCH  10  21
ATOM     21  O   UNL     1      -8.171   9.345  20.993  1.00  0.00    -0.500 OA
ATOM     22  H   UNL     1      -7.861  10.187  20.523  1.00  0.00     0.294 HD
ENDBRANCH  10  21
BRANCH   5  23
ATOM     23  O   UNL     1     -14.125   4.665  19.269  1.00  0.00    -0.507 OA
ATOM     24  H   UNL     1     -14.254   3.671  19.418  1.00  0.00     0.293 HD
ENDBRANCH   5  23
BRANCH   7  25
ATOM     25  O   UNL     1     -10.408   4.798  22.303  1.00  0.00    -0.507 OA
ATOM     26  H   UNL     1      -9.406   4.672  22.325  1.00  0.00     0.293 HD
ENDBRANCH   7  25
TORSDOF 6
ENDMDL
