MODEL 1
REMARK VINA RESULT:    -4.633      0.000      0.000
REMARK INTER + INTRA:          -9.645
REMARK INTER:                  -8.153
REMARK INTRA:                  -1.492
REMARK UNBOUND:                -1.492
REMARK SMILES CCCCCCC=CCCCCCCCC(=O)[O-]
REMARK SMILES IDX 10 1 11 2 12 3 13 4 14 5 15 6 16 7 17 8 18 9 9 10 8 11 7 12
REMARK SMILES IDX 6 13 5 14 4 15 3 16 2 17 1 18
REMARK H PARENT
REMARK Flexibility Score: inf
ROOT
ATOM      1  C   UNL     1     -31.987  -9.465  24.491  1.00  0.00     0.004 C 
ENDROOT
BRANCH   1   2
ATOM      2  C   UNL     1     -31.295  -9.298  23.127  1.00  0.00     0.000 C 
BRANCH   2   3
ATOM      3  C   UNL     1     -29.765  -9.396  23.224  1.00  0.00     0.000 C 
BRANCH   3   4
ATOM      4  C   UNL     1     -29.052  -8.172  22.624  1.00  0.00     0.000 C 
BRANCH   4   5
ATOM      5  C   UNL     1     -27.826  -8.563  21.773  1.00  0.00     0.006 C 
BRANCH   5   6
ATOM      6  C   UNL     1     -28.034  -8.356  20.264  1.00  0.00     0.053 C 
BRANCH   6   7
ATOM      7  C   UNL     1     -29.322  -7.659  19.956  1.00  0.00     0.041 C 
ATOM      8  O   UNL     1     -30.371  -8.326  19.762  1.00  0.00    -0.550 OA
ATOM      9  O   UNL     1     -29.358  -6.273  19.858  1.00  0.00    -0.550 OA
ENDBRANCH   6   7
ENDBRANCH   5   6
ENDBRANCH   4   5
ENDBRANCH   3   4
ENDBRANCH   2   3
ENDBRANCH   1   2
BRANCH   1  10
ATOM     10  C   UNL     1     -32.097  -8.136  25.256  1.00  0.00     0.027 C 
BRANCH  10  11
ATOM     11  C   UNL     1     -31.570  -8.218  26.670  1.00  0.00    -0.031 C 
ATOM     12  C   UNL     1     -30.379  -7.747  27.086  1.00  0.00    -0.031 C 
BRANCH  12  13
ATOM     13  C   UNL     1     -29.379  -7.019  26.222  1.00  0.00     0.027 C 
BRANCH  13  14
ATOM     14  C   UNL     1     -28.335  -6.317  27.099  1.00  0.00     0.004 C 
BRANCH  14  15
ATOM     15  C   UNL     1     -27.356  -5.499  26.244  1.00  0.00     0.000 C 
BRANCH  15  16
ATOM     16  C   UNL     1     -27.608  -5.663  24.737  1.00  0.00    -0.000 C 
BRANCH  16  17
ATOM     17  C   UNL     1     -27.680  -4.317  24.000  1.00  0.00    -0.003 C 
ATOM     18  C   UNL     1     -28.634  -4.393  22.812  1.00  0.00     0.004 C 
ENDBRANCH  16  17
ENDBRANCH  15  16
ENDBRANCH  14  15
ENDBRANCH  13  14
ENDBRANCH  12  13
ENDBRANCH  10  11
ENDBRANCH   1  10
TORSDOF 13
ENDMDL
MODEL 2
REMARK VINA RESULT:    -4.562      3.138      5.019
REMARK INTER + INTRA:          -9.521
REMARK INTER:                  -8.660
REMARK INTRA:                  -0.861
REMARK UNBOUND:                -1.492
REMARK SMILES CCCCCCC=CCCCCCCCC(=O)[O-]
REMARK SMILES IDX 10 1 11 2 12 3 13 4 14 5 15 6 16 7 17 8 18 9 9 10 8 11 7 12
REMARK SMILES IDX 6 13 5 14 4 15 3 16 2 17 1 18
REMARK H PARENT
REMARK Flexibility Score: inf
ROOT
ATOM      1  C   UNL     1     -29.380  -9.179  19.854  1.00  0.00     0.004 C 
ENDROOT
BRANCH   1   2
ATOM      2  C   UNL     1     -29.076  -9.214  18.347  1.00  0.00     0.000 C 
BRANCH   2   3
ATOM      3  C   UNL     1     -29.973  -8.263  17.540  1.00  0.00     0.000 C 
BRANCH   3   4
ATOM      4  C   UNL     1     -29.594  -6.784  17.730  1.00  0.00     0.000 C 
BRANCH   4   5
ATOM      5  C   UNL     1     -29.787  -5.957  16.443  1.00  0.00     0.006 C 
BRANCH   5   6
ATOM      6  C   UNL     1     -29.907  -6.815  15.173  1.00  0.00     0.053 C 
BRANCH   6   7
ATOM      7  C   UNL     1     -28.703  -6.701  14.291  1.00  0.00     0.041 C 
ATOM      8  O   UNL     1     -27.874  -7.645  14.227  1.00  0.00    -0.550 OA
ATOM      9  O   UNL     1     -28.485  -5.540  13.560  1.00  0.00    -0.550 OA
ENDBRANCH   6   7
ENDBRANCH   5   6
ENDBRANCH   4   5
ENDBRANCH   3   4
ENDBRANCH   2   3
ENDBRANCH   1   2
BRANCH   1  10
ATOM     10  C   UNL     1     -28.314  -8.406  20.648  1.00  0.00     0.027 C 
BRANCH  10  11
ATOM     11  C   UNL     1     -28.365  -8.678  22.133  1.00  0.00    -0.031 C 
ATOM     12  C   UNL     1     -28.601  -7.756  23.087  1.00  0.00    -0.031 C 
BRANCH  12  13
ATOM     13  C   UNL     1     -28.895  -6.298  22.837  1.00  0.00     0.027 C 
BRANCH  13  14
ATOM     14  C   UNL     1     -28.087  -5.423  23.802  1.00  0.00     0.004 C 
BRANCH  14  15
ATOM     15  C   UNL     1     -27.639  -6.226  25.032  1.00  0.00     0.000 C 
BRANCH  15  16
ATOM     16  C   UNL     1     -27.370  -5.335  26.254  1.00  0.00    -0.000 C 
BRANCH  16  17
ATOM     17  C   UNL     1     -28.050  -5.856  27.528  1.00  0.00    -0.003 C 
ATOM     18  C   UNL     1     -29.146  -6.863  27.192  1.00  0.00     0.004 C 
ENDBRANCH  16  17
ENDBRANCH  15  16
ENDBRANCH  14  15
ENDBRANCH  13  14
ENDBRANCH  12  13
ENDBRANCH  10  11
ENDBRANCH   1  10
TORSDOF 13
ENDMDL
MODEL 3
REMARK VINA RESULT:    -4.550      1.634      3.057
REMARK INTER + INTRA:          -9.500
REMARK INTER:                  -8.087
REMARK INTRA:                  -1.413
REMARK UNBOUND:                -1.492
REMARK SMILES CCCCCCC=CCCCCCCCC(=O)[O-]
REMARK SMILES IDX 10 1 11 2 12 3 13 4 14 5 15 6 16 7 17 8 18 9 9 10 8 11 7 12
REMARK SMILES IDX 6 13 5 14 4 15 3 16 2 17 1 18
REMARK H PARENT
REMARK Flexibility Score: inf
ROOT
ATOM      1  C   UNL     1     -31.938 -10.721  22.103  1.00  0.00     0.004 C 
ENDROOT
BRANCH   1   2
ATOM      2  C   UNL     1     -31.333 -11.040  20.725  1.00  0.00     0.000 C 
BRANCH   2   3
ATOM      3  C   UNL     1     -30.295  -9.999  20.279  1.00  0.00     0.000 C 
BRANCH   3   4
ATOM      4  C   UNL     1     -29.699 -10.310  18.895  1.00  0.00     0.000 C 
BRANCH   4   5
ATOM      5  C   UNL     1     -28.767  -9.189  18.391  1.00  0.00     0.006 C 
BRANCH   5   6
ATOM      6  C   UNL     1     -28.417  -8.150  19.468  1.00  0.00     0.053 C 
BRANCH   6   7
ATOM      7  C   UNL     1     -29.110  -6.842  19.245  1.00  0.00     0.041 C 
ATOM      8  O   UNL     1     -29.217  -6.373  18.082  1.00  0.00    -0.550 OA
ATOM      9  O   UNL     1     -29.614  -6.129  20.326  1.00  0.00    -0.550 OA
ENDBRANCH   6   7
ENDBRANCH   5   6
ENDBRANCH   4   5
ENDBRANCH   3   4
ENDBRANCH   2   3
ENDBRANCH   1   2
BRANCH   1  10
ATOM     10  C   UNL     1     -30.861 -10.473  23.171  1.00  0.00     0.027 C 
BRANCH  10  11
ATOM     11  C   UNL     1     -31.035  -9.160  23.897  1.00  0.00    -0.031 C 
ATOM     12  C   UNL     1     -30.157  -8.137  23.881  1.00  0.00    -0.031 C 
BRANCH  12  13
ATOM     13  C   UNL     1     -28.866  -8.109  23.103  1.00  0.00     0.027 C 
BRANCH  13  14
ATOM     14  C   UNL     1     -27.990  -6.942  23.574  1.00  0.00     0.004 C 
BRANCH  14  15
ATOM     15  C   UNL     1     -28.653  -6.188  24.736  1.00  0.00     0.000 C 
BRANCH  15  16
ATOM     16  C   UNL     1     -27.649  -5.768  25.820  1.00  0.00    -0.000 C 
BRANCH  16  17
ATOM     17  C   UNL     1     -28.176  -6.013  27.241  1.00  0.00    -0.003 C 
ATOM     18  C   UNL     1     -29.337  -7.004  27.233  1.00  0.00     0.004 C 
ENDBRANCH  16  17
ENDBRANCH  15  16
ENDBRANCH  14  15
ENDBRANCH  13  14
ENDBRANCH  12  13
ENDBRANCH  10  11
ENDBRANCH   1  10
TORSDOF 13
ENDMDL
MODEL 4
REMARK VINA RESULT:    -4.502      1.489      3.646
REMARK INTER + INTRA:          -9.416
REMARK INTER:                  -7.795
REMARK INTRA:                  -1.621
REMARK UNBOUND:                -1.492
REMARK SMILES CCCCCCC=CCCCCCCCC(=O)[O-]
REMARK SMILES IDX 10 1 11 2 12 3 13 4 14 5 15 6 16 7 17 8 18 9 9 10 8 11 7 12
REMARK SMILES IDX 6 13 5 14 4 15 3 16 2 17 1 18
REMARK H PARENT
REMARK Flexibility Score: inf
ROOT
ATOM      1  C   UNL     1     -30.547  -5.720  22.832  1.00  0.00     0.004 C 
ENDROOT
BRANCH   1   2
ATOM      2  C   UNL     1     -30.820  -7.210  23.101  1.00  0.00     0.000 C 
BRANCH   2   3
ATOM      3  C   UNL     1     -29.531  -8.015  23.331  1.00  0.00     0.000 C 
BRANCH   3   4
ATOM      4  C   UNL     1     -29.440  -9.259  22.430  1.00  0.00     0.000 C 
BRANCH   4   5
ATOM      5  C   UNL     1     -29.980  -8.998  21.009  1.00  0.00     0.006 C 
BRANCH   5   6
ATOM      6  C   UNL     1     -28.876  -8.774  19.963  1.00  0.00     0.053 C 
BRANCH   6   7
ATOM      7  C   UNL     1     -29.217  -9.377  18.637  1.00  0.00     0.041 C 
ATOM      8  O   UNL     1     -28.434  -9.244  17.660  1.00  0.00    -0.550 OA
ATOM      9  O   UNL     1     -30.413 -10.066  18.472  1.00  0.00    -0.550 OA
ENDBRANCH   6   7
ENDBRANCH   5   6
ENDBRANCH   4   5
ENDBRANCH   3   4
ENDBRANCH   2   3
ENDBRANCH   1   2
BRANCH   1  10
ATOM     10  C   UNL     1     -29.134  -5.475  22.276  1.00  0.00     0.027 C 
BRANCH  10  11
ATOM     11  C   UNL     1     -28.409  -4.346  22.971  1.00  0.00    -0.031 C 
ATOM     12  C   UNL     1     -27.707  -4.457  24.115  1.00  0.00    -0.031 C 
BRANCH  12  13
ATOM     13  C   UNL     1     -27.488  -5.737  24.883  1.00  0.00     0.027 C 
BRANCH  13  14
ATOM     14  C   UNL     1     -27.186  -5.426  26.353  1.00  0.00     0.004 C 
BRANCH  14  15
ATOM     15  C   UNL     1     -28.291  -5.971  27.271  1.00  0.00     0.000 C 
BRANCH  15  16
ATOM     16  C   UNL     1     -29.131  -7.067  26.598  1.00  0.00    -0.000 C 
BRANCH  16  17
ATOM     17  C   UNL     1     -30.401  -7.409  27.391  1.00  0.00    -0.003 C 
ATOM     18  C   UNL     1     -31.335  -8.298  26.575  1.00  0.00     0.004 C 
ENDBRANCH  16  17
ENDBRANCH  15  16
ENDBRANCH  14  15
ENDBRANCH  13  14
ENDBRANCH  12  13
ENDBRANCH  10  11
ENDBRANCH   1  10
TORSDOF 13
ENDMDL
MODEL 5
REMARK VINA RESULT:    -4.492      1.683      4.891
REMARK INTER + INTRA:          -9.398
REMARK INTER:                  -7.984
REMARK INTRA:                  -1.414
REMARK UNBOUND:                -1.492
REMARK SMILES CCCCCCC=CCCCCCCCC(=O)[O-]
REMARK SMILES IDX 10 1 11 2 12 3 13 4 14 5 15 6 16 7 17 8 18 9 9 10 8 11 7 12
REMARK SMILES IDX 6 13 5 14 4 15 3 16 2 17 1 18
REMARK H PARENT
REMARK Flexibility Score: inf
ROOT
ATOM      1  C   UNL     1     -31.435  -7.763  26.571  1.00  0.00     0.004 C 
ENDROOT
BRANCH   1   2
ATOM      2  C   UNL     1     -30.257  -7.223  27.400  1.00  0.00     0.000 C 
BRANCH   2   3
ATOM      3  C   UNL     1     -28.986  -7.022  26.560  1.00  0.00     0.000 C 
BRANCH   3   4
ATOM      4  C   UNL     1     -28.077  -5.912  27.116  1.00  0.00     0.000 C 
BRANCH   4   5
ATOM      5  C   UNL     1     -27.238  -5.233  26.015  1.00  0.00     0.006 C 
BRANCH   5   6
ATOM      6  C   UNL     1     -27.439  -5.848  24.621  1.00  0.00     0.053 C 
BRANCH   6   7
ATOM      7  C   UNL     1     -28.057  -4.885  23.657  1.00  0.00     0.041 C 
ATOM      8  O   UNL     1     -29.182  -5.132  23.148  1.00  0.00    -0.550 OA
ATOM      9  O   UNL     1     -27.379  -3.726  23.300  1.00  0.00    -0.550 OA
ENDBRANCH   6   7
ENDBRANCH   5   6
ENDBRANCH   4   5
ENDBRANCH   3   4
ENDBRANCH   2   3
ENDBRANCH   1   2
BRANCH   1  10
ATOM     10  C   UNL     1     -30.968  -8.550  25.335  1.00  0.00     0.027 C 
BRANCH  10  11
ATOM     11  C   UNL     1     -31.368  -7.902  24.031  1.00  0.00    -0.031 C 
ATOM     12  C   UNL     1     -30.815  -8.160  22.830  1.00  0.00    -0.031 C 
BRANCH  12  13
ATOM     13  C   UNL     1     -29.726  -9.171  22.571  1.00  0.00     0.027 C 
BRANCH  13  14
ATOM     14  C   UNL     1     -28.402  -8.456  22.273  1.00  0.00     0.004 C 
BRANCH  14  15
ATOM     15  C   UNL     1     -28.006  -8.621  20.799  1.00  0.00     0.000 C 
BRANCH  15  16
ATOM     16  C   UNL     1     -28.613  -7.536  19.898  1.00  0.00    -0.000 C 
BRANCH  16  17
ATOM     17  C   UNL     1     -29.392  -8.120  18.711  1.00  0.00    -0.003 C 
ATOM     18  C   UNL     1     -28.770  -9.431  18.238  1.00  0.00     0.004 C 
ENDBRANCH  16  17
ENDBRANCH  15  16
ENDBRANCH  14  15
ENDBRANCH  13  14
ENDBRANCH  12  13
ENDBRANCH  10  11
ENDBRANCH   1  10
TORSDOF 13
ENDMDL
MODEL 6
REMARK VINA RESULT:    -4.478      2.302      4.608
REMARK INTER + INTRA:          -9.372
REMARK INTER:                  -8.240
REMARK INTRA:                  -1.132
REMARK UNBOUND:                -1.492
REMARK SMILES CCCCCCC=CCCCCCCCC(=O)[O-]
REMARK SMILES IDX 10 1 11 2 12 3 13 4 14 5 15 6 16 7 17 8 18 9 9 10 8 11 7 12
REMARK SMILES IDX 6 13 5 14 4 15 3 16 2 17 1 18
REMARK H PARENT
REMARK Flexibility Score: inf
ROOT
ATOM      1  C   UNL     1     -29.148  -9.452  19.532  1.00  0.00     0.004 C 
ENDROOT
BRANCH   1   2
ATOM      2  C   UNL     1     -29.030  -9.454  17.998  1.00  0.00     0.000 C 
BRANCH   2   3
ATOM      3  C   UNL     1     -30.115  -8.603  17.320  1.00  0.00     0.000 C 
BRANCH   3   4
ATOM      4  C   UNL     1     -31.084  -7.962  18.330  1.00  0.00     0.000 C 
BRANCH   4   5
ATOM      5  C   UNL     1     -31.140  -6.427  18.199  1.00  0.00     0.006 C 
BRANCH   5   6
ATOM      6  C   UNL     1     -29.816  -5.802  17.730  1.00  0.00     0.053 C 
BRANCH   6   7
ATOM      7  C   UNL     1     -29.445  -4.590  18.527  1.00  0.00     0.041 C 
ATOM      8  O   UNL     1     -28.566  -4.667  19.424  1.00  0.00    -0.550 OA
ATOM      9  O   UNL     1     -30.088  -3.380  18.294  1.00  0.00    -0.550 OA
ENDBRANCH   6   7
ENDBRANCH   5   6
ENDBRANCH   4   5
ENDBRANCH   3   4
ENDBRANCH   2   3
ENDBRANCH   1   2
BRANCH   1  10
ATOM     10  C   UNL     1     -28.101  -8.544  20.197  1.00  0.00     0.027 C 
BRANCH  10  11
ATOM     11  C   UNL     1     -27.975  -8.773  21.685  1.00  0.00    -0.031 C 
ATOM     12  C   UNL     1     -28.393  -7.922  22.643  1.00  0.00    -0.031 C 
BRANCH  12  13
ATOM     13  C   UNL     1     -29.095  -6.610  22.398  1.00  0.00     0.027 C 
BRANCH  13  14
ATOM     14  C   UNL     1     -28.762  -5.615  23.516  1.00  0.00     0.004 C 
BRANCH  14  15
ATOM     15  C   UNL     1     -28.451  -6.346  24.830  1.00  0.00     0.000 C 
BRANCH  15  16
ATOM     16  C   UNL     1     -27.467  -5.571  25.719  1.00  0.00    -0.000 C 
BRANCH  16  17
ATOM     17  C   UNL     1     -27.781  -5.715  27.215  1.00  0.00    -0.003 C 
ATOM     18  C   UNL     1     -28.944  -6.678  27.441  1.00  0.00     0.004 C 
ENDBRANCH  16  17
ENDBRANCH  15  16
ENDBRANCH  14  15
ENDBRANCH  13  14
ENDBRANCH  12  13
ENDBRANCH  10  11
ENDBRANCH   1  10
TORSDOF 13
ENDMDL
MODEL 7
REMARK VINA RESULT:    -4.391     11.210     13.339
REMARK INTER + INTRA:          -9.219
REMARK INTER:                  -6.918
REMARK INTRA:                  -2.301
REMARK UNBOUND:                -1.492
REMARK SMILES CCCCCCC=CCCCCCCCC(=O)[O-]
REMARK SMILES IDX 10 1 11 2 12 3 13 4 14 5 15 6 16 7 17 8 18 9 9 10 8 11 7 12
REMARK SMILES IDX 6 13 5 14 4 15 3 16 2 17 1 18
REMARK H PARENT
REMARK Flexibility Score: inf
ROOT
ATOM      1  C   UNL     1     -34.226   2.764  19.494  1.00  0.00     0.004 C 
ENDROOT
BRANCH   1   2
ATOM      2  C   UNL     1     -35.729   2.445  19.565  1.00  0.00     0.000 C 
BRANCH   2   3
ATOM      3  C   UNL     1     -36.070   1.451  20.686  1.00  0.00     0.000 C 
BRANCH   3   4
ATOM      4  C   UNL     1     -37.457   0.807  20.507  1.00  0.00     0.000 C 
BRANCH   4   5
ATOM      5  C   UNL     1     -38.006   0.981  19.076  1.00  0.00     0.006 C 
BRANCH   5   6
ATOM      6  C   UNL     1     -38.920  -0.169  18.625  1.00  0.00     0.053 C 
BRANCH   6   7
ATOM      7  C   UNL     1     -38.219  -1.134  17.721  1.00  0.00     0.041 C 
ATOM      8  O   UNL     1     -38.413  -1.093  16.478  1.00  0.00    -0.550 OA
ATOM      9  O   UNL     1     -37.369  -2.096  18.254  1.00  0.00    -0.550 OA
ENDBRANCH   6   7
ENDBRANCH   5   6
ENDBRANCH   4   5
ENDBRANCH   3   4
ENDBRANCH   2   3
ENDBRANCH   1   2
BRANCH   1  10
ATOM     10  C   UNL     1     -33.683   2.704  18.057  1.00  0.00     0.027 C 
BRANCH  10  11
ATOM     11  C   UNL     1     -32.987   1.401  17.738  1.00  0.00    -0.031 C 
ATOM     12  C   UNL     1     -33.578   0.307  17.220  1.00  0.00    -0.031 C 
BRANCH  12  13
ATOM     13  C   UNL     1     -35.031   0.204  16.829  1.00  0.00     0.027 C 
BRANCH  13  14
ATOM     14  C   UNL     1     -35.197   0.492  15.332  1.00  0.00     0.004 C 
BRANCH  14  15
ATOM     15  C   UNL     1     -35.717   1.918  15.099  1.00  0.00     0.000 C 
BRANCH  15  16
ATOM     16  C   UNL     1     -36.888   2.280  16.025  1.00  0.00    -0.000 C 
BRANCH  16  17
ATOM     17  C   UNL     1     -37.078   3.797  16.173  1.00  0.00    -0.003 C 
ATOM     18  C   UNL     1     -36.086   4.562  15.302  1.00  0.00     0.004 C 
ENDBRANCH  16  17
ENDBRANCH  15  16
ENDBRANCH  14  15
ENDBRANCH  13  14
ENDBRANCH  12  13
ENDBRANCH  10  11
ENDBRANCH   1  10
TORSDOF 13
ENDMDL
MODEL 8
REMARK VINA RESULT:    -4.377      1.792      3.204
REMARK INTER + INTRA:          -9.196
REMARK INTER:                  -7.306
REMARK INTRA:                  -1.890
REMARK UNBOUND:                -1.492
REMARK SMILES CCCCCCC=CCCCCCCCC(=O)[O-]
REMARK SMILES IDX 10 1 11 2 12 3 13 4 14 5 15 6 16 7 17 8 18 9 9 10 8 11 7 12
REMARK SMILES IDX 6 13 5 14 4 15 3 16 2 17 1 18
REMARK H PARENT
REMARK Flexibility Score: inf
ROOT
ATOM      1  C   UNL     1     -29.084  -9.005  22.892  1.00  0.00     0.004 C 
ENDROOT
BRANCH   1   2
ATOM      2  C   UNL     1     -27.813  -8.719  22.072  1.00  0.00     0.000 C 
BRANCH   2   3
ATOM      3  C   UNL     1     -28.124  -8.192  20.663  1.00  0.00     0.000 C 
BRANCH   3   4
ATOM      4  C   UNL     1     -28.975  -9.172  19.837  1.00  0.00     0.000 C 
BRANCH   4   5
ATOM      5  C   UNL     1     -28.725  -9.035  18.321  1.00  0.00     0.006 C 
BRANCH   5   6
ATOM      6  C   UNL     1     -29.933  -8.486  17.546  1.00  0.00     0.053 C 
BRANCH   6   7
ATOM      7  C   UNL     1     -30.301  -7.099  17.971  1.00  0.00     0.041 C 
ATOM      8  O   UNL     1     -31.466  -6.849  18.376  1.00  0.00    -0.550 OA
ATOM      9  O   UNL     1     -29.362  -6.077  17.898  1.00  0.00    -0.550 OA
ENDBRANCH   6   7
ENDBRANCH   5   6
ENDBRANCH   4   5
ENDBRANCH   3   4
ENDBRANCH   2   3
ENDBRANCH   1   2
BRANCH   1  10
ATOM     10  C   UNL     1     -29.834  -7.719  23.275  1.00  0.00     0.027 C 
BRANCH  10  11
ATOM     11  C   UNL     1     -29.661  -7.340  24.727  1.00  0.00    -0.031 C 
ATOM     12  C   UNL     1     -28.655  -6.594  25.224  1.00  0.00    -0.031 C 
BRANCH  12  13
ATOM     13  C   UNL     1     -27.546  -5.974  24.411  1.00  0.00     0.027 C 
BRANCH  13  14
ATOM     14  C   UNL     1     -27.893  -4.520  24.068  1.00  0.00     0.004 C 
BRANCH  14  15
ATOM     15  C   UNL     1     -28.257  -4.376  22.583  1.00  0.00     0.000 C 
BRANCH  15  16
ATOM     16  C   UNL     1     -29.754  -4.109  22.363  1.00  0.00    -0.000 C 
BRANCH  16  17
ATOM     17  C   UNL     1     -30.293  -4.776  21.089  1.00  0.00    -0.003 C 
ATOM     18  C   UNL     1     -31.112  -3.792  20.259  1.00  0.00     0.004 C 
ENDBRANCH  16  17
ENDBRANCH  15  16
ENDBRANCH  14  15
ENDBRANCH  13  14
ENDBRANCH  12  13
ENDBRANCH  10  11
ENDBRANCH   1  10
TORSDOF 13
ENDMDL
MODEL 9
REMARK VINA RESULT:    -4.347     10.703     12.442
REMARK INTER + INTRA:          -9.142
REMARK INTER:                  -6.744
REMARK INTRA:                  -2.398
REMARK UNBOUND:                -1.492
REMARK SMILES CCCCCCC=CCCCCCCCC(=O)[O-]
REMARK SMILES IDX 10 1 11 2 12 3 13 4 14 5 15 6 16 7 17 8 18 9 9 10 8 11 7 12
REMARK SMILES IDX 6 13 5 14 4 15 3 16 2 17 1 18
REMARK H PARENT
REMARK Flexibility Score: inf
ROOT
ATOM      1  C   UNL     1     -36.195  -1.158  18.831  1.00  0.00     0.004 C 
ENDROOT
BRANCH   1   2
ATOM      2  C   UNL     1     -35.436  -1.541  17.548  1.00  0.00     0.000 C 
BRANCH   2   3
ATOM      3  C   UNL     1     -35.816  -0.657  16.350  1.00  0.00     0.000 C 
BRANCH   3   4
ATOM      4  C   UNL     1     -36.912   0.368  16.692  1.00  0.00     0.000 C 
BRANCH   4   5
ATOM      5  C   UNL     1     -37.124   1.400  15.566  1.00  0.00     0.006 C 
BRANCH   5   6
ATOM      6  C   UNL     1     -35.943   2.367  15.388  1.00  0.00     0.053 C 
BRANCH   6   7
ATOM      7  C   UNL     1     -36.328   3.790  15.646  1.00  0.00     0.041 C 
ATOM      8  O   UNL     1     -35.692   4.728  15.099  1.00  0.00    -0.550 OA
ATOM      9  O   UNL     1     -37.376   4.082  16.512  1.00  0.00    -0.550 OA
ENDBRANCH   6   7
ENDBRANCH   5   6
ENDBRANCH   4   5
ENDBRANCH   3   4
ENDBRANCH   2   3
ENDBRANCH   1   2
BRANCH   1  10
ATOM     10  C   UNL     1     -35.267  -0.562  19.903  1.00  0.00     0.027 C 
BRANCH  10  11
ATOM     11  C   UNL     1     -35.964   0.424  20.810  1.00  0.00    -0.031 C 
ATOM     12  C   UNL     1     -36.149   1.732  20.545  1.00  0.00    -0.031 C 
BRANCH  12  13
ATOM     13  C   UNL     1     -35.726   2.433  19.278  1.00  0.00     0.027 C 
BRANCH  13  14
ATOM     14  C   UNL     1     -34.222   2.728  19.314  1.00  0.00     0.004 C 
BRANCH  14  15
ATOM     15  C   UNL     1     -33.573   2.448  17.951  1.00  0.00     0.000 C 
BRANCH  15  16
ATOM     16  C   UNL     1     -32.788   1.127  17.929  1.00  0.00    -0.000 C 
BRANCH  16  17
ATOM     17  C   UNL     1     -32.435   0.672  16.505  1.00  0.00    -0.003 C 
ATOM     18  C   UNL     1     -31.724  -0.678  16.521  1.00  0.00     0.004 C 
ENDBRANCH  16  17
ENDBRANCH  15  16
ENDBRANCH  14  15
ENDBRANCH  13  14
ENDBRANCH  12  13
ENDBRANCH  10  11
ENDBRANCH   1  10
TORSDOF 13
ENDMDL
