MODEL 1
REMARK VINA RESULT:    -5.904      0.000      0.000
REMARK INTER + INTRA:          -6.346
REMARK INTER:                  -6.249
REMARK INTRA:                  -0.096
REMARK UNBOUND:                -0.096
REMARK SMILES C=C(C)[C@@H]1CC=C(C)C(=O)C1
REMARK SMILES IDX 8 1 7 2 6 3 5 4 4 5 11 6 9 7 10 8 2 9 1 10 3 11
REMARK H PARENT
REMARK Flexibility Score: inf
ROOT
ATOM      1  C   UNL     1       7.848  18.750  23.863  1.00  0.00     0.048 C 
ATOM      2  C   UNL     1       9.062  19.630  23.744  1.00  0.00    -0.012 C 
ATOM      3  C   UNL     1      10.241  19.098  23.377  1.00  0.00    -0.019 C 
ATOM      4  C   UNL     1      11.483  19.937  23.225  1.00  0.00     0.036 C 
ATOM      5  C   UNL     1      11.487  21.108  24.227  1.00  0.00     0.025 C 
ATOM      6  C   UNL     1      10.199  21.941  24.078  1.00  0.00     0.089 C 
ATOM      7  C   UNL     1       8.985  21.056  24.152  1.00  0.00     0.158 C 
ATOM      8  O   UNL     1       7.888  21.548  24.532  1.00  0.00    -0.295 OA
ENDROOT
BRANCH   5   9
ATOM      9  C   UNL     1      12.733  21.970  24.078  1.00  0.00    -0.077 C 
ATOM     10  C   UNL     1      13.705  21.650  23.207  1.00  0.00     0.008 C 
ATOM     11  C   UNL     1      12.897  23.212  24.916  1.00  0.00     0.039 C 
ENDBRANCH   5   9
TORSDOF 1
ENDMDL
MODEL 2
REMARK VINA RESULT:    -5.889      1.916      4.710
REMARK INTER + INTRA:          -6.330
REMARK INTER:                  -6.233
REMARK INTRA:                  -0.096
REMARK UNBOUND:                -0.096
REMARK SMILES C=C(C)[C@@H]1CC=C(C)C(=O)C1
REMARK SMILES IDX 8 1 7 2 6 3 5 4 4 5 11 6 9 7 10 8 2 9 1 10 3 11
REMARK H PARENT
REMARK Flexibility Score: inf
ROOT
ATOM      1  C   UNL     1      13.298  22.874  24.237  1.00  0.00     0.048 C 
ATOM      2  C   UNL     1      12.075  22.038  23.977  1.00  0.00    -0.012 C 
ATOM      3  C   UNL     1      10.898  22.636  23.725  1.00  0.00    -0.019 C 
ATOM      4  C   UNL     1       9.646  21.847  23.441  1.00  0.00     0.036 C 
ATOM      5  C   UNL     1       9.643  20.515  24.215  1.00  0.00     0.025 C 
ATOM      6  C   UNL     1      10.921  19.713  23.904  1.00  0.00     0.089 C 
ATOM      7  C   UNL     1      12.144  20.562  24.122  1.00  0.00     0.158 C 
ATOM      8  O   UNL     1      13.240  20.002  24.394  1.00  0.00    -0.295 OA
ENDROOT
BRANCH   5   9
ATOM      9  C   UNL     1       8.387  19.702  23.929  1.00  0.00    -0.077 C 
ATOM     10  C   UNL     1       7.423  20.167  23.116  1.00  0.00     0.008 C 
ATOM     11  C   UNL     1       8.205  18.346  24.561  1.00  0.00     0.039 C 
ENDBRANCH   5   9
TORSDOF 1
ENDMDL
MODEL 3
REMARK VINA RESULT:    -4.135     11.001     11.626
REMARK INTER + INTRA:          -4.473
REMARK INTER:                  -4.377
REMARK INTRA:                  -0.096
REMARK UNBOUND:                -0.096
REMARK SMILES C=C(C)[C@@H]1CC=C(C)C(=O)C1
REMARK SMILES IDX 8 1 7 2 6 3 5 4 4 5 11 6 9 7 10 8 2 9 1 10 3 11
REMARK H PARENT
REMARK Flexibility Score: inf
ROOT
ATOM      1  C   UNL     1       3.608  25.611  16.325  1.00  0.00     0.048 C 
ATOM      2  C   UNL     1       4.590  26.750  16.304  1.00  0.00    -0.012 C 
ATOM      3  C   UNL     1       5.909  26.497  16.264  1.00  0.00    -0.019 C 
ATOM      4  C   UNL     1       6.934  27.600  16.224  1.00  0.00     0.036 C 
ATOM      5  C   UNL     1       6.448  28.836  17.004  1.00  0.00     0.025 C 
ATOM      6  C   UNL     1       5.076  29.295  16.475  1.00  0.00     0.089 C 
ATOM      7  C   UNL     1       4.105  28.146  16.454  1.00  0.00     0.158 C 
ATOM      8  O   UNL     1       2.870  28.384  16.528  1.00  0.00    -0.295 OA
ENDROOT
BRANCH   5   9
ATOM      9  C   UNL     1       7.471  29.964  16.963  1.00  0.00    -0.077 C 
ATOM     10  C   UNL     1       7.265  31.119  17.620  1.00  0.00     0.008 C 
ATOM     11  C   UNL     1       8.745  29.800  16.176  1.00  0.00     0.039 C 
ENDBRANCH   5   9
TORSDOF 1
ENDMDL
MODEL 4
REMARK VINA RESULT:    -4.129      9.188     10.633
REMARK INTER + INTRA:          -4.467
REMARK INTER:                  -4.372
REMARK INTRA:                  -0.094
REMARK UNBOUND:                -0.096
REMARK SMILES C=C(C)[C@@H]1CC=C(C)C(=O)C1
REMARK SMILES IDX 8 1 7 2 6 3 5 4 4 5 11 6 9 7 10 8 2 9 1 10 3 11
REMARK H PARENT
REMARK Flexibility Score: inf
ROOT
ATOM      1  C   UNL     1      12.106  24.073  15.920  1.00  0.00     0.048 C 
ATOM      2  C   UNL     1      13.527  24.441  15.592  1.00  0.00    -0.012 C 
ATOM      3  C   UNL     1      14.350  23.523  15.057  1.00  0.00    -0.019 C 
ATOM      4  C   UNL     1      15.776  23.843  14.693  1.00  0.00     0.036 C 
ATOM      5  C   UNL     1      16.371  24.891  15.653  1.00  0.00     0.025 C 
ATOM      6  C   UNL     1      15.481  26.149  15.688  1.00  0.00     0.089 C 
ATOM      7  C   UNL     1      14.052  25.777  15.973  1.00  0.00     0.158 C 
ATOM      8  O   UNL     1      13.291  26.628  16.508  1.00  0.00    -0.295 OA
ENDROOT
BRANCH   5   9
ATOM      9  C   UNL     1      17.810  25.232  15.290  1.00  0.00    -0.077 C 
ATOM     10  C   UNL     1      18.098  26.227  14.433  1.00  0.00     0.008 C 
ATOM     11  C   UNL     1      18.948  24.450  15.894  1.00  0.00     0.039 C 
ENDBRANCH   5   9
TORSDOF 1
ENDMDL
MODEL 5
REMARK VINA RESULT:    -4.100      9.632     11.432
REMARK INTER + INTRA:          -4.436
REMARK INTER:                  -4.338
REMARK INTRA:                  -0.097
REMARK UNBOUND:                -0.096
REMARK SMILES C=C(C)[C@@H]1CC=C(C)C(=O)C1
REMARK SMILES IDX 8 1 7 2 6 3 5 4 4 5 11 6 9 7 10 8 2 9 1 10 3 11
REMARK H PARENT
REMARK Flexibility Score: inf
ROOT
ATOM      1  C   UNL     1      16.620  28.173  15.129  1.00  0.00     0.048 C 
ATOM      2  C   UNL     1      15.424  27.261  15.128  1.00  0.00    -0.012 C 
ATOM      3  C   UNL     1      14.205  27.757  14.855  1.00  0.00    -0.019 C 
ATOM      4  C   UNL     1      12.977  26.886  14.823  1.00  0.00     0.036 C 
ATOM      5  C   UNL     1      13.089  25.732  15.837  1.00  0.00     0.025 C 
ATOM      6  C   UNL     1      14.381  24.929  15.591  1.00  0.00     0.089 C 
ATOM      7  C   UNL     1      15.573  25.845  15.548  1.00  0.00     0.158 C 
ATOM      8  O   UNL     1      16.710  25.386  15.839  1.00  0.00    -0.295 OA
ENDROOT
BRANCH   5   9
ATOM      9  C   UNL     1      11.858  24.836  15.808  1.00  0.00    -0.077 C 
ATOM     10  C   UNL     1      11.854  23.632  16.406  1.00  0.00     0.008 C 
ATOM     11  C   UNL     1      10.608  25.292  15.100  1.00  0.00     0.039 C 
ENDBRANCH   5   9
TORSDOF 1
ENDMDL
MODEL 6
REMARK VINA RESULT:    -4.075      9.662     10.744
REMARK INTER + INTRA:          -4.410
REMARK INTER:                  -4.312
REMARK INTRA:                  -0.098
REMARK UNBOUND:                -0.096
REMARK SMILES C=C(C)[C@@H]1CC=C(C)C(=O)C1
REMARK SMILES IDX 8 1 7 2 6 3 5 4 4 5 11 6 9 7 10 8 2 9 1 10 3 11
REMARK H PARENT
REMARK Flexibility Score: inf
ROOT
ATOM      1  C   UNL     1       4.276  14.907  14.046  1.00  0.00     0.048 C 
ATOM      2  C   UNL     1       5.485  15.794  14.165  1.00  0.00    -0.012 C 
ATOM      3  C   UNL     1       6.659  15.398  13.644  1.00  0.00    -0.019 C 
ATOM      4  C   UNL     1       7.895  16.255  13.719  1.00  0.00     0.036 C 
ATOM      5  C   UNL     1       7.912  17.092  15.013  1.00  0.00     0.025 C 
ATOM      6  C   UNL     1       6.619  17.922  15.127  1.00  0.00     0.089 C 
ATOM      7  C   UNL     1       5.409  17.043  14.964  1.00  0.00     0.158 C 
ATOM      8  O   UNL     1       4.318  17.398  15.485  1.00  0.00    -0.295 OA
ENDROOT
BRANCH   5   9
ATOM      9  C   UNL     1       9.153  17.971  15.097  1.00  0.00    -0.077 C 
ATOM     10  C   UNL     1       9.174  19.080  15.857  1.00  0.00     0.008 C 
ATOM     11  C   UNL     1      10.392  17.606  14.321  1.00  0.00     0.039 C 
ENDBRANCH   5   9
TORSDOF 1
ENDMDL
MODEL 7
REMARK VINA RESULT:    -4.075     10.409     11.635
REMARK INTER + INTRA:          -4.409
REMARK INTER:                  -4.313
REMARK INTRA:                  -0.097
REMARK UNBOUND:                -0.096
REMARK SMILES C=C(C)[C@@H]1CC=C(C)C(=O)C1
REMARK SMILES IDX 8 1 7 2 6 3 5 4 4 5 11 6 9 7 10 8 2 9 1 10 3 11
REMARK H PARENT
REMARK Flexibility Score: inf
ROOT
ATOM      1  C   UNL     1      11.823  28.317  14.781  1.00  0.00     0.048 C 
ATOM      2  C   UNL     1      13.200  27.778  15.055  1.00  0.00    -0.012 C 
ATOM      3  C   UNL     1      14.281  28.469  14.652  1.00  0.00    -0.019 C 
ATOM      4  C   UNL     1      15.683  27.984  14.916  1.00  0.00     0.036 C 
ATOM      5  C   UNL     1      15.749  26.445  14.904  1.00  0.00     0.025 C 
ATOM      6  C   UNL     1      14.732  25.859  15.901  1.00  0.00     0.089 C 
ATOM      7  C   UNL     1      13.362  26.430  15.657  1.00  0.00     0.158 C 
ATOM      8  O   UNL     1      12.349  25.765  16.002  1.00  0.00    -0.295 OA
ENDROOT
BRANCH   5   9
ATOM      9  C   UNL     1      17.159  25.941  15.180  1.00  0.00    -0.077 C 
ATOM     10  C   UNL     1      17.424  25.141  16.227  1.00  0.00     0.008 C 
ATOM     11  C   UNL     1      18.295  26.337  14.271  1.00  0.00     0.039 C 
ENDBRANCH   5   9
TORSDOF 1
ENDMDL
MODEL 8
REMARK VINA RESULT:    -4.068     10.698     11.846
REMARK INTER + INTRA:          -4.402
REMARK INTER:                  -4.311
REMARK INTRA:                  -0.091
REMARK UNBOUND:                -0.096
REMARK SMILES C=C(C)[C@@H]1CC=C(C)C(=O)C1
REMARK SMILES IDX 8 1 7 2 6 3 5 4 4 5 11 6 9 7 10 8 2 9 1 10 3 11
REMARK H PARENT
REMARK Flexibility Score: inf
ROOT
ATOM      1  C   UNL     1      13.154  26.637  15.775  1.00  0.00     0.048 C 
ATOM      2  C   UNL     1      14.568  26.230  15.465  1.00  0.00    -0.012 C 
ATOM      3  C   UNL     1      14.937  24.943  15.590  1.00  0.00    -0.019 C 
ATOM      4  C   UNL     1      16.335  24.479  15.276  1.00  0.00     0.036 C 
ATOM      5  C   UNL     1      17.369  25.574  15.603  1.00  0.00     0.025 C 
ATOM      6  C   UNL     1      17.011  26.882  14.871  1.00  0.00     0.089 C 
ATOM      7  C   UNL     1      15.582  27.266  15.145  1.00  0.00     0.158 C 
ATOM      8  O   UNL     1      15.247  28.478  15.063  1.00  0.00    -0.295 OA
ENDROOT
BRANCH   5   9
ATOM      9  C   UNL     1      18.787  25.121  15.281  1.00  0.00    -0.077 C 
ATOM     10  C   UNL     1      19.418  24.206  16.036  1.00  0.00     0.008 C 
ATOM     11  C   UNL     1      19.514  25.701  14.094  1.00  0.00     0.039 C 
ENDBRANCH   5   9
TORSDOF 1
ENDMDL
MODEL 9
REMARK VINA RESULT:    -4.029     11.898     13.189
REMARK INTER + INTRA:          -4.361
REMARK INTER:                  -4.267
REMARK INTRA:                  -0.093
REMARK UNBOUND:                -0.096
REMARK SMILES C=C(C)[C@@H]1CC=C(C)C(=O)C1
REMARK SMILES IDX 8 1 7 2 6 3 5 4 4 5 11 6 9 7 10 8 2 9 1 10 3 11
REMARK H PARENT
REMARK Flexibility Score: inf
ROOT
ATOM      1  C   UNL     1       9.361  31.125  15.873  1.00  0.00     0.048 C 
ATOM      2  C   UNL     1       8.015  30.465  15.997  1.00  0.00    -0.012 C 
ATOM      3  C   UNL     1       7.516  30.188  17.214  1.00  0.00    -0.019 C 
ATOM      4  C   UNL     1       6.166  29.545  17.396  1.00  0.00     0.036 C 
ATOM      5  C   UNL     1       5.850  28.581  16.235  1.00  0.00     0.025 C 
ATOM      6  C   UNL     1       5.970  29.315  14.886  1.00  0.00     0.089 C 
ATOM      7  C   UNL     1       7.299  30.011  14.778  1.00  0.00     0.158 C 
ATOM      8  O   UNL     1       7.782  30.238  13.637  1.00  0.00    -0.295 OA
ENDROOT
BRANCH   5   9
ATOM      9  C   UNL     1       4.483  27.931  16.401  1.00  0.00    -0.077 C 
ATOM     10  C   UNL     1       3.385  28.666  16.653  1.00  0.00     0.008 C 
ATOM     11  C   UNL     1       4.338  26.436  16.284  1.00  0.00     0.039 C 
ENDBRANCH   5   9
TORSDOF 1
ENDMDL
