MODEL 1
REMARK VINA RESULT:    -3.430      0.000      0.000
REMARK INTER + INTRA:          -5.244
REMARK INTER:                  -4.833
REMARK INTRA:                  -0.411
REMARK UNBOUND:                -0.411
REMARK SMILES C=CCCCCCCC(=O)[O-]
REMARK SMILES IDX 6 1 7 2 8 3 9 4 10 5 11 6 5 7 4 8 3 9 2 10 1 11
REMARK H PARENT
REMARK Flexibility Score: inf
ROOT
ATOM      1  C   UNL     1      -8.642  24.777 -21.973  1.00  0.00     0.000 C 
ENDROOT
BRANCH   1   2
ATOM      2  C   UNL     1      -8.638  24.712 -20.441  1.00  0.00     0.006 C 
BRANCH   2   3
ATOM      3  C   UNL     1      -8.424  23.277 -19.952  1.00  0.00     0.053 C 
BRANCH   3   4
ATOM      4  C   UNL     1      -8.352  23.238 -18.458  1.00  0.00     0.041 C 
ATOM      5  O   UNL     1      -8.710  24.238 -17.781  1.00  0.00    -0.550 OA
ATOM      6  O   UNL     1      -7.936  22.082 -17.811  1.00  0.00    -0.550 OA
ENDBRANCH   3   4
ENDBRANCH   2   3
ENDBRANCH   1   2
BRANCH   1   7
ATOM      7  C   UNL     1      -9.182  26.128 -22.465  1.00  0.00     0.000 C 
BRANCH   7   8
ATOM      8  C   UNL     1      -9.350  27.152 -21.328  1.00  0.00     0.004 C 
BRANCH   8   9
ATOM      9  C   UNL     1      -8.513  28.433 -21.502  1.00  0.00     0.027 C 
BRANCH   9  10
ATOM     10  C   UNL     1      -7.278  28.209 -22.331  1.00  0.00    -0.035 C 
ATOM     11  C   UNL     1      -6.811  29.144 -23.165  1.00  0.00     0.004 C 
ENDBRANCH   9  10
ENDBRANCH   8   9
ENDBRANCH   7   8
ENDBRANCH   1   7
TORSDOF 7
ENDMDL
MODEL 2
REMARK VINA RESULT:    -3.336      1.149      2.044
REMARK INTER + INTRA:          -5.113
REMARK INTER:                  -4.485
REMARK INTRA:                  -0.627
REMARK UNBOUND:                -0.411
REMARK SMILES C=CCCCCCCC(=O)[O-]
REMARK SMILES IDX 6 1 7 2 8 3 9 4 10 5 11 6 5 7 4 8 3 9 2 10 1 11
REMARK H PARENT
REMARK Flexibility Score: inf
ROOT
ATOM      1  C   UNL     1      -8.187  23.835 -22.206  1.00  0.00     0.000 C 
ENDROOT
BRANCH   1   2
ATOM      2  C   UNL     1      -8.697  23.466 -20.808  1.00  0.00     0.006 C 
BRANCH   2   3
ATOM      3  C   UNL     1      -7.645  23.775 -19.739  1.00  0.00     0.053 C 
BRANCH   3   4
ATOM      4  C   UNL     1      -8.175  23.458 -18.376  1.00  0.00     0.041 C 
ATOM      5  O   UNL     1      -7.941  22.338 -17.851  1.00  0.00    -0.550 OA
ATOM      6  O   UNL     1      -8.885  24.417 -17.665  1.00  0.00    -0.550 OA
ENDBRANCH   3   4
ENDBRANCH   2   3
ENDBRANCH   1   2
BRANCH   1   7
ATOM      7  C   UNL     1      -9.328  24.370 -23.084  1.00  0.00     0.000 C 
BRANCH   7   8
ATOM      8  C   UNL     1      -9.141  25.849 -23.468  1.00  0.00     0.004 C 
BRANCH   8   9
ATOM      9  C   UNL     1      -7.924  26.524 -22.808  1.00  0.00     0.027 C 
BRANCH   9  10
ATOM     10  C   UNL     1      -8.317  27.558 -21.788  1.00  0.00    -0.035 C 
ATOM     11  C   UNL     1      -9.420  27.429 -21.044  1.00  0.00     0.004 C 
ENDBRANCH   9  10
ENDBRANCH   8   9
ENDBRANCH   7   8
ENDBRANCH   1   7
TORSDOF 7
ENDMDL
MODEL 3
REMARK VINA RESULT:    -3.317      6.098      8.446
REMARK INTER + INTRA:          -5.086
REMARK INTER:                  -4.847
REMARK INTRA:                  -0.239
REMARK UNBOUND:                -0.411
REMARK SMILES C=CCCCCCCC(=O)[O-]
REMARK SMILES IDX 6 1 7 2 8 3 9 4 10 5 11 6 5 7 4 8 3 9 2 10 1 11
REMARK H PARENT
REMARK Flexibility Score: inf
ROOT
ATOM      1  C   UNL     1      -6.334  31.311 -24.159  1.00  0.00     0.000 C 
ENDROOT
BRANCH   1   2
ATOM      2  C   UNL     1      -7.249  31.857 -25.261  1.00  0.00     0.006 C 
BRANCH   2   3
ATOM      3  C   UNL     1      -7.512  30.797 -26.335  1.00  0.00     0.053 C 
BRANCH   3   4
ATOM      4  C   UNL     1      -8.267  31.389 -27.482  1.00  0.00     0.041 C 
ATOM      5  O   UNL     1      -8.747  32.550 -27.392  1.00  0.00    -0.550 OA
ATOM      6  O   UNL     1      -8.399  30.680 -28.669  1.00  0.00    -0.550 OA
ENDBRANCH   3   4
ENDBRANCH   2   3
ENDBRANCH   1   2
BRANCH   1   7
ATOM      7  C   UNL     1      -6.509  29.794 -24.000  1.00  0.00     0.000 C 
BRANCH   7   8
ATOM      8  C   UNL     1      -6.671  29.363 -22.530  1.00  0.00     0.004 C 
BRANCH   8   9
ATOM      9  C   UNL     1      -7.425  28.035 -22.341  1.00  0.00     0.027 C 
BRANCH   9  10
ATOM     10  C   UNL     1      -8.680  28.192 -21.525  1.00  0.00    -0.035 C 
ATOM     11  C   UNL     1      -9.296  27.142 -20.973  1.00  0.00     0.004 C 
ENDBRANCH   9  10
ENDBRANCH   8   9
ENDBRANCH   7   8
ENDBRANCH   1   7
TORSDOF 7
ENDMDL
MODEL 4
REMARK VINA RESULT:    -3.089     11.571     12.481
REMARK INTER + INTRA:          -4.764
REMARK INTER:                  -4.192
REMARK INTRA:                  -0.572
REMARK UNBOUND:                -0.411
REMARK SMILES C=CCCCCCCC(=O)[O-]
REMARK SMILES IDX 6 1 7 2 8 3 9 4 10 5 11 6 5 7 4 8 3 9 2 10 1 11
REMARK H PARENT
REMARK Flexibility Score: inf
ROOT
ATOM      1  C   UNL     1      -5.672  36.393 -20.382  1.00  0.00     0.000 C 
ENDROOT
BRANCH   1   2
ATOM      2  C   UNL     1      -5.480  37.593 -19.448  1.00  0.00     0.006 C 
BRANCH   2   3
ATOM      3  C   UNL     1      -4.037  37.670 -18.939  1.00  0.00     0.053 C 
BRANCH   3   4
ATOM      4  C   UNL     1      -3.893  36.917 -17.655  1.00  0.00     0.041 C 
ATOM      5  O   UNL     1      -4.852  36.867 -16.840  1.00  0.00    -0.550 OA
ATOM      6  O   UNL     1      -2.719  36.229 -17.380  1.00  0.00    -0.550 OA
ENDBRANCH   3   4
ENDBRANCH   2   3
ENDBRANCH   1   2
BRANCH   1   7
ATOM      7  C   UNL     1      -5.517  36.809 -21.852  1.00  0.00     0.000 C 
BRANCH   7   8
ATOM      8  C   UNL     1      -6.825  36.667 -22.653  1.00  0.00     0.004 C 
BRANCH   8   9
ATOM      9  C   UNL     1      -7.922  37.671 -22.255  1.00  0.00     0.027 C 
BRANCH   9  10
ATOM     10  C   UNL     1      -7.447  39.098 -22.303  1.00  0.00    -0.035 C 
ATOM     11  C   UNL     1      -7.702  39.959 -21.313  1.00  0.00     0.004 C 
ENDBRANCH   9  10
ENDBRANCH   8   9
ENDBRANCH   7   8
ENDBRANCH   1   7
TORSDOF 7
ENDMDL
MODEL 5
REMARK VINA RESULT:    -3.037      5.315      7.557
REMARK INTER + INTRA:          -4.692
REMARK INTER:                  -4.246
REMARK INTRA:                  -0.446
REMARK UNBOUND:                -0.411
REMARK SMILES C=CCCCCCCC(=O)[O-]
REMARK SMILES IDX 6 1 7 2 8 3 9 4 10 5 11 6 5 7 4 8 3 9 2 10 1 11
REMARK H PARENT
REMARK Flexibility Score: inf
ROOT
ATOM      1  C   UNL     1      -6.508  28.136 -24.868  1.00  0.00     0.000 C 
ENDROOT
BRANCH   1   2
ATOM      2  C   UNL     1      -7.532  28.556 -25.929  1.00  0.00     0.006 C 
BRANCH   2   3
ATOM      3  C   UNL     1      -6.984  29.687 -26.805  1.00  0.00     0.053 C 
BRANCH   3   4
ATOM      4  C   UNL     1      -7.855  30.898 -26.702  1.00  0.00     0.041 C 
ATOM      5  O   UNL     1      -8.632  31.202 -27.645  1.00  0.00    -0.550 OA
ATOM      6  O   UNL     1      -7.846  31.665 -25.544  1.00  0.00    -0.550 OA
ENDBRANCH   3   4
ENDBRANCH   2   3
ENDBRANCH   1   2
BRANCH   1   7
ATOM      7  C   UNL     1      -6.700  28.936 -23.571  1.00  0.00     0.000 C 
BRANCH   7   8
ATOM      8  C   UNL     1      -6.986  28.038 -22.353  1.00  0.00     0.004 C 
BRANCH   8   9
ATOM      9  C   UNL     1      -8.302  28.364 -21.624  1.00  0.00     0.027 C 
BRANCH   9  10
ATOM     10  C   UNL     1      -9.265  27.208 -21.622  1.00  0.00    -0.035 C 
ATOM     11  C   UNL     1      -8.972  26.047 -22.215  1.00  0.00     0.004 C 
ENDBRANCH   9  10
ENDBRANCH   8   9
ENDBRANCH   7   8
ENDBRANCH   1   7
TORSDOF 7
ENDMDL
MODEL 6
REMARK VINA RESULT:    -2.998      2.252      3.556
REMARK INTER + INTRA:          -4.636
REMARK INTER:                  -3.874
REMARK INTRA:                  -0.761
REMARK UNBOUND:                -0.411
REMARK SMILES C=CCCCCCCC(=O)[O-]
REMARK SMILES IDX 6 1 7 2 8 3 9 4 10 5 11 6 5 7 4 8 3 9 2 10 1 11
REMARK H PARENT
REMARK Flexibility Score: inf
ROOT
ATOM      1  C   UNL     1      -8.385  28.400 -21.582  1.00  0.00     0.000 C 
ENDROOT
BRANCH   1   2
ATOM      2  C   UNL     1      -9.183  27.143 -21.215  1.00  0.00     0.006 C 
BRANCH   2   3
ATOM      3  C   UNL     1      -8.996  26.046 -22.267  1.00  0.00     0.053 C 
BRANCH   3   4
ATOM      4  C   UNL     1      -8.767  24.723 -21.608  1.00  0.00     0.041 C 
ATOM      5  O   UNL     1      -8.448  24.668 -20.391  1.00  0.00    -0.550 OA
ATOM      6  O   UNL     1      -8.952  23.547 -22.325  1.00  0.00    -0.550 OA
ENDBRANCH   3   4
ENDBRANCH   2   3
ENDBRANCH   1   2
BRANCH   1   7
ATOM      7  C   UNL     1      -7.430  28.123 -22.753  1.00  0.00     0.000 C 
BRANCH   7   8
ATOM      8  C   UNL     1      -6.058  28.799 -22.575  1.00  0.00     0.004 C 
BRANCH   8   9
ATOM      9  C   UNL     1      -4.911  27.824 -22.252  1.00  0.00     0.027 C 
BRANCH   9  10
ATOM     10  C   UNL     1      -5.307  26.383 -22.429  1.00  0.00    -0.035 C 
ATOM     11  C   UNL     1      -5.087  25.471 -21.477  1.00  0.00     0.004 C 
ENDBRANCH   9  10
ENDBRANCH   8   9
ENDBRANCH   7   8
ENDBRANCH   1   7
TORSDOF 7
ENDMDL
MODEL 7
REMARK VINA RESULT:    -2.995      2.245      2.743
REMARK INTER + INTRA:          -4.632
REMARK INTER:                  -4.177
REMARK INTRA:                  -0.455
REMARK UNBOUND:                -0.411
REMARK SMILES C=CCCCCCCC(=O)[O-]
REMARK SMILES IDX 6 1 7 2 8 3 9 4 10 5 11 6 5 7 4 8 3 9 2 10 1 11
REMARK H PARENT
REMARK Flexibility Score: inf
ROOT
ATOM      1  C   UNL     1      -7.698  23.706 -21.158  1.00  0.00     0.000 C 
ENDROOT
BRANCH   1   2
ATOM      2  C   UNL     1      -6.275  24.258 -21.302  1.00  0.00     0.006 C 
BRANCH   2   3
ATOM      3  C   UNL     1      -5.388  23.805 -20.139  1.00  0.00     0.053 C 
BRANCH   3   4
ATOM      4  C   UNL     1      -5.337  22.312 -20.069  1.00  0.00     0.041 C 
ATOM      5  O   UNL     1      -4.735  21.657 -20.961  1.00  0.00    -0.550 OA
ATOM      6  O   UNL     1      -5.910  21.645 -18.994  1.00  0.00    -0.550 OA
ENDBRANCH   3   4
ENDBRANCH   2   3
ENDBRANCH   1   2
BRANCH   1   7
ATOM      7  C   UNL     1      -8.657  24.787 -20.637  1.00  0.00     0.000 C 
BRANCH   7   8
ATOM      8  C   UNL     1      -8.948  25.880 -21.681  1.00  0.00     0.004 C 
BRANCH   8   9
ATOM      9  C   UNL     1      -9.267  27.260 -21.079  1.00  0.00     0.027 C 
BRANCH   9  10
ATOM     10  C   UNL     1      -8.407  28.355 -21.651  1.00  0.00    -0.035 C 
ATOM     11  C   UNL     1      -7.327  28.088 -22.391  1.00  0.00     0.004 C 
ENDBRANCH   9  10
ENDBRANCH   8   9
ENDBRANCH   7   8
ENDBRANCH   1   7
TORSDOF 7
ENDMDL
MODEL 8
REMARK VINA RESULT:    -2.981      3.382      4.756
REMARK INTER + INTRA:          -4.613
REMARK INTER:                  -3.976
REMARK INTRA:                  -0.636
REMARK UNBOUND:                -0.411
REMARK SMILES C=CCCCCCCC(=O)[O-]
REMARK SMILES IDX 6 1 7 2 8 3 9 4 10 5 11 6 5 7 4 8 3 9 2 10 1 11
REMARK H PARENT
REMARK Flexibility Score: inf
ROOT
ATOM      1  C   UNL     1      -5.321  27.918 -22.513  1.00  0.00     0.000 C 
ENDROOT
BRANCH   1   2
ATOM      2  C   UNL     1      -6.624  27.126 -22.358  1.00  0.00     0.006 C 
BRANCH   2   3
ATOM      3  C   UNL     1      -7.825  28.065 -22.204  1.00  0.00     0.053 C 
BRANCH   3   4
ATOM      4  C   UNL     1      -9.003  27.323 -21.656  1.00  0.00     0.041 C 
ATOM      5  O   UNL     1      -9.394  27.538 -20.479  1.00  0.00    -0.550 OA
ATOM      6  O   UNL     1      -9.699  26.431 -22.461  1.00  0.00    -0.550 OA
ENDBRANCH   3   4
ENDBRANCH   2   3
ENDBRANCH   1   2
BRANCH   1   7
ATOM      7  C   UNL     1      -5.573  29.426 -22.365  1.00  0.00     0.000 C 
BRANCH   7   8
ATOM      8  C   UNL     1      -5.224  30.217 -23.639  1.00  0.00     0.004 C 
BRANCH   8   9
ATOM      9  C   UNL     1      -6.341  31.159 -24.123  1.00  0.00     0.027 C 
BRANCH   9  10
ATOM     10  C   UNL     1      -7.091  30.609 -25.306  1.00  0.00    -0.035 C 
ATOM     11  C   UNL     1      -6.886  29.367 -25.754  1.00  0.00     0.004 C 
ENDBRANCH   9  10
ENDBRANCH   8   9
ENDBRANCH   7   8
ENDBRANCH   1   7
TORSDOF 7
ENDMDL
MODEL 9
REMARK VINA RESULT:    -2.971      1.757      2.189
REMARK INTER + INTRA:          -4.598
REMARK INTER:                  -3.900
REMARK INTRA:                  -0.698
REMARK UNBOUND:                -0.411
REMARK SMILES C=CCCCCCCC(=O)[O-]
REMARK SMILES IDX 6 1 7 2 8 3 9 4 10 5 11 6 5 7 4 8 3 9 2 10 1 11
REMARK H PARENT
REMARK Flexibility Score: inf
ROOT
ATOM      1  C   UNL     1      -8.862  25.712 -21.189  1.00  0.00     0.000 C 
ENDROOT
BRANCH   1   2
ATOM      2  C   UNL     1      -8.402  24.250 -21.231  1.00  0.00     0.006 C 
BRANCH   2   3
ATOM      3  C   UNL     1      -7.740  23.842 -19.911  1.00  0.00     0.053 C 
BRANCH   3   4
ATOM      4  C   UNL     1      -8.768  23.685 -18.836  1.00  0.00     0.041 C 
ATOM      5  O   UNL     1      -8.567  24.169 -17.692  1.00  0.00    -0.550 OA
ATOM      6  O   UNL     1      -9.970  23.046 -19.112  1.00  0.00    -0.550 OA
ENDBRANCH   3   4
ENDBRANCH   2   3
ENDBRANCH   1   2
BRANCH   1   7
ATOM      7  C   UNL     1      -8.713  26.375 -22.566  1.00  0.00     0.000 C 
BRANCH   7   8
ATOM      8  C   UNL     1      -7.568  27.404 -22.612  1.00  0.00     0.004 C 
BRANCH   8   9
ATOM      9  C   UNL     1      -6.228  26.835 -23.111  1.00  0.00     0.027 C 
BRANCH   9  10
ATOM     10  C   UNL     1      -5.220  26.672 -22.005  1.00  0.00    -0.035 C 
ATOM     11  C   UNL     1      -4.843  25.467 -21.568  1.00  0.00     0.004 C 
ENDBRANCH   9  10
ENDBRANCH   8   9
ENDBRANCH   7   8
ENDBRANCH   1   7
TORSDOF 7
ENDMDL
