MODEL 1
REMARK VINA RESULT:    -3.731      0.000      0.000
REMARK INTER + INTRA:         -14.286
REMARK INTER:                  -9.403
REMARK INTRA:                  -4.883
REMARK UNBOUND:                -4.883
REMARK SMILES CCCCCCCCCCCCCCCCCCCCCCCCCCCC(=O)[O-]
REMARK SMILES IDX 15 1 16 2 17 3 18 4 19 5 20 6 21 7 22 8 23 9 24 10 25 11
REMARK SMILES IDX 26 12 27 13 28 14 29 15 30 16 14 17 13 18 12 19 11 20 10 21
REMARK SMILES IDX 9 22 8 23 7 24 6 25 5 26 4 27 3 28 2 29 1 30
REMARK H PARENT
REMARK Flexibility Score: inf
ROOT
ATOM      1  C   UNL     1       1.606   6.051  39.701  1.00  0.00     0.000 C 
ENDROOT
BRANCH   1   2
ATOM      2  C   UNL     1       2.207   5.251  38.529  1.00  0.00     0.000 C 
BRANCH   2   3
ATOM      3  C   UNL     1       2.476   6.121  37.299  1.00  0.00     0.000 C 
BRANCH   3   4
ATOM      4  C   UNL     1       2.947   5.284  36.105  1.00  0.00     0.000 C 
BRANCH   4   5
ATOM      5  C   UNL     1       2.079   5.594  34.881  1.00  0.00     0.000 C 
BRANCH   5   6
ATOM      6  C   UNL     1       1.179   4.418  34.496  1.00  0.00     0.000 C 
BRANCH   6   7
ATOM      7  C   UNL     1       0.136   4.889  33.475  1.00  0.00     0.000 C 
BRANCH   7   8
ATOM      8  C   UNL     1       0.675   5.956  32.514  1.00  0.00     0.000 C 
BRANCH   8   9
ATOM      9  C   UNL     1       0.607   5.502  31.043  1.00  0.00     0.000 C 
BRANCH   9  10
ATOM     10  C   UNL     1       1.941   4.926  30.539  1.00  0.00     0.000 C 
BRANCH  10  11
ATOM     11  C   UNL     1       1.854   4.460  29.073  1.00  0.00     0.000 C 
BRANCH  11  12
ATOM     12  C   UNL     1       2.703   5.312  28.120  1.00  0.00     0.006 C 
BRANCH  12  13
ATOM     13  C   UNL     1       1.980   6.584  27.650  1.00  0.00     0.053 C 
BRANCH  13  14
ATOM     14  C   UNL     1       2.689   7.797  28.173  1.00  0.00     0.041 C 
ATOM     15  O   UNL     1       3.627   8.326  27.520  1.00  0.00    -0.550 OA
ATOM     16  O   UNL     1       2.155   8.458  29.279  1.00  0.00    -0.550 OA
ENDBRANCH  13  14
ENDBRANCH  12  13
ENDBRANCH  11  12
ENDBRANCH  10  11
ENDBRANCH   9  10
ENDBRANCH   8   9
ENDBRANCH   7   8
ENDBRANCH   6   7
ENDBRANCH   5   6
ENDBRANCH   4   5
ENDBRANCH   3   4
ENDBRANCH   2   3
ENDBRANCH   1   2
BRANCH   1  17
ATOM     17  C   UNL     1       1.246   7.511  39.345  1.00  0.00     0.000 C 
BRANCH  17  18
ATOM     18  C   UNL     1       0.968   8.379  40.590  1.00  0.00     0.000 C 
BRANCH  18  19
ATOM     19  C   UNL     1      -0.510   8.823  40.669  1.00  0.00     0.000 C 
BRANCH  19  20
ATOM     20  C   UNL     1      -1.178   9.027  39.294  1.00  0.00     0.000 C 
BRANCH  20  21
ATOM     21  C   UNL     1      -2.639   8.559  39.199  1.00  0.00     0.000 C 
BRANCH  21  22
ATOM     22  C   UNL     1      -3.031   7.563  40.298  1.00  0.00    -0.000 C 
BRANCH  22  23
ATOM     23  C   UNL     1      -3.317   6.183  39.684  1.00  0.00    -0.000 C 
BRANCH  23  24
ATOM     24  C   UNL     1      -2.030   5.386  39.398  1.00  0.00    -0.000 C 
BRANCH  24  25
ATOM     25  C   UNL     1      -1.856   4.976  37.918  1.00  0.00    -0.000 C 
BRANCH  25  26
ATOM     26  C   UNL     1      -1.008   5.957  37.075  1.00  0.00    -0.000 C 
BRANCH  26  27
ATOM     27  C   UNL     1      -1.781   6.617  35.908  1.00  0.00    -0.000 C 
BRANCH  27  28
ATOM     28  C   UNL     1      -1.423   8.101  35.681  1.00  0.00    -0.000 C 
BRANCH  28  29
ATOM     29  C   UNL     1       0.059   8.445  35.906  1.00  0.00    -0.003 C 
ATOM     30  C   UNL     1       0.714   9.084  34.679  1.00  0.00     0.004 C 
ENDBRANCH  28  29
ENDBRANCH  27  28
ENDBRANCH  26  27
ENDBRANCH  25  26
ENDBRANCH  24  25
ENDBRANCH  23  24
ENDBRANCH  22  23
ENDBRANCH  21  22
ENDBRANCH  20  21
ENDBRANCH  19  20
ENDBRANCH  18  19
ENDBRANCH  17  18
ENDBRANCH   1  17
TORSDOF 26
ENDMDL
MODEL 2
REMARK VINA RESULT:    -3.728      2.835      5.351
REMARK INTER + INTRA:         -14.277
REMARK INTER:                  -8.498
REMARK INTRA:                  -5.779
REMARK UNBOUND:                -4.883
REMARK SMILES CCCCCCCCCCCCCCCCCCCCCCCCCCCC(=O)[O-]
REMARK SMILES IDX 15 1 16 2 17 3 18 4 19 5 20 6 21 7 22 8 23 9 24 10 25 11
REMARK SMILES IDX 26 12 27 13 28 14 29 15 30 16 14 17 13 18 12 19 11 20 10 21
REMARK SMILES IDX 9 22 8 23 7 24 6 25 5 26 4 27 3 28 2 29 1 30
REMARK H PARENT
REMARK Flexibility Score: inf
ROOT
ATOM      1  C   UNL     1      -2.315   8.391  38.659  1.00  0.00     0.000 C 
ENDROOT
BRANCH   1   2
ATOM      2  C   UNL     1      -2.090   9.867  38.274  1.00  0.00     0.000 C 
BRANCH   2   3
ATOM      3  C   UNL     1      -1.172  10.026  37.060  1.00  0.00     0.000 C 
BRANCH   3   4
ATOM      4  C   UNL     1      -1.498   9.004  35.965  1.00  0.00     0.000 C 
BRANCH   4   5
ATOM      5  C   UNL     1      -0.203   8.369  35.448  1.00  0.00     0.000 C 
BRANCH   5   6
ATOM      6  C   UNL     1      -0.392   6.899  35.066  1.00  0.00     0.000 C 
BRANCH   6   7
ATOM      7  C   UNL     1      -1.762   6.418  35.560  1.00  0.00     0.000 C 
BRANCH   7   8
ATOM      8  C   UNL     1      -1.664   5.378  36.684  1.00  0.00     0.000 C 
BRANCH   8   9
ATOM      9  C   UNL     1      -1.495   3.946  36.139  1.00  0.00     0.000 C 
BRANCH   9  10
ATOM     10  C   UNL     1      -0.127   3.337  36.489  1.00  0.00     0.000 C 
BRANCH  10  11
ATOM     11  C   UNL     1       0.718   3.053  35.233  1.00  0.00     0.000 C 
BRANCH  11  12
ATOM     12  C   UNL     1       1.983   3.918  35.150  1.00  0.00     0.006 C 
BRANCH  12  13
ATOM     13  C   UNL     1       2.161   4.586  33.778  1.00  0.00     0.053 C 
BRANCH  13  14
ATOM     14  C   UNL     1       2.939   3.684  32.867  1.00  0.00     0.041 C 
ATOM     15  O   UNL     1       3.634   2.743  33.333  1.00  0.00    -0.550 OA
ATOM     16  O   UNL     1       2.712   3.765  31.493  1.00  0.00    -0.550 OA
ENDBRANCH  13  14
ENDBRANCH  12  13
ENDBRANCH  11  12
ENDBRANCH  10  11
ENDBRANCH   9  10
ENDBRANCH   8   9
ENDBRANCH   7   8
ENDBRANCH   6   7
ENDBRANCH   5   6
ENDBRANCH   4   5
ENDBRANCH   3   4
ENDBRANCH   2   3
ENDBRANCH   1   2
BRANCH   1  17
ATOM     17  C   UNL     1      -3.062   8.199  39.998  1.00  0.00     0.000 C 
BRANCH  17  18
ATOM     18  C   UNL     1      -2.323   7.249  40.964  1.00  0.00     0.000 C 
BRANCH  18  19
ATOM     19  C   UNL     1      -1.762   7.994  42.196  1.00  0.00     0.000 C 
BRANCH  19  20
ATOM     20  C   UNL     1      -0.232   8.190  42.166  1.00  0.00     0.000 C 
BRANCH  20  21
ATOM     21  C   UNL     1       0.252   9.451  41.433  1.00  0.00     0.000 C 
BRANCH  21  22
ATOM     22  C   UNL     1       0.903   9.152  40.076  1.00  0.00    -0.000 C 
BRANCH  22  23
ATOM     23  C   UNL     1       1.249   7.658  39.973  1.00  0.00    -0.000 C 
BRANCH  23  24
ATOM     24  C   UNL     1       1.012   7.092  38.560  1.00  0.00    -0.000 C 
BRANCH  24  25
ATOM     25  C   UNL     1       2.226   6.339  37.969  1.00  0.00    -0.000 C 
BRANCH  25  26
ATOM     26  C   UNL     1       2.907   5.352  38.945  1.00  0.00    -0.000 C 
BRANCH  26  27
ATOM     27  C   UNL     1       2.084   4.071  39.224  1.00  0.00    -0.000 C 
BRANCH  27  28
ATOM     28  C   UNL     1       1.724   3.871  40.711  1.00  0.00    -0.000 C 
BRANCH  28  29
ATOM     29  C   UNL     1       0.325   4.372  41.106  1.00  0.00    -0.003 C 
ATOM     30  C   UNL     1      -0.751   3.999  40.083  1.00  0.00     0.004 C 
ENDBRANCH  28  29
ENDBRANCH  27  28
ENDBRANCH  26  27
ENDBRANCH  25  26
ENDBRANCH  24  25
ENDBRANCH  23  24
ENDBRANCH  22  23
ENDBRANCH  21  22
ENDBRANCH  20  21
ENDBRANCH  19  20
ENDBRANCH  18  19
ENDBRANCH  17  18
ENDBRANCH   1  17
TORSDOF 26
ENDMDL
MODEL 3
REMARK VINA RESULT:    -3.726      2.278      4.626
REMARK INTER + INTRA:         -14.272
REMARK INTER:                  -8.292
REMARK INTRA:                  -5.980
REMARK UNBOUND:                -4.883
REMARK SMILES CCCCCCCCCCCCCCCCCCCCCCCCCCCC(=O)[O-]
REMARK SMILES IDX 15 1 16 2 17 3 18 4 19 5 20 6 21 7 22 8 23 9 24 10 25 11
REMARK SMILES IDX 26 12 27 13 28 14 29 15 30 16 14 17 13 18 12 19 11 20 10 21
REMARK SMILES IDX 9 22 8 23 7 24 6 25 5 26 4 27 3 28 2 29 1 30
REMARK H PARENT
REMARK Flexibility Score: inf
ROOT
ATOM      1  C   UNL     1      -1.757   6.398  40.135  1.00  0.00     0.000 C 
ENDROOT
BRANCH   1   2
ATOM      2  C   UNL     1      -2.484   5.809  38.910  1.00  0.00     0.000 C 
BRANCH   2   3
ATOM      3  C   UNL     1      -1.553   5.000  38.005  1.00  0.00     0.000 C 
BRANCH   3   4
ATOM      4  C   UNL     1      -2.192   4.718  36.641  1.00  0.00     0.000 C 
BRANCH   4   5
ATOM      5  C   UNL     1      -1.107   4.328  35.632  1.00  0.00     0.000 C 
BRANCH   5   6
ATOM      6  C   UNL     1       0.285   4.284  36.267  1.00  0.00     0.000 C 
BRANCH   6   7
ATOM      7  C   UNL     1       1.194   3.371  35.435  1.00  0.00     0.000 C 
BRANCH   7   8
ATOM      8  C   UNL     1       2.477   4.067  34.963  1.00  0.00     0.000 C 
BRANCH   8   9
ATOM      9  C   UNL     1       2.324   5.600  34.917  1.00  0.00     0.000 C 
BRANCH   9  10
ATOM     10  C   UNL     1       2.217   6.140  33.481  1.00  0.00     0.000 C 
BRANCH  10  11
ATOM     11  C   UNL     1       0.765   6.130  32.965  1.00  0.00     0.000 C 
BRANCH  11  12
ATOM     12  C   UNL     1       0.472   4.959  32.018  1.00  0.00     0.006 C 
BRANCH  12  13
ATOM     13  C   UNL     1       1.531   4.802  30.916  1.00  0.00     0.053 C 
BRANCH  13  14
ATOM     14  C   UNL     1       2.197   3.463  31.036  1.00  0.00     0.041 C 
ATOM     15  O   UNL     1       3.363   3.363  31.500  1.00  0.00    -0.550 OA
ATOM     16  O   UNL     1       1.431   2.316  30.829  1.00  0.00    -0.550 OA
ENDBRANCH  13  14
ENDBRANCH  12  13
ENDBRANCH  11  12
ENDBRANCH  10  11
ENDBRANCH   9  10
ENDBRANCH   8   9
ENDBRANCH   7   8
ENDBRANCH   6   7
ENDBRANCH   5   6
ENDBRANCH   4   5
ENDBRANCH   3   4
ENDBRANCH   2   3
ENDBRANCH   1   2
BRANCH   1  17
ATOM     17  C   UNL     1      -2.048   7.897  40.376  1.00  0.00     0.000 C 
BRANCH  17  18
ATOM     18  C   UNL     1      -2.644   8.596  39.137  1.00  0.00     0.000 C 
BRANCH  18  19
ATOM     19  C   UNL     1      -1.729   9.725  38.611  1.00  0.00     0.000 C 
BRANCH  19  20
ATOM     20  C   UNL     1      -1.649   9.802  37.072  1.00  0.00     0.000 C 
BRANCH  20  21
ATOM     21  C   UNL     1      -1.721   8.450  36.344  1.00  0.00     0.000 C 
BRANCH  21  22
ATOM     22  C   UNL     1      -0.366   7.982  35.798  1.00  0.00    -0.000 C 
BRANCH  22  23
ATOM     23  C   UNL     1       0.727   9.007  36.143  1.00  0.00    -0.000 C 
BRANCH  23  24
ATOM     24  C   UNL     1       1.756   8.456  37.148  1.00  0.00    -0.000 C 
BRANCH  24  25
ATOM     25  C   UNL     1       1.172   7.451  38.167  1.00  0.00    -0.000 C 
BRANCH  25  26
ATOM     26  C   UNL     1       2.226   6.737  39.043  1.00  0.00    -0.000 C 
BRANCH  26  27
ATOM     27  C   UNL     1       1.898   5.255  39.343  1.00  0.00    -0.000 C 
BRANCH  27  28
ATOM     28  C   UNL     1       3.073   4.289  39.084  1.00  0.00    -0.000 C 
BRANCH  28  29
ATOM     29  C   UNL     1       4.207   4.874  38.227  1.00  0.00    -0.003 C 
ATOM     30  C   UNL     1       5.093   3.797  37.596  1.00  0.00     0.004 C 
ENDBRANCH  28  29
ENDBRANCH  27  28
ENDBRANCH  26  27
ENDBRANCH  25  26
ENDBRANCH  24  25
ENDBRANCH  23  24
ENDBRANCH  22  23
ENDBRANCH  21  22
ENDBRANCH  20  21
ENDBRANCH  19  20
ENDBRANCH  18  19
ENDBRANCH  17  18
ENDBRANCH   1  17
TORSDOF 26
ENDMDL
MODEL 4
REMARK VINA RESULT:    -3.684      2.107      4.294
REMARK INTER + INTRA:         -14.166
REMARK INTER:                  -8.680
REMARK INTRA:                  -5.486
REMARK UNBOUND:                -4.883
REMARK SMILES CCCCCCCCCCCCCCCCCCCCCCCCCCCC(=O)[O-]
REMARK SMILES IDX 15 1 16 2 17 3 18 4 19 5 20 6 21 7 22 8 23 9 24 10 25 11
REMARK SMILES IDX 26 12 27 13 28 14 29 15 30 16 14 17 13 18 12 19 11 20 10 21
REMARK SMILES IDX 9 22 8 23 7 24 6 25 5 26 4 27 3 28 2 29 1 30
REMARK H PARENT
REMARK Flexibility Score: inf
ROOT
ATOM      1  C   UNL     1      -1.347   4.574  39.414  1.00  0.00     0.000 C 
ENDROOT
BRANCH   1   2
ATOM      2  C   UNL     1       0.177   4.771  39.300  1.00  0.00     0.000 C 
BRANCH   2   3
ATOM      3  C   UNL     1       0.552   5.994  38.461  1.00  0.00     0.000 C 
BRANCH   3   4
ATOM      4  C   UNL     1       2.051   6.301  38.545  1.00  0.00     0.000 C 
BRANCH   4   5
ATOM      5  C   UNL     1       2.819   5.028  38.918  1.00  0.00     0.000 C 
BRANCH   5   6
ATOM      6  C   UNL     1       4.103   4.866  38.101  1.00  0.00     0.000 C 
BRANCH   6   7
ATOM      7  C   UNL     1       3.928   3.713  37.104  1.00  0.00     0.000 C 
BRANCH   7   8
ATOM      8  C   UNL     1       3.246   4.145  35.799  1.00  0.00     0.000 C 
BRANCH   8   9
ATOM      9  C   UNL     1       1.766   3.720  35.747  1.00  0.00     0.000 C 
BRANCH   9  10
ATOM     10  C   UNL     1       0.858   4.809  35.153  1.00  0.00     0.000 C 
BRANCH  10  11
ATOM     11  C   UNL     1       1.635   6.102  34.836  1.00  0.00     0.000 C 
BRANCH  11  12
ATOM     12  C   UNL     1       1.670   6.431  33.338  1.00  0.00     0.006 C 
BRANCH  12  13
ATOM     13  C   UNL     1       0.772   5.506  32.501  1.00  0.00     0.053 C 
BRANCH  13  14
ATOM     14  C   UNL     1       1.615   4.669  31.585  1.00  0.00     0.041 C 
ATOM     15  O   UNL     1       2.077   3.562  31.966  1.00  0.00    -0.550 OA
ATOM     16  O   UNL     1       1.699   5.031  30.240  1.00  0.00    -0.550 OA
ENDBRANCH  13  14
ENDBRANCH  12  13
ENDBRANCH  11  12
ENDBRANCH  10  11
ENDBRANCH   9  10
ENDBRANCH   8   9
ENDBRANCH   7   8
ENDBRANCH   6   7
ENDBRANCH   5   6
ENDBRANCH   4   5
ENDBRANCH   3   4
ENDBRANCH   2   3
ENDBRANCH   1   2
BRANCH   1  17
ATOM     17  C   UNL     1      -2.175   5.647  38.671  1.00  0.00     0.000 C 
BRANCH  17  18
ATOM     18  C   UNL     1      -3.225   6.325  39.577  1.00  0.00     0.000 C 
BRANCH  18  19
ATOM     19  C   UNL     1      -2.849   6.229  41.073  1.00  0.00     0.000 C 
BRANCH  19  20
ATOM     20  C   UNL     1      -2.922   7.574  41.825  1.00  0.00     0.000 C 
BRANCH  20  21
ATOM     21  C   UNL     1      -1.673   7.936  42.643  1.00  0.00     0.000 C 
BRANCH  21  22
ATOM     22  C   UNL     1      -0.470   7.031  42.348  1.00  0.00    -0.000 C 
BRANCH  22  23
ATOM     23  C   UNL     1       0.624   7.827  41.617  1.00  0.00    -0.000 C 
BRANCH  23  24
ATOM     24  C   UNL     1       0.347   9.343  41.610  1.00  0.00    -0.000 C 
BRANCH  24  25
ATOM     25  C   UNL     1       0.240   9.959  40.197  1.00  0.00    -0.000 C 
BRANCH  25  26
ATOM     26  C   UNL     1      -0.486   9.070  39.161  1.00  0.00    -0.000 C 
BRANCH  26  27
ATOM     27  C   UNL     1      -1.822   9.661  38.649  1.00  0.00    -0.000 C 
BRANCH  27  28
ATOM     28  C   UNL     1      -1.865   9.875  37.122  1.00  0.00    -0.000 C 
BRANCH  28  29
ATOM     29  C   UNL     1      -0.849   9.039  36.327  1.00  0.00    -0.003 C 
ATOM     30  C   UNL     1      -1.456   7.759  35.746  1.00  0.00     0.004 C 
ENDBRANCH  28  29
ENDBRANCH  27  28
ENDBRANCH  26  27
ENDBRANCH  25  26
ENDBRANCH  24  25
ENDBRANCH  23  24
ENDBRANCH  22  23
ENDBRANCH  21  22
ENDBRANCH  20  21
ENDBRANCH  19  20
ENDBRANCH  18  19
ENDBRANCH  17  18
ENDBRANCH   1  17
TORSDOF 26
ENDMDL
MODEL 5
REMARK VINA RESULT:    -3.679      1.878      2.663
REMARK INTER + INTRA:         -14.153
REMARK INTER:                  -8.962
REMARK INTRA:                  -5.191
REMARK UNBOUND:                -4.883
REMARK SMILES CCCCCCCCCCCCCCCCCCCCCCCCCCCC(=O)[O-]
REMARK SMILES IDX 15 1 16 2 17 3 18 4 19 5 20 6 21 7 22 8 23 9 24 10 25 11
REMARK SMILES IDX 26 12 27 13 28 14 29 15 30 16 14 17 13 18 12 19 11 20 10 21
REMARK SMILES IDX 9 22 8 23 7 24 6 25 5 26 4 27 3 28 2 29 1 30
REMARK H PARENT
REMARK Flexibility Score: inf
ROOT
ATOM      1  C   UNL     1       1.114   7.917  40.295  1.00  0.00     0.000 C 
ENDROOT
BRANCH   1   2
ATOM      2  C   UNL     1       1.402   6.467  39.857  1.00  0.00     0.000 C 
BRANCH   2   3
ATOM      3  C   UNL     1       2.348   6.391  38.656  1.00  0.00     0.000 C 
BRANCH   3   4
ATOM      4  C   UNL     1       2.530   4.949  38.170  1.00  0.00     0.000 C 
BRANCH   4   5
ATOM      5  C   UNL     1       3.533   4.918  37.011  1.00  0.00     0.000 C 
BRANCH   5   6
ATOM      6  C   UNL     1       2.934   5.461  35.712  1.00  0.00     0.000 C 
BRANCH   6   7
ATOM      7  C   UNL     1       3.625   4.794  34.516  1.00  0.00     0.000 C 
BRANCH   7   8
ATOM      8  C   UNL     1       2.635   4.200  33.505  1.00  0.00     0.000 C 
BRANCH   8   9
ATOM      9  C   UNL     1       1.179   4.274  34.004  1.00  0.00     0.000 C 
BRANCH   9  10
ATOM     10  C   UNL     1       0.307   5.208  33.148  1.00  0.00     0.000 C 
BRANCH  10  11
ATOM     11  C   UNL     1       1.150   6.068  32.187  1.00  0.00     0.000 C 
BRANCH  11  12
ATOM     12  C   UNL     1       0.705   5.949  30.724  1.00  0.00     0.006 C 
BRANCH  12  13
ATOM     13  C   UNL     1       0.072   4.586  30.401  1.00  0.00     0.053 C 
BRANCH  13  14
ATOM     14  C   UNL     1      -0.214   4.491  28.932  1.00  0.00     0.041 C 
ATOM     15  O   UNL     1       0.698   4.194  28.117  1.00  0.00    -0.550 OA
ATOM     16  O   UNL     1      -1.541   4.524  28.507  1.00  0.00    -0.550 OA
ENDBRANCH  13  14
ENDBRANCH  12  13
ENDBRANCH  11  12
ENDBRANCH  10  11
ENDBRANCH   9  10
ENDBRANCH   8   9
ENDBRANCH   7   8
ENDBRANCH   6   7
ENDBRANCH   5   6
ENDBRANCH   4   5
ENDBRANCH   3   4
ENDBRANCH   2   3
ENDBRANCH   1   2
BRANCH   1  17
ATOM     17  C   UNL     1       0.629   8.833  39.148  1.00  0.00     0.000 C 
BRANCH  17  18
ATOM     18  C   UNL     1      -0.586   9.697  39.548  1.00  0.00     0.000 C 
BRANCH  18  19
ATOM     19  C   UNL     1      -1.799   9.457  38.621  1.00  0.00     0.000 C 
BRANCH  19  20
ATOM     20  C   UNL     1      -2.674   8.255  39.032  1.00  0.00     0.000 C 
BRANCH  20  21
ATOM     21  C   UNL     1      -2.699   7.948  40.538  1.00  0.00     0.000 C 
BRANCH  21  22
ATOM     22  C   UNL     1      -2.314   6.500  40.870  1.00  0.00    -0.000 C 
BRANCH  22  23
ATOM     23  C   UNL     1      -2.617   5.585  39.673  1.00  0.00    -0.000 C 
BRANCH  23  24
ATOM     24  C   UNL     1      -1.540   4.503  39.468  1.00  0.00    -0.000 C 
BRANCH  24  25
ATOM     25  C   UNL     1      -1.138   4.282  37.992  1.00  0.00    -0.000 C 
BRANCH  25  26
ATOM     26  C   UNL     1      -1.647   5.369  37.018  1.00  0.00    -0.000 C 
BRANCH  26  27
ATOM     27  C   UNL     1      -0.576   6.414  36.623  1.00  0.00    -0.000 C 
BRANCH  27  28
ATOM     28  C   UNL     1      -1.071   7.464  35.607  1.00  0.00    -0.000 C 
BRANCH  28  29
ATOM     29  C   UNL     1       0.036   8.342  35.000  1.00  0.00    -0.003 C 
ATOM     30  C   UNL     1      -0.051   9.804  35.447  1.00  0.00     0.004 C 
ENDBRANCH  28  29
ENDBRANCH  27  28
ENDBRANCH  26  27
ENDBRANCH  25  26
ENDBRANCH  24  25
ENDBRANCH  23  24
ENDBRANCH  22  23
ENDBRANCH  21  22
ENDBRANCH  20  21
ENDBRANCH  19  20
ENDBRANCH  18  19
ENDBRANCH  17  18
ENDBRANCH   1  17
TORSDOF 26
ENDMDL
MODEL 6
REMARK VINA RESULT:    -3.643      2.778      5.316
REMARK INTER + INTRA:         -14.062
REMARK INTER:                  -8.747
REMARK INTRA:                  -5.314
REMARK UNBOUND:                -4.883
REMARK SMILES CCCCCCCCCCCCCCCCCCCCCCCCCCCC(=O)[O-]
REMARK SMILES IDX 15 1 16 2 17 3 18 4 19 5 20 6 21 7 22 8 23 9 24 10 25 11
REMARK SMILES IDX 26 12 27 13 28 14 29 15 30 16 14 17 13 18 12 19 11 20 10 21
REMARK SMILES IDX 9 22 8 23 7 24 6 25 5 26 4 27 3 28 2 29 1 30
REMARK H PARENT
REMARK Flexibility Score: inf
ROOT
ATOM      1  C   UNL     1      -2.315   7.201  39.297  1.00  0.00     0.000 C 
ENDROOT
BRANCH   1   2
ATOM      2  C   UNL     1      -2.792   8.665  39.379  1.00  0.00     0.000 C 
BRANCH   2   3
ATOM      3  C   UNL     1      -2.275   9.519  38.219  1.00  0.00     0.000 C 
BRANCH   3   4
ATOM      4  C   UNL     1      -0.746   9.617  38.226  1.00  0.00     0.000 C 
BRANCH   4   5
ATOM      5  C   UNL     1      -0.213   9.489  36.795  1.00  0.00     0.000 C 
BRANCH   5   6
ATOM      6  C   UNL     1      -1.081   8.569  35.934  1.00  0.00     0.000 C 
BRANCH   6   7
ATOM      7  C   UNL     1      -0.554   7.132  36.036  1.00  0.00     0.000 C 
BRANCH   7   8
ATOM      8  C   UNL     1      -1.581   6.082  35.593  1.00  0.00     0.000 C 
BRANCH   8   9
ATOM      9  C   UNL     1      -1.815   5.005  36.669  1.00  0.00     0.000 C 
BRANCH   9  10
ATOM     10  C   UNL     1      -1.384   3.603  36.206  1.00  0.00     0.000 C 
BRANCH  10  11
ATOM     11  C   UNL     1      -0.683   3.636  34.835  1.00  0.00     0.000 C 
BRANCH  11  12
ATOM     12  C   UNL     1       0.823   3.357  34.923  1.00  0.00     0.006 C 
BRANCH  12  13
ATOM     13  C   UNL     1       1.583   3.771  33.652  1.00  0.00     0.053 C 
BRANCH  13  14
ATOM     14  C   UNL     1       1.440   5.247  33.430  1.00  0.00     0.041 C 
ATOM     15  O   UNL     1       2.321   6.048  33.838  1.00  0.00    -0.550 OA
ATOM     16  O   UNL     1       0.431   5.699  32.580  1.00  0.00    -0.550 OA
ENDBRANCH  13  14
ENDBRANCH  12  13
ENDBRANCH  11  12
ENDBRANCH  10  11
ENDBRANCH   9  10
ENDBRANCH   8   9
ENDBRANCH   7   8
ENDBRANCH   6   7
ENDBRANCH   5   6
ENDBRANCH   4   5
ENDBRANCH   3   4
ENDBRANCH   2   3
ENDBRANCH   1   2
BRANCH   1  17
ATOM     17  C   UNL     1      -3.221   6.203  40.053  1.00  0.00     0.000 C 
BRANCH  17  18
ATOM     18  C   UNL     1      -2.581   5.687  41.359  1.00  0.00     0.000 C 
BRANCH  18  19
ATOM     19  C   UNL     1      -2.571   6.765  42.467  1.00  0.00     0.000 C 
BRANCH  19  20
ATOM     20  C   UNL     1      -1.157   7.189  42.915  1.00  0.00     0.000 C 
BRANCH  20  21
ATOM     21  C   UNL     1      -0.728   8.600  42.481  1.00  0.00     0.000 C 
BRANCH  21  22
ATOM     22  C   UNL     1       0.455   8.602  41.505  1.00  0.00    -0.000 C 
BRANCH  22  23
ATOM     23  C   UNL     1       0.964   7.167  41.288  1.00  0.00    -0.000 C 
BRANCH  23  24
ATOM     24  C   UNL     1       1.249   6.859  39.806  1.00  0.00    -0.000 C 
BRANCH  24  25
ATOM     25  C   UNL     1       0.633   5.533  39.305  1.00  0.00    -0.000 C 
BRANCH  25  26
ATOM     26  C   UNL     1       1.564   4.691  38.404  1.00  0.00    -0.000 C 
BRANCH  26  27
ATOM     27  C   UNL     1       2.421   5.529  37.424  1.00  0.00    -0.000 C 
BRANCH  27  28
ATOM     28  C   UNL     1       3.805   4.918  37.124  1.00  0.00    -0.000 C 
BRANCH  28  29
ATOM     29  C   UNL     1       4.631   4.556  38.369  1.00  0.00    -0.003 C 
ATOM     30  C   UNL     1       5.975   3.909  38.025  1.00  0.00     0.004 C 
ENDBRANCH  28  29
ENDBRANCH  27  28
ENDBRANCH  26  27
ENDBRANCH  25  26
ENDBRANCH  24  25
ENDBRANCH  23  24
ENDBRANCH  22  23
ENDBRANCH  21  22
ENDBRANCH  20  21
ENDBRANCH  19  20
ENDBRANCH  18  19
ENDBRANCH  17  18
ENDBRANCH   1  17
TORSDOF 26
ENDMDL
MODEL 7
REMARK VINA RESULT:    -3.625      4.435      7.813
REMARK INTER + INTRA:         -14.018
REMARK INTER:                  -8.832
REMARK INTRA:                  -5.186
REMARK UNBOUND:                -4.883
REMARK SMILES CCCCCCCCCCCCCCCCCCCCCCCCCCCC(=O)[O-]
REMARK SMILES IDX 15 1 16 2 17 3 18 4 19 5 20 6 21 7 22 8 23 9 24 10 25 11
REMARK SMILES IDX 26 12 27 13 28 14 29 15 30 16 14 17 13 18 12 19 11 20 10 21
REMARK SMILES IDX 9 22 8 23 7 24 6 25 5 26 4 27 3 28 2 29 1 30
REMARK H PARENT
REMARK Flexibility Score: inf
ROOT
ATOM      1  C   UNL     1       0.814   7.936  39.256  1.00  0.00     0.000 C 
ENDROOT
BRANCH   1   2
ATOM      2  C   UNL     1       1.867   7.386  38.274  1.00  0.00     0.000 C 
BRANCH   2   3
ATOM      3  C   UNL     1       2.570   6.134  38.804  1.00  0.00     0.000 C 
BRANCH   3   4
ATOM      4  C   UNL     1       3.127   5.272  37.665  1.00  0.00     0.000 C 
BRANCH   4   5
ATOM      5  C   UNL     1       2.785   3.800  37.917  1.00  0.00     0.000 C 
BRANCH   5   6
ATOM      6  C   UNL     1       1.515   3.366  37.181  1.00  0.00     0.000 C 
BRANCH   6   7
ATOM      7  C   UNL     1       0.362   3.246  38.186  1.00  0.00     0.000 C 
BRANCH   7   8
ATOM      8  C   UNL     1      -0.849   4.113  37.816  1.00  0.00     0.000 C 
BRANCH   8   9
ATOM      9  C   UNL     1      -1.394   4.897  39.026  1.00  0.00     0.000 C 
BRANCH   9  10
ATOM     10  C   UNL     1      -2.377   6.007  38.618  1.00  0.00     0.000 C 
BRANCH  10  11
ATOM     11  C   UNL     1      -3.352   6.365  39.756  1.00  0.00     0.000 C 
BRANCH  11  12
ATOM     12  C   UNL     1      -3.101   7.758  40.347  1.00  0.00     0.006 C 
BRANCH  12  13
ATOM     13  C   UNL     1      -2.873   7.730  41.866  1.00  0.00     0.053 C 
BRANCH  13  14
ATOM     14  C   UNL     1      -1.403   7.755  42.162  1.00  0.00     0.041 C 
ATOM     15  O   UNL     1      -0.839   8.817  42.537  1.00  0.00    -0.550 OA
ATOM     16  O   UNL     1      -0.713   6.545  42.226  1.00  0.00    -0.550 OA
ENDBRANCH  13  14
ENDBRANCH  12  13
ENDBRANCH  11  12
ENDBRANCH  10  11
ENDBRANCH   9  10
ENDBRANCH   8   9
ENDBRANCH   7   8
ENDBRANCH   6   7
ENDBRANCH   5   6
ENDBRANCH   4   5
ENDBRANCH   3   4
ENDBRANCH   2   3
ENDBRANCH   1   2
BRANCH   1  17
ATOM     17  C   UNL     1       0.720   9.478  39.276  1.00  0.00     0.000 C 
BRANCH  17  18
ATOM     18  C   UNL     1      -0.712   9.993  39.023  1.00  0.00     0.000 C 
BRANCH  18  19
ATOM     19  C   UNL     1      -1.247   9.563  37.638  1.00  0.00     0.000 C 
BRANCH  19  20
ATOM     20  C   UNL     1      -0.396  10.068  36.454  1.00  0.00     0.000 C 
BRANCH  20  21
ATOM     21  C   UNL     1      -0.075   9.015  35.382  1.00  0.00     0.000 C 
BRANCH  21  22
ATOM     22  C   UNL     1      -0.613   7.619  35.721  1.00  0.00    -0.000 C 
BRANCH  22  23
ATOM     23  C   UNL     1       0.329   6.539  35.163  1.00  0.00    -0.000 C 
BRANCH  23  24
ATOM     24  C   UNL     1      -0.423   5.445  34.381  1.00  0.00    -0.000 C 
BRANCH  24  25
ATOM     25  C   UNL     1       0.498   4.413  33.694  1.00  0.00    -0.000 C 
BRANCH  25  26
ATOM     26  C   UNL     1       1.939   4.910  33.433  1.00  0.00    -0.000 C 
BRANCH  26  27
ATOM     27  C   UNL     1       3.036   4.038  34.090  1.00  0.00    -0.000 C 
BRANCH  27  28
ATOM     28  C   UNL     1       4.473   4.494  33.767  1.00  0.00    -0.000 C 
BRANCH  28  29
ATOM     29  C   UNL     1       5.467   4.359  34.933  1.00  0.00    -0.003 C 
ATOM     30  C   UNL     1       6.811   3.766  34.504  1.00  0.00     0.004 C 
ENDBRANCH  28  29
ENDBRANCH  27  28
ENDBRANCH  26  27
ENDBRANCH  25  26
ENDBRANCH  24  25
ENDBRANCH  23  24
ENDBRANCH  22  23
ENDBRANCH  21  22
ENDBRANCH  20  21
ENDBRANCH  19  20
ENDBRANCH  18  19
ENDBRANCH  17  18
ENDBRANCH   1  17
TORSDOF 26
ENDMDL
MODEL 8
REMARK VINA RESULT:    -3.622      2.703      4.155
REMARK INTER + INTRA:         -14.009
REMARK INTER:                  -8.634
REMARK INTRA:                  -5.375
REMARK UNBOUND:                -4.883
REMARK SMILES CCCCCCCCCCCCCCCCCCCCCCCCCCCC(=O)[O-]
REMARK SMILES IDX 15 1 16 2 17 3 18 4 19 5 20 6 21 7 22 8 23 9 24 10 25 11
REMARK SMILES IDX 26 12 27 13 28 14 29 15 30 16 14 17 13 18 12 19 11 20 10 21
REMARK SMILES IDX 9 22 8 23 7 24 6 25 5 26 4 27 3 28 2 29 1 30
REMARK H PARENT
REMARK Flexibility Score: inf
ROOT
ATOM      1  C   UNL     1       1.070   9.149  36.642  1.00  0.00     0.000 C 
ENDROOT
BRANCH   1   2
ATOM      2  C   UNL     1       1.543   9.592  38.041  1.00  0.00     0.000 C 
BRANCH   2   3
ATOM      3  C   UNL     1       1.719   8.415  39.003  1.00  0.00     0.000 C 
BRANCH   3   4
ATOM      4  C   UNL     1       1.522   7.070  38.295  1.00  0.00     0.000 C 
BRANCH   4   5
ATOM      5  C   UNL     1       2.666   6.119  38.662  1.00  0.00     0.000 C 
BRANCH   5   6
ATOM      6  C   UNL     1       2.210   4.660  38.725  1.00  0.00     0.000 C 
BRANCH   6   7
ATOM      7  C   UNL     1       2.994   3.838  37.694  1.00  0.00     0.000 C 
BRANCH   7   8
ATOM      8  C   UNL     1       3.880   4.700  36.786  1.00  0.00     0.000 C 
BRANCH   8   9
ATOM      9  C   UNL     1       4.331   3.941  35.522  1.00  0.00     0.000 C 
BRANCH   9  10
ATOM     10  C   UNL     1       4.081   4.739  34.232  1.00  0.00     0.000 C 
BRANCH  10  11
ATOM     11  C   UNL     1       3.825   3.820  33.023  1.00  0.00     0.000 C 
BRANCH  11  12
ATOM     12  C   UNL     1       2.448   4.038  32.381  1.00  0.00     0.006 C 
BRANCH  12  13
ATOM     13  C   UNL     1       1.474   2.880  32.648  1.00  0.00     0.053 C 
BRANCH  13  14
ATOM     14  C   UNL     1       0.115   3.224  32.116  1.00  0.00     0.041 C 
ATOM     15  O   UNL     1      -0.012   3.869  31.042  1.00  0.00    -0.550 OA
ATOM     16  O   UNL     1      -1.003   2.637  32.709  1.00  0.00    -0.550 OA
ENDBRANCH  13  14
ENDBRANCH  12  13
ENDBRANCH  11  12
ENDBRANCH  10  11
ENDBRANCH   9  10
ENDBRANCH   8   9
ENDBRANCH   7   8
ENDBRANCH   6   7
ENDBRANCH   5   6
ENDBRANCH   4   5
ENDBRANCH   3   4
ENDBRANCH   2   3
ENDBRANCH   1   2
BRANCH   1  17
ATOM     17  C   UNL     1      -0.278   9.770  36.210  1.00  0.00     0.000 C 
BRANCH  17  18
ATOM     18  C   UNL     1      -1.493   8.933  36.661  1.00  0.00     0.000 C 
BRANCH  18  19
ATOM     19  C   UNL     1      -2.215   9.563  37.874  1.00  0.00     0.000 C 
BRANCH  19  20
ATOM     20  C   UNL     1      -1.913   8.863  39.215  1.00  0.00     0.000 C 
BRANCH  20  21
ATOM     21  C   UNL     1      -3.004   7.901  39.712  1.00  0.00     0.000 C 
BRANCH  21  22
ATOM     22  C   UNL     1      -2.610   7.140  40.984  1.00  0.00    -0.000 C 
BRANCH  22  23
ATOM     23  C   UNL     1      -2.536   5.632  40.696  1.00  0.00    -0.000 C 
BRANCH  23  24
ATOM     24  C   UNL     1      -1.230   5.228  39.987  1.00  0.00    -0.000 C 
BRANCH  24  25
ATOM     25  C   UNL     1      -1.440   4.482  38.650  1.00  0.00    -0.000 C 
BRANCH  25  26
ATOM     26  C   UNL     1      -1.626   5.403  37.422  1.00  0.00    -0.000 C 
BRANCH  26  27
ATOM     27  C   UNL     1      -1.460   4.684  36.062  1.00  0.00    -0.000 C 
BRANCH  27  28
ATOM     28  C   UNL     1       0.007   4.529  35.612  1.00  0.00    -0.000 C 
BRANCH  28  29
ATOM     29  C   UNL     1       0.679   5.834  35.154  1.00  0.00    -0.003 C 
ATOM     30  C   UNL     1       0.016   6.441  33.915  1.00  0.00     0.004 C 
ENDBRANCH  28  29
ENDBRANCH  27  28
ENDBRANCH  26  27
ENDBRANCH  25  26
ENDBRANCH  24  25
ENDBRANCH  23  24
ENDBRANCH  22  23
ENDBRANCH  21  22
ENDBRANCH  20  21
ENDBRANCH  19  20
ENDBRANCH  18  19
ENDBRANCH  17  18
ENDBRANCH   1  17
TORSDOF 26
ENDMDL
MODEL 9
REMARK VINA RESULT:    -3.620      3.724      7.092
REMARK INTER + INTRA:         -14.004
REMARK INTER:                  -8.625
REMARK INTRA:                  -5.379
REMARK UNBOUND:                -4.883
REMARK SMILES CCCCCCCCCCCCCCCCCCCCCCCCCCCC(=O)[O-]
REMARK SMILES IDX 15 1 16 2 17 3 18 4 19 5 20 6 21 7 22 8 23 9 24 10 25 11
REMARK SMILES IDX 26 12 27 13 28 14 29 15 30 16 14 17 13 18 12 19 11 20 10 21
REMARK SMILES IDX 9 22 8 23 7 24 6 25 5 26 4 27 3 28 2 29 1 30
REMARK H PARENT
REMARK Flexibility Score: inf
ROOT
ATOM      1  C   UNL     1       0.367   9.360  41.558  1.00  0.00     0.000 C 
ENDROOT
BRANCH   1   2
ATOM      2  C   UNL     1       0.598   7.841  41.428  1.00  0.00     0.000 C 
BRANCH   2   3
ATOM      3  C   UNL     1      -0.436   7.020  42.202  1.00  0.00     0.000 C 
BRANCH   3   4
ATOM      4  C   UNL     1      -1.740   7.799  42.406  1.00  0.00     0.000 C 
BRANCH   4   5
ATOM      5  C   UNL     1      -2.795   7.312  41.407  1.00  0.00     0.000 C 
BRANCH   5   6
ATOM      6  C   UNL     1      -2.905   8.231  40.188  1.00  0.00     0.000 C 
BRANCH   6   7
ATOM      7  C   UNL     1      -2.460   7.466  38.935  1.00  0.00     0.000 C 
BRANCH   7   8
ATOM      8  C   UNL     1      -2.470   5.944  39.124  1.00  0.00     0.000 C 
BRANCH   8   9
ATOM      9  C   UNL     1      -1.384   5.246  38.283  1.00  0.00     0.000 C 
BRANCH   9  10
ATOM     10  C   UNL     1       0.038   5.674  38.682  1.00  0.00     0.000 C 
BRANCH  10  11
ATOM     11  C   UNL     1       0.873   6.117  37.464  1.00  0.00     0.000 C 
BRANCH  11  12
ATOM     12  C   UNL     1       2.328   6.446  37.820  1.00  0.00     0.006 C 
BRANCH  12  13
ATOM     13  C   UNL     1       2.803   5.746  39.103  1.00  0.00     0.053 C 
BRANCH  13  14
ATOM     14  C   UNL     1       3.835   4.711  38.768  1.00  0.00     0.041 C 
ATOM     15  O   UNL     1       3.507   3.637  38.197  1.00  0.00    -0.550 OA
ATOM     16  O   UNL     1       5.182   5.043  38.899  1.00  0.00    -0.550 OA
ENDBRANCH  13  14
ENDBRANCH  12  13
ENDBRANCH  11  12
ENDBRANCH  10  11
ENDBRANCH   9  10
ENDBRANCH   8   9
ENDBRANCH   7   8
ENDBRANCH   6   7
ENDBRANCH   5   6
ENDBRANCH   4   5
ENDBRANCH   3   4
ENDBRANCH   2   3
ENDBRANCH   1   2
BRANCH   1  17
ATOM     17  C   UNL     1       0.461  10.125  40.219  1.00  0.00     0.000 C 
BRANCH  17  18
ATOM     18  C   UNL     1       1.382   9.427  39.195  1.00  0.00     0.000 C 
BRANCH  18  19
ATOM     19  C   UNL     1       1.168   9.964  37.762  1.00  0.00     0.000 C 
BRANCH  19  20
ATOM     20  C   UNL     1      -0.256   9.740  37.214  1.00  0.00     0.000 C 
BRANCH  20  21
ATOM     21  C   UNL     1      -0.387   9.798  35.684  1.00  0.00     0.000 C 
BRANCH  21  22
ATOM     22  C   UNL     1       0.354   8.661  34.968  1.00  0.00    -0.000 C 
BRANCH  22  23
ATOM     23  C   UNL     1      -0.548   7.420  34.872  1.00  0.00    -0.000 C 
BRANCH  23  24
ATOM     24  C   UNL     1       0.026   6.343  33.931  1.00  0.00    -0.000 C 
BRANCH  24  25
ATOM     25  C   UNL     1       1.553   6.444  33.713  1.00  0.00    -0.000 C 
BRANCH  25  26
ATOM     26  C   UNL     1       2.257   5.089  33.470  1.00  0.00    -0.000 C 
BRANCH  26  27
ATOM     27  C   UNL     1       1.375   3.855  33.776  1.00  0.00    -0.000 C 
BRANCH  27  28
ATOM     28  C   UNL     1       1.561   3.290  35.199  1.00  0.00    -0.000 C 
BRANCH  28  29
ATOM     29  C   UNL     1       0.256   2.892  35.908  1.00  0.00    -0.003 C 
ATOM     30  C   UNL     1      -0.896   2.637  34.933  1.00  0.00     0.004 C 
ENDBRANCH  28  29
ENDBRANCH  27  28
ENDBRANCH  26  27
ENDBRANCH  25  26
ENDBRANCH  24  25
ENDBRANCH  23  24
ENDBRANCH  22  23
ENDBRANCH  21  22
ENDBRANCH  20  21
ENDBRANCH  19  20
ENDBRANCH  18  19
ENDBRANCH  17  18
ENDBRANCH   1  17
TORSDOF 26
ENDMDL
