MODEL 1
REMARK VINA RESULT:    -2.248      0.000      0.000
REMARK INTER + INTRA:          -5.224
REMARK INTER:                  -4.088
REMARK INTRA:                  -1.135
REMARK UNBOUND:                -1.135
REMARK SMILES CCCCCCCCCCCCCCCC(=O)[O-]
REMARK SMILES IDX 9 1 10 2 11 3 12 4 13 5 14 6 15 7 16 8 17 9 18 10 8 11 7 12
REMARK SMILES IDX 6 13 5 14 4 15 3 16 2 17 1 18
REMARK H PARENT
REMARK Flexibility Score: inf
ROOT
ATOM      1  C   UNL     1      19.028   8.060  11.834  1.00  0.00     0.000 C 
ENDROOT
BRANCH   1   2
ATOM      2  C   UNL     1      17.539   8.082  12.220  1.00  0.00     0.000 C 
BRANCH   2   3
ATOM      3  C   UNL     1      17.197   9.227  13.189  1.00  0.00     0.000 C 
BRANCH   3   4
ATOM      4  C   UNL     1      17.212   8.779  14.660  1.00  0.00     0.000 C 
BRANCH   4   5
ATOM      5  C   UNL     1      18.625   8.798  15.269  1.00  0.00     0.000 C 
BRANCH   5   6
ATOM      6  C   UNL     1      19.080   7.412  15.760  1.00  0.00     0.006 C 
BRANCH   6   7
ATOM      7  C   UNL     1      17.985   6.334  15.726  1.00  0.00     0.053 C 
BRANCH   7   8
ATOM      8  C   UNL     1      18.324   5.221  14.782  1.00  0.00     0.041 C 
ATOM      9  O   UNL     1      19.501   5.092  14.352  1.00  0.00    -0.550 OA
ATOM     10  O   UNL     1      17.335   4.346  14.353  1.00  0.00    -0.550 OA
ENDBRANCH   7   8
ENDBRANCH   6   7
ENDBRANCH   5   6
ENDBRANCH   4   5
ENDBRANCH   3   4
ENDBRANCH   2   3
ENDBRANCH   1   2
BRANCH   1  11
ATOM     11  C   UNL     1      19.676   9.454  11.897  1.00  0.00     0.000 C 
BRANCH  11  12
ATOM     12  C   UNL     1      19.772  10.123  10.515  1.00  0.00    -0.000 C 
BRANCH  12  13
ATOM     13  C   UNL     1      21.205  10.116   9.953  1.00  0.00    -0.000 C 
BRANCH  13  14
ATOM     14  C   UNL     1      21.359   9.183   8.742  1.00  0.00    -0.000 C 
BRANCH  14  15
ATOM     15  C   UNL     1      21.065   9.889   7.409  1.00  0.00    -0.000 C 
BRANCH  15  16
ATOM     16  C   UNL     1      22.170   9.603   6.381  1.00  0.00    -0.000 C 
BRANCH  16  17
ATOM     17  C   UNL     1      22.823   8.227   6.581  1.00  0.00    -0.003 C 
ATOM     18  C   UNL     1      22.068   7.105   5.868  1.00  0.00     0.004 C 
ENDBRANCH  16  17
ENDBRANCH  15  16
ENDBRANCH  14  15
ENDBRANCH  13  14
ENDBRANCH  12  13
ENDBRANCH  11  12
ENDBRANCH   1  11
TORSDOF 14
ENDMDL
MODEL 2
REMARK VINA RESULT:    -2.071     20.384     22.062
REMARK INTER + INTRA:          -4.901
REMARK INTER:                  -3.798
REMARK INTRA:                  -1.103
REMARK UNBOUND:                -1.135
REMARK SMILES CCCCCCCCCCCCCCCC(=O)[O-]
REMARK SMILES IDX 9 1 10 2 11 3 12 4 13 5 14 6 15 7 16 8 17 9 18 10 8 11 7 12
REMARK SMILES IDX 6 13 5 14 4 15 3 16 2 17 1 18
REMARK H PARENT
REMARK Flexibility Score: inf
ROOT
ATOM      1  C   UNL     1      37.121  -6.102  15.619  1.00  0.00     0.000 C 
ENDROOT
BRANCH   1   2
ATOM      2  C   UNL     1      35.719  -5.479  15.726  1.00  0.00     0.000 C 
BRANCH   2   3
ATOM      3  C   UNL     1      35.761  -3.993  16.123  1.00  0.00     0.000 C 
BRANCH   3   4
ATOM      4  C   UNL     1      37.038  -3.288  15.633  1.00  0.00     0.000 C 
BRANCH   4   5
ATOM      5  C   UNL     1      36.753  -2.234  14.550  1.00  0.00     0.000 C 
BRANCH   5   6
ATOM      6  C   UNL     1      36.689  -0.803  15.114  1.00  0.00     0.006 C 
BRANCH   6   7
ATOM      7  C   UNL     1      35.504   0.030  14.601  1.00  0.00     0.053 C 
BRANCH   7   8
ATOM      8  C   UNL     1      35.771   1.501  14.697  1.00  0.00     0.041 C 
ATOM      9  O   UNL     1      36.358   2.101  13.757  1.00  0.00    -0.550 OA
ATOM     10  O   UNL     1      35.401   2.204  15.836  1.00  0.00    -0.550 OA
ENDBRANCH   7   8
ENDBRANCH   6   7
ENDBRANCH   5   6
ENDBRANCH   4   5
ENDBRANCH   3   4
ENDBRANCH   2   3
ENDBRANCH   1   2
BRANCH   1  11
ATOM     11  C   UNL     1      37.106  -7.480  14.936  1.00  0.00     0.000 C 
BRANCH  11  12
ATOM     12  C   UNL     1      35.792  -8.243  15.176  1.00  0.00    -0.000 C 
BRANCH  12  13
ATOM     13  C   UNL     1      35.684  -9.520  14.324  1.00  0.00    -0.000 C 
BRANCH  13  14
ATOM     14  C   UNL     1      36.825  -9.645  13.302  1.00  0.00    -0.000 C 
BRANCH  14  15
ATOM     15  C   UNL     1      36.316  -9.930  11.880  1.00  0.00    -0.000 C 
BRANCH  15  16
ATOM     16  C   UNL     1      35.392  -8.805  11.392  1.00  0.00    -0.000 C 
BRANCH  16  17
ATOM     17  C   UNL     1      36.094  -7.840  10.425  1.00  0.00    -0.003 C 
ATOM     18  C   UNL     1      36.594  -6.571  11.115  1.00  0.00     0.004 C 
ENDBRANCH  16  17
ENDBRANCH  15  16
ENDBRANCH  14  15
ENDBRANCH  13  14
ENDBRANCH  12  13
ENDBRANCH  11  12
ENDBRANCH   1  11
TORSDOF 14
ENDMDL
MODEL 3
REMARK VINA RESULT:    -2.008     14.729     19.401
REMARK INTER + INTRA:          -4.787
REMARK INTER:                  -3.828
REMARK INTRA:                  -0.958
REMARK UNBOUND:                -1.135
REMARK SMILES CCCCCCCCCCCCCCCC(=O)[O-]
REMARK SMILES IDX 9 1 10 2 11 3 12 4 13 5 14 6 15 7 16 8 17 9 18 10 8 11 7 12
REMARK SMILES IDX 6 13 5 14 4 15 3 16 2 17 1 18
REMARK H PARENT
REMARK Flexibility Score: inf
ROOT
ATOM      1  C   UNL     1      30.643   0.640  -1.179  1.00  0.00     0.000 C 
ENDROOT
BRANCH   1   2
ATOM      2  C   UNL     1      31.254  -0.767  -1.290  1.00  0.00     0.000 C 
BRANCH   2   3
ATOM      3  C   UNL     1      31.519  -1.184  -2.747  1.00  0.00     0.000 C 
BRANCH   3   4
ATOM      4  C   UNL     1      31.573   0.021  -3.703  1.00  0.00     0.000 C 
BRANCH   4   5
ATOM      5  C   UNL     1      33.009   0.376  -4.125  1.00  0.00     0.000 C 
BRANCH   5   6
ATOM      6  C   UNL     1      33.272   1.893  -4.124  1.00  0.00     0.006 C 
BRANCH   6   7
ATOM      7  C   UNL     1      32.008   2.757  -3.992  1.00  0.00     0.053 C 
BRANCH   7   8
ATOM      8  C   UNL     1      32.326   4.150  -3.544  1.00  0.00     0.041 C 
ATOM      9  O   UNL     1      33.341   4.744  -3.995  1.00  0.00    -0.550 OA
ATOM     10  O   UNL     1      31.520   4.782  -2.606  1.00  0.00    -0.550 OA
ENDBRANCH   7   8
ENDBRANCH   6   7
ENDBRANCH   5   6
ENDBRANCH   4   5
ENDBRANCH   3   4
ENDBRANCH   2   3
ENDBRANCH   1   2
BRANCH   1  11
ATOM     11  C   UNL     1      30.740   1.217   0.244  1.00  0.00     0.000 C 
BRANCH  11  12
ATOM     12  C   UNL     1      29.414   1.109   1.016  1.00  0.00    -0.000 C 
BRANCH  12  13
ATOM     13  C   UNL     1      29.430   1.902   2.335  1.00  0.00    -0.000 C 
BRANCH  13  14
ATOM     14  C   UNL     1      30.676   2.792   2.472  1.00  0.00    -0.000 C 
BRANCH  14  15
ATOM     15  C   UNL     1      30.515   3.871   3.554  1.00  0.00    -0.000 C 
BRANCH  15  16
ATOM     16  C   UNL     1      30.657   5.277   2.953  1.00  0.00    -0.000 C 
BRANCH  16  17
ATOM     17  C   UNL     1      30.771   6.370   4.026  1.00  0.00    -0.003 C 
ATOM     18  C   UNL     1      31.049   5.805   5.419  1.00  0.00     0.004 C 
ENDBRANCH  16  17
ENDBRANCH  15  16
ENDBRANCH  14  15
ENDBRANCH  13  14
ENDBRANCH  12  13
ENDBRANCH  11  12
ENDBRANCH   1  11
TORSDOF 14
ENDMDL
MODEL 4
REMARK VINA RESULT:    -1.894     14.371     18.769
REMARK INTER + INTRA:          -4.579
REMARK INTER:                  -4.009
REMARK INTRA:                  -0.570
REMARK UNBOUND:                -1.135
REMARK SMILES CCCCCCCCCCCCCCCC(=O)[O-]
REMARK SMILES IDX 9 1 10 2 11 3 12 4 13 5 14 6 15 7 16 8 17 9 18 10 8 11 7 12
REMARK SMILES IDX 6 13 5 14 4 15 3 16 2 17 1 18
REMARK H PARENT
REMARK Flexibility Score: inf
ROOT
ATOM      1  C   UNL     1      31.276  -0.199  -0.228  1.00  0.00     0.000 C 
ENDROOT
BRANCH   1   2
ATOM      2  C   UNL     1      30.410   1.048   0.015  1.00  0.00     0.000 C 
BRANCH   2   3
ATOM      3  C   UNL     1      29.681   1.007   1.370  1.00  0.00     0.000 C 
BRANCH   3   4
ATOM      4  C   UNL     1      29.615   2.387   2.045  1.00  0.00     0.000 C 
BRANCH   4   5
ATOM      5  C   UNL     1      30.963   2.815   2.649  1.00  0.00     0.000 C 
BRANCH   5   6
ATOM      6  C   UNL     1      30.821   3.953   3.677  1.00  0.00     0.006 C 
BRANCH   6   7
ATOM      7  C   UNL     1      30.312   5.279   3.090  1.00  0.00     0.053 C 
BRANCH   7   8
ATOM      8  C   UNL     1      30.913   6.464   3.781  1.00  0.00     0.041 C 
ATOM      9  O   UNL     1      32.044   6.895   3.433  1.00  0.00    -0.550 OA
ATOM     10  O   UNL     1      30.238   7.074   4.831  1.00  0.00    -0.550 OA
ENDBRANCH   7   8
ENDBRANCH   6   7
ENDBRANCH   5   6
ENDBRANCH   4   5
ENDBRANCH   3   4
ENDBRANCH   2   3
ENDBRANCH   1   2
BRANCH   1  11
ATOM     11  C   UNL     1      31.372  -0.571  -1.718  1.00  0.00     0.000 C 
BRANCH  11  12
ATOM     12  C   UNL     1      30.782   0.512  -2.636  1.00  0.00    -0.000 C 
BRANCH  12  13
ATOM     13  C   UNL     1      31.586   0.690  -3.935  1.00  0.00    -0.000 C 
BRANCH  13  14
ATOM     14  C   UNL     1      33.104   0.608  -3.706  1.00  0.00    -0.000 C 
BRANCH  14  15
ATOM     15  C   UNL     1      33.693  -0.748  -4.125  1.00  0.00    -0.000 C 
BRANCH  15  16
ATOM     16  C   UNL     1      34.873  -1.137  -3.222  1.00  0.00    -0.000 C 
BRANCH  16  17
ATOM     17  C   UNL     1      35.861  -2.086  -3.917  1.00  0.00    -0.003 C 
ATOM     18  C   UNL     1      36.325  -3.225  -3.008  1.00  0.00     0.004 C 
ENDBRANCH  16  17
ENDBRANCH  15  16
ENDBRANCH  14  15
ENDBRANCH  13  14
ENDBRANCH  12  13
ENDBRANCH  11  12
ENDBRANCH   1  11
TORSDOF 14
ENDMDL
MODEL 5
REMARK VINA RESULT:    -1.849      9.258     13.068
REMARK INTER + INTRA:          -4.497
REMARK INTER:                  -4.060
REMARK INTRA:                  -0.437
REMARK UNBOUND:                -1.135
REMARK SMILES CCCCCCCCCCCCCCCC(=O)[O-]
REMARK SMILES IDX 9 1 10 2 11 3 12 4 13 5 14 6 15 7 16 8 17 9 18 10 8 11 7 12
REMARK SMILES IDX 6 13 5 14 4 15 3 16 2 17 1 18
REMARK H PARENT
REMARK Flexibility Score: inf
ROOT
ATOM      1  C   UNL     1      18.177  -4.199  15.536  1.00  0.00     0.000 C 
ENDROOT
BRANCH   1   2
ATOM      2  C   UNL     1      18.253  -4.408  14.015  1.00  0.00     0.000 C 
BRANCH   2   3
ATOM      3  C   UNL     1      16.877  -4.694  13.388  1.00  0.00     0.000 C 
BRANCH   3   4
ATOM      4  C   UNL     1      16.948  -5.745  12.266  1.00  0.00     0.000 C 
BRANCH   4   5
ATOM      5  C   UNL     1      18.343  -5.829  11.623  1.00  0.00     0.000 C 
BRANCH   5   6
ATOM      6  C   UNL     1      18.330  -6.554  10.266  1.00  0.00     0.006 C 
BRANCH   6   7
ATOM      7  C   UNL     1      17.020  -6.403   9.477  1.00  0.00     0.053 C 
BRANCH   7   8
ATOM      8  C   UNL     1      17.252  -5.845   8.107  1.00  0.00     0.041 C 
ATOM      9  O   UNL     1      16.921  -6.506   7.088  1.00  0.00    -0.550 OA
ATOM     10  O   UNL     1      17.864  -4.607   7.954  1.00  0.00    -0.550 OA
ENDBRANCH   7   8
ENDBRANCH   6   7
ENDBRANCH   5   6
ENDBRANCH   4   5
ENDBRANCH   3   4
ENDBRANCH   2   3
ENDBRANCH   1   2
BRANCH   1  11
ATOM     11  C   UNL     1      18.027  -2.717  15.923  1.00  0.00     0.000 C 
BRANCH  11  12
ATOM     12  C   UNL     1      16.889  -2.020  15.160  1.00  0.00    -0.000 C 
BRANCH  12  13
ATOM     13  C   UNL     1      16.875  -0.497  15.378  1.00  0.00    -0.000 C 
BRANCH  13  14
ATOM     14  C   UNL     1      18.124   0.004  16.122  1.00  0.00    -0.000 C 
BRANCH  14  15
ATOM     15  C   UNL     1      18.617   1.363  15.603  1.00  0.00    -0.000 C 
BRANCH  15  16
ATOM     16  C   UNL     1      17.503   2.418  15.682  1.00  0.00    -0.000 C 
BRANCH  16  17
ATOM     17  C   UNL     1      18.023   3.845  15.452  1.00  0.00    -0.003 C 
ATOM     18  C   UNL     1      16.898   4.851  15.206  1.00  0.00     0.004 C 
ENDBRANCH  16  17
ENDBRANCH  15  16
ENDBRANCH  14  15
ENDBRANCH  13  14
ENDBRANCH  12  13
ENDBRANCH  11  12
ENDBRANCH   1  11
TORSDOF 14
ENDMDL
MODEL 6
REMARK VINA RESULT:    -1.711     18.057     21.360
REMARK INTER + INTRA:          -4.248
REMARK INTER:                  -4.069
REMARK INTRA:                  -0.179
REMARK UNBOUND:                -1.135
REMARK SMILES CCCCCCCCCCCCCCCC(=O)[O-]
REMARK SMILES IDX 9 1 10 2 11 3 12 4 13 5 14 6 15 7 16 8 17 9 18 10 8 11 7 12
REMARK SMILES IDX 6 13 5 14 4 15 3 16 2 17 1 18
REMARK H PARENT
REMARK Flexibility Score: inf
ROOT
ATOM      1  C   UNL     1      32.579   2.041  -4.000  1.00  0.00     0.000 C 
ENDROOT
BRANCH   1   2
ATOM      2  C   UNL     1      31.433   1.509  -3.124  1.00  0.00     0.000 C 
BRANCH   2   3
ATOM      3  C   UNL     1      31.189   0.002  -3.322  1.00  0.00     0.000 C 
BRANCH   3   4
ATOM      4  C   UNL     1      32.187  -0.864  -2.533  1.00  0.00     0.000 C 
BRANCH   4   5
ATOM      5  C   UNL     1      33.649  -0.583  -2.922  1.00  0.00     0.000 C 
BRANCH   5   6
ATOM      6  C   UNL     1      34.177  -1.552  -3.994  1.00  0.00     0.006 C 
BRANCH   6   7
ATOM      7  C   UNL     1      35.703  -1.738  -3.987  1.00  0.00     0.053 C 
BRANCH   7   8
ATOM      8  C   UNL     1      36.117  -2.938  -3.191  1.00  0.00     0.041 C 
ATOM      9  O   UNL     1      36.614  -2.795  -2.042  1.00  0.00    -0.550 OA
ATOM     10  O   UNL     1      35.983  -4.211  -3.729  1.00  0.00    -0.550 OA
ENDBRANCH   7   8
ENDBRANCH   6   7
ENDBRANCH   5   6
ENDBRANCH   4   5
ENDBRANCH   3   4
ENDBRANCH   2   3
ENDBRANCH   1   2
BRANCH   1  11
ATOM     11  C   UNL     1      32.609   3.578  -4.065  1.00  0.00     0.000 C 
BRANCH  11  12
ATOM     12  C   UNL     1      31.768   4.232  -2.955  1.00  0.00    -0.000 C 
BRANCH  12  13
ATOM     13  C   UNL     1      32.066   5.732  -2.792  1.00  0.00    -0.000 C 
BRANCH  13  14
ATOM     14  C   UNL     1      30.987   6.463  -1.977  1.00  0.00    -0.000 C 
BRANCH  14  15
ATOM     15  C   UNL     1      30.476   7.733  -2.676  1.00  0.00    -0.000 C 
BRANCH  15  16
ATOM     16  C   UNL     1      29.147   8.199  -2.065  1.00  0.00    -0.000 C 
BRANCH  16  17
ATOM     17  C   UNL     1      28.707   9.575  -2.586  1.00  0.00    -0.003 C 
ATOM     18  C   UNL     1      28.481   9.592  -4.098  1.00  0.00     0.004 C 
ENDBRANCH  16  17
ENDBRANCH  15  16
ENDBRANCH  14  15
ENDBRANCH  13  14
ENDBRANCH  12  13
ENDBRANCH  11  12
ENDBRANCH   1  11
TORSDOF 14
ENDMDL
MODEL 7
REMARK VINA RESULT:    -1.651      1.297      2.550
REMARK INTER + INTRA:          -4.138
REMARK INTER:                  -3.149
REMARK INTRA:                  -0.989
REMARK UNBOUND:                -1.135
REMARK SMILES CCCCCCCCCCCCCCCC(=O)[O-]
REMARK SMILES IDX 9 1 10 2 11 3 12 4 13 5 14 6 15 7 16 8 17 9 18 10 8 11 7 12
REMARK SMILES IDX 6 13 5 14 4 15 3 16 2 17 1 18
REMARK H PARENT
REMARK Flexibility Score: inf
ROOT
ATOM      1  C   UNL     1      20.701   9.265  10.186  1.00  0.00     0.000 C 
ENDROOT
BRANCH   1   2
ATOM      2  C   UNL     1      20.031  10.104  11.287  1.00  0.00     0.000 C 
BRANCH   2   3
ATOM      3  C   UNL     1      18.516   9.854  11.381  1.00  0.00     0.000 C 
BRANCH   3   4
ATOM      4  C   UNL     1      17.982  10.003  12.816  1.00  0.00     0.000 C 
BRANCH   4   5
ATOM      5  C   UNL     1      17.306   8.721  13.332  1.00  0.00     0.000 C 
BRANCH   5   6
ATOM      6  C   UNL     1      18.086   8.057  14.480  1.00  0.00     0.006 C 
BRANCH   6   7
ATOM      7  C   UNL     1      19.507   7.605  14.105  1.00  0.00     0.053 C 
BRANCH   7   8
ATOM      8  C   UNL     1      19.499   6.341  13.303  1.00  0.00     0.041 C 
ATOM      9  O   UNL     1      19.860   6.353  12.096  1.00  0.00    -0.550 OA
ATOM     10  O   UNL     1      19.062   5.154  13.877  1.00  0.00    -0.550 OA
ENDBRANCH   7   8
ENDBRANCH   6   7
ENDBRANCH   5   6
ENDBRANCH   4   5
ENDBRANCH   3   4
ENDBRANCH   2   3
ENDBRANCH   1   2
BRANCH   1  11
ATOM     11  C   UNL     1      21.183  10.120   9.001  1.00  0.00     0.000 C 
BRANCH  11  12
ATOM     12  C   UNL     1      20.252  10.017   7.781  1.00  0.00    -0.000 C 
BRANCH  12  13
ATOM     13  C   UNL     1      21.010  10.125   6.447  1.00  0.00    -0.000 C 
BRANCH  13  14
ATOM     14  C   UNL     1      22.529   9.953   6.615  1.00  0.00    -0.000 C 
BRANCH  14  15
ATOM     15  C   UNL     1      22.943   8.483   6.783  1.00  0.00    -0.000 C 
BRANCH  15  16
ATOM     16  C   UNL     1      22.235   7.592   5.753  1.00  0.00    -0.000 C 
BRANCH  16  17
ATOM     17  C   UNL     1      21.838   6.224   6.327  1.00  0.00    -0.003 C 
ATOM     18  C   UNL     1      22.089   5.076   5.349  1.00  0.00     0.004 C 
ENDBRANCH  16  17
ENDBRANCH  15  16
ENDBRANCH  14  15
ENDBRANCH  13  14
ENDBRANCH  12  13
ENDBRANCH  11  12
ENDBRANCH   1  11
TORSDOF 14
ENDMDL
MODEL 8
REMARK VINA RESULT:    -1.646     14.124     17.904
REMARK INTER + INTRA:          -4.129
REMARK INTER:                  -3.242
REMARK INTRA:                  -0.887
REMARK UNBOUND:                -1.135
REMARK SMILES CCCCCCCCCCCCCCCC(=O)[O-]
REMARK SMILES IDX 9 1 10 2 11 3 12 4 13 5 14 6 15 7 16 8 17 9 18 10 8 11 7 12
REMARK SMILES IDX 6 13 5 14 4 15 3 16 2 17 1 18
REMARK H PARENT
REMARK Flexibility Score: inf
ROOT
ATOM      1  C   UNL     1      31.531  -0.082  -0.435  1.00  0.00     0.000 C 
ENDROOT
BRANCH   1   2
ATOM      2  C   UNL     1      30.608   1.109  -0.127  1.00  0.00     0.000 C 
BRANCH   2   3
ATOM      3  C   UNL     1      29.553   0.779   0.944  1.00  0.00     0.000 C 
BRANCH   3   4
ATOM      4  C   UNL     1      29.524   1.815   2.081  1.00  0.00     0.000 C 
BRANCH   4   5
ATOM      5  C   UNL     1      30.834   2.615   2.186  1.00  0.00     0.000 C 
BRANCH   5   6
ATOM      6  C   UNL     1      30.869   3.544   3.412  1.00  0.00     0.006 C 
BRANCH   6   7
ATOM      7  C   UNL     1      30.708   5.037   3.083  1.00  0.00     0.053 C 
BRANCH   7   8
ATOM      8  C   UNL     1      30.725   5.887   4.316  1.00  0.00     0.041 C 
ATOM      9  O   UNL     1      31.233   5.448   5.382  1.00  0.00    -0.550 OA
ATOM     10  O   UNL     1      30.152   7.152   4.298  1.00  0.00    -0.550 OA
ENDBRANCH   7   8
ENDBRANCH   6   7
ENDBRANCH   5   6
ENDBRANCH   4   5
ENDBRANCH   3   4
ENDBRANCH   2   3
ENDBRANCH   1   2
BRANCH   1  11
ATOM     11  C   UNL     1      31.306  -0.655  -1.845  1.00  0.00     0.000 C 
BRANCH  11  12
ATOM     12  C   UNL     1      30.724   0.384  -2.818  1.00  0.00    -0.000 C 
BRANCH  12  13
ATOM     13  C   UNL     1      31.562   0.528  -4.101  1.00  0.00    -0.000 C 
BRANCH  13  14
ATOM     14  C   UNL     1      32.789   1.433  -3.905  1.00  0.00    -0.000 C 
BRANCH  14  15
ATOM     15  C   UNL     1      32.412   2.915  -3.756  1.00  0.00    -0.000 C 
BRANCH  15  16
ATOM     16  C   UNL     1      33.595   3.822  -4.125  1.00  0.00    -0.000 C 
BRANCH  16  17
ATOM     17  C   UNL     1      33.406   5.268  -3.641  1.00  0.00    -0.003 C 
ATOM     18  C   UNL     1      32.010   5.523  -3.072  1.00  0.00     0.004 C 
ENDBRANCH  16  17
ENDBRANCH  15  16
ENDBRANCH  14  15
ENDBRANCH  13  14
ENDBRANCH  12  13
ENDBRANCH  11  12
ENDBRANCH   1  11
TORSDOF 14
ENDMDL
MODEL 9
REMARK VINA RESULT:    -1.571     13.609     18.229
REMARK INTER + INTRA:          -3.992
REMARK INTER:                  -3.496
REMARK INTRA:                  -0.495
REMARK UNBOUND:                -1.135
REMARK SMILES CCCCCCCCCCCCCCCC(=O)[O-]
REMARK SMILES IDX 9 1 10 2 11 3 12 4 13 5 14 6 15 7 16 8 17 9 18 10 8 11 7 12
REMARK SMILES IDX 6 13 5 14 4 15 3 16 2 17 1 18
REMARK H PARENT
REMARK Flexibility Score: inf
ROOT
ATOM      1  C   UNL     1      30.908   1.008   0.179  1.00  0.00     0.000 C 
ENDROOT
BRANCH   1   2
ATOM      2  C   UNL     1      29.564   0.985   0.927  1.00  0.00     0.000 C 
BRANCH   2   3
ATOM      3  C   UNL     1      29.567   1.885   2.175  1.00  0.00     0.000 C 
BRANCH   3   4
ATOM      4  C   UNL     1      30.873   2.684   2.322  1.00  0.00     0.000 C 
BRANCH   4   5
ATOM      5  C   UNL     1      30.804   3.727   3.450  1.00  0.00     0.000 C 
BRANCH   5   6
ATOM      6  C   UNL     1      30.461   5.137   2.938  1.00  0.00     0.006 C 
BRANCH   6   7
ATOM      7  C   UNL     1      31.231   6.272   3.632  1.00  0.00     0.053 C 
BRANCH   7   8
ATOM      8  C   UNL     1      30.544   6.733   4.880  1.00  0.00     0.041 C 
ATOM      9  O   UNL     1      29.976   7.857   4.912  1.00  0.00    -0.550 OA
ATOM     10  O   UNL     1      30.556   5.937   6.018  1.00  0.00    -0.550 OA
ENDBRANCH   7   8
ENDBRANCH   6   7
ENDBRANCH   5   6
ENDBRANCH   4   5
ENDBRANCH   3   4
ENDBRANCH   2   3
ENDBRANCH   1   2
BRANCH   1  11
ATOM     11  C   UNL     1      30.764   0.639  -1.308  1.00  0.00     0.000 C 
BRANCH  11  12
ATOM     12  C   UNL     1      31.303  -0.767  -1.621  1.00  0.00    -0.000 C 
BRANCH  12  13
ATOM     13  C   UNL     1      31.303  -1.079  -3.128  1.00  0.00    -0.000 C 
BRANCH  13  14
ATOM     14  C   UNL     1      31.733   0.126  -3.979  1.00  0.00    -0.000 C 
BRANCH  14  15
ATOM     15  C   UNL     1      33.260   0.259  -4.087  1.00  0.00    -0.000 C 
BRANCH  15  16
ATOM     16  C   UNL     1      33.958  -1.022  -3.609  1.00  0.00    -0.000 C 
BRANCH  16  17
ATOM     17  C   UNL     1      35.401  -1.136  -4.124  1.00  0.00    -0.003 C 
ATOM     18  C   UNL     1      36.029  -2.498  -3.827  1.00  0.00     0.004 C 
ENDBRANCH  16  17
ENDBRANCH  15  16
ENDBRANCH  14  15
ENDBRANCH  13  14
ENDBRANCH  12  13
ENDBRANCH  11  12
ENDBRANCH   1  11
TORSDOF 14
ENDMDL
