MODEL 1
REMARK VINA RESULT:    -4.480      0.000      0.000
REMARK INTER + INTRA:         -14.995
REMARK INTER:                 -11.681
REMARK INTRA:                  -3.314
REMARK UNBOUND:                -3.314
REMARK SMILES CCCCCCCCCCCCCCCCCCCCCCCCCCCCCO
REMARK SMILES IDX 16 1 15 2 14 3 13 4 12 5 11 6 10 7 9 8 8 9 7 10 6 11 5 12
REMARK SMILES IDX 4 13 3 14 2 15 1 16 17 17 18 18 19 19 20 20 21 21 22 22
REMARK SMILES IDX 23 23 24 24 25 25 26 26 27 27 28 28 29 29 30 30
REMARK H PARENT 30 31
REMARK Flexibility Score: inf
ROOT
ATOM      1  C   UNL     1     164.421 176.191 186.924  1.00  0.00     0.000 C 
ENDROOT
BRANCH   1   2
ATOM      2  C   UNL     1     163.247 175.942 187.886  1.00  0.00     0.000 C 
BRANCH   2   3
ATOM      3  C   UNL     1     162.500 177.233 188.247  1.00  0.00     0.000 C 
BRANCH   3   4
ATOM      4  C   UNL     1     161.050 177.183 187.746  1.00  0.00     0.000 C 
BRANCH   4   5
ATOM      5  C   UNL     1     160.739 178.274 186.709  1.00  0.00     0.000 C 
BRANCH   5   6
ATOM      6  C   UNL     1     160.521 177.703 185.294  1.00  0.00     0.000 C 
BRANCH   6   7
ATOM      7  C   UNL     1     161.845 177.474 184.534  1.00  0.00     0.000 C 
BRANCH   7   8
ATOM      8  C   UNL     1     162.147 175.996 184.235  1.00  0.00    -0.000 C 
BRANCH   8   9
ATOM      9  C   UNL     1     160.973 175.265 183.564  1.00  0.00    -0.000 C 
BRANCH   9  10
ATOM     10  C   UNL     1     160.471 174.072 184.396  1.00  0.00    -0.000 C 
BRANCH  10  11
ATOM     11  C   UNL     1     161.115 174.021 185.794  1.00  0.00    -0.000 C 
BRANCH  11  12
ATOM     12  C   UNL     1     160.081 173.726 186.894  1.00  0.00    -0.000 C 
BRANCH  12  13
ATOM     13  C   UNL     1     160.532 172.586 187.826  1.00  0.00    -0.000 C 
BRANCH  13  14
ATOM     14  C   UNL     1     162.049 172.319 187.725  1.00  0.00    -0.000 C 
BRANCH  14  15
ATOM     15  C   UNL     1     162.489 171.014 188.410  1.00  0.00    -0.003 C 
ATOM     16  C   UNL     1     163.071 171.235 189.804  1.00  0.00     0.004 C 
ENDBRANCH  14  15
ENDBRANCH  13  14
ENDBRANCH  12  13
ENDBRANCH  11  12
ENDBRANCH  10  11
ENDBRANCH   9  10
ENDBRANCH   8   9
ENDBRANCH   7   8
ENDBRANCH   6   7
ENDBRANCH   5   6
ENDBRANCH   4   5
ENDBRANCH   3   4
ENDBRANCH   2   3
ENDBRANCH   1   2
BRANCH   1  17
ATOM     17  C   UNL     1     164.852 177.668 186.896  1.00  0.00     0.000 C 
BRANCH  17  18
ATOM     18  C   UNL     1     166.263 177.866 186.301  1.00  0.00     0.000 C 
BRANCH  18  19
ATOM     19  C   UNL     1     167.372 177.111 187.059  1.00  0.00     0.000 C 
BRANCH  19  20
ATOM     20  C   UNL     1     167.989 177.875 188.245  1.00  0.00     0.000 C 
BRANCH  20  21
ATOM     21  C   UNL     1     169.345 178.556 187.957  1.00  0.00     0.000 C 
BRANCH  21  22
ATOM     22  C   UNL     1     169.971 178.205 186.596  1.00  0.00     0.000 C 
BRANCH  22  23
ATOM     23  C   UNL     1     171.245 179.015 186.302  1.00  0.00     0.000 C 
BRANCH  23  24
ATOM     24  C   UNL     1     171.805 179.700 187.559  1.00  0.00     0.000 C 
BRANCH  24  25
ATOM     25  C   UNL     1     173.333 179.849 187.513  1.00  0.00     0.000 C 
BRANCH  25  26
ATOM     26  C   UNL     1     173.967 178.757 186.644  1.00  0.00     0.000 C 
BRANCH  26  27
ATOM     27  C   UNL     1     174.520 177.618 187.513  1.00  0.00     0.002 C 
BRANCH  27  28
ATOM     28  C   UNL     1     175.046 176.438 186.677  1.00  0.00     0.028 C 
BRANCH  28  29
ATOM     29  C   UNL     1     176.568 176.270 186.749  1.00  0.00     0.156 C 
BRANCH  29  30
ATOM     30  O   UNL     1     177.176 176.874 185.641  1.00  0.00    -0.396 OA
ATOM     31  H   UNL     1     176.471 177.416 185.201  1.00  0.00     0.210 HD
ENDBRANCH  29  30
ENDBRANCH  28  29
ENDBRANCH  27  28
ENDBRANCH  26  27
ENDBRANCH  25  26
ENDBRANCH  24  25
ENDBRANCH  23  24
ENDBRANCH  22  23
ENDBRANCH  21  22
ENDBRANCH  20  21
ENDBRANCH  19  20
ENDBRANCH  18  19
ENDBRANCH  17  18
ENDBRANCH   1  17
TORSDOF 28
ENDMDL
MODEL 2
REMARK VINA RESULT:    -4.476      4.198      9.486
REMARK INTER + INTRA:         -14.987
REMARK INTER:                  -9.180
REMARK INTRA:                  -5.807
REMARK UNBOUND:                -3.314
REMARK SMILES CCCCCCCCCCCCCCCCCCCCCCCCCCCCCO
REMARK SMILES IDX 16 1 15 2 14 3 13 4 12 5 11 6 10 7 9 8 8 9 7 10 6 11 5 12
REMARK SMILES IDX 4 13 3 14 2 15 1 16 17 17 18 18 19 19 20 20 21 21 22 22
REMARK SMILES IDX 23 23 24 24 25 25 26 26 27 27 28 28 29 29 30 30
REMARK H PARENT 30 31
REMARK Flexibility Score: inf
ROOT
ATOM      1  C   UNL     1     164.708 174.124 184.862  1.00  0.00     0.000 C 
ENDROOT
BRANCH   1   2
ATOM      2  C   UNL     1     165.660 175.080 184.124  1.00  0.00     0.000 C 
BRANCH   2   3
ATOM      3  C   UNL     1     164.916 176.228 183.428  1.00  0.00     0.000 C 
BRANCH   3   4
ATOM      4  C   UNL     1     163.396 176.044 183.548  1.00  0.00     0.000 C 
BRANCH   4   5
ATOM      5  C   UNL     1     162.654 177.365 183.810  1.00  0.00     0.000 C 
BRANCH   5   6
ATOM      6  C   UNL     1     161.125 177.185 183.866  1.00  0.00     0.000 C 
BRANCH   6   7
ATOM      7  C   UNL     1     160.600 176.988 185.305  1.00  0.00     0.000 C 
BRANCH   7   8
ATOM      8  C   UNL     1     160.589 178.275 186.147  1.00  0.00    -0.000 C 
BRANCH   8   9
ATOM      9  C   UNL     1     160.621 178.005 187.660  1.00  0.00    -0.000 C 
BRANCH   9  10
ATOM     10  C   UNL     1     162.006 177.548 188.147  1.00  0.00    -0.000 C 
BRANCH  10  11
ATOM     11  C   UNL     1     163.152 178.297 187.440  1.00  0.00    -0.000 C 
BRANCH  11  12
ATOM     12  C   UNL     1     164.332 177.368 187.111  1.00  0.00    -0.000 C 
BRANCH  12  13
ATOM     13  C   UNL     1     165.522 178.131 186.502  1.00  0.00    -0.000 C 
BRANCH  13  14
ATOM     14  C   UNL     1     166.864 177.406 186.746  1.00  0.00    -0.000 C 
BRANCH  14  15
ATOM     15  C   UNL     1     167.627 177.927 187.976  1.00  0.00    -0.003 C 
ATOM     16  C   UNL     1     169.061 177.410 188.055  1.00  0.00     0.004 C 
ENDBRANCH  14  15
ENDBRANCH  13  14
ENDBRANCH  12  13
ENDBRANCH  11  12
ENDBRANCH  10  11
ENDBRANCH   9  10
ENDBRANCH   8   9
ENDBRANCH   7   8
ENDBRANCH   6   7
ENDBRANCH   5   6
ENDBRANCH   4   5
ENDBRANCH   3   4
ENDBRANCH   2   3
ENDBRANCH   1   2
BRANCH   1  17
ATOM     17  C   UNL     1     165.074 173.962 186.347  1.00  0.00     0.000 C 
BRANCH  17  18
ATOM     18  C   UNL     1     163.836 173.757 187.247  1.00  0.00     0.000 C 
BRANCH  18  19
ATOM     19  C   UNL     1     162.502 174.118 186.566  1.00  0.00     0.000 C 
BRANCH  19  20
ATOM     20  C   UNL     1     161.271 174.101 187.492  1.00  0.00     0.000 C 
BRANCH  20  21
ATOM     21  C   UNL     1     160.470 172.781 187.498  1.00  0.00     0.000 C 
BRANCH  21  22
ATOM     22  C   UNL     1     161.157 171.607 188.216  1.00  0.00     0.000 C 
BRANCH  22  23
ATOM     23  C   UNL     1     160.883 170.253 187.539  1.00  0.00     0.000 C 
BRANCH  23  24
ATOM     24  C   UNL     1     160.813 170.370 186.008  1.00  0.00     0.000 C 
BRANCH  24  25
ATOM     25  C   UNL     1     162.202 170.325 185.353  1.00  0.00     0.000 C 
BRANCH  25  26
ATOM     26  C   UNL     1     162.333 171.394 184.263  1.00  0.00     0.000 C 
BRANCH  26  27
ATOM     27  C   UNL     1     160.953 171.792 183.718  1.00  0.00     0.002 C 
BRANCH  27  28
ATOM     28  C   UNL     1     160.826 173.307 183.479  1.00  0.00     0.028 C 
BRANCH  28  29
ATOM     29  C   UNL     1     160.131 173.660 182.160  1.00  0.00     0.156 C 
BRANCH  29  30
ATOM     30  O   UNL     1     160.882 174.610 181.455  1.00  0.00    -0.396 OA
ATOM     31  H   UNL     1     161.355 174.112 180.739  1.00  0.00     0.210 HD
ENDBRANCH  29  30
ENDBRANCH  28  29
ENDBRANCH  27  28
ENDBRANCH  26  27
ENDBRANCH  25  26
ENDBRANCH  24  25
ENDBRANCH  23  24
ENDBRANCH  22  23
ENDBRANCH  21  22
ENDBRANCH  20  21
ENDBRANCH  19  20
ENDBRANCH  18  19
ENDBRANCH  17  18
ENDBRANCH   1  17
TORSDOF 28
ENDMDL
MODEL 3
REMARK VINA RESULT:    -4.447      4.836      9.166
REMARK INTER + INTRA:         -14.910
REMARK INTER:                  -9.500
REMARK INTRA:                  -5.410
REMARK UNBOUND:                -3.314
REMARK SMILES CCCCCCCCCCCCCCCCCCCCCCCCCCCCCO
REMARK SMILES IDX 16 1 15 2 14 3 13 4 12 5 11 6 10 7 9 8 8 9 7 10 6 11 5 12
REMARK SMILES IDX 4 13 3 14 2 15 1 16 17 17 18 18 19 19 20 20 21 21 22 22
REMARK SMILES IDX 23 23 24 24 25 25 26 26 27 27 28 28 29 29 30 30
REMARK H PARENT 30 31
REMARK Flexibility Score: inf
ROOT
ATOM      1  C   UNL     1     162.863 172.618 188.219  1.00  0.00     0.000 C 
ENDROOT
BRANCH   1   2
ATOM      2  C   UNL     1     161.659 173.392 187.658  1.00  0.00     0.000 C 
BRANCH   2   3
ATOM      3  C   UNL     1     161.976 174.873 187.413  1.00  0.00     0.000 C 
BRANCH   3   4
ATOM      4  C   UNL     1     160.719 175.635 186.969  1.00  0.00     0.000 C 
BRANCH   4   5
ATOM      5  C   UNL     1     160.871 177.160 187.089  1.00  0.00     0.000 C 
BRANCH   5   6
ATOM      6  C   UNL     1     161.751 177.576 188.283  1.00  0.00     0.000 C 
BRANCH   6   7
ATOM      7  C   UNL     1     163.091 178.205 187.845  1.00  0.00     0.000 C 
BRANCH   7   8
ATOM      8  C   UNL     1     163.231 178.380 186.323  1.00  0.00    -0.000 C 
BRANCH   8   9
ATOM      9  C   UNL     1     164.674 178.193 185.825  1.00  0.00    -0.000 C 
BRANCH   9  10
ATOM     10  C   UNL     1     165.653 177.874 186.968  1.00  0.00    -0.000 C 
BRANCH  10  11
ATOM     11  C   UNL     1     166.414 176.555 186.737  1.00  0.00    -0.000 C 
BRANCH  11  12
ATOM     12  C   UNL     1     165.512 175.326 186.945  1.00  0.00    -0.000 C 
BRANCH  12  13
ATOM     13  C   UNL     1     165.272 174.552 185.636  1.00  0.00    -0.000 C 
BRANCH  13  14
ATOM     14  C   UNL     1     166.593 174.219 184.908  1.00  0.00    -0.000 C 
BRANCH  14  15
ATOM     15  C   UNL     1     166.687 174.829 183.499  1.00  0.00    -0.003 C 
ATOM     16  C   UNL     1     165.536 175.781 183.181  1.00  0.00     0.004 C 
ENDBRANCH  14  15
ENDBRANCH  13  14
ENDBRANCH  12  13
ENDBRANCH  11  12
ENDBRANCH  10  11
ENDBRANCH   9  10
ENDBRANCH   8   9
ENDBRANCH   7   8
ENDBRANCH   6   7
ENDBRANCH   5   6
ENDBRANCH   4   5
ENDBRANCH   3   4
ENDBRANCH   2   3
ENDBRANCH   1   2
BRANCH   1  17
ATOM     17  C   UNL     1     162.472 171.225 188.743  1.00  0.00     0.000 C 
BRANCH  17  18
ATOM     18  C   UNL     1     160.964 170.933 188.593  1.00  0.00     0.000 C 
BRANCH  18  19
ATOM     19  C   UNL     1     160.633 169.905 187.494  1.00  0.00     0.000 C 
BRANCH  19  20
ATOM     20  C   UNL     1     161.807 169.540 186.566  1.00  0.00     0.000 C 
BRANCH  20  21
ATOM     21  C   UNL     1     161.828 170.277 185.210  1.00  0.00     0.000 C 
BRANCH  21  22
ATOM     22  C   UNL     1     160.616 171.187 184.945  1.00  0.00     0.000 C 
BRANCH  22  23
ATOM     23  C   UNL     1     160.897 172.253 183.873  1.00  0.00     0.000 C 
BRANCH  23  24
ATOM     24  C   UNL     1     162.209 173.011 184.131  1.00  0.00     0.000 C 
BRANCH  24  25
ATOM     25  C   UNL     1     162.144 174.472 183.661  1.00  0.00     0.000 C 
BRANCH  25  26
ATOM     26  C   UNL     1     160.694 174.916 183.440  1.00  0.00     0.000 C 
BRANCH  26  27
ATOM     27  C   UNL     1     160.640 176.281 182.739  1.00  0.00     0.002 C 
BRANCH  27  28
ATOM     28  C   UNL     1     161.737 177.242 183.229  1.00  0.00     0.028 C 
BRANCH  28  29
ATOM     29  C   UNL     1     162.527 177.898 182.091  1.00  0.00     0.156 C 
BRANCH  29  30
ATOM     30  O   UNL     1     163.557 178.692 182.611  1.00  0.00    -0.396 OA
ATOM     31  H   UNL     1     163.131 179.302 183.268  1.00  0.00     0.210 HD
ENDBRANCH  29  30
ENDBRANCH  28  29
ENDBRANCH  27  28
ENDBRANCH  26  27
ENDBRANCH  25  26
ENDBRANCH  24  25
ENDBRANCH  23  24
ENDBRANCH  22  23
ENDBRANCH  21  22
ENDBRANCH  20  21
ENDBRANCH  19  20
ENDBRANCH  18  19
ENDBRANCH  17  18
ENDBRANCH   1  17
TORSDOF 28
ENDMDL
MODEL 4
REMARK VINA RESULT:    -4.434      4.814      9.289
REMARK INTER + INTRA:         -14.877
REMARK INTER:                  -8.473
REMARK INTRA:                  -6.404
REMARK UNBOUND:                -3.314
REMARK SMILES CCCCCCCCCCCCCCCCCCCCCCCCCCCCCO
REMARK SMILES IDX 16 1 15 2 14 3 13 4 12 5 11 6 10 7 9 8 8 9 7 10 6 11 5 12
REMARK SMILES IDX 4 13 3 14 2 15 1 16 17 17 18 18 19 19 20 20 21 21 22 22
REMARK SMILES IDX 23 23 24 24 25 25 26 26 27 27 28 28 29 29 30 30
REMARK H PARENT 30 31
REMARK Flexibility Score: inf
ROOT
ATOM      1  C   UNL     1     163.519 175.425 182.879  1.00  0.00     0.000 C 
ENDROOT
BRANCH   1   2
ATOM      2  C   UNL     1     163.793 176.794 182.235  1.00  0.00     0.000 C 
BRANCH   2   3
ATOM      3  C   UNL     1     162.627 177.774 182.419  1.00  0.00     0.000 C 
BRANCH   3   4
ATOM      4  C   UNL     1     161.320 177.019 182.705  1.00  0.00     0.000 C 
BRANCH   4   5
ATOM      5  C   UNL     1     160.687 177.410 184.050  1.00  0.00     0.000 C 
BRANCH   5   6
ATOM      6  C   UNL     1     160.654 176.240 185.051  1.00  0.00     0.000 C 
BRANCH   6   7
ATOM      7  C   UNL     1     160.532 176.712 186.516  1.00  0.00     0.000 C 
BRANCH   7   8
ATOM      8  C   UNL     1     161.243 178.045 186.804  1.00  0.00    -0.000 C 
BRANCH   8   9
ATOM      9  C   UNL     1     162.250 177.953 187.963  1.00  0.00    -0.000 C 
BRANCH   9  10
ATOM     10  C   UNL     1     163.707 178.068 187.486  1.00  0.00    -0.000 C 
BRANCH  10  11
ATOM     11  C   UNL     1     163.817 178.152 185.951  1.00  0.00    -0.000 C 
BRANCH  11  12
ATOM     12  C   UNL     1     165.251 177.889 185.461  1.00  0.00    -0.000 C 
BRANCH  12  13
ATOM     13  C   UNL     1     166.268 177.879 186.616  1.00  0.00    -0.000 C 
BRANCH  13  14
ATOM     14  C   UNL     1     167.158 176.617 186.595  1.00  0.00    -0.000 C 
BRANCH  14  15
ATOM     15  C   UNL     1     167.691 176.266 185.196  1.00  0.00    -0.003 C 
ATOM     16  C   UNL     1     168.410 174.919 185.149  1.00  0.00     0.004 C 
ENDBRANCH  14  15
ENDBRANCH  13  14
ENDBRANCH  12  13
ENDBRANCH  11  12
ENDBRANCH  10  11
ENDBRANCH   9  10
ENDBRANCH   8   9
ENDBRANCH   7   8
ENDBRANCH   6   7
ENDBRANCH   5   6
ENDBRANCH   4   5
ENDBRANCH   3   4
ENDBRANCH   2   3
ENDBRANCH   1   2
BRANCH   1  17
ATOM     17  C   UNL     1     164.801 174.596 183.064  1.00  0.00     0.000 C 
BRANCH  17  18
ATOM     18  C   UNL     1     164.927 174.001 184.483  1.00  0.00     0.000 C 
BRANCH  18  19
ATOM     19  C   UNL     1     163.748 174.349 185.413  1.00  0.00     0.000 C 
BRANCH  19  20
ATOM     20  C   UNL     1     164.114 174.498 186.902  1.00  0.00     0.000 C 
BRANCH  20  21
ATOM     21  C   UNL     1     162.982 174.159 187.895  1.00  0.00     0.000 C 
BRANCH  21  22
ATOM     22  C   UNL     1     162.896 172.677 188.301  1.00  0.00     0.000 C 
BRANCH  22  23
ATOM     23  C   UNL     1     161.605 172.000 187.810  1.00  0.00     0.000 C 
BRANCH  23  24
ATOM     24  C   UNL     1     160.577 173.015 187.285  1.00  0.00     0.000 C 
BRANCH  24  25
ATOM     25  C   UNL     1     160.213 172.770 185.813  1.00  0.00     0.000 C 
BRANCH  25  26
ATOM     26  C   UNL     1     161.190 171.788 185.159  1.00  0.00     0.000 C 
BRANCH  26  27
ATOM     27  C   UNL     1     161.146 171.907 183.628  1.00  0.00     0.002 C 
BRANCH  27  28
ATOM     28  C   UNL     1     160.563 173.251 183.157  1.00  0.00     0.028 C 
BRANCH  28  29
ATOM     29  C   UNL     1     159.949 173.190 181.754  1.00  0.00     0.156 C 
BRANCH  29  30
ATOM     30  O   UNL     1     160.666 172.294 180.949  1.00  0.00    -0.396 OA
ATOM     31  H   UNL     1     160.407 171.385 181.250  1.00  0.00     0.210 HD
ENDBRANCH  29  30
ENDBRANCH  28  29
ENDBRANCH  27  28
ENDBRANCH  26  27
ENDBRANCH  25  26
ENDBRANCH  24  25
ENDBRANCH  23  24
ENDBRANCH  22  23
ENDBRANCH  21  22
ENDBRANCH  20  21
ENDBRANCH  19  20
ENDBRANCH  18  19
ENDBRANCH  17  18
ENDBRANCH   1  17
TORSDOF 28
ENDMDL
MODEL 5
REMARK VINA RESULT:    -4.421      3.217     11.301
REMARK INTER + INTRA:         -14.843
REMARK INTER:                 -11.533
REMARK INTRA:                  -3.310
REMARK UNBOUND:                -3.314
REMARK SMILES CCCCCCCCCCCCCCCCCCCCCCCCCCCCCO
REMARK SMILES IDX 16 1 15 2 14 3 13 4 12 5 11 6 10 7 9 8 8 9 7 10 6 11 5 12
REMARK SMILES IDX 4 13 3 14 2 15 1 16 17 17 18 18 19 19 20 20 21 21 22 22
REMARK SMILES IDX 23 23 24 24 25 25 26 26 27 27 28 28 29 29 30 30
REMARK H PARENT 30 31
REMARK Flexibility Score: inf
ROOT
ATOM      1  C   UNL     1     167.358 177.877 187.533  1.00  0.00     0.000 C 
ENDROOT
BRANCH   1   2
ATOM      2  C   UNL     1     168.475 177.722 188.579  1.00  0.00     0.000 C 
BRANCH   2   3
ATOM      3  C   UNL     1     169.476 176.620 188.209  1.00  0.00     0.000 C 
BRANCH   3   4
ATOM      4  C   UNL     1     170.863 177.215 187.927  1.00  0.00     0.000 C 
BRANCH   4   5
ATOM      5  C   UNL     1     171.030 177.677 186.471  1.00  0.00     0.000 C 
BRANCH   5   6
ATOM      6  C   UNL     1     171.096 179.211 186.338  1.00  0.00     0.000 C 
BRANCH   6   7
ATOM      7  C   UNL     1     171.975 179.865 187.426  1.00  0.00     0.000 C 
BRANCH   7   8
ATOM      8  C   UNL     1     173.447 180.043 187.018  1.00  0.00    -0.000 C 
BRANCH   8   9
ATOM      9  C   UNL     1     174.433 179.657 188.133  1.00  0.00    -0.000 C 
BRANCH   9  10
ATOM     10  C   UNL     1     174.614 178.135 188.257  1.00  0.00    -0.000 C 
BRANCH  10  11
ATOM     11  C   UNL     1     174.905 177.468 186.900  1.00  0.00    -0.000 C 
BRANCH  11  12
ATOM     12  C   UNL     1     174.453 175.998 186.872  1.00  0.00    -0.000 C 
BRANCH  12  13
ATOM     13  C   UNL     1     175.370 175.123 185.997  1.00  0.00    -0.000 C 
BRANCH  13  14
ATOM     14  C   UNL     1     176.681 174.750 186.722  1.00  0.00    -0.000 C 
BRANCH  14  15
ATOM     15  C   UNL     1     176.537 173.543 187.665  1.00  0.00    -0.003 C 
ATOM     16  C   UNL     1     177.617 173.491 188.742  1.00  0.00     0.004 C 
ENDBRANCH  14  15
ENDBRANCH  13  14
ENDBRANCH  12  13
ENDBRANCH  11  12
ENDBRANCH  10  11
ENDBRANCH   9  10
ENDBRANCH   8   9
ENDBRANCH   7   8
ENDBRANCH   6   7
ENDBRANCH   5   6
ENDBRANCH   4   5
ENDBRANCH   3   4
ENDBRANCH   2   3
ENDBRANCH   1   2
BRANCH   1  17
ATOM     17  C   UNL     1     166.773 176.523 187.095  1.00  0.00     0.000 C 
BRANCH  17  18
ATOM     18  C   UNL     1     165.417 176.665 186.371  1.00  0.00     0.000 C 
BRANCH  18  19
ATOM     19  C   UNL     1     164.993 178.126 186.121  1.00  0.00     0.000 C 
BRANCH  19  20
ATOM     20  C   UNL     1     163.698 178.560 186.832  1.00  0.00     0.000 C 
BRANCH  20  21
ATOM     21  C   UNL     1     163.146 177.555 187.867  1.00  0.00     0.000 C 
BRANCH  21  22
ATOM     22  C   UNL     1     161.637 177.673 188.145  1.00  0.00     0.000 C 
BRANCH  22  23
ATOM     23  C   UNL     1     160.793 176.757 187.243  1.00  0.00     0.000 C 
BRANCH  23  24
ATOM     24  C   UNL     1     161.576 175.521 186.770  1.00  0.00     0.000 C 
BRANCH  24  25
ATOM     25  C   UNL     1     161.317 175.195 185.292  1.00  0.00     0.000 C 
BRANCH  25  26
ATOM     26  C   UNL     1     162.025 176.195 184.373  1.00  0.00     0.000 C 
BRANCH  26  27
ATOM     27  C   UNL     1     162.846 175.467 183.299  1.00  0.00     0.002 C 
BRANCH  27  28
ATOM     28  C   UNL     1     163.785 176.413 182.530  1.00  0.00     0.028 C 
BRANCH  28  29
ATOM     29  C   UNL     1     163.126 177.739 182.136  1.00  0.00     0.156 C 
BRANCH  29  30
ATOM     30  O   UNL     1     163.619 178.781 182.933  1.00  0.00    -0.396 OA
ATOM     31  H   UNL     1     162.892 179.454 182.988  1.00  0.00     0.210 HD
ENDBRANCH  29  30
ENDBRANCH  28  29
ENDBRANCH  27  28
ENDBRANCH  26  27
ENDBRANCH  25  26
ENDBRANCH  24  25
ENDBRANCH  23  24
ENDBRANCH  22  23
ENDBRANCH  21  22
ENDBRANCH  20  21
ENDBRANCH  19  20
ENDBRANCH  18  19
ENDBRANCH  17  18
ENDBRANCH   1  17
TORSDOF 28
ENDMDL
MODEL 6
REMARK VINA RESULT:    -4.405      4.831      8.267
REMARK INTER + INTRA:         -14.802
REMARK INTER:                  -9.170
REMARK INTRA:                  -5.632
REMARK UNBOUND:                -3.314
REMARK SMILES CCCCCCCCCCCCCCCCCCCCCCCCCCCCCO
REMARK SMILES IDX 16 1 15 2 14 3 13 4 12 5 11 6 10 7 9 8 8 9 7 10 6 11 5 12
REMARK SMILES IDX 4 13 3 14 2 15 1 16 17 17 18 18 19 19 20 20 21 21 22 22
REMARK SMILES IDX 23 23 24 24 25 25 26 26 27 27 28 28 29 29 30 30
REMARK H PARENT 30 31
REMARK Flexibility Score: inf
ROOT
ATOM      1  C   UNL     1     161.896 171.684 188.443  1.00  0.00     0.000 C 
ENDROOT
BRANCH   1   2
ATOM      2  C   UNL     1     161.696 173.088 187.849  1.00  0.00     0.000 C 
BRANCH   2   3
ATOM      3  C   UNL     1     160.218 173.408 187.586  1.00  0.00     0.000 C 
BRANCH   3   4
ATOM      4  C   UNL     1     160.003 174.922 187.452  1.00  0.00     0.000 C 
BRANCH   4   5
ATOM      5  C   UNL     1     161.321 175.712 187.428  1.00  0.00     0.000 C 
BRANCH   5   6
ATOM      6  C   UNL     1     161.163 177.146 187.970  1.00  0.00     0.000 C 
BRANCH   6   7
ATOM      7  C   UNL     1     160.979 178.190 186.848  1.00  0.00     0.000 C 
BRANCH   7   8
ATOM      8  C   UNL     1     161.430 177.704 185.460  1.00  0.00    -0.000 C 
BRANCH   8   9
ATOM      9  C   UNL     1     160.271 177.580 184.458  1.00  0.00    -0.000 C 
BRANCH   9  10
ATOM     10  C   UNL     1     160.690 176.874 183.158  1.00  0.00    -0.000 C 
BRANCH  10  11
ATOM     11  C   UNL     1     161.982 177.465 182.562  1.00  0.00    -0.000 C 
BRANCH  11  12
ATOM     12  C   UNL     1     162.628 176.518 181.536  1.00  0.00    -0.000 C 
BRANCH  12  13
ATOM     13  C   UNL     1     161.661 175.414 181.073  1.00  0.00    -0.000 C 
BRANCH  13  14
ATOM     14  C   UNL     1     162.410 174.165 180.557  1.00  0.00    -0.000 C 
BRANCH  14  15
ATOM     15  C   UNL     1     161.514 172.920 180.437  1.00  0.00    -0.003 C 
ATOM     16  C   UNL     1     160.041 173.212 180.714  1.00  0.00     0.004 C 
ENDBRANCH  14  15
ENDBRANCH  13  14
ENDBRANCH  12  13
ENDBRANCH  11  12
ENDBRANCH  10  11
ENDBRANCH   9  10
ENDBRANCH   8   9
ENDBRANCH   7   8
ENDBRANCH   6   7
ENDBRANCH   5   6
ENDBRANCH   4   5
ENDBRANCH   3   4
ENDBRANCH   2   3
ENDBRANCH   1   2
BRANCH   1  17
ATOM     17  C   UNL     1     162.983 170.884 187.704  1.00  0.00     0.000 C 
BRANCH  17  18
ATOM     18  C   UNL     1     162.420 169.640 186.984  1.00  0.00     0.000 C 
BRANCH  18  19
ATOM     19  C   UNL     1     160.976 169.813 186.473  1.00  0.00     0.000 C 
BRANCH  19  20
ATOM     20  C   UNL     1     160.803 169.681 184.949  1.00  0.00     0.000 C 
BRANCH  20  21
ATOM     21  C   UNL     1     161.387 170.843 184.116  1.00  0.00     0.000 C 
BRANCH  21  22
ATOM     22  C   UNL     1     160.612 172.168 184.217  1.00  0.00     0.000 C 
BRANCH  22  23
ATOM     23  C   UNL     1     161.536 173.398 184.214  1.00  0.00     0.000 C 
BRANCH  23  24
ATOM     24  C   UNL     1     162.991 173.037 184.554  1.00  0.00     0.000 C 
BRANCH  24  25
ATOM     25  C   UNL     1     164.002 173.927 183.816  1.00  0.00     0.000 C 
BRANCH  25  26
ATOM     26  C   UNL     1     164.927 174.646 184.802  1.00  0.00     0.000 C 
BRANCH  26  27
ATOM     27  C   UNL     1     164.414 176.062 185.103  1.00  0.00     0.002 C 
BRANCH  27  28
ATOM     28  C   UNL     1     164.902 176.593 186.462  1.00  0.00     0.028 C 
BRANCH  28  29
ATOM     29  C   UNL     1     165.839 177.799 186.345  1.00  0.00     0.156 C 
BRANCH  29  30
ATOM     30  O   UNL     1     165.221 178.825 185.618  1.00  0.00    -0.396 OA
ATOM     31  H   UNL     1     164.506 178.392 185.083  1.00  0.00     0.210 HD
ENDBRANCH  29  30
ENDBRANCH  28  29
ENDBRANCH  27  28
ENDBRANCH  26  27
ENDBRANCH  25  26
ENDBRANCH  24  25
ENDBRANCH  23  24
ENDBRANCH  22  23
ENDBRANCH  21  22
ENDBRANCH  20  21
ENDBRANCH  19  20
ENDBRANCH  18  19
ENDBRANCH  17  18
ENDBRANCH   1  17
TORSDOF 28
ENDMDL
MODEL 7
REMARK VINA RESULT:    -4.392      5.359      8.465
REMARK INTER + INTRA:         -14.767
REMARK INTER:                  -9.970
REMARK INTRA:                  -4.796
REMARK UNBOUND:                -3.314
REMARK SMILES CCCCCCCCCCCCCCCCCCCCCCCCCCCCCO
REMARK SMILES IDX 16 1 15 2 14 3 13 4 12 5 11 6 10 7 9 8 8 9 7 10 6 11 5 12
REMARK SMILES IDX 4 13 3 14 2 15 1 16 17 17 18 18 19 19 20 20 21 21 22 22
REMARK SMILES IDX 23 23 24 24 25 25 26 26 27 27 28 28 29 29 30 30
REMARK H PARENT 30 31
REMARK Flexibility Score: inf
ROOT
ATOM      1  C   UNL     1     164.309 176.395 187.074  1.00  0.00     0.000 C 
ENDROOT
BRANCH   1   2
ATOM      2  C   UNL     1     162.996 176.464 187.872  1.00  0.00     0.000 C 
BRANCH   2   3
ATOM      3  C   UNL     1     162.390 177.874 187.883  1.00  0.00     0.000 C 
BRANCH   3   4
ATOM      4  C   UNL     1     161.035 177.890 187.159  1.00  0.00     0.000 C 
BRANCH   4   5
ATOM      5  C   UNL     1     161.175 177.846 185.629  1.00  0.00     0.000 C 
BRANCH   5   6
ATOM      6  C   UNL     1     160.572 176.568 185.016  1.00  0.00     0.000 C 
BRANCH   6   7
ATOM      7  C   UNL     1     161.648 175.545 184.592  1.00  0.00     0.000 C 
BRANCH   7   8
ATOM      8  C   UNL     1     161.348 174.102 185.034  1.00  0.00    -0.000 C 
BRANCH   8   9
ATOM      9  C   UNL     1     160.247 174.017 186.105  1.00  0.00    -0.000 C 
BRANCH   9  10
ATOM     10  C   UNL     1     160.807 173.686 187.498  1.00  0.00    -0.000 C 
BRANCH  10  11
ATOM     11  C   UNL     1     160.625 172.201 187.866  1.00  0.00    -0.000 C 
BRANCH  11  12
ATOM     12  C   UNL     1     161.957 171.534 188.249  1.00  0.00    -0.000 C 
BRANCH  12  13
ATOM     13  C   UNL     1     163.142 172.513 188.167  1.00  0.00    -0.000 C 
BRANCH  13  14
ATOM     14  C   UNL     1     164.243 172.012 187.207  1.00  0.00    -0.000 C 
BRANCH  14  15
ATOM     15  C   UNL     1     164.741 173.091 186.230  1.00  0.00    -0.003 C 
ATOM     16  C   UNL     1     164.724 172.634 184.773  1.00  0.00     0.004 C 
ENDBRANCH  14  15
ENDBRANCH  13  14
ENDBRANCH  12  13
ENDBRANCH  11  12
ENDBRANCH  10  11
ENDBRANCH   9  10
ENDBRANCH   8   9
ENDBRANCH   7   8
ENDBRANCH   6   7
ENDBRANCH   5   6
ENDBRANCH   4   5
ENDBRANCH   3   4
ENDBRANCH   2   3
ENDBRANCH   1   2
BRANCH   1  17
ATOM     17  C   UNL     1     164.879 177.789 186.760  1.00  0.00     0.000 C 
BRANCH  17  18
ATOM     18  C   UNL     1     166.263 177.728 186.080  1.00  0.00     0.000 C 
BRANCH  18  19
ATOM     19  C   UNL     1     166.462 176.494 185.178  1.00  0.00     0.000 C 
BRANCH  19  20
ATOM     20  C   UNL     1     166.281 176.751 183.671  1.00  0.00     0.000 C 
BRANCH  20  21
ATOM     21  C   UNL     1     164.838 176.594 183.144  1.00  0.00     0.000 C 
BRANCH  21  22
ATOM     22  C   UNL     1     163.987 177.875 183.190  1.00  0.00     0.000 C 
BRANCH  22  23
ATOM     23  C   UNL     1     163.038 178.001 181.986  1.00  0.00     0.000 C 
BRANCH  23  24
ATOM     24  C   UNL     1     162.873 176.673 181.231  1.00  0.00     0.000 C 
BRANCH  24  25
ATOM     25  C   UNL     1     161.988 176.815 179.983  1.00  0.00     0.000 C 
BRANCH  25  26
ATOM     26  C   UNL     1     161.375 178.216 179.898  1.00  0.00     0.000 C 
BRANCH  26  27
ATOM     27  C   UNL     1     160.996 178.562 178.451  1.00  0.00     0.002 C 
BRANCH  27  28
ATOM     28  C   UNL     1     161.020 177.334 177.524  1.00  0.00     0.028 C 
BRANCH  28  29
ATOM     29  C   UNL     1     160.210 177.526 176.237  1.00  0.00     0.156 C 
BRANCH  29  30
ATOM     30  O   UNL     1     160.696 178.624 175.517  1.00  0.00    -0.396 OA
ATOM     31  H   UNL     1     160.913 178.286 174.610  1.00  0.00     0.210 HD
ENDBRANCH  29  30
ENDBRANCH  28  29
ENDBRANCH  27  28
ENDBRANCH  26  27
ENDBRANCH  25  26
ENDBRANCH  24  25
ENDBRANCH  23  24
ENDBRANCH  22  23
ENDBRANCH  21  22
ENDBRANCH  20  21
ENDBRANCH  19  20
ENDBRANCH  18  19
ENDBRANCH  17  18
ENDBRANCH   1  17
TORSDOF 28
ENDMDL
MODEL 8
REMARK VINA RESULT:    -4.392      3.446     11.653
REMARK INTER + INTRA:         -14.766
REMARK INTER:                 -10.994
REMARK INTRA:                  -3.771
REMARK UNBOUND:                -3.314
REMARK SMILES CCCCCCCCCCCCCCCCCCCCCCCCCCCCCO
REMARK SMILES IDX 16 1 15 2 14 3 13 4 12 5 11 6 10 7 9 8 8 9 7 10 6 11 5 12
REMARK SMILES IDX 4 13 3 14 2 15 1 16 17 17 18 18 19 19 20 20 21 21 22 22
REMARK SMILES IDX 23 23 24 24 25 25 26 26 27 27 28 28 29 29 30 30
REMARK H PARENT 30 31
REMARK Flexibility Score: inf
ROOT
ATOM      1  C   UNL     1     170.452 176.435 187.979  1.00  0.00     0.000 C 
ENDROOT
BRANCH   1   2
ATOM      2  C   UNL     1     171.759 177.215 187.763  1.00  0.00     0.000 C 
BRANCH   2   3
ATOM      3  C   UNL     1     171.568 178.443 186.863  1.00  0.00     0.000 C 
BRANCH   3   4
ATOM      4  C   UNL     1     172.098 179.711 187.549  1.00  0.00     0.000 C 
BRANCH   4   5
ATOM      5  C   UNL     1     173.548 180.038 187.161  1.00  0.00     0.000 C 
BRANCH   5   6
ATOM      6  C   UNL     1     174.552 179.702 188.280  1.00  0.00     0.000 C 
BRANCH   6   7
ATOM      7  C   UNL     1     175.288 178.366 188.040  1.00  0.00     0.000 C 
BRANCH   7   8
ATOM      8  C   UNL     1     175.771 178.171 186.593  1.00  0.00    -0.000 C 
BRANCH   8   9
ATOM      9  C   UNL     1     175.020 177.051 185.853  1.00  0.00    -0.000 C 
BRANCH   9  10
ATOM     10  C   UNL     1     174.388 177.536 184.538  1.00  0.00    -0.000 C 
BRANCH  10  11
ATOM     11  C   UNL     1     175.150 178.727 183.926  1.00  0.00    -0.000 C 
BRANCH  11  12
ATOM     12  C   UNL     1     174.278 179.522 182.940  1.00  0.00    -0.000 C 
BRANCH  12  13
ATOM     13  C   UNL     1     172.910 179.893 183.540  1.00  0.00    -0.000 C 
BRANCH  13  14
ATOM     14  C   UNL     1     171.741 179.483 182.618  1.00  0.00    -0.000 C 
BRANCH  14  15
ATOM     15  C   UNL     1     170.589 178.788 183.362  1.00  0.00    -0.003 C 
ATOM     16  C   UNL     1     169.590 179.769 183.972  1.00  0.00     0.004 C 
ENDBRANCH  14  15
ENDBRANCH  13  14
ENDBRANCH  12  13
ENDBRANCH  11  12
ENDBRANCH  10  11
ENDBRANCH   9  10
ENDBRANCH   8   9
ENDBRANCH   7   8
ENDBRANCH   6   7
ENDBRANCH   5   6
ENDBRANCH   4   5
ENDBRANCH   3   4
ENDBRANCH   2   3
ENDBRANCH   1   2
BRANCH   1  17
ATOM     17  C   UNL     1     169.284 177.349 188.388  1.00  0.00     0.000 C 
BRANCH  17  18
ATOM     18  C   UNL     1     167.961 176.975 187.685  1.00  0.00     0.000 C 
BRANCH  18  19
ATOM     19  C   UNL     1     167.612 177.880 186.488  1.00  0.00     0.000 C 
BRANCH  19  20
ATOM     20  C   UNL     1     166.174 177.736 185.958  1.00  0.00     0.000 C 
BRANCH  20  21
ATOM     21  C   UNL     1     165.082 177.605 187.042  1.00  0.00     0.000 C 
BRANCH  21  22
ATOM     22  C   UNL     1     164.351 176.252 187.066  1.00  0.00     0.000 C 
BRANCH  22  23
ATOM     23  C   UNL     1     162.914 176.363 187.604  1.00  0.00     0.000 C 
BRANCH  23  24
ATOM     24  C   UNL     1     162.466 177.823 187.777  1.00  0.00     0.000 C 
BRANCH  24  25
ATOM     25  C   UNL     1     161.041 178.064 187.258  1.00  0.00     0.000 C 
BRANCH  25  26
ATOM     26  C   UNL     1     160.687 177.079 186.139  1.00  0.00     0.000 C 
BRANCH  26  27
ATOM     27  C   UNL     1     160.382 177.823 184.831  1.00  0.00     0.002 C 
BRANCH  27  28
ATOM     28  C   UNL     1     161.281 177.367 183.668  1.00  0.00     0.028 C 
BRANCH  28  29
ATOM     29  C   UNL     1     162.775 177.398 184.004  1.00  0.00     0.156 C 
BRANCH  29  30
ATOM     30  O   UNL     1     163.371 178.543 183.459  1.00  0.00    -0.396 OA
ATOM     31  H   UNL     1     162.679 178.971 182.892  1.00  0.00     0.210 HD
ENDBRANCH  29  30
ENDBRANCH  28  29
ENDBRANCH  27  28
ENDBRANCH  26  27
ENDBRANCH  25  26
ENDBRANCH  24  25
ENDBRANCH  23  24
ENDBRANCH  22  23
ENDBRANCH  21  22
ENDBRANCH  20  21
ENDBRANCH  19  20
ENDBRANCH  18  19
ENDBRANCH  17  18
ENDBRANCH   1  17
TORSDOF 28
ENDMDL
MODEL 9
REMARK VINA RESULT:    -4.359      5.128      9.699
REMARK INTER + INTRA:         -14.681
REMARK INTER:                  -9.273
REMARK INTRA:                  -5.409
REMARK UNBOUND:                -3.314
REMARK SMILES CCCCCCCCCCCCCCCCCCCCCCCCCCCCCO
REMARK SMILES IDX 16 1 15 2 14 3 13 4 12 5 11 6 10 7 9 8 8 9 7 10 6 11 5 12
REMARK SMILES IDX 4 13 3 14 2 15 1 16 17 17 18 18 19 19 20 20 21 21 22 22
REMARK SMILES IDX 23 23 24 24 25 25 26 26 27 27 28 28 29 29 30 30
REMARK H PARENT 30 31
REMARK Flexibility Score: inf
ROOT
ATOM      1  C   UNL     1     163.502 175.308 182.551  1.00  0.00     0.000 C 
ENDROOT
BRANCH   1   2
ATOM      2  C   UNL     1     163.076 175.976 183.868  1.00  0.00     0.000 C 
BRANCH   2   3
ATOM      3  C   UNL     1     162.652 177.439 183.673  1.00  0.00     0.000 C 
BRANCH   3   4
ATOM      4  C   UNL     1     161.151 177.535 183.365  1.00  0.00     0.000 C 
BRANCH   4   5
ATOM      5  C   UNL     1     160.270 177.214 184.582  1.00  0.00     0.000 C 
BRANCH   5   6
ATOM      6  C   UNL     1     160.635 178.060 185.818  1.00  0.00     0.000 C 
BRANCH   6   7
ATOM      7  C   UNL     1     160.802 177.208 187.094  1.00  0.00     0.000 C 
BRANCH   7   8
ATOM      8  C   UNL     1     161.924 177.694 188.027  1.00  0.00    -0.000 C 
BRANCH   8   9
ATOM      9  C   UNL     1     163.332 177.389 187.487  1.00  0.00    -0.000 C 
BRANCH   9  10
ATOM     10  C   UNL     1     164.007 178.628 186.875  1.00  0.00    -0.000 C 
BRANCH  10  11
ATOM     11  C   UNL     1     165.323 178.282 186.153  1.00  0.00    -0.000 C 
BRANCH  11  12
ATOM     12  C   UNL     1     166.271 177.463 187.046  1.00  0.00    -0.000 C 
BRANCH  12  13
ATOM     13  C   UNL     1     167.076 176.425 186.242  1.00  0.00    -0.000 C 
BRANCH  13  14
ATOM     14  C   UNL     1     166.180 175.294 185.693  1.00  0.00    -0.000 C 
BRANCH  14  15
ATOM     15  C   UNL     1     166.008 174.119 186.672  1.00  0.00    -0.003 C 
ATOM     16  C   UNL     1     164.580 173.978 187.194  1.00  0.00     0.004 C 
ENDBRANCH  14  15
ENDBRANCH  13  14
ENDBRANCH  12  13
ENDBRANCH  11  12
ENDBRANCH  10  11
ENDBRANCH   9  10
ENDBRANCH   8   9
ENDBRANCH   7   8
ENDBRANCH   6   7
ENDBRANCH   5   6
ENDBRANCH   4   5
ENDBRANCH   3   4
ENDBRANCH   2   3
ENDBRANCH   1   2
BRANCH   1  17
ATOM     17  C   UNL     1     162.681 174.044 182.242  1.00  0.00     0.000 C 
BRANCH  17  18
ATOM     18  C   UNL     1     161.308 174.365 181.614  1.00  0.00     0.000 C 
BRANCH  18  19
ATOM     19  C   UNL     1     160.108 173.888 182.455  1.00  0.00     0.000 C 
BRANCH  19  20
ATOM     20  C   UNL     1     160.462 172.946 183.621  1.00  0.00     0.000 C 
BRANCH  20  21
ATOM     21  C   UNL     1     160.083 173.464 185.025  1.00  0.00     0.000 C 
BRANCH  21  22
ATOM     22  C   UNL     1     161.252 173.555 186.021  1.00  0.00     0.000 C 
BRANCH  22  23
ATOM     23  C   UNL     1     160.786 173.547 187.487  1.00  0.00     0.000 C 
BRANCH  23  24
ATOM     24  C   UNL     1     160.583 172.122 188.027  1.00  0.00     0.000 C 
BRANCH  24  25
ATOM     25  C   UNL     1     161.914 171.408 188.307  1.00  0.00     0.000 C 
BRANCH  25  26
ATOM     26  C   UNL     1     162.037 170.126 187.477  1.00  0.00     0.000 C 
BRANCH  26  27
ATOM     27  C   UNL     1     160.716 169.809 186.759  1.00  0.00     0.002 C 
BRANCH  27  28
ATOM     28  C   UNL     1     160.888 169.676 185.236  1.00  0.00     0.028 C 
BRANCH  28  29
ATOM     29  C   UNL     1     160.667 168.251 184.719  1.00  0.00     0.156 C 
BRANCH  29  30
ATOM     30  O   UNL     1     160.436 168.267 183.337  1.00  0.00    -0.396 OA
ATOM     31  H   UNL     1     161.311 168.078 182.908  1.00  0.00     0.210 HD
ENDBRANCH  29  30
ENDBRANCH  28  29
ENDBRANCH  27  28
ENDBRANCH  26  27
ENDBRANCH  25  26
ENDBRANCH  24  25
ENDBRANCH  23  24
ENDBRANCH  22  23
ENDBRANCH  21  22
ENDBRANCH  20  21
ENDBRANCH  19  20
ENDBRANCH  18  19
ENDBRANCH  17  18
ENDBRANCH   1  17
TORSDOF 28
ENDMDL
