MODEL 1
REMARK VINA RESULT:    -6.082      0.000      0.000
REMARK INTER + INTRA:          -6.082
REMARK INTER:                  -6.082
REMARK INTRA:                   0.000
REMARK UNBOUND:                 0.000
REMARK SMILES C=C1CCC[C@]2(C)CC(=O)C(=C(C)C)C[C@H]12
REMARK SMILES IDX 13 1 12 2 11 3 15 4 16 5 2 6 1 7 3 8 4 9 5 10 6 11 8 12 9 13
REMARK SMILES IDX 10 14 7 15 14 16
REMARK H PARENT
REMARK Flexibility Score: inf
ROOT
ATOM      1  C   UNL     1       7.145 -15.631  22.061  1.00  0.00     0.039 C 
ATOM      2  C   UNL     1       7.066 -16.483  23.306  1.00  0.00    -0.070 C 
ATOM      3  C   UNL     1       7.861 -17.579  23.472  1.00  0.00    -0.006 C 
ATOM      4  C   UNL     1       7.750 -18.509  24.664  1.00  0.00     0.047 C 
ATOM      5  C   UNL     1       7.504 -19.984  24.240  1.00  0.00     0.025 C 
ATOM      6  C   UNL     1       7.947 -20.895  25.374  1.00  0.00    -0.073 C 
ATOM      7  C   UNL     1       7.147 -21.104  26.432  1.00  0.00     0.008 C 
ATOM      8  C   UNL     1       9.347 -21.459  25.352  1.00  0.00     0.031 C 
ATOM      9  C   UNL     1       9.684 -22.141  24.014  1.00  0.00     0.005 C 
ATOM     10  C   UNL     1       8.670 -21.857  22.890  1.00  0.00     0.008 C 
ATOM     11  C   UNL     1       8.164 -20.386  22.857  1.00  0.00    -0.018 C 
ATOM     12  C   UNL     1       9.341 -19.433  22.491  1.00  0.00     0.088 C 
ATOM     13  C   UNL     1       8.897 -17.999  22.492  1.00  0.00     0.159 C 
ATOM     14  O   UNL     1       9.464 -17.175  21.726  1.00  0.00    -0.295 OA
ATOM     15  C   UNL     1       7.096 -20.305  21.733  1.00  0.00     0.012 C 
ATOM     16  C   UNL     1       6.037 -16.097  24.344  1.00  0.00     0.039 C 
ENDROOT
TORSDOF 0
ENDMDL
MODEL 2
REMARK VINA RESULT:    -6.034      2.734      5.606
REMARK INTER + INTRA:          -6.034
REMARK INTER:                  -6.034
REMARK INTRA:                   0.000
REMARK UNBOUND:                 0.000
REMARK SMILES C=C1CCC[C@]2(C)CC(=O)C(=C(C)C)C[C@H]12
REMARK SMILES IDX 13 1 12 2 11 3 15 4 16 5 2 6 1 7 3 8 4 9 5 10 6 11 8 12 9 13
REMARK SMILES IDX 10 14 7 15 14 16
REMARK H PARENT
REMARK Flexibility Score: inf
ROOT
ATOM      1  C   UNL     1       9.082 -20.700  27.337  1.00  0.00     0.039 C 
ATOM      2  C   UNL     1       9.746 -19.413  26.909  1.00  0.00    -0.070 C 
ATOM      3  C   UNL     1       9.018 -18.346  26.466  1.00  0.00    -0.006 C 
ATOM      4  C   UNL     1       9.650 -17.071  25.945  1.00  0.00     0.047 C 
ATOM      5  C   UNL     1       9.177 -16.725  24.506  1.00  0.00     0.025 C 
ATOM      6  C   UNL     1       9.383 -15.236  24.273  1.00  0.00    -0.073 C 
ATOM      7  C   UNL     1      10.596 -14.759  23.950  1.00  0.00     0.008 C 
ATOM      8  C   UNL     1       8.235 -14.291  24.533  1.00  0.00     0.031 C 
ATOM      9  C   UNL     1       6.943 -14.726  23.817  1.00  0.00     0.005 C 
ATOM     10  C   UNL     1       6.992 -16.155  23.245  1.00  0.00     0.008 C 
ATOM     11  C   UNL     1       7.696 -17.183  24.176  1.00  0.00    -0.018 C 
ATOM     12  C   UNL     1       6.858 -17.375  25.475  1.00  0.00     0.088 C 
ATOM     13  C   UNL     1       7.533 -18.330  26.418  1.00  0.00     0.159 C 
ATOM     14  O   UNL     1       6.831 -19.030  27.195  1.00  0.00    -0.295 OA
ATOM     15  C   UNL     1       7.732 -18.532  23.408  1.00  0.00     0.012 C 
ATOM     16  C   UNL     1      11.256 -19.367  26.948  1.00  0.00     0.039 C 
ENDROOT
TORSDOF 0
ENDMDL
MODEL 3
REMARK VINA RESULT:    -5.953      1.889      5.013
REMARK INTER + INTRA:          -5.953
REMARK INTER:                  -5.953
REMARK INTRA:                   0.000
REMARK UNBOUND:                 0.000
REMARK SMILES C=C1CCC[C@]2(C)CC(=O)C(=C(C)C)C[C@H]12
REMARK SMILES IDX 13 1 12 2 11 3 15 4 16 5 2 6 1 7 3 8 4 9 5 10 6 11 8 12 9 13
REMARK SMILES IDX 10 14 7 15 14 16
REMARK H PARENT
REMARK Flexibility Score: inf
ROOT
ATOM      1  C   UNL     1       8.498 -21.580  23.262  1.00  0.00     0.039 C 
ATOM      2  C   UNL     1       7.858 -20.283  22.826  1.00  0.00    -0.070 C 
ATOM      3  C   UNL     1       8.236 -19.086  23.361  1.00  0.00    -0.006 C 
ATOM      4  C   UNL     1       7.559 -17.774  23.016  1.00  0.00     0.047 C 
ATOM      5  C   UNL     1       7.023 -17.039  24.276  1.00  0.00     0.025 C 
ATOM      6  C   UNL     1       6.877 -15.561  23.950  1.00  0.00    -0.073 C 
ATOM      7  C   UNL     1       5.804 -15.115  23.276  1.00  0.00     0.008 C 
ATOM      8  C   UNL     1       8.013 -14.625  24.282  1.00  0.00     0.031 C 
ATOM      9  C   UNL     1       8.478 -14.762  25.743  1.00  0.00     0.005 C 
ATOM     10  C   UNL     1       7.917 -15.999  26.469  1.00  0.00     0.008 C 
ATOM     11  C   UNL     1       7.877 -17.281  25.588  1.00  0.00    -0.018 C 
ATOM     12  C   UNL     1       9.329 -17.728  25.246  1.00  0.00     0.088 C 
ATOM     13  C   UNL     1       9.328 -18.940  24.360  1.00  0.00     0.159 C 
ATOM     14  O   UNL     1      10.285 -19.757  24.427  1.00  0.00    -0.295 OA
ATOM     15  C   UNL     1       7.207 -18.390  26.443  1.00  0.00     0.012 C 
ATOM     16  C   UNL     1       6.749 -20.368  21.803  1.00  0.00     0.039 C 
ENDROOT
TORSDOF 0
ENDMDL
MODEL 4
REMARK VINA RESULT:    -5.885      2.089      3.733
REMARK INTER + INTRA:          -5.885
REMARK INTER:                  -5.885
REMARK INTRA:                   0.000
REMARK UNBOUND:                 0.000
REMARK SMILES C=C1CCC[C@]2(C)CC(=O)C(=C(C)C)C[C@H]12
REMARK SMILES IDX 13 1 12 2 11 3 15 4 16 5 2 6 1 7 3 8 4 9 5 10 6 11 8 12 9 13
REMARK SMILES IDX 10 14 7 15 14 16
REMARK H PARENT
REMARK Flexibility Score: inf
ROOT
ATOM      1  C   UNL     1       7.169 -17.814  26.155  1.00  0.00     0.039 C 
ATOM      2  C   UNL     1       7.092 -17.952  24.653  1.00  0.00    -0.070 C 
ATOM      3  C   UNL     1       7.269 -19.156  24.037  1.00  0.00    -0.006 C 
ATOM      4  C   UNL     1       7.287 -19.320  22.530  1.00  0.00     0.047 C 
ATOM      5  C   UNL     1       8.596 -19.991  22.026  1.00  0.00     0.025 C 
ATOM      6  C   UNL     1       8.329 -20.612  20.664  1.00  0.00    -0.073 C 
ATOM      7  C   UNL     1       8.335 -19.851  19.556  1.00  0.00     0.008 C 
ATOM      8  C   UNL     1       7.934 -22.066  20.589  1.00  0.00     0.031 C 
ATOM      9  C   UNL     1       8.904 -22.978  21.363  1.00  0.00     0.005 C 
ATOM     10  C   UNL     1       9.880 -22.222  22.283  1.00  0.00     0.008 C 
ATOM     11  C   UNL     1       9.232 -21.028  23.042  1.00  0.00    -0.018 C 
ATOM     12  C   UNL     1       8.171 -21.559  24.051  1.00  0.00     0.088 C 
ATOM     13  C   UNL     1       7.494 -20.429  24.771  1.00  0.00     0.159 C 
ATOM     14  O   UNL     1       7.065 -20.610  25.941  1.00  0.00    -0.295 OA
ATOM     15  C   UNL     1      10.369 -20.336  23.841  1.00  0.00     0.012 C 
ATOM     16  C   UNL     1       6.853 -16.691  23.855  1.00  0.00     0.039 C 
ENDROOT
TORSDOF 0
ENDMDL
MODEL 5
REMARK VINA RESULT:    -5.880      1.766      3.248
REMARK INTER + INTRA:          -5.880
REMARK INTER:                  -5.880
REMARK INTRA:                   0.000
REMARK UNBOUND:                 0.000
REMARK SMILES C=C1CCC[C@]2(C)CC(=O)C(=C(C)C)C[C@H]12
REMARK SMILES IDX 13 1 12 2 11 3 15 4 16 5 2 6 1 7 3 8 4 9 5 10 6 11 8 12 9 13
REMARK SMILES IDX 10 14 7 15 14 16
REMARK H PARENT
REMARK Flexibility Score: inf
ROOT
ATOM      1  C   UNL     1       7.182 -15.081  21.907  1.00  0.00     0.039 C 
ATOM      2  C   UNL     1       7.361 -16.581  21.894  1.00  0.00    -0.070 C 
ATOM      3  C   UNL     1       7.172 -17.333  23.018  1.00  0.00    -0.006 C 
ATOM      4  C   UNL     1       7.428 -18.826  23.067  1.00  0.00     0.047 C 
ATOM      5  C   UNL     1       8.441 -19.213  24.181  1.00  0.00     0.025 C 
ATOM      6  C   UNL     1       8.232 -20.677  24.538  1.00  0.00    -0.073 C 
ATOM      7  C   UNL     1       8.759 -21.646  23.771  1.00  0.00     0.008 C 
ATOM      8  C   UNL     1       7.322 -21.024  25.691  1.00  0.00     0.031 C 
ATOM      9  C   UNL     1       7.679 -20.252  26.974  1.00  0.00     0.005 C 
ATOM     10  C   UNL     1       8.667 -19.091  26.754  1.00  0.00     0.008 C 
ATOM     11  C   UNL     1       8.401 -18.275  25.457  1.00  0.00    -0.018 C 
ATOM     12  C   UNL     1       7.037 -17.532  25.573  1.00  0.00     0.088 C 
ATOM     13  C   UNL     1       6.728 -16.768  24.318  1.00  0.00     0.159 C 
ATOM     14  O   UNL     1       6.036 -15.717  24.389  1.00  0.00    -0.295 OA
ATOM     15  C   UNL     1       9.532 -17.216  25.354  1.00  0.00     0.012 C 
ATOM     16  C   UNL     1       7.802 -17.214  20.594  1.00  0.00     0.039 C 
ENDROOT
TORSDOF 0
ENDMDL
MODEL 6
REMARK VINA RESULT:    -5.782      1.753      4.622
REMARK INTER + INTRA:          -5.782
REMARK INTER:                  -5.782
REMARK INTRA:                   0.000
REMARK UNBOUND:                 0.000
REMARK SMILES C=C1CCC[C@]2(C)CC(=O)C(=C(C)C)C[C@H]12
REMARK SMILES IDX 13 1 12 2 11 3 15 4 16 5 2 6 1 7 3 8 4 9 5 10 6 11 8 12 9 13
REMARK SMILES IDX 10 14 7 15 14 16
REMARK H PARENT
REMARK Flexibility Score: inf
ROOT
ATOM      1  C   UNL     1       9.037 -21.455  20.723  1.00  0.00     0.039 C 
ATOM      2  C   UNL     1       8.438 -20.996  22.031  1.00  0.00    -0.070 C 
ATOM      3  C   UNL     1       7.839 -19.775  22.152  1.00  0.00    -0.006 C 
ATOM      4  C   UNL     1       7.305 -19.242  23.467  1.00  0.00     0.047 C 
ATOM      5  C   UNL     1       7.927 -17.868  23.841  1.00  0.00     0.025 C 
ATOM      6  C   UNL     1       6.992 -17.161  24.810  1.00  0.00    -0.073 C 
ATOM      7  C   UNL     1       6.997 -17.478  26.115  1.00  0.00     0.008 C 
ATOM      8  C   UNL     1       5.974 -16.190  24.264  1.00  0.00     0.031 C 
ATOM      9  C   UNL     1       6.606 -15.137  23.334  1.00  0.00     0.005 C 
ATOM     10  C   UNL     1       8.054 -15.456  22.917  1.00  0.00     0.008 C 
ATOM     11  C   UNL     1       8.301 -16.958  22.599  1.00  0.00    -0.018 C 
ATOM     12  C   UNL     1       7.493 -17.368  21.331  1.00  0.00     0.088 C 
ATOM     13  C   UNL     1       7.675 -18.825  21.021  1.00  0.00     0.159 C 
ATOM     14  O   UNL     1       7.603 -19.216  19.825  1.00  0.00    -0.295 OA
ATOM     15  C   UNL     1       9.815 -17.107  22.287  1.00  0.00     0.012 C 
ATOM     16  C   UNL     1       8.565 -21.926  23.214  1.00  0.00     0.039 C 
ENDROOT
TORSDOF 0
ENDMDL
MODEL 7
REMARK VINA RESULT:    -5.782      2.021      3.176
REMARK INTER + INTRA:          -5.782
REMARK INTER:                  -5.782
REMARK INTRA:                   0.000
REMARK UNBOUND:                 0.000
REMARK SMILES C=C1CCC[C@]2(C)CC(=O)C(=C(C)C)C[C@H]12
REMARK SMILES IDX 13 1 12 2 11 3 15 4 16 5 2 6 1 7 3 8 4 9 5 10 6 11 8 12 9 13
REMARK SMILES IDX 10 14 7 15 14 16
REMARK H PARENT
REMARK Flexibility Score: inf
ROOT
ATOM      1  C   UNL     1       7.883 -13.954  24.409  1.00  0.00     0.039 C 
ATOM      2  C   UNL     1       7.418 -15.233  23.752  1.00  0.00    -0.070 C 
ATOM      3  C   UNL     1       7.461 -16.429  24.409  1.00  0.00    -0.006 C 
ATOM      4  C   UNL     1       7.087 -17.745  23.757  1.00  0.00     0.047 C 
ATOM      5  C   UNL     1       8.235 -18.789  23.837  1.00  0.00     0.025 C 
ATOM      6  C   UNL     1       7.637 -20.180  23.689  1.00  0.00    -0.073 C 
ATOM      7  C   UNL     1       7.330 -20.663  22.474  1.00  0.00     0.008 C 
ATOM      8  C   UNL     1       7.278 -20.955  24.933  1.00  0.00     0.031 C 
ATOM      9  C   UNL     1       8.442 -21.025  25.938  1.00  0.00     0.005 C 
ATOM     10  C   UNL     1       9.604 -20.065  25.622  1.00  0.00     0.008 C 
ATOM     11  C   UNL     1       9.145 -18.663  25.127  1.00  0.00    -0.018 C 
ATOM     12  C   UNL     1       8.403 -17.918  26.276  1.00  0.00     0.088 C 
ATOM     13  C   UNL     1       7.908 -16.576  25.819  1.00  0.00     0.159 C 
ATOM     14  O   UNL     1       7.807 -15.637  26.653  1.00  0.00    -0.295 OA
ATOM     15  C   UNL     1      10.433 -17.869  24.776  1.00  0.00     0.012 C 
ATOM     16  C   UNL     1       6.942 -15.142  22.321  1.00  0.00     0.039 C 
ENDROOT
TORSDOF 0
ENDMDL
MODEL 8
REMARK VINA RESULT:    -5.671      2.626      4.223
REMARK INTER + INTRA:          -5.671
REMARK INTER:                  -5.671
REMARK INTRA:                   0.000
REMARK UNBOUND:                 0.000
REMARK SMILES C=C1CCC[C@]2(C)CC(=O)C(=C(C)C)C[C@H]12
REMARK SMILES IDX 13 1 12 2 11 3 15 4 16 5 2 6 1 7 3 8 4 9 5 10 6 11 8 12 9 13
REMARK SMILES IDX 10 14 7 15 14 16
REMARK H PARENT
REMARK Flexibility Score: inf
ROOT
ATOM      1  C   UNL     1       6.268 -14.396  21.294  1.00  0.00     0.039 C 
ATOM      2  C   UNL     1       7.124 -15.638  21.366  1.00  0.00    -0.070 C 
ATOM      3  C   UNL     1       7.462 -16.204  22.561  1.00  0.00    -0.006 C 
ATOM      4  C   UNL     1       8.390 -17.397  22.679  1.00  0.00     0.047 C 
ATOM      5  C   UNL     1       9.606 -17.108  23.603  1.00  0.00     0.025 C 
ATOM      6  C   UNL     1      10.157 -18.432  24.109  1.00  0.00    -0.073 C 
ATOM      7  C   UNL     1      10.967 -19.173  23.335  1.00  0.00     0.008 C 
ATOM      8  C   UNL     1       9.679 -18.960  25.440  1.00  0.00     0.031 C 
ATOM      9  C   UNL     1       9.803 -17.915  26.564  1.00  0.00     0.005 C 
ATOM     10  C   UNL     1      10.093 -16.487  26.066  1.00  0.00     0.008 C 
ATOM     11  C   UNL     1       9.304 -16.095  24.784  1.00  0.00    -0.018 C 
ATOM     12  C   UNL     1       7.781 -16.031  25.102  1.00  0.00     0.088 C 
ATOM     13  C   UNL     1       6.985 -15.697  23.874  1.00  0.00     0.159 C 
ATOM     14  O   UNL     1       5.898 -15.070  23.993  1.00  0.00    -0.295 OA
ATOM     15  C   UNL     1       9.784 -14.674  24.380  1.00  0.00     0.012 C 
ATOM     16  C   UNL     1       7.630 -16.206  20.060  1.00  0.00     0.039 C 
ENDROOT
TORSDOF 0
ENDMDL
MODEL 9
REMARK VINA RESULT:    -5.656      1.752      4.604
REMARK INTER + INTRA:          -5.656
REMARK INTER:                  -5.656
REMARK INTRA:                   0.000
REMARK UNBOUND:                 0.000
REMARK SMILES C=C1CCC[C@]2(C)CC(=O)C(=C(C)C)C[C@H]12
REMARK SMILES IDX 13 1 12 2 11 3 15 4 16 5 2 6 1 7 3 8 4 9 5 10 6 11 8 12 9 13
REMARK SMILES IDX 10 14 7 15 14 16
REMARK H PARENT
REMARK Flexibility Score: inf
ROOT
ATOM      1  C   UNL     1       9.429 -23.012  21.351  1.00  0.00     0.039 C 
ATOM      2  C   UNL     1       9.446 -22.371  22.719  1.00  0.00    -0.070 C 
ATOM      3  C   UNL     1       8.640 -21.312  23.021  1.00  0.00    -0.006 C 
ATOM      4  C   UNL     1       8.691 -20.586  24.351  1.00  0.00     0.047 C 
ATOM      5  C   UNL     1       8.951 -19.063  24.181  1.00  0.00     0.025 C 
ATOM      6  C   UNL     1       8.452 -18.345  25.425  1.00  0.00    -0.073 C 
ATOM      7  C   UNL     1       9.201 -18.312  26.539  1.00  0.00     0.008 C 
ATOM      8  C   UNL     1       7.053 -17.779  25.428  1.00  0.00     0.031 C 
ATOM      9  C   UNL     1       6.776 -16.890  24.202  1.00  0.00     0.005 C 
ATOM     10  C   UNL     1       7.842 -16.994  23.096  1.00  0.00     0.008 C 
ATOM     11  C   UNL     1       8.355 -18.443  22.851  1.00  0.00    -0.018 C 
ATOM     12  C   UNL     1       7.200 -19.320  22.282  1.00  0.00     0.088 C 
ATOM     13  C   UNL     1       7.650 -20.737  22.074  1.00  0.00     0.159 C 
ATOM     14  O   UNL     1       7.122 -21.425  21.160  1.00  0.00    -0.295 OA
ATOM     15  C   UNL     1       9.475 -18.346  21.780  1.00  0.00     0.012 C 
ATOM     16  C   UNL     1      10.426 -22.922  23.728  1.00  0.00     0.039 C 
ENDROOT
TORSDOF 0
ENDMDL
