MODEL 1
REMARK VINA RESULT:    -1.811      0.000      0.000
REMARK INTER + INTRA:          -1.811
REMARK INTER:                  -1.811
REMARK INTRA:                   0.000
REMARK UNBOUND:                 0.000
REMARK SMILES CC(=O)[O-]
REMARK SMILES IDX 1 1 2 2 3 3 4 4
REMARK H PARENT
REMARK Flexibility Score: inf
ROOT
ATOM      1  C   UNL     1       1.374  16.552   9.600  1.00  0.00     0.063 C 
ATOM      2  C   UNL     1       0.998  15.217   9.053  1.00  0.00     0.038 C 
ATOM      3  O   UNL     1       1.788  14.603   8.290  1.00  0.00    -0.550 OA
ATOM      4  O   UNL     1      -0.248  14.673   9.340  1.00  0.00    -0.550 OA
ENDROOT
TORSDOF 0
ENDMDL
MODEL 2
REMARK VINA RESULT:    -1.788      1.469      1.767
REMARK INTER + INTRA:          -1.788
REMARK INTER:                  -1.788
REMARK INTRA:                   0.000
REMARK UNBOUND:                 0.000
REMARK SMILES CC(=O)[O-]
REMARK SMILES IDX 1 1 2 2 3 3 4 4
REMARK H PARENT
REMARK Flexibility Score: inf
ROOT
ATOM      1  C   UNL     1       1.481  17.352   9.725  1.00  0.00     0.063 C 
ATOM      2  C   UNL     1       1.429  15.863   9.797  1.00  0.00     0.038 C 
ATOM      3  O   UNL     1       0.618  15.225   9.078  1.00  0.00    -0.550 OA
ATOM      4  O   UNL     1       2.239  15.181  10.697  1.00  0.00    -0.550 OA
ENDROOT
TORSDOF 0
ENDMDL
MODEL 3
REMARK VINA RESULT:    -1.778      2.575      3.033
REMARK INTER + INTRA:          -1.778
REMARK INTER:                  -1.778
REMARK INTRA:                   0.000
REMARK UNBOUND:                 0.000
REMARK SMILES CC(=O)[O-]
REMARK SMILES IDX 1 1 2 2 3 3 4 4
REMARK H PARENT
REMARK Flexibility Score: inf
ROOT
ATOM      1  C   UNL     1       1.751  14.585   8.524  1.00  0.00     0.063 C 
ATOM      2  C   UNL     1       2.533  13.841   7.495  1.00  0.00     0.038 C 
ATOM      3  O   UNL     1       2.075  13.704   6.331  1.00  0.00    -0.550 OA
ATOM      4  O   UNL     1       3.745  13.252   7.834  1.00  0.00    -0.550 OA
ENDROOT
TORSDOF 0
ENDMDL
MODEL 4
REMARK VINA RESULT:    -1.772      1.306      1.702
REMARK INTER + INTRA:          -1.772
REMARK INTER:                  -1.772
REMARK INTRA:                   0.000
REMARK UNBOUND:                 0.000
REMARK SMILES CC(=O)[O-]
REMARK SMILES IDX 1 1 2 2 3 3 4 4
REMARK H PARENT
REMARK Flexibility Score: inf
ROOT
ATOM      1  C   UNL     1       1.976  14.309   8.221  1.00  0.00     0.063 C 
ATOM      2  C   UNL     1       1.011  15.115   9.023  1.00  0.00     0.038 C 
ATOM      3  O   UNL     1       1.350  16.241   9.472  1.00  0.00    -0.550 OA
ATOM      4  O   UNL     1      -0.245  14.602   9.323  1.00  0.00    -0.550 OA
ENDROOT
TORSDOF 0
ENDMDL
MODEL 5
REMARK VINA RESULT:    -1.769      2.425      2.934
REMARK INTER + INTRA:          -1.769
REMARK INTER:                  -1.769
REMARK INTRA:                   0.000
REMARK UNBOUND:                 0.000
REMARK SMILES CC(=O)[O-]
REMARK SMILES IDX 1 1 2 2 3 3 4 4
REMARK H PARENT
REMARK Flexibility Score: inf
ROOT
ATOM      1  C   UNL     1       3.614  13.206   8.020  1.00  0.00     0.063 C 
ATOM      2  C   UNL     1       2.394  13.880   7.489  1.00  0.00     0.038 C 
ATOM      3  O   UNL     1       2.064  13.729   6.285  1.00  0.00    -0.550 OA
ATOM      4  O   UNL     1       1.651  14.720   8.309  1.00  0.00    -0.550 OA
ENDROOT
TORSDOF 0
ENDMDL
MODEL 6
REMARK VINA RESULT:    -1.700      3.298      3.643
REMARK INTER + INTRA:          -1.700
REMARK INTER:                  -1.700
REMARK INTRA:                   0.000
REMARK UNBOUND:                 0.000
REMARK SMILES CC(=O)[O-]
REMARK SMILES IDX 1 1 2 2 3 3 4 4
REMARK H PARENT
REMARK Flexibility Score: inf
ROOT
ATOM      1  C   UNL     1       2.664  13.881   7.319  1.00  0.00     0.063 C 
ATOM      2  C   UNL     1       3.543  13.169   8.292  1.00  0.00     0.038 C 
ATOM      3  O   UNL     1       4.222  12.177   7.921  1.00  0.00    -0.550 OA
ATOM      4  O   UNL     1       3.572  13.566   9.623  1.00  0.00    -0.550 OA
ENDROOT
TORSDOF 0
ENDMDL
MODEL 7
REMARK VINA RESULT:    -1.651      6.425      6.740
REMARK INTER + INTRA:          -1.651
REMARK INTER:                  -1.651
REMARK INTRA:                   0.000
REMARK UNBOUND:                 0.000
REMARK SMILES CC(=O)[O-]
REMARK SMILES IDX 1 1 2 2 3 3 4 4
REMARK H PARENT
REMARK Flexibility Score: inf
ROOT
ATOM      1  C   UNL     1       5.837  13.815  11.119  1.00  0.00     0.063 C 
ATOM      2  C   UNL     1       6.745  12.646  11.301  1.00  0.00     0.038 C 
ATOM      3  O   UNL     1       7.955  12.729  10.964  1.00  0.00    -0.550 OA
ATOM      4  O   UNL     1       6.246  11.446  11.792  1.00  0.00    -0.550 OA
ENDROOT
TORSDOF 0
ENDMDL
MODEL 8
REMARK VINA RESULT:    -1.589      4.223      4.639
REMARK INTER + INTRA:          -1.589
REMARK INTER:                  -1.589
REMARK INTRA:                   0.000
REMARK UNBOUND:                 0.000
REMARK SMILES CC(=O)[O-]
REMARK SMILES IDX 1 1 2 2 3 3 4 4
REMARK H PARENT
REMARK Flexibility Score: inf
ROOT
ATOM      1  C   UNL     1       5.687  13.885  11.186  1.00  0.00     0.063 C 
ATOM      2  C   UNL     1       4.604  13.297  10.347  1.00  0.00     0.038 C 
ATOM      3  O   UNL     1       3.506  13.899  10.221  1.00  0.00    -0.550 OA
ATOM      4  O   UNL     1       4.784  12.058   9.745  1.00  0.00    -0.550 OA
ENDROOT
TORSDOF 0
ENDMDL
MODEL 9
REMARK VINA RESULT:    -1.563      4.660      4.841
REMARK INTER + INTRA:          -1.563
REMARK INTER:                  -1.563
REMARK INTRA:                   0.000
REMARK UNBOUND:                 0.000
REMARK SMILES CC(=O)[O-]
REMARK SMILES IDX 1 1 2 2 3 3 4 4
REMARK H PARENT
REMARK Flexibility Score: inf
ROOT
ATOM      1  C   UNL     1       5.713  13.709  11.261  1.00  0.00     0.063 C 
ATOM      2  C   UNL     1       4.404  14.243  11.737  1.00  0.00     0.038 C 
ATOM      3  O   UNL     1       3.364  14.067  11.051  1.00  0.00    -0.550 OA
ATOM      4  O   UNL     1       4.339  14.981  12.912  1.00  0.00    -0.550 OA
ENDROOT
TORSDOF 0
ENDMDL
