MODEL 1
REMARK VINA RESULT:    -3.856      0.000      0.000
REMARK INTER + INTRA:          -8.805
REMARK INTER:                  -7.238
REMARK INTRA:                  -1.567
REMARK UNBOUND:                -1.567
REMARK SMILES O=C([O-])CCCCCCCCCCCCCCC(=O)[O-]
REMARK SMILES IDX 10 1 9 2 8 3 7 4 6 5 5 6 4 7 2 8 1 9 3 10 11 11 12 12 13 13
REMARK SMILES IDX 14 14 15 15 16 16 17 17 18 18 19 19 20 20
REMARK H PARENT
REMARK Flexibility Score: inf
ROOT
ATOM      1  C   UNL     1     -92.026 145.979 238.583  1.00  0.00     0.000 C 
ENDROOT
BRANCH   1   2
ATOM      2  C   UNL     1     -93.371 146.445 239.178  1.00  0.00     0.000 C 
BRANCH   2   3
ATOM      3  C   UNL     1     -93.440 147.962 239.431  1.00  0.00     0.000 C 
BRANCH   3   4
ATOM      4  C   UNL     1     -94.554 148.648 238.629  1.00  0.00     0.000 C 
BRANCH   4   5
ATOM      5  C   UNL     1     -95.883 148.634 239.398  1.00  0.00     0.000 C 
BRANCH   5   6
ATOM      6  C   UNL     1     -95.746 149.154 240.840  1.00  0.00     0.006 C 
BRANCH   6   7
ATOM      7  C   UNL     1     -96.845 148.652 241.795  1.00  0.00     0.053 C 
BRANCH   7   8
ATOM      8  C   UNL     1     -97.789 149.738 242.216  1.00  0.00     0.041 C 
ATOM      9  O   UNL     1     -98.325 150.484 241.355  1.00  0.00    -0.550 OA
ATOM     10  O   UNL     1     -98.051 149.949 243.564  1.00  0.00    -0.550 OA
ENDBRANCH   7   8
ENDBRANCH   6   7
ENDBRANCH   5   6
ENDBRANCH   4   5
ENDBRANCH   3   4
ENDBRANCH   2   3
ENDBRANCH   1   2
BRANCH   1  11
ATOM     11  C   UNL     1     -92.051 145.943 237.044  1.00  0.00     0.000 C 
BRANCH  11  12
ATOM     12  C   UNL     1     -93.471 145.793 236.475  1.00  0.00     0.000 C 
BRANCH  12  13
ATOM     13  C   UNL     1     -93.870 146.968 235.566  1.00  0.00     0.000 C 
BRANCH  13  14
ATOM     14  C   UNL     1     -95.332 146.884 235.100  1.00  0.00     0.000 C 
BRANCH  14  15
ATOM     15  C   UNL     1     -96.019 148.257 235.044  1.00  0.00     0.000 C 
BRANCH  15  16
ATOM     16  C   UNL     1     -94.996 149.372 234.781  1.00  0.00     0.006 C 
BRANCH  16  17
ATOM     17  C   UNL     1     -95.299 150.642 235.587  1.00  0.00     0.053 C 
BRANCH  17  18
ATOM     18  C   UNL     1     -95.778 151.757 234.708  1.00  0.00     0.041 C 
ATOM     19  O   UNL     1     -95.656 151.675 233.457  1.00  0.00    -0.550 OA
ATOM     20  O   UNL     1     -96.326 152.902 235.272  1.00  0.00    -0.550 OA
ENDBRANCH  17  18
ENDBRANCH  16  17
ENDBRANCH  15  16
ENDBRANCH  14  15
ENDBRANCH  13  14
ENDBRANCH  12  13
ENDBRANCH  11  12
ENDBRANCH   1  11
TORSDOF 15
ENDMDL
MODEL 2
REMARK VINA RESULT:    -3.835      2.106      6.671
REMARK INTER + INTRA:          -8.766
REMARK INTER:                  -7.422
REMARK INTRA:                  -1.344
REMARK UNBOUND:                -1.567
REMARK SMILES O=C([O-])CCCCCCCCCCCCCCC(=O)[O-]
REMARK SMILES IDX 10 1 9 2 8 3 7 4 6 5 5 6 4 7 2 8 1 9 3 10 11 11 12 12 13 13
REMARK SMILES IDX 14 14 15 15 16 16 17 17 18 18 19 19 20 20
REMARK H PARENT
REMARK Flexibility Score: inf
ROOT
ATOM      1  C   UNL     1     -96.495 148.686 237.584  1.00  0.00     0.000 C 
ENDROOT
BRANCH   1   2
ATOM      2  C   UNL     1     -97.024 149.638 236.490  1.00  0.00     0.000 C 
BRANCH   2   3
ATOM      3  C   UNL     1     -96.061 149.805 235.301  1.00  0.00     0.000 C 
BRANCH   3   4
ATOM      4  C   UNL     1     -95.548 151.243 235.148  1.00  0.00     0.000 C 
BRANCH   4   5
ATOM      5  C   UNL     1     -96.168 151.927 233.922  1.00  0.00     0.000 C 
BRANCH   5   6
ATOM      6  C   UNL     1     -97.233 152.974 234.295  1.00  0.00     0.006 C 
BRANCH   6   7
ATOM      7  C   UNL     1     -96.858 153.846 235.507  1.00  0.00     0.053 C 
BRANCH   7   8
ATOM      8  C   UNL     1     -97.709 155.075 235.625  1.00  0.00     0.041 C 
ATOM      9  O   UNL     1     -98.949 154.974 235.819  1.00  0.00    -0.550 OA
ATOM     10  O   UNL     1     -97.136 156.334 235.485  1.00  0.00    -0.550 OA
ENDBRANCH   7   8
ENDBRANCH   6   7
ENDBRANCH   5   6
ENDBRANCH   4   5
ENDBRANCH   3   4
ENDBRANCH   2   3
ENDBRANCH   1   2
BRANCH   1  11
ATOM     11  C   UNL     1     -95.016 148.951 237.921  1.00  0.00     0.000 C 
BRANCH  11  12
ATOM     12  C   UNL     1     -94.190 147.661 238.035  1.00  0.00     0.000 C 
BRANCH  12  13
ATOM     13  C   UNL     1     -93.429 147.563 239.368  1.00  0.00     0.000 C 
BRANCH  13  14
ATOM     14  C   UNL     1     -94.178 148.240 240.526  1.00  0.00     0.000 C 
BRANCH  14  15
ATOM     15  C   UNL     1     -95.098 147.272 241.287  1.00  0.00     0.000 C 
BRANCH  15  16
ATOM     16  C   UNL     1     -96.452 147.928 241.593  1.00  0.00     0.006 C 
BRANCH  16  17
ATOM     17  C   UNL     1     -96.425 149.447 241.380  1.00  0.00     0.053 C 
BRANCH  17  18
ATOM     18  C   UNL     1     -97.779 150.059 241.571  1.00  0.00     0.041 C 
ATOM     19  O   UNL     1     -98.305 150.091 242.715  1.00  0.00    -0.550 OA
ATOM     20  O   UNL     1     -98.475 150.564 240.480  1.00  0.00    -0.550 OA
ENDBRANCH  17  18
ENDBRANCH  16  17
ENDBRANCH  15  16
ENDBRANCH  14  15
ENDBRANCH  13  14
ENDBRANCH  12  13
ENDBRANCH  11  12
ENDBRANCH   1  11
TORSDOF 15
ENDMDL
MODEL 3
REMARK VINA RESULT:    -3.806      1.427      2.189
REMARK INTER + INTRA:          -8.710
REMARK INTER:                  -7.378
REMARK INTRA:                  -1.332
REMARK UNBOUND:                -1.567
REMARK SMILES O=C([O-])CCCCCCCCCCCCCCC(=O)[O-]
REMARK SMILES IDX 10 1 9 2 8 3 7 4 6 5 5 6 4 7 2 8 1 9 3 10 11 11 12 12 13 13
REMARK SMILES IDX 14 14 15 15 16 16 17 17 18 18 19 19 20 20
REMARK H PARENT
REMARK Flexibility Score: inf
ROOT
ATOM      1  C   UNL     1     -93.721 146.038 240.201  1.00  0.00     0.000 C 
ENDROOT
BRANCH   1   2
ATOM      2  C   UNL     1     -94.721 146.834 241.067  1.00  0.00     0.000 C 
BRANCH   2   3
ATOM      3  C   UNL     1     -94.718 148.345 240.777  1.00  0.00     0.000 C 
BRANCH   3   4
ATOM      4  C   UNL     1     -96.121 148.898 240.489  1.00  0.00     0.000 C 
BRANCH   4   5
ATOM      5  C   UNL     1     -96.528 149.951 241.529  1.00  0.00     0.000 C 
BRANCH   5   6
ATOM      6  C   UNL     1     -97.941 149.718 242.095  1.00  0.00     0.006 C 
BRANCH   6   7
ATOM      7  C   UNL     1     -98.006 148.642 243.194  1.00  0.00     0.053 C 
BRANCH   7   8
ATOM      8  C   UNL     1     -98.507 149.178 244.502  1.00  0.00     0.041 C 
ATOM      9  O   UNL     1     -98.383 150.400 244.779  1.00  0.00    -0.550 OA
ATOM     10  O   UNL     1     -99.081 148.319 245.432  1.00  0.00    -0.550 OA
ENDBRANCH   7   8
ENDBRANCH   6   7
ENDBRANCH   5   6
ENDBRANCH   4   5
ENDBRANCH   3   4
ENDBRANCH   2   3
ENDBRANCH   1   2
BRANCH   1  11
ATOM     11  C   UNL     1     -93.125 146.892 239.066  1.00  0.00     0.000 C 
BRANCH  11  12
ATOM     12  C   UNL     1     -93.130 146.168 237.711  1.00  0.00     0.000 C 
BRANCH  12  13
ATOM     13  C   UNL     1     -93.821 146.988 236.608  1.00  0.00     0.000 C 
BRANCH  13  14
ATOM     14  C   UNL     1     -95.134 147.630 237.084  1.00  0.00     0.000 C 
BRANCH  14  15
ATOM     15  C   UNL     1     -95.081 149.166 237.079  1.00  0.00     0.000 C 
BRANCH  15  16
ATOM     16  C   UNL     1     -96.029 149.744 236.019  1.00  0.00     0.006 C 
BRANCH  16  17
ATOM     17  C   UNL     1     -95.286 150.189 234.753  1.00  0.00     0.053 C 
BRANCH  17  18
ATOM     18  C   UNL     1     -95.663 151.580 234.345  1.00  0.00     0.041 C 
ATOM     19  O   UNL     1     -95.999 152.426 235.216  1.00  0.00    -0.550 OA
ATOM     20  O   UNL     1     -95.679 151.933 233.003  1.00  0.00    -0.550 OA
ENDBRANCH  17  18
ENDBRANCH  16  17
ENDBRANCH  15  16
ENDBRANCH  14  15
ENDBRANCH  13  14
ENDBRANCH  12  13
ENDBRANCH  11  12
ENDBRANCH   1  11
TORSDOF 15
ENDMDL
MODEL 4
REMARK VINA RESULT:    -3.800      1.567      2.357
REMARK INTER + INTRA:          -8.699
REMARK INTER:                  -7.428
REMARK INTRA:                  -1.271
REMARK UNBOUND:                -1.567
REMARK SMILES O=C([O-])CCCCCCCCCCCCCCC(=O)[O-]
REMARK SMILES IDX 10 1 9 2 8 3 7 4 6 5 5 6 4 7 2 8 1 9 3 10 11 11 12 12 13 13
REMARK SMILES IDX 14 14 15 15 16 16 17 17 18 18 19 19 20 20
REMARK H PARENT
REMARK Flexibility Score: inf
ROOT
ATOM      1  C   UNL     1     -93.365 146.375 239.225  1.00  0.00     0.000 C 
ENDROOT
BRANCH   1   2
ATOM      2  C   UNL     1     -93.538 147.888 239.481  1.00  0.00     0.000 C 
BRANCH   2   3
ATOM      3  C   UNL     1     -94.713 148.512 238.708  1.00  0.00     0.000 C 
BRANCH   3   4
ATOM      4  C   UNL     1     -95.969 148.685 239.573  1.00  0.00     0.000 C 
BRANCH   4   5
ATOM      5  C   UNL     1     -95.638 149.376 240.903  1.00  0.00     0.000 C 
BRANCH   5   6
ATOM      6  C   UNL     1     -96.893 149.752 241.711  1.00  0.00     0.006 C 
BRANCH   6   7
ATOM      7  C   UNL     1     -97.903 148.601 241.873  1.00  0.00     0.053 C 
BRANCH   7   8
ATOM      8  C   UNL     1     -97.577 147.701 243.028  1.00  0.00     0.041 C 
ATOM      9  O   UNL     1     -97.906 148.025 244.199  1.00  0.00    -0.550 OA
ATOM     10  O   UNL     1     -96.880 146.519 242.813  1.00  0.00    -0.550 OA
ENDBRANCH   7   8
ENDBRANCH   6   7
ENDBRANCH   5   6
ENDBRANCH   4   5
ENDBRANCH   3   4
ENDBRANCH   2   3
ENDBRANCH   1   2
BRANCH   1  11
ATOM     11  C   UNL     1     -91.895 145.992 238.971  1.00  0.00     0.000 C 
BRANCH  11  12
ATOM     12  C   UNL     1     -91.628 145.593 237.512  1.00  0.00     0.000 C 
BRANCH  12  13
ATOM     13  C   UNL     1     -92.803 145.936 236.581  1.00  0.00     0.000 C 
BRANCH  13  14
ATOM     14  C   UNL     1     -92.397 145.956 235.099  1.00  0.00     0.000 C 
BRANCH  14  15
ATOM     15  C   UNL     1     -93.099 147.068 234.304  1.00  0.00     0.000 C 
BRANCH  15  16
ATOM     16  C   UNL     1     -94.243 147.688 235.120  1.00  0.00     0.006 C 
BRANCH  16  17
ATOM     17  C   UNL     1     -94.978 148.790 234.348  1.00  0.00     0.053 C 
BRANCH  17  18
ATOM     18  C   UNL     1     -95.754 149.688 235.262  1.00  0.00     0.041 C 
ATOM     19  O   UNL     1     -96.851 149.302 235.748  1.00  0.00    -0.550 OA
ATOM     20  O   UNL     1     -95.285 150.962 235.551  1.00  0.00    -0.550 OA
ENDBRANCH  17  18
ENDBRANCH  16  17
ENDBRANCH  15  16
ENDBRANCH  14  15
ENDBRANCH  13  14
ENDBRANCH  12  13
ENDBRANCH  11  12
ENDBRANCH   1  11
TORSDOF 15
ENDMDL
MODEL 5
REMARK VINA RESULT:    -3.781      1.285      5.946
REMARK INTER + INTRA:          -8.665
REMARK INTER:                  -7.212
REMARK INTRA:                  -1.453
REMARK UNBOUND:                -1.567
REMARK SMILES O=C([O-])CCCCCCCCCCCCCCC(=O)[O-]
REMARK SMILES IDX 10 1 9 2 8 3 7 4 6 5 5 6 4 7 2 8 1 9 3 10 11 11 12 12 13 13
REMARK SMILES IDX 14 14 15 15 16 16 17 17 18 18 19 19 20 20
REMARK H PARENT
REMARK Flexibility Score: inf
ROOT
ATOM      1  C   UNL     1     -92.354 146.311 234.871  1.00  0.00     0.000 C 
ENDROOT
BRANCH   1   2
ATOM      2  C   UNL     1     -93.733 146.807 234.387  1.00  0.00     0.000 C 
BRANCH   2   3
ATOM      3  C   UNL     1     -93.675 148.145 233.629  1.00  0.00     0.000 C 
BRANCH   3   4
ATOM      4  C   UNL     1     -94.975 148.952 233.747  1.00  0.00     0.000 C 
BRANCH   4   5
ATOM      5  C   UNL     1     -95.443 149.044 235.206  1.00  0.00     0.000 C 
BRANCH   5   6
ATOM      6  C   UNL     1     -96.236 150.330 235.500  1.00  0.00     0.006 C 
BRANCH   6   7
ATOM      7  C   UNL     1     -95.590 151.608 234.935  1.00  0.00     0.053 C 
BRANCH   7   8
ATOM      8  C   UNL     1     -96.568 152.736 234.786  1.00  0.00     0.041 C 
ATOM      9  O   UNL     1     -97.344 152.779 233.795  1.00  0.00    -0.550 OA
ATOM     10  O   UNL     1     -96.598 153.760 235.726  1.00  0.00    -0.550 OA
ENDBRANCH   7   8
ENDBRANCH   6   7
ENDBRANCH   5   6
ENDBRANCH   4   5
ENDBRANCH   3   4
ENDBRANCH   2   3
ENDBRANCH   1   2
BRANCH   1  11
ATOM     11  C   UNL     1     -92.429 145.640 236.255  1.00  0.00     0.000 C 
BRANCH  11  12
ATOM     12  C   UNL     1     -93.394 146.357 237.213  1.00  0.00     0.000 C 
BRANCH  12  13
ATOM     13  C   UNL     1     -92.836 146.464 238.642  1.00  0.00     0.000 C 
BRANCH  13  14
ATOM     14  C   UNL     1     -93.410 147.664 239.412  1.00  0.00     0.000 C 
BRANCH  14  15
ATOM     15  C   UNL     1     -94.276 148.577 238.531  1.00  0.00     0.000 C 
BRANCH  15  16
ATOM     16  C   UNL     1     -95.721 148.632 239.049  1.00  0.00     0.006 C 
BRANCH  16  17
ATOM     17  C   UNL     1     -95.921 147.773 240.305  1.00  0.00     0.053 C 
BRANCH  17  18
ATOM     18  C   UNL     1     -96.401 148.589 241.466  1.00  0.00     0.041 C 
ATOM     19  O   UNL     1     -96.949 148.027 242.451  1.00  0.00    -0.550 OA
ATOM     20  O   UNL     1     -96.275 149.972 241.446  1.00  0.00    -0.550 OA
ENDBRANCH  17  18
ENDBRANCH  16  17
ENDBRANCH  15  16
ENDBRANCH  14  15
ENDBRANCH  13  14
ENDBRANCH  12  13
ENDBRANCH  11  12
ENDBRANCH   1  11
TORSDOF 15
ENDMDL
MODEL 6
REMARK VINA RESULT:    -3.780      1.038      6.021
REMARK INTER + INTRA:          -8.662
REMARK INTER:                  -6.942
REMARK INTRA:                  -1.720
REMARK UNBOUND:                -1.567
REMARK SMILES O=C([O-])CCCCCCCCCCCCCCC(=O)[O-]
REMARK SMILES IDX 10 1 9 2 8 3 7 4 6 5 5 6 4 7 2 8 1 9 3 10 11 11 12 12 13 13
REMARK SMILES IDX 14 14 15 15 16 16 17 17 18 18 19 19 20 20
REMARK H PARENT
REMARK Flexibility Score: inf
ROOT
ATOM      1  C   UNL     1     -91.947 145.705 237.271  1.00  0.00     0.000 C 
ENDROOT
BRANCH   1   2
ATOM      2  C   UNL     1     -93.313 145.839 236.565  1.00  0.00     0.000 C 
BRANCH   2   3
ATOM      3  C   UNL     1     -93.297 146.815 235.375  1.00  0.00     0.000 C 
BRANCH   3   4
ATOM      4  C   UNL     1     -94.676 147.426 235.090  1.00  0.00     0.000 C 
BRANCH   4   5
ATOM      5  C   UNL     1     -95.412 147.771 236.392  1.00  0.00     0.000 C 
BRANCH   5   6
ATOM      6  C   UNL     1     -95.437 149.282 236.684  1.00  0.00     0.006 C 
BRANCH   6   7
ATOM      7  C   UNL     1     -96.524 150.052 235.911  1.00  0.00     0.053 C 
BRANCH   7   8
ATOM      8  C   UNL     1     -95.955 151.059 234.955  1.00  0.00     0.041 C 
ATOM      9  O   UNL     1     -96.020 152.289 235.215  1.00  0.00    -0.550 OA
ATOM     10  O   UNL     1     -95.382 150.638 233.761  1.00  0.00    -0.550 OA
ENDBRANCH   7   8
ENDBRANCH   6   7
ENDBRANCH   5   6
ENDBRANCH   4   5
ENDBRANCH   3   4
ENDBRANCH   2   3
ENDBRANCH   1   2
BRANCH   1  11
ATOM     11  C   UNL     1     -92.039 146.006 238.779  1.00  0.00     0.000 C 
BRANCH  11  12
ATOM     12  C   UNL     1     -93.410 146.564 239.192  1.00  0.00     0.000 C 
BRANCH  12  13
ATOM     13  C   UNL     1     -93.375 148.078 239.455  1.00  0.00     0.000 C 
BRANCH  13  14
ATOM     14  C   UNL     1     -94.285 148.496 240.622  1.00  0.00     0.000 C 
BRANCH  14  15
ATOM     15  C   UNL     1     -95.686 147.869 240.537  1.00  0.00     0.000 C 
BRANCH  15  16
ATOM     16  C   UNL     1     -96.757 148.948 240.318  1.00  0.00     0.006 C 
BRANCH  16  17
ATOM     17  C   UNL     1     -96.815 149.955 241.473  1.00  0.00     0.053 C 
BRANCH  17  18
ATOM     18  C   UNL     1     -97.896 149.616 242.453  1.00  0.00     0.041 C 
ATOM     19  O   UNL     1     -99.019 150.181 242.378  1.00  0.00    -0.550 OA
ATOM     20  O   UNL     1     -97.653 148.702 243.471  1.00  0.00    -0.550 OA
ENDBRANCH  17  18
ENDBRANCH  16  17
ENDBRANCH  15  16
ENDBRANCH  14  15
ENDBRANCH  13  14
ENDBRANCH  12  13
ENDBRANCH  11  12
ENDBRANCH   1  11
TORSDOF 15
ENDMDL
MODEL 7
REMARK VINA RESULT:    -3.759      1.670      5.537
REMARK INTER + INTRA:          -8.623
REMARK INTER:                  -7.085
REMARK INTRA:                  -1.537
REMARK UNBOUND:                -1.567
REMARK SMILES O=C([O-])CCCCCCCCCCCCCCC(=O)[O-]
REMARK SMILES IDX 10 1 9 2 8 3 7 4 6 5 5 6 4 7 2 8 1 9 3 10 11 11 12 12 13 13
REMARK SMILES IDX 14 14 15 15 16 16 17 17 18 18 19 19 20 20
REMARK H PARENT
REMARK Flexibility Score: inf
ROOT
ATOM      1  C   UNL     1     -91.680 145.620 237.574  1.00  0.00     0.000 C 
ENDROOT
BRANCH   1   2
ATOM      2  C   UNL     1     -92.864 145.885 236.618  1.00  0.00     0.000 C 
BRANCH   2   3
ATOM      3  C   UNL     1     -92.432 146.174 235.170  1.00  0.00     0.000 C 
BRANCH   3   4
ATOM      4  C   UNL     1     -93.355 147.177 234.464  1.00  0.00     0.000 C 
BRANCH   4   5
ATOM      5  C   UNL     1     -94.705 147.294 235.184  1.00  0.00     0.000 C 
BRANCH   5   6
ATOM      6  C   UNL     1     -95.078 148.748 235.524  1.00  0.00     0.006 C 
BRANCH   6   7
ATOM      7  C   UNL     1     -95.584 148.945 236.965  1.00  0.00     0.053 C 
BRANCH   7   8
ATOM      8  C   UNL     1     -97.054 149.233 237.031  1.00  0.00     0.041 C 
ATOM      9  O   UNL     1     -97.673 149.136 238.124  1.00  0.00    -0.550 OA
ATOM     10  O   UNL     1     -97.749 149.576 235.877  1.00  0.00    -0.550 OA
ENDBRANCH   7   8
ENDBRANCH   6   7
ENDBRANCH   5   6
ENDBRANCH   4   5
ENDBRANCH   3   4
ENDBRANCH   2   3
ENDBRANCH   1   2
BRANCH   1  11
ATOM     11  C   UNL     1     -92.017 145.981 239.032  1.00  0.00     0.000 C 
BRANCH  11  12
ATOM     12  C   UNL     1     -93.418 146.594 239.186  1.00  0.00     0.000 C 
BRANCH  12  13
ATOM     13  C   UNL     1     -93.375 148.110 239.442  1.00  0.00     0.000 C 
BRANCH  13  14
ATOM     14  C   UNL     1     -94.416 148.563 240.477  1.00  0.00     0.000 C 
BRANCH  14  15
ATOM     15  C   UNL     1     -95.494 147.501 240.742  1.00  0.00     0.000 C 
BRANCH  15  16
ATOM     16  C   UNL     1     -96.612 148.063 241.633  1.00  0.00     0.006 C 
BRANCH  16  17
ATOM     17  C   UNL     1     -96.716 149.591 241.542  1.00  0.00     0.053 C 
BRANCH  17  18
ATOM     18  C   UNL     1     -98.095 150.075 241.871  1.00  0.00     0.041 C 
ATOM     19  O   UNL     1     -98.869 150.453 240.952  1.00  0.00    -0.550 OA
ATOM     20  O   UNL     1     -98.514 150.142 243.193  1.00  0.00    -0.550 OA
ENDBRANCH  17  18
ENDBRANCH  16  17
ENDBRANCH  15  16
ENDBRANCH  14  15
ENDBRANCH  13  14
ENDBRANCH  12  13
ENDBRANCH  11  12
ENDBRANCH   1  11
TORSDOF 15
ENDMDL
MODEL 8
REMARK VINA RESULT:    -3.758      3.919      6.023
REMARK INTER + INTRA:          -8.621
REMARK INTER:                  -6.539
REMARK INTRA:                  -2.082
REMARK UNBOUND:                -1.567
REMARK SMILES O=C([O-])CCCCCCCCCCCCCCC(=O)[O-]
REMARK SMILES IDX 10 1 9 2 8 3 7 4 6 5 5 6 4 7 2 8 1 9 3 10 11 11 12 12 13 13
REMARK SMILES IDX 14 14 15 15 16 16 17 17 18 18 19 19 20 20
REMARK H PARENT
REMARK Flexibility Score: inf
ROOT
ATOM      1  C   UNL     1     -98.978 147.078 240.488  1.00  0.00     0.000 C 
ENDROOT
BRANCH   1   2
ATOM      2  C   UNL     1     -99.487 148.213 241.402  1.00  0.00     0.000 C 
BRANCH   2   3
ATOM      3  C   UNL     1     -98.753 149.549 241.192  1.00  0.00     0.000 C 
BRANCH   3   4
ATOM      4  C   UNL     1     -98.146 150.105 242.487  1.00  0.00     0.000 C 
BRANCH   4   5
ATOM      5  C   UNL     1     -97.980 149.002 243.541  1.00  0.00     0.000 C 
BRANCH   5   6
ATOM      6  C   UNL     1     -98.554 149.394 244.914  1.00  0.00     0.006 C 
BRANCH   6   7
ATOM      7  C   UNL     1     -99.195 150.794 244.949  1.00  0.00     0.053 C 
BRANCH   7   8
ATOM      8  C   UNL     1     -98.696 151.633 246.089  1.00  0.00     0.041 C 
ATOM      9  O   UNL     1     -99.356 152.632 246.479  1.00  0.00    -0.550 OA
ATOM     10  O   UNL     1     -97.484 151.330 246.697  1.00  0.00    -0.550 OA
ENDBRANCH   7   8
ENDBRANCH   6   7
ENDBRANCH   5   6
ENDBRANCH   4   5
ENDBRANCH   3   4
ENDBRANCH   2   3
ENDBRANCH   1   2
BRANCH   1  11
ATOM     11  C   UNL     1     -97.964 146.165 241.203  1.00  0.00     0.000 C 
BRANCH  11  12
ATOM     12  C   UNL     1     -96.548 146.275 240.619  1.00  0.00     0.000 C 
BRANCH  12  13
ATOM     13  C   UNL     1     -95.595 147.070 241.527  1.00  0.00     0.000 C 
BRANCH  13  14
ATOM     14  C   UNL     1     -95.213 148.435 240.931  1.00  0.00     0.000 C 
BRANCH  14  15
ATOM     15  C   UNL     1     -95.324 148.467 239.399  1.00  0.00     0.000 C 
BRANCH  15  16
ATOM     16  C   UNL     1     -93.940 148.336 238.745  1.00  0.00     0.006 C 
BRANCH  16  17
ATOM     17  C   UNL     1     -93.764 146.996 238.019  1.00  0.00     0.053 C 
BRANCH  17  18
ATOM     18  C   UNL     1     -92.702 146.153 238.657  1.00  0.00     0.041 C 
ATOM     19  O   UNL     1     -92.802 145.818 239.868  1.00  0.00    -0.550 OA
ATOM     20  O   UNL     1     -91.587 145.767 237.926  1.00  0.00    -0.550 OA
ENDBRANCH  17  18
ENDBRANCH  16  17
ENDBRANCH  15  16
ENDBRANCH  14  15
ENDBRANCH  13  14
ENDBRANCH  12  13
ENDBRANCH  11  12
ENDBRANCH   1  11
TORSDOF 15
ENDMDL
MODEL 9
REMARK VINA RESULT:    -3.723      2.951      4.253
REMARK INTER + INTRA:          -8.555
REMARK INTER:                  -6.362
REMARK INTRA:                  -2.193
REMARK UNBOUND:                -1.567
REMARK SMILES O=C([O-])CCCCCCCCCCCCCCC(=O)[O-]
REMARK SMILES IDX 10 1 9 2 8 3 7 4 6 5 5 6 4 7 2 8 1 9 3 10 11 11 12 12 13 13
REMARK SMILES IDX 14 14 15 15 16 16 17 17 18 18 19 19 20 20
REMARK H PARENT
REMARK Flexibility Score: inf
ROOT
ATOM      1  C   UNL     1     -96.092 146.289 241.552  1.00  0.00     0.000 C 
ENDROOT
BRANCH   1   2
ATOM      2  C   UNL     1     -96.668 145.766 240.219  1.00  0.00     0.000 C 
BRANCH   2   3
ATOM      3  C   UNL     1     -97.395 146.844 239.397  1.00  0.00     0.000 C 
BRANCH   3   4
ATOM      4  C   UNL     1     -98.076 147.902 240.275  1.00  0.00     0.000 C 
BRANCH   4   5
ATOM      5  C   UNL     1     -97.466 149.292 240.047  1.00  0.00     0.000 C 
BRANCH   5   6
ATOM      6  C   UNL     1     -97.601 150.214 241.272  1.00  0.00     0.006 C 
BRANCH   6   7
ATOM      7  C   UNL     1     -97.555 149.474 242.622  1.00  0.00     0.053 C 
BRANCH   7   8
ATOM      8  C   UNL     1     -98.714 149.816 243.511  1.00  0.00     0.041 C 
ATOM      9  O   UNL     1     -98.532 150.486 244.562  1.00  0.00    -0.550 OA
ATOM     10  O   UNL     1     -99.990 149.365 243.197  1.00  0.00    -0.550 OA
ENDBRANCH   7   8
ENDBRANCH   6   7
ENDBRANCH   5   6
ENDBRANCH   4   5
ENDBRANCH   3   4
ENDBRANCH   2   3
ENDBRANCH   1   2
BRANCH   1  11
ATOM     11  C   UNL     1     -94.642 146.789 241.403  1.00  0.00     0.000 C 
BRANCH  11  12
ATOM     12  C   UNL     1     -93.841 145.991 240.362  1.00  0.00     0.000 C 
BRANCH  12  13
ATOM     13  C   UNL     1     -93.185 146.894 239.305  1.00  0.00     0.000 C 
BRANCH  13  14
ATOM     14  C   UNL     1     -93.939 148.219 239.109  1.00  0.00     0.000 C 
BRANCH  14  15
ATOM     15  C   UNL     1     -94.605 148.326 237.728  1.00  0.00     0.000 C 
BRANCH  15  16
ATOM     16  C   UNL     1     -94.534 146.987 236.979  1.00  0.00     0.006 C 
BRANCH  16  17
ATOM     17  C   UNL     1     -93.991 147.147 235.553  1.00  0.00     0.053 C 
BRANCH  17  18
ATOM     18  C   UNL     1     -92.718 146.382 235.354  1.00  0.00     0.041 C 
ATOM     19  O   UNL     1     -92.375 145.497 236.181  1.00  0.00    -0.550 OA
ATOM     20  O   UNL     1     -91.893 146.671 234.275  1.00  0.00    -0.550 OA
ENDBRANCH  17  18
ENDBRANCH  16  17
ENDBRANCH  15  16
ENDBRANCH  14  15
ENDBRANCH  13  14
ENDBRANCH  12  13
ENDBRANCH  11  12
ENDBRANCH   1  11
TORSDOF 15
ENDMDL
