MODEL 1
REMARK VINA RESULT:    -6.666      0.000      0.000
REMARK INTER + INTRA:          -7.779
REMARK INTER:                  -7.835
REMARK INTRA:                   0.056
REMARK UNBOUND:                 0.056
REMARK SMILES O=c1c(O)c(-c2ccc(O)c(O)c2)oc2cc(O)ccc12
REMARK SMILES IDX 5 1 3 2 2 3 1 4 21 5 15 6 14 7 16 8 17 9 19 10 20 11 6 12
REMARK SMILES IDX 7 13 8 14 9 15 13 16 11 17 10 18 12 20 4 22 18 24
REMARK H PARENT 10 19 12 21 4 23 18 25
REMARK Flexibility Score: inf
ROOT
ATOM      1  C   UNL     1     -38.176  75.441 -26.148  1.00  0.00     0.180 A 
ATOM      2  C   UNL     1     -38.051  74.447 -27.140  1.00  0.00     0.208 A 
ATOM      3  C   UNL     1     -36.772  74.137 -27.630  1.00  0.00     0.235 A 
ATOM      4  O   UNL     1     -36.636  73.258 -28.525  1.00  0.00    -0.285 OA
ATOM      5  C   UNL     1     -35.653  74.806 -27.111  1.00  0.00     0.069 A 
ATOM      6  C   UNL     1     -35.860  75.773 -26.103  1.00  0.00     0.142 A 
ATOM      7  O   UNL     1     -37.088  76.043 -25.671  1.00  0.00    -0.452 OA
ATOM      8  C   UNL     1     -34.769  76.454 -25.553  1.00  0.00     0.094 A 
ATOM      9  C   UNL     1     -33.471  76.185 -25.998  1.00  0.00     0.119 A 
ATOM     10  C   UNL     1     -33.263  75.229 -27.001  1.00  0.00     0.047 A 
ATOM     11  C   UNL     1     -34.346  74.540 -27.555  1.00  0.00     0.020 A 
ENDROOT
BRANCH   1  12
ATOM     12  C   UNL     1     -39.490  75.837 -25.594  1.00  0.00     0.025 A 
ATOM     13  C   UNL     1     -39.620  76.054 -24.212  1.00  0.00     0.016 A 
ATOM     14  C   UNL     1     -40.846  76.449 -23.670  1.00  0.00     0.051 A 
ATOM     15  C   UNL     1     -41.956  76.647 -24.502  1.00  0.00     0.157 A 
ATOM     16  C   UNL     1     -40.602  76.058 -26.428  1.00  0.00     0.062 A 
ATOM     17  C   UNL     1     -41.830  76.456 -25.888  1.00  0.00     0.158 A 
BRANCH  15  18
ATOM     18  O   UNL     1     -43.178  77.039 -23.958  1.00  0.00    -0.504 OA
ATOM     19  H   UNL     1     -43.234  77.502 -23.058  1.00  0.00     0.293 HD
ENDBRANCH  15  18
BRANCH  17  20
ATOM     20  O   UNL     1     -42.911  76.659 -26.744  1.00  0.00    -0.504 OA
ATOM     21  H   UNL     1     -43.190  77.584 -27.049  1.00  0.00     0.293 HD
ENDBRANCH  17  20
ENDBRANCH   1  12
BRANCH   2  22
ATOM     22  O   UNL     1     -39.178  73.762 -27.602  1.00  0.00    -0.502 OA
ATOM     23  H   UNL     1     -39.746  74.108 -28.366  1.00  0.00     0.293 HD
ENDBRANCH   2  22
BRANCH   9  24
ATOM     24  O   UNL     1     -32.396  76.874 -25.441  1.00  0.00    -0.508 OA
ATOM     25  H   UNL     1     -32.172  76.799 -24.456  1.00  0.00     0.293 HD
ENDBRANCH   9  24
TORSDOF 5
ENDMDL
MODEL 2
REMARK VINA RESULT:    -5.666      6.801      9.584
REMARK INTER + INTRA:          -6.604
REMARK INTER:                  -6.419
REMARK INTRA:                  -0.185
REMARK UNBOUND:                 0.056
REMARK SMILES O=c1c(O)c(-c2ccc(O)c(O)c2)oc2cc(O)ccc12
REMARK SMILES IDX 5 1 3 2 2 3 1 4 21 5 15 6 14 7 16 8 17 9 19 10 20 11 6 12
REMARK SMILES IDX 7 13 8 14 9 15 13 16 11 17 10 18 12 20 4 22 18 24
REMARK H PARENT 10 19 12 21 4 23 18 25
REMARK Flexibility Score: inf
ROOT
ATOM      1  C   UNL     1     -37.698  73.453 -19.111  1.00  0.00     0.180 A 
ATOM      2  C   UNL     1     -37.466  74.513 -18.210  1.00  0.00     0.208 A 
ATOM      3  C   UNL     1     -38.134  75.731 -18.410  1.00  0.00     0.235 A 
ATOM      4  O   UNL     1     -37.935  76.696 -17.623  1.00  0.00    -0.285 OA
ATOM      5  C   UNL     1     -39.028  75.859 -19.485  1.00  0.00     0.069 A 
ATOM      6  C   UNL     1     -39.223  74.744 -20.330  1.00  0.00     0.142 A 
ATOM      7  O   UNL     1     -38.565  73.611 -20.110  1.00  0.00    -0.452 OA
ATOM      8  C   UNL     1     -40.114  74.829 -21.405  1.00  0.00     0.094 A 
ATOM      9  C   UNL     1     -40.811  76.016 -21.652  1.00  0.00     0.119 A 
ATOM     10  C   UNL     1     -40.617  77.125 -20.818  1.00  0.00     0.047 A 
ATOM     11  C   UNL     1     -39.732  77.050 -19.739  1.00  0.00     0.020 A 
ENDROOT
BRANCH   1  12
ATOM     12  C   UNL     1     -37.019  72.145 -18.979  1.00  0.00     0.025 A 
ATOM     13  C   UNL     1     -37.784  70.988 -18.757  1.00  0.00     0.016 A 
ATOM     14  C   UNL     1     -37.165  69.741 -18.650  1.00  0.00     0.051 A 
ATOM     15  C   UNL     1     -35.774  69.627 -18.777  1.00  0.00     0.157 A 
ATOM     16  C   UNL     1     -35.625  72.024 -19.126  1.00  0.00     0.062 A 
ATOM     17  C   UNL     1     -35.002  70.775 -19.022  1.00  0.00     0.158 A 
BRANCH  15  18
ATOM     18  O   UNL     1     -35.160  68.381 -18.667  1.00  0.00    -0.504 OA
ATOM     19  H   UNL     1     -35.448  67.595 -19.238  1.00  0.00     0.293 HD
ENDBRANCH  15  18
BRANCH  17  20
ATOM     20  O   UNL     1     -33.618  70.694 -19.168  1.00  0.00    -0.504 OA
ATOM     21  H   UNL     1     -33.181  70.523 -20.065  1.00  0.00     0.293 HD
ENDBRANCH  17  20
ENDBRANCH   1  12
BRANCH   2  22
ATOM     22  O   UNL     1     -36.609  74.339 -17.120  1.00  0.00    -0.502 OA
ATOM     23  H   UNL     1     -35.984  73.545 -17.043  1.00  0.00     0.293 HD
ENDBRANCH   2  22
BRANCH   9  24
ATOM     24  O   UNL     1     -41.692  76.084 -22.729  1.00  0.00    -0.508 OA
ATOM     25  H   UNL     1     -41.746  76.905 -23.319  1.00  0.00     0.293 HD
ENDBRANCH   9  24
TORSDOF 5
ENDMDL
MODEL 3
REMARK VINA RESULT:    -5.586      1.507      6.695
REMARK INTER + INTRA:          -6.509
REMARK INTER:                  -7.059
REMARK INTRA:                   0.549
REMARK UNBOUND:                 0.056
REMARK SMILES O=c1c(O)c(-c2ccc(O)c(O)c2)oc2cc(O)ccc12
REMARK SMILES IDX 5 1 3 2 2 3 1 4 21 5 15 6 14 7 16 8 17 9 19 10 20 11 6 12
REMARK SMILES IDX 7 13 8 14 9 15 13 16 11 17 10 18 12 20 4 22 18 24
REMARK H PARENT 10 19 12 21 4 23 18 25
REMARK Flexibility Score: inf
ROOT
ATOM      1  C   UNL     1     -37.088  75.902 -26.222  1.00  0.00     0.180 A 
ATOM      2  C   UNL     1     -38.080  75.530 -27.152  1.00  0.00     0.208 A 
ATOM      3  C   UNL     1     -39.424  75.529 -26.746  1.00  0.00     0.235 A 
ATOM      4  O   UNL     1     -40.328  75.189 -27.557  1.00  0.00    -0.285 OA
ATOM      5  C   UNL     1     -39.749  75.916 -25.436  1.00  0.00     0.069 A 
ATOM      6  C   UNL     1     -38.699  76.298 -24.572  1.00  0.00     0.142 A 
ATOM      7  O   UNL     1     -37.439  76.277 -24.993  1.00  0.00    -0.452 OA
ATOM      8  C   UNL     1     -38.984  76.700 -23.262  1.00  0.00     0.094 A 
ATOM      9  C   UNL     1     -40.304  76.723 -22.802  1.00  0.00     0.119 A 
ATOM     10  C   UNL     1     -41.347  76.343 -23.656  1.00  0.00     0.047 A 
ATOM     11  C   UNL     1     -41.074  75.942 -24.968  1.00  0.00     0.020 A 
ENDROOT
BRANCH   1  12
ATOM     12  C   UNL     1     -35.649  75.911 -26.568  1.00  0.00     0.025 A 
ATOM     13  C   UNL     1     -35.249  75.558 -27.867  1.00  0.00     0.016 A 
ATOM     14  C   UNL     1     -33.898  75.580 -28.222  1.00  0.00     0.051 A 
ATOM     15  C   UNL     1     -32.928  75.968 -27.288  1.00  0.00     0.157 A 
ATOM     16  C   UNL     1     -34.674  76.320 -25.640  1.00  0.00     0.062 A 
ATOM     17  C   UNL     1     -33.320  76.345 -25.993  1.00  0.00     0.158 A 
BRANCH  15  18
ATOM     18  O   UNL     1     -31.580  75.987 -27.645  1.00  0.00    -0.504 OA
ATOM     19  H   UNL     1     -30.916  75.336 -27.241  1.00  0.00     0.293 HD
ENDBRANCH  15  18
BRANCH  17  20
ATOM     20  O   UNL     1     -32.381  76.750 -25.045  1.00  0.00    -0.504 OA
ATOM     21  H   UNL     1     -32.152  76.183 -24.238  1.00  0.00     0.293 HD
ENDBRANCH  17  20
ENDBRANCH   1  12
BRANCH   2  22
ATOM     22  O   UNL     1     -37.731  75.197 -28.464  1.00  0.00    -0.502 OA
ATOM     23  H   UNL     1     -38.399  75.221 -29.225  1.00  0.00     0.293 HD
ENDBRANCH   2  22
BRANCH   9  24
ATOM     24  O   UNL     1     -40.569  77.125 -21.495  1.00  0.00    -0.508 OA
ATOM     25  H   UNL     1     -41.475  77.488 -21.225  1.00  0.00     0.293 HD
ENDBRANCH   9  24
TORSDOF 5
ENDMDL
MODEL 4
REMARK VINA RESULT:    -5.507      1.745      6.721
REMARK INTER + INTRA:          -6.417
REMARK INTER:                  -6.124
REMARK INTRA:                  -0.293
REMARK UNBOUND:                 0.056
REMARK SMILES O=c1c(O)c(-c2ccc(O)c(O)c2)oc2cc(O)ccc12
REMARK SMILES IDX 5 1 3 2 2 3 1 4 21 5 15 6 14 7 16 8 17 9 19 10 20 11 6 12
REMARK SMILES IDX 7 13 8 14 9 15 13 16 11 17 10 18 12 20 4 22 18 24
REMARK H PARENT 10 19 12 21 4 23 18 25
REMARK Flexibility Score: inf
ROOT
ATOM      1  C   UNL     1     -39.194  75.799 -25.499  1.00  0.00     0.180 A 
ATOM      2  C   UNL     1     -40.377  75.852 -26.265  1.00  0.00     0.208 A 
ATOM      3  C   UNL     1     -41.595  76.097 -25.612  1.00  0.00     0.235 A 
ATOM      4  O   UNL     1     -42.668  76.138 -26.275  1.00  0.00    -0.285 OA
ATOM      5  C   UNL     1     -41.606  76.301 -24.224  1.00  0.00     0.069 A 
ATOM      6  C   UNL     1     -40.375  76.255 -23.532  1.00  0.00     0.142 A 
ATOM      7  O   UNL     1     -39.245  76.013 -24.185  1.00  0.00    -0.452 OA
ATOM      8  C   UNL     1     -40.344  76.464 -22.148  1.00  0.00     0.094 A 
ATOM      9  C   UNL     1     -41.525  76.716 -21.445  1.00  0.00     0.119 A 
ATOM     10  C   UNL     1     -42.748  76.759 -22.128  1.00  0.00     0.047 A 
ATOM     11  C   UNL     1     -42.791  76.554 -23.511  1.00  0.00     0.020 A 
ENDROOT
BRANCH   1  12
ATOM     12  C   UNL     1     -37.873  75.528 -26.110  1.00  0.00     0.025 A 
ATOM     13  C   UNL     1     -36.967  76.585 -26.293  1.00  0.00     0.016 A 
ATOM     14  C   UNL     1     -35.707  76.349 -26.849  1.00  0.00     0.051 A 
ATOM     15  C   UNL     1     -35.328  75.051 -27.215  1.00  0.00     0.157 A 
ATOM     16  C   UNL     1     -37.481  74.223 -26.461  1.00  0.00     0.062 A 
ATOM     17  C   UNL     1     -36.218  73.983 -27.015  1.00  0.00     0.158 A 
BRANCH  15  18
ATOM     18  O   UNL     1     -34.071  74.819 -27.772  1.00  0.00    -0.504 OA
ATOM     19  H   UNL     1     -33.703  73.881 -27.879  1.00  0.00     0.293 HD
ENDBRANCH  15  18
BRANCH  17  20
ATOM     20  O   UNL     1     -35.866  72.678 -27.356  1.00  0.00    -0.504 OA
ATOM     21  H   UNL     1     -36.535  71.917 -27.335  1.00  0.00     0.293 HD
ENDBRANCH  17  20
ENDBRANCH   1  12
BRANCH   2  22
ATOM     22  O   UNL     1     -40.329  75.694 -27.652  1.00  0.00    -0.502 OA
ATOM     23  H   UNL     1     -40.786  74.924 -28.126  1.00  0.00     0.293 HD
ENDBRANCH   2  22
BRANCH   9  24
ATOM     24  O   UNL     1     -41.475  76.920 -20.068  1.00  0.00    -0.508 OA
ATOM     25  H   UNL     1     -40.593  76.966 -19.571  1.00  0.00     0.293 HD
ENDBRANCH   9  24
TORSDOF 5
ENDMDL
MODEL 5
REMARK VINA RESULT:    -5.173      6.942      9.640
REMARK INTER + INTRA:          -6.025
REMARK INTER:                  -5.909
REMARK INTRA:                  -0.115
REMARK UNBOUND:                 0.056
REMARK SMILES O=c1c(O)c(-c2ccc(O)c(O)c2)oc2cc(O)ccc12
REMARK SMILES IDX 5 1 3 2 2 3 1 4 21 5 15 6 14 7 16 8 17 9 19 10 20 11 6 12
REMARK SMILES IDX 7 13 8 14 9 15 13 16 11 17 10 18 12 20 4 22 18 24
REMARK H PARENT 10 19 12 21 4 23 18 25
REMARK Flexibility Score: inf
ROOT
ATOM      1  C   UNL     1     -37.551  73.591 -19.024  1.00  0.00     0.180 A 
ATOM      2  C   UNL     1     -37.380  74.632 -18.088  1.00  0.00     0.208 A 
ATOM      3  C   UNL     1     -38.126  75.811 -18.244  1.00  0.00     0.235 A 
ATOM      4  O   UNL     1     -37.983  76.761 -17.426  1.00  0.00    -0.285 OA
ATOM      5  C   UNL     1     -39.033  75.918 -19.310  1.00  0.00     0.069 A 
ATOM      6  C   UNL     1     -39.163  74.821 -20.191  1.00  0.00     0.142 A 
ATOM      7  O   UNL     1     -38.433  73.726 -20.012  1.00  0.00    -0.452 OA
ATOM      8  C   UNL     1     -40.065  74.886 -21.259  1.00  0.00     0.094 A 
ATOM      9  C   UNL     1     -40.838  76.033 -21.462  1.00  0.00     0.119 A 
ATOM     10  C   UNL     1     -40.709  77.124 -20.592  1.00  0.00     0.047 A 
ATOM     11  C   UNL     1     -39.813  77.069 -19.520  1.00  0.00     0.020 A 
ENDROOT
BRANCH   1  12
ATOM     12  C   UNL     1     -36.789  72.325 -18.938  1.00  0.00     0.025 A 
ATOM     13  C   UNL     1     -35.387  72.356 -19.011  1.00  0.00     0.016 A 
ATOM     14  C   UNL     1     -34.647  71.176 -18.911  1.00  0.00     0.051 A 
ATOM     15  C   UNL     1     -35.295  69.948 -18.723  1.00  0.00     0.157 A 
ATOM     16  C   UNL     1     -37.435  71.093 -18.728  1.00  0.00     0.062 A 
ATOM     17  C   UNL     1     -36.696  69.908 -18.626  1.00  0.00     0.158 A 
BRANCH  15  18
ATOM     18  O   UNL     1     -34.554  68.771 -18.626  1.00  0.00    -0.504 OA
ATOM     19  H   UNL     1     -34.892  67.898 -19.013  1.00  0.00     0.293 HD
ENDBRANCH  15  18
BRANCH  17  20
ATOM     20  O   UNL     1     -37.371  68.705 -18.424  1.00  0.00    -0.504 OA
ATOM     21  H   UNL     1     -37.516  68.038 -19.172  1.00  0.00     0.293 HD
ENDBRANCH  17  20
ENDBRANCH   1  12
BRANCH   2  22
ATOM     22  O   UNL     1     -36.506  74.478 -17.009  1.00  0.00    -0.502 OA
ATOM     23  H   UNL     1     -36.486  73.636 -16.445  1.00  0.00     0.293 HD
ENDBRANCH   2  22
BRANCH   9  24
ATOM     24  O   UNL     1     -41.729  76.080 -22.532  1.00  0.00    -0.508 OA
ATOM     25  H   UNL     1     -42.670  75.713 -22.454  1.00  0.00     0.293 HD
ENDBRANCH   9  24
TORSDOF 5
ENDMDL
MODEL 6
REMARK VINA RESULT:    -5.002      4.011      6.456
REMARK INTER + INTRA:          -5.823
REMARK INTER:                  -5.544
REMARK INTRA:                  -0.279
REMARK UNBOUND:                 0.056
REMARK SMILES O=c1c(O)c(-c2ccc(O)c(O)c2)oc2cc(O)ccc12
REMARK SMILES IDX 5 1 3 2 2 3 1 4 21 5 15 6 14 7 16 8 17 9 19 10 20 11 6 12
REMARK SMILES IDX 7 13 8 14 9 15 13 16 11 17 10 18 12 20 4 22 18 24
REMARK H PARENT 10 19 12 21 4 23 18 25
REMARK Flexibility Score: inf
ROOT
ATOM      1  C   UNL     1     -39.659  76.105 -21.995  1.00  0.00     0.180 A 
ATOM      2  C   UNL     1     -41.024  75.907 -22.286  1.00  0.00     0.208 A 
ATOM      3  C   UNL     1     -41.453  76.003 -23.619  1.00  0.00     0.235 A 
ATOM      4  O   UNL     1     -42.672  75.841 -23.903  1.00  0.00    -0.285 OA
ATOM      5  C   UNL     1     -40.516  76.273 -24.628  1.00  0.00     0.069 A 
ATOM      6  C   UNL     1     -39.163  76.435 -24.258  1.00  0.00     0.142 A 
ATOM      7  O   UNL     1     -38.799  76.344 -22.984  1.00  0.00    -0.452 OA
ATOM      8  C   UNL     1     -38.197  76.694 -25.237  1.00  0.00     0.094 A 
ATOM      9  C   UNL     1     -38.564  76.797 -26.582  1.00  0.00     0.119 A 
ATOM     10  C   UNL     1     -39.906  76.639 -26.952  1.00  0.00     0.047 A 
ATOM     11  C   UNL     1     -40.879  76.377 -25.983  1.00  0.00     0.020 A 
ENDROOT
BRANCH   1  12
ATOM     12  C   UNL     1     -39.131  76.038 -20.614  1.00  0.00     0.025 A 
ATOM     13  C   UNL     1     -39.328  77.125 -19.746  1.00  0.00     0.016 A 
ATOM     14  C   UNL     1     -38.857  77.075 -18.432  1.00  0.00     0.051 A 
ATOM     15  C   UNL     1     -38.196  75.933 -17.961  1.00  0.00     0.157 A 
ATOM     16  C   UNL     1     -38.485  74.886 -20.131  1.00  0.00     0.062 A 
ATOM     17  C   UNL     1     -38.015  74.832 -18.813  1.00  0.00     0.158 A 
BRANCH  15  18
ATOM     18  O   UNL     1     -37.725  75.887 -16.649  1.00  0.00    -0.504 OA
ATOM     19  H   UNL     1     -36.786  75.574 -16.433  1.00  0.00     0.293 HD
ENDBRANCH  15  18
BRANCH  17  20
ATOM     20  O   UNL     1     -37.374  73.676 -18.371  1.00  0.00    -0.504 OA
ATOM     21  H   UNL     1     -37.593  73.246 -17.480  1.00  0.00     0.293 HD
ENDBRANCH  17  20
ENDBRANCH   1  12
BRANCH   2  22
ATOM     22  O   UNL     1     -41.926  75.591 -21.267  1.00  0.00    -0.502 OA
ATOM     23  H   UNL     1     -41.831  74.758 -20.698  1.00  0.00     0.293 HD
ENDBRANCH   2  22
BRANCH   9  24
ATOM     24  O   UNL     1     -37.590  77.057 -27.543  1.00  0.00    -0.508 OA
ATOM     25  H   UNL     1     -37.599  77.909 -28.090  1.00  0.00     0.293 HD
ENDBRANCH   9  24
TORSDOF 5
ENDMDL
MODEL 7
REMARK VINA RESULT:    -4.904      1.581      2.312
REMARK INTER + INTRA:          -5.708
REMARK INTER:                  -5.943
REMARK INTRA:                   0.235
REMARK UNBOUND:                 0.056
REMARK SMILES O=c1c(O)c(-c2ccc(O)c(O)c2)oc2cc(O)ccc12
REMARK SMILES IDX 5 1 3 2 2 3 1 4 21 5 15 6 14 7 16 8 17 9 19 10 20 11 6 12
REMARK SMILES IDX 7 13 8 14 9 15 13 16 11 17 10 18 12 20 4 22 18 24
REMARK H PARENT 10 19 12 21 4 23 18 25
REMARK Flexibility Score: inf
ROOT
ATOM      1  C   UNL     1     -39.141  76.097 -25.455  1.00  0.00     0.180 A 
ATOM      2  C   UNL     1     -39.248  75.921 -26.850  1.00  0.00     0.208 A 
ATOM      3  C   UNL     1     -38.073  75.842 -27.614  1.00  0.00     0.235 A 
ATOM      4  O   UNL     1     -38.144  75.695 -28.866  1.00  0.00    -0.285 OA
ATOM      5  C   UNL     1     -36.827  75.919 -26.975  1.00  0.00     0.069 A 
ATOM      6  C   UNL     1     -36.803  76.073 -25.571  1.00  0.00     0.142 A 
ATOM      7  O   UNL     1     -37.938  76.151 -24.884  1.00  0.00    -0.452 OA
ATOM      8  C   UNL     1     -35.580  76.143 -24.896  1.00  0.00     0.094 A 
ATOM      9  C   UNL     1     -34.377  76.067 -25.604  1.00  0.00     0.119 A 
ATOM     10  C   UNL     1     -34.397  75.917 -26.997  1.00  0.00     0.047 A 
ATOM     11  C   UNL     1     -35.613  75.843 -27.682  1.00  0.00     0.020 A 
ENDROOT
BRANCH   1  12
ATOM     12  C   UNL     1     -40.331  76.208 -24.582  1.00  0.00     0.025 A 
ATOM     13  C   UNL     1     -41.481  76.856 -25.061  1.00  0.00     0.016 A 
ATOM     14  C   UNL     1     -42.623  76.953 -24.263  1.00  0.00     0.051 A 
ATOM     15  C   UNL     1     -42.638  76.391 -22.979  1.00  0.00     0.157 A 
ATOM     16  C   UNL     1     -40.358  75.627 -23.301  1.00  0.00     0.062 A 
ATOM     17  C   UNL     1     -41.501  75.721 -22.499  1.00  0.00     0.158 A 
BRANCH  15  18
ATOM     18  O   UNL     1     -43.779  76.492 -22.184  1.00  0.00    -0.504 OA
ATOM     19  H   UNL     1     -43.720  76.727 -21.200  1.00  0.00     0.293 HD
ENDBRANCH  15  18
BRANCH  17  20
ATOM     20  O   UNL     1     -41.489  75.138 -21.233  1.00  0.00    -0.504 OA
ATOM     21  H   UNL     1     -41.317  75.679 -20.394  1.00  0.00     0.293 HD
ENDBRANCH  17  20
ENDBRANCH   1  12
BRANCH   2  22
ATOM     22  O   UNL     1     -40.503  75.797 -27.452  1.00  0.00    -0.502 OA
ATOM     23  H   UNL     1     -41.352  75.672 -26.914  1.00  0.00     0.293 HD
ENDBRANCH   2  22
BRANCH   9  24
ATOM     24  O   UNL     1     -33.168  76.141 -24.916  1.00  0.00    -0.508 OA
ATOM     25  H   UNL     1     -32.562  75.334 -24.821  1.00  0.00     0.293 HD
ENDBRANCH   9  24
TORSDOF 5
ENDMDL
MODEL 8
REMARK VINA RESULT:    -4.883      2.845      6.765
REMARK INTER + INTRA:          -5.683
REMARK INTER:                  -5.572
REMARK INTRA:                  -0.111
REMARK UNBOUND:                 0.056
REMARK SMILES O=c1c(O)c(-c2ccc(O)c(O)c2)oc2cc(O)ccc12
REMARK SMILES IDX 5 1 3 2 2 3 1 4 21 5 15 6 14 7 16 8 17 9 19 10 20 11 6 12
REMARK SMILES IDX 7 13 8 14 9 15 13 16 11 17 10 18 12 20 4 22 18 24
REMARK H PARENT 10 19 12 21 4 23 18 25
REMARK Flexibility Score: inf
ROOT
ATOM      1  C   UNL     1     -39.336  76.455 -23.890  1.00  0.00     0.180 A 
ATOM      2  C   UNL     1     -40.730  76.569 -24.066  1.00  0.00     0.208 A 
ATOM      3  C   UNL     1     -41.543  76.756 -22.936  1.00  0.00     0.235 A 
ATOM      4  O   UNL     1     -42.794  76.851 -23.068  1.00  0.00    -0.285 OA
ATOM      5  C   UNL     1     -40.950  76.844 -21.667  1.00  0.00     0.069 A 
ATOM      6  C   UNL     1     -39.544  76.743 -21.577  1.00  0.00     0.142 A 
ATOM      7  O   UNL     1     -38.812  76.558 -22.670  1.00  0.00    -0.452 OA
ATOM      8  C   UNL     1     -38.915  76.836 -20.330  1.00  0.00     0.094 A 
ATOM      9  C   UNL     1     -39.672  77.026 -19.170  1.00  0.00     0.119 A 
ATOM     10  C   UNL     1     -41.067  77.124 -19.256  1.00  0.00     0.047 A 
ATOM     11  C   UNL     1     -41.706  77.035 -20.497  1.00  0.00     0.020 A 
ENDROOT
BRANCH   1  12
ATOM     12  C   UNL     1     -38.415  76.238 -25.028  1.00  0.00     0.025 A 
ATOM     13  C   UNL     1     -37.345  77.125 -25.229  1.00  0.00     0.016 A 
ATOM     14  C   UNL     1     -36.451  76.928 -26.284  1.00  0.00     0.051 A 
ATOM     15  C   UNL     1     -36.604  75.833 -27.145  1.00  0.00     0.157 A 
ATOM     16  C   UNL     1     -38.553  75.129 -25.882  1.00  0.00     0.062 A 
ATOM     17  C   UNL     1     -37.657  74.927 -26.939  1.00  0.00     0.158 A 
BRANCH  15  18
ATOM     18  O   UNL     1     -35.711  75.640 -28.199  1.00  0.00    -0.504 OA
ATOM     19  H   UNL     1     -35.561  76.353 -28.904  1.00  0.00     0.293 HD
ENDBRANCH  15  18
BRANCH  17  20
ATOM     20  O   UNL     1     -37.829  73.820 -27.769  1.00  0.00    -0.504 OA
ATOM     21  H   UNL     1     -37.956  73.913 -28.770  1.00  0.00     0.293 HD
ENDBRANCH  17  20
ENDBRANCH   1  12
BRANCH   2  22
ATOM     22  O   UNL     1     -41.287  76.528 -25.347  1.00  0.00    -0.502 OA
ATOM     23  H   UNL     1     -41.385  75.664 -25.867  1.00  0.00     0.293 HD
ENDBRANCH   2  22
BRANCH   9  24
ATOM     24  O   UNL     1     -39.029  77.115 -17.938  1.00  0.00    -0.508 OA
ATOM     25  H   UNL     1     -38.036  76.940 -17.844  1.00  0.00     0.293 HD
ENDBRANCH   9  24
TORSDOF 5
ENDMDL
