MODEL 1
REMARK VINA RESULT:    -3.092      0.000      0.000
REMARK INTER + INTRA:          -4.132
REMARK INTER:                  -3.815
REMARK INTRA:                  -0.317
REMARK UNBOUND:                -0.317
REMARK SMILES CCCCCC(C)=O
REMARK SMILES IDX 4 1 3 2 2 3 1 4 5 5 6 6 8 7 7 8
REMARK H PARENT
REMARK Flexibility Score: inf
ROOT
ATOM      1  C   UNL     1     106.304 106.808 102.171  1.00  0.00     0.008 C 
ENDROOT
BRANCH   1   2
ATOM      2  C   UNL     1     107.813 106.789 101.875  1.00  0.00     0.000 C 
BRANCH   2   3
ATOM      3  C   UNL     1     108.626 107.579 102.913  1.00  0.00    -0.003 C 
ATOM      4  C   UNL     1     108.464 107.036 104.332  1.00  0.00     0.004 C 
ENDBRANCH   2   3
ENDBRANCH   1   2
BRANCH   1   5
ATOM      5  C   UNL     1     105.677 108.179 101.876  1.00  0.00     0.075 C 
BRANCH   5   6
ATOM      6  C   UNL     1     104.794 108.648 103.004  1.00  0.00     0.129 C 
ATOM      7  O   UNL     1     103.937 109.492 102.788  1.00  0.00    -0.300 OA
ATOM      8  C   UNL     1     104.938 108.091 104.390  1.00  0.00     0.087 C 
ENDBRANCH   5   6
ENDBRANCH   1   5
TORSDOF 4
ENDMDL
MODEL 2
REMARK VINA RESULT:    -3.023      2.149      3.247
REMARK INTER + INTRA:          -4.046
REMARK INTER:                  -3.779
REMARK INTRA:                  -0.268
REMARK UNBOUND:                -0.317
REMARK SMILES CCCCCC(C)=O
REMARK SMILES IDX 4 1 3 2 2 3 1 4 5 5 6 6 8 7 7 8
REMARK H PARENT
REMARK Flexibility Score: inf
ROOT
ATOM      1  C   UNL     1     105.856 106.369 102.644  1.00  0.00     0.008 C 
ENDROOT
BRANCH   1   2
ATOM      2  C   UNL     1     105.270 104.946 102.641  1.00  0.00     0.000 C 
BRANCH   2   3
ATOM      3  C   UNL     1     103.989 104.835 103.482  1.00  0.00    -0.003 C 
ATOM      4  C   UNL     1     102.822 104.225 102.707  1.00  0.00     0.004 C 
ENDBRANCH   2   3
ENDBRANCH   1   2
BRANCH   1   5
ATOM      5  C   UNL     1     104.864 107.400 102.085  1.00  0.00     0.075 C 
BRANCH   5   6
ATOM      6  C   UNL     1     104.624 108.530 103.054  1.00  0.00     0.129 C 
ATOM      7  O   UNL     1     104.073 109.549 102.666  1.00  0.00    -0.300 OA
ATOM      8  C   UNL     1     105.037 108.426 104.492  1.00  0.00     0.087 C 
ENDBRANCH   5   6
ENDBRANCH   1   5
TORSDOF 4
ENDMDL
MODEL 3
REMARK VINA RESULT:    -3.004      3.752      5.117
REMARK INTER + INTRA:          -4.023
REMARK INTER:                  -3.684
REMARK INTRA:                  -0.339
REMARK UNBOUND:                -0.317
REMARK SMILES CCCCCC(C)=O
REMARK SMILES IDX 4 1 3 2 2 3 1 4 5 5 6 6 8 7 7 8
REMARK H PARENT
REMARK Flexibility Score: inf
ROOT
ATOM      1  C   UNL     1     105.743 105.756 102.822  1.00  0.00     0.008 C 
ENDROOT
BRANCH   1   2
ATOM      2  C   UNL     1     104.680 104.998 102.009  1.00  0.00     0.000 C 
BRANCH   2   3
ATOM      3  C   UNL     1     103.486 104.556 102.868  1.00  0.00    -0.003 C 
ATOM      4  C   UNL     1     103.609 104.998 104.326  1.00  0.00     0.004 C 
ENDBRANCH   2   3
ENDBRANCH   1   2
BRANCH   1   5
ATOM      5  C   UNL     1     107.146 105.160 102.632  1.00  0.00     0.075 C 
BRANCH   5   6
ATOM      6  C   UNL     1     107.221 103.735 103.116  1.00  0.00     0.129 C 
ATOM      7  O   UNL     1     106.979 103.482 104.287  1.00  0.00    -0.300 OA
ATOM      8  C   UNL     1     107.577 102.613 102.186  1.00  0.00     0.087 C 
ENDBRANCH   5   6
ENDBRANCH   1   5
TORSDOF 4
ENDMDL
MODEL 4
REMARK VINA RESULT:    -2.955      2.914      4.071
REMARK INTER + INTRA:          -3.962
REMARK INTER:                  -3.659
REMARK INTRA:                  -0.304
REMARK UNBOUND:                -0.317
REMARK SMILES CCCCCC(C)=O
REMARK SMILES IDX 4 1 3 2 2 3 1 4 5 5 6 6 8 7 7 8
REMARK H PARENT
REMARK Flexibility Score: inf
ROOT
ATOM      1  C   UNL     1     104.533 106.722 104.111  1.00  0.00     0.008 C 
ENDROOT
BRANCH   1   2
ATOM      2  C   UNL     1     105.754 107.334 103.402  1.00  0.00     0.000 C 
BRANCH   2   3
ATOM      3  C   UNL     1     105.357 108.285 102.262  1.00  0.00    -0.003 C 
ATOM      4  C   UNL     1     104.212 109.222 102.643  1.00  0.00     0.004 C 
ENDBRANCH   2   3
ENDBRANCH   1   2
BRANCH   1   5
ATOM      5  C   UNL     1     104.518 105.190 104.010  1.00  0.00     0.075 C 
BRANCH   5   6
ATOM      6  C   UNL     1     104.301 104.723 102.593  1.00  0.00     0.129 C 
ATOM      7  O   UNL     1     105.190 104.112 102.018  1.00  0.00    -0.300 OA
ATOM      8  C   UNL     1     103.010 104.982 101.875  1.00  0.00     0.087 C 
ENDBRANCH   5   6
ENDBRANCH   1   5
TORSDOF 4
ENDMDL
MODEL 5
REMARK VINA RESULT:    -2.945      1.317      2.155
REMARK INTER + INTRA:          -3.950
REMARK INTER:                  -3.653
REMARK INTRA:                  -0.297
REMARK UNBOUND:                -0.317
REMARK SMILES CCCCCC(C)=O
REMARK SMILES IDX 4 1 3 2 2 3 1 4 5 5 6 6 8 7 7 8
REMARK H PARENT
REMARK Flexibility Score: inf
ROOT
ATOM      1  C   UNL     1     106.330 106.719 104.356  1.00  0.00     0.008 C 
ENDROOT
BRANCH   1   2
ATOM      2  C   UNL     1     107.811 107.136 104.358  1.00  0.00     0.000 C 
BRANCH   2   3
ATOM      3  C   UNL     1     108.346 107.414 102.945  1.00  0.00    -0.003 C 
ATOM      4  C   UNL     1     108.074 106.267 101.972  1.00  0.00     0.004 C 
ENDBRANCH   2   3
ENDBRANCH   1   2
BRANCH   1   5
ATOM      5  C   UNL     1     105.392 107.926 104.212  1.00  0.00     0.075 C 
BRANCH   5   6
ATOM      6  C   UNL     1     104.727 107.962 102.859  1.00  0.00     0.129 C 
ATOM      7  O   UNL     1     104.281 106.931 102.379  1.00  0.00    -0.300 OA
ATOM      8  C   UNL     1     104.591 109.243 102.092  1.00  0.00     0.087 C 
ENDBRANCH   5   6
ENDBRANCH   1   5
TORSDOF 4
ENDMDL
MODEL 6
REMARK VINA RESULT:    -2.943      3.412      3.936
REMARK INTER + INTRA:          -3.948
REMARK INTER:                  -3.720
REMARK INTRA:                  -0.227
REMARK UNBOUND:                -0.317
REMARK SMILES CCCCCC(C)=O
REMARK SMILES IDX 4 1 3 2 2 3 1 4 5 5 6 6 8 7 7 8
REMARK H PARENT
REMARK Flexibility Score: inf
ROOT
ATOM      1  C   UNL     1     105.523 105.272 104.493  1.00  0.00     0.008 C 
ENDROOT
BRANCH   1   2
ATOM      2  C   UNL     1     106.424 104.042 104.285  1.00  0.00     0.000 C 
BRANCH   2   3
ATOM      3  C   UNL     1     107.363 104.198 103.079  1.00  0.00    -0.003 C 
ATOM      4  C   UNL     1     107.424 102.943 102.209  1.00  0.00     0.004 C 
ENDBRANCH   2   3
ENDBRANCH   1   2
BRANCH   1   5
ATOM      5  C   UNL     1     104.060 104.981 104.129  1.00  0.00     0.075 C 
BRANCH   5   6
ATOM      6  C   UNL     1     103.758 105.329 102.693  1.00  0.00     0.129 C 
ATOM      7  O   UNL     1     104.438 106.168 102.121  1.00  0.00    -0.300 OA
ATOM      8  C   UNL     1     102.646 104.657 101.945  1.00  0.00     0.087 C 
ENDBRANCH   5   6
ENDBRANCH   1   5
TORSDOF 4
ENDMDL
MODEL 7
REMARK VINA RESULT:    -2.930      2.793      3.057
REMARK INTER + INTRA:          -3.931
REMARK INTER:                  -3.758
REMARK INTRA:                  -0.174
REMARK UNBOUND:                -0.317
REMARK SMILES CCCCCC(C)=O
REMARK SMILES IDX 4 1 3 2 2 3 1 4 5 5 6 6 8 7 7 8
REMARK H PARENT
REMARK Flexibility Score: inf
ROOT
ATOM      1  C   UNL     1     104.681 107.235 102.795  1.00  0.00     0.008 C 
ENDROOT
BRANCH   1   2
ATOM      2  C   UNL     1     106.075 107.609 102.264  1.00  0.00     0.000 C 
BRANCH   2   3
ATOM      3  C   UNL     1     107.199 107.220 103.237  1.00  0.00    -0.003 C 
ATOM      4  C   UNL     1     108.588 107.585 102.714  1.00  0.00     0.004 C 
ENDBRANCH   2   3
ENDBRANCH   1   2
BRANCH   1   5
ATOM      5  C   UNL     1     104.110 105.997 102.091  1.00  0.00     0.075 C 
BRANCH   5   6
ATOM      6  C   UNL     1     103.533 105.008 103.072  1.00  0.00     0.129 C 
ATOM      7  O   UNL     1     102.784 104.129 102.673  1.00  0.00    -0.300 OA
ATOM      8  C   UNL     1     103.869 105.072 104.532  1.00  0.00     0.087 C 
ENDBRANCH   5   6
ENDBRANCH   1   5
TORSDOF 4
ENDMDL
MODEL 8
REMARK VINA RESULT:    -2.928      1.546      1.910
REMARK INTER + INTRA:          -3.929
REMARK INTER:                  -3.729
REMARK INTRA:                  -0.200
REMARK UNBOUND:                -0.317
REMARK SMILES CCCCCC(C)=O
REMARK SMILES IDX 4 1 3 2 2 3 1 4 5 5 6 6 8 7 7 8
REMARK H PARENT
REMARK Flexibility Score: inf
ROOT
ATOM      1  C   UNL     1     107.444 107.423 102.627  1.00  0.00     0.008 C 
ENDROOT
BRANCH   1   2
ATOM      2  C   UNL     1     107.919 106.015 102.228  1.00  0.00     0.000 C 
BRANCH   2   3
ATOM      3  C   UNL     1     107.166 104.906 102.977  1.00  0.00    -0.003 C 
ATOM      4  C   UNL     1     107.613 103.503 102.566  1.00  0.00     0.004 C 
ENDBRANCH   2   3
ENDBRANCH   1   2
BRANCH   1   5
ATOM      5  C   UNL     1     106.131 107.806 101.930  1.00  0.00     0.075 C 
BRANCH   5   6
ATOM      6  C   UNL     1     105.152 108.440 102.886  1.00  0.00     0.129 C 
ATOM      7  O   UNL     1     104.269 109.166 102.452  1.00  0.00    -0.300 OA
ATOM      8  C   UNL     1     105.230 108.189 104.363  1.00  0.00     0.087 C 
ENDBRANCH   5   6
ENDBRANCH   1   5
TORSDOF 4
ENDMDL
MODEL 9
REMARK VINA RESULT:    -2.901      2.645      3.953
REMARK INTER + INTRA:          -3.896
REMARK INTER:                  -3.694
REMARK INTRA:                  -0.202
REMARK UNBOUND:                -0.317
REMARK SMILES CCCCCC(C)=O
REMARK SMILES IDX 4 1 3 2 2 3 1 4 5 5 6 6 8 7 7 8
REMARK H PARENT
REMARK Flexibility Score: inf
ROOT
ATOM      1  C   UNL     1     105.618 107.747 102.780  1.00  0.00     0.008 C 
ENDROOT
BRANCH   1   2
ATOM      2  C   UNL     1     104.495 106.795 102.333  1.00  0.00     0.000 C 
BRANCH   2   3
ATOM      3  C   UNL     1     104.503 105.469 103.109  1.00  0.00    -0.003 C 
ATOM      4  C   UNL     1     103.371 104.531 102.692  1.00  0.00     0.004 C 
ENDBRANCH   2   3
ENDBRANCH   1   2
BRANCH   1   5
ATOM      5  C   UNL     1     106.933 107.474 102.036  1.00  0.00     0.075 C 
BRANCH   5   6
ATOM      6  C   UNL     1     108.110 107.422 102.976  1.00  0.00     0.129 C 
ATOM      7  O   UNL     1     109.191 107.864 102.614  1.00  0.00    -0.300 OA
ATOM      8  C   UNL     1     107.982 106.848 104.355  1.00  0.00     0.087 C 
ENDBRANCH   5   6
ENDBRANCH   1   5
TORSDOF 4
ENDMDL
