MODEL 1
REMARK VINA RESULT:    -7.281      0.000      0.000
REMARK INTER + INTRA:          -8.864
REMARK INTER:                  -8.558
REMARK INTRA:                  -0.306
REMARK UNBOUND:                -0.306
REMARK SMILES O=c1cc(-c2ccc(O)c(O)c2)oc2cc(O)cc(O)c12
REMARK SMILES IDX 4 1 3 2 2 3 1 4 21 5 19 6 18 7 16 8 15 9 14 10 13 11 5 12
REMARK SMILES IDX 6 13 7 14 8 15 12 16 10 17 9 18 11 20 20 22 17 24
REMARK H PARENT 9 19 11 21 20 23 17 25
REMARK Flexibility Score: inf
ROOT
ATOM      1  C   UNL     1       3.793  36.566  28.057  1.00  0.00     0.138 A 
ATOM      2  C   UNL     1       3.750  36.961  29.401  1.00  0.00     0.100 A 
ATOM      3  C   UNL     1       3.116  36.147  30.340  1.00  0.00     0.197 A 
ATOM      4  O   UNL     1       3.149  36.496  31.548  1.00  0.00    -0.289 OA
ATOM      5  C   UNL     1       2.493  34.946  29.924  1.00  0.00     0.107 A 
ATOM      6  C   UNL     1       1.781  34.058  30.785  1.00  0.00     0.134 A 
ATOM      7  C   UNL     1       1.306  32.841  30.281  1.00  0.00     0.093 A 
ATOM      8  C   UNL     1       1.464  32.508  28.933  1.00  0.00     0.123 A 
ATOM      9  C   UNL     1       2.110  33.392  28.072  1.00  0.00     0.094 A 
ATOM     10  C   UNL     1       2.625  34.599  28.552  1.00  0.00     0.146 A 
ATOM     11  O   UNL     1       3.248  35.407  27.700  1.00  0.00    -0.456 OA
ENDROOT
BRANCH   1  12
ATOM     12  C   UNL     1       4.453  37.395  27.016  1.00  0.00     0.021 A 
ATOM     13  C   UNL     1       4.482  38.800  27.098  1.00  0.00     0.016 A 
ATOM     14  C   UNL     1       5.102  39.555  26.099  1.00  0.00     0.051 A 
ATOM     15  C   UNL     1       5.696  38.923  25.000  1.00  0.00     0.157 A 
ATOM     16  C   UNL     1       5.041  36.768  25.903  1.00  0.00     0.062 A 
ATOM     17  C   UNL     1       5.663  37.523  24.901  1.00  0.00     0.158 A 
BRANCH  15  18
ATOM     18  O   UNL     1       6.316  39.680  24.006  1.00  0.00    -0.504 OA
ATOM     19  H   UNL     1       6.212  40.687  23.965  1.00  0.00     0.293 HD
ENDBRANCH  15  18
BRANCH  17  20
ATOM     20  O   UNL     1       6.243  36.863  23.818  1.00  0.00    -0.504 OA
ATOM     21  H   UNL     1       5.686  36.452  23.078  1.00  0.00     0.293 HD
ENDBRANCH  17  20
ENDBRANCH   1  12
BRANCH   6  22
ATOM     22  O   UNL     1       1.495  34.332  32.125  1.00  0.00    -0.507 OA
ATOM     23  H   UNL     1       0.958  33.734  32.734  1.00  0.00     0.293 HD
ENDBRANCH   6  22
BRANCH   8  24
ATOM     24  O   UNL     1       0.975  31.301  28.437  1.00  0.00    -0.508 OA
ATOM     25  H   UNL     1       0.213  31.272  27.770  1.00  0.00     0.293 HD
ENDBRANCH   8  24
TORSDOF 5
ENDMDL
MODEL 2
REMARK VINA RESULT:    -6.944      1.994      7.249
REMARK INTER + INTRA:          -8.468
REMARK INTER:                  -8.179
REMARK INTRA:                  -0.288
REMARK UNBOUND:                -0.306
REMARK SMILES O=c1cc(-c2ccc(O)c(O)c2)oc2cc(O)cc(O)c12
REMARK SMILES IDX 4 1 3 2 2 3 1 4 21 5 19 6 18 7 16 8 15 9 14 10 13 11 5 12
REMARK SMILES IDX 6 13 7 14 8 15 12 16 10 17 9 18 11 20 20 22 17 24
REMARK H PARENT 9 19 11 21 20 23 17 25
REMARK Flexibility Score: inf
ROOT
ATOM      1  C   UNL     1       3.895  35.935  28.448  1.00  0.00     0.138 A 
ATOM      2  C   UNL     1       3.766  35.953  27.052  1.00  0.00     0.100 A 
ATOM      3  C   UNL     1       4.561  36.815  26.296  1.00  0.00     0.197 A 
ATOM      4  O   UNL     1       4.468  36.763  25.043  1.00  0.00    -0.289 OA
ATOM      5  C   UNL     1       5.468  37.687  26.945  1.00  0.00     0.107 A 
ATOM      6  C   UNL     1       6.299  38.637  26.280  1.00  0.00     0.134 A 
ATOM      7  C   UNL     1       7.241  39.365  27.017  1.00  0.00     0.093 A 
ATOM      8  C   UNL     1       7.340  39.220  28.403  1.00  0.00     0.123 A 
ATOM      9  C   UNL     1       6.496  38.335  29.069  1.00  0.00     0.094 A 
ATOM     10  C   UNL     1       5.569  37.569  28.357  1.00  0.00     0.146 A 
ATOM     11  O   UNL     1       4.793  36.725  29.029  1.00  0.00    -0.456 OA
ENDROOT
BRANCH   1  12
ATOM     12  C   UNL     1       3.074  35.039  29.300  1.00  0.00     0.021 A 
ATOM     13  C   UNL     1       2.839  35.323  30.660  1.00  0.00     0.016 A 
ATOM     14  C   UNL     1       2.069  34.456  31.441  1.00  0.00     0.051 A 
ATOM     15  C   UNL     1       1.530  33.290  30.884  1.00  0.00     0.157 A 
ATOM     16  C   UNL     1       2.539  33.860  28.752  1.00  0.00     0.062 A 
ATOM     17  C   UNL     1       1.768  32.990  29.533  1.00  0.00     0.158 A 
BRANCH  15  18
ATOM     18  O   UNL     1       0.762  32.429  31.666  1.00  0.00    -0.504 OA
ATOM     19  H   UNL     1       0.763  31.428  31.510  1.00  0.00     0.293 HD
ENDBRANCH  15  18
BRANCH  17  20
ATOM     20  O   UNL     1       1.249  31.836  28.948  1.00  0.00    -0.504 OA
ATOM     21  H   UNL     1       0.265  31.742  28.727  1.00  0.00     0.293 HD
ENDBRANCH  17  20
ENDBRANCH   1  12
BRANCH   6  22
ATOM     22  O   UNL     1       6.223  38.919  24.913  1.00  0.00    -0.507 OA
ATOM     23  H   UNL     1       6.241  38.228  24.179  1.00  0.00     0.293 HD
ENDBRANCH   6  22
BRANCH   8  24
ATOM     24  O   UNL     1       8.270  39.960  29.130  1.00  0.00    -0.508 OA
ATOM     25  H   UNL     1       9.228  39.648  29.236  1.00  0.00     0.293 HD
ENDBRANCH   8  24
TORSDOF 5
ENDMDL
MODEL 3
REMARK VINA RESULT:    -6.807      2.796      4.385
REMARK INTER + INTRA:          -8.307
REMARK INTER:                  -8.041
REMARK INTRA:                  -0.266
REMARK UNBOUND:                -0.306
REMARK SMILES O=c1cc(-c2ccc(O)c(O)c2)oc2cc(O)cc(O)c12
REMARK SMILES IDX 4 1 3 2 2 3 1 4 21 5 19 6 18 7 16 8 15 9 14 10 13 11 5 12
REMARK SMILES IDX 6 13 7 14 8 15 12 16 10 17 9 18 11 20 20 22 17 24
REMARK H PARENT 9 19 11 21 20 23 17 25
REMARK Flexibility Score: inf
ROOT
ATOM      1  C   UNL     1       6.713  38.328  25.685  1.00  0.00     0.138 A 
ATOM      2  C   UNL     1       7.040  38.956  26.895  1.00  0.00     0.100 A 
ATOM      3  C   UNL     1       6.287  38.688  28.038  1.00  0.00     0.197 A 
ATOM      4  O   UNL     1       6.644  39.217  29.122  1.00  0.00    -0.289 OA
ATOM      5  C   UNL     1       5.180  37.809  27.962  1.00  0.00     0.107 A 
ATOM      6  C   UNL     1       4.316  37.493  29.052  1.00  0.00     0.134 A 
ATOM      7  C   UNL     1       3.322  36.521  28.885  1.00  0.00     0.093 A 
ATOM      8  C   UNL     1       3.123  35.898  27.651  1.00  0.00     0.123 A 
ATOM      9  C   UNL     1       3.927  36.238  26.566  1.00  0.00     0.094 A 
ATOM     10  C   UNL     1       4.949  37.180  26.709  1.00  0.00     0.146 A 
ATOM     11  O   UNL     1       5.702  37.465  25.652  1.00  0.00    -0.456 OA
ENDROOT
BRANCH   1  12
ATOM     12  C   UNL     1       7.480  38.578  24.439  1.00  0.00     0.021 A 
ATOM     13  C   UNL     1       6.961  39.373  23.399  1.00  0.00     0.016 A 
ATOM     14  C   UNL     1       7.701  39.584  22.232  1.00  0.00     0.051 A 
ATOM     15  C   UNL     1       8.965  38.999  22.080  1.00  0.00     0.157 A 
ATOM     16  C   UNL     1       8.744  37.985  24.273  1.00  0.00     0.062 A 
ATOM     17  C   UNL     1       9.487  38.194  23.105  1.00  0.00     0.158 A 
BRANCH  15  18
ATOM     18  O   UNL     1       9.701  39.213  20.915  1.00  0.00    -0.504 OA
ATOM     19  H   UNL     1       9.895  38.461  20.264  1.00  0.00     0.293 HD
ENDBRANCH  15  18
BRANCH  17  20
ATOM     20  O   UNL     1      10.741  37.596  22.984  1.00  0.00    -0.504 OA
ATOM     21  H   UNL     1      10.859  36.590  22.986  1.00  0.00     0.293 HD
ENDBRANCH  17  20
ENDBRANCH   1  12
BRANCH   6  22
ATOM     22  O   UNL     1       4.374  38.118  30.301  1.00  0.00    -0.507 OA
ATOM     23  H   UNL     1       3.608  38.172  30.955  1.00  0.00     0.293 HD
ENDBRANCH   6  22
BRANCH   8  24
ATOM     24  O   UNL     1       2.122  34.942  27.491  1.00  0.00    -0.508 OA
ATOM     25  H   UNL     1       1.373  35.066  26.820  1.00  0.00     0.293 HD
ENDBRANCH   8  24
TORSDOF 5
ENDMDL
MODEL 4
REMARK VINA RESULT:    -6.758      3.223      8.664
REMARK INTER + INTRA:          -8.249
REMARK INTER:                  -7.987
REMARK INTRA:                  -0.262
REMARK UNBOUND:                -0.306
REMARK SMILES O=c1cc(-c2ccc(O)c(O)c2)oc2cc(O)cc(O)c12
REMARK SMILES IDX 4 1 3 2 2 3 1 4 21 5 19 6 18 7 16 8 15 9 14 10 13 11 5 12
REMARK SMILES IDX 6 13 7 14 8 15 12 16 10 17 9 18 11 20 20 22 17 24
REMARK H PARENT 9 19 11 21 20 23 17 25
REMARK Flexibility Score: inf
ROOT
ATOM      1  C   UNL     1       6.534  38.444  25.708  1.00  0.00     0.138 A 
ATOM      2  C   UNL     1       7.677  37.646  25.553  1.00  0.00     0.100 A 
ATOM      3  C   UNL     1       8.571  37.915  24.517  1.00  0.00     0.197 A 
ATOM      4  O   UNL     1       9.619  37.222  24.442  1.00  0.00    -0.289 OA
ATOM      5  C   UNL     1       8.303  38.969  23.611  1.00  0.00     0.107 A 
ATOM      6  C   UNL     1       9.122  39.308  22.493  1.00  0.00     0.134 A 
ATOM      7  C   UNL     1       8.818  40.445  21.735  1.00  0.00     0.093 A 
ATOM      8  C   UNL     1       7.689  41.219  22.017  1.00  0.00     0.123 A 
ATOM      9  C   UNL     1       6.853  40.865  23.073  1.00  0.00     0.094 A 
ATOM     10  C   UNL     1       7.149  39.756  23.870  1.00  0.00     0.146 A 
ATOM     11  O   UNL     1       6.333  39.462  24.877  1.00  0.00    -0.456 OA
ENDROOT
BRANCH   1  12
ATOM     12  C   UNL     1       5.549  38.202  26.792  1.00  0.00     0.021 A 
ATOM     13  C   UNL     1       4.373  37.460  26.570  1.00  0.00     0.016 A 
ATOM     14  C   UNL     1       3.458  37.256  27.607  1.00  0.00     0.051 A 
ATOM     15  C   UNL     1       3.696  37.794  28.877  1.00  0.00     0.157 A 
ATOM     16  C   UNL     1       5.775  38.749  28.067  1.00  0.00     0.062 A 
ATOM     17  C   UNL     1       4.860  38.546  29.108  1.00  0.00     0.158 A 
BRANCH  15  18
ATOM     18  O   UNL     1       2.782  37.587  29.910  1.00  0.00    -0.504 OA
ATOM     19  H   UNL     1       2.962  36.921  30.651  1.00  0.00     0.293 HD
ENDBRANCH  15  18
BRANCH  17  20
ATOM     20  O   UNL     1       5.125  39.098  30.360  1.00  0.00    -0.504 OA
ATOM     21  H   UNL     1       4.775  38.684  31.216  1.00  0.00     0.293 HD
ENDBRANCH  17  20
ENDBRANCH   1  12
BRANCH   6  22
ATOM     22  O   UNL     1      10.222  38.554  22.074  1.00  0.00    -0.507 OA
ATOM     23  H   UNL     1      10.321  38.136  21.161  1.00  0.00     0.293 HD
ENDBRANCH   6  22
BRANCH   8  24
ATOM     24  O   UNL     1       7.386  42.340  21.247  1.00  0.00    -0.508 OA
ATOM     25  H   UNL     1       6.894  43.134  21.639  1.00  0.00     0.293 HD
ENDBRANCH   8  24
TORSDOF 5
ENDMDL
MODEL 5
REMARK VINA RESULT:    -6.685      1.887      3.268
REMARK INTER + INTRA:          -8.163
REMARK INTER:                  -7.890
REMARK INTRA:                  -0.274
REMARK UNBOUND:                -0.306
REMARK SMILES O=c1cc(-c2ccc(O)c(O)c2)oc2cc(O)cc(O)c12
REMARK SMILES IDX 4 1 3 2 2 3 1 4 21 5 19 6 18 7 16 8 15 9 14 10 13 11 5 12
REMARK SMILES IDX 6 13 7 14 8 15 12 16 10 17 9 18 11 20 20 22 17 24
REMARK H PARENT 9 19 11 21 20 23 17 25
REMARK Flexibility Score: inf
ROOT
ATOM      1  C   UNL     1       5.460  38.046  26.317  1.00  0.00     0.138 A 
ATOM      2  C   UNL     1       5.626  38.788  27.494  1.00  0.00     0.100 A 
ATOM      3  C   UNL     1       4.966  38.394  28.658  1.00  0.00     0.197 A 
ATOM      4  O   UNL     1       5.184  39.043  29.714  1.00  0.00    -0.289 OA
ATOM      5  C   UNL     1       4.108  37.269  28.634  1.00  0.00     0.107 A 
ATOM      6  C   UNL     1       3.351  36.799  29.749  1.00  0.00     0.134 A 
ATOM      7  C   UNL     1       2.627  35.606  29.638  1.00  0.00     0.093 A 
ATOM      8  C   UNL     1       2.583  34.898  28.434  1.00  0.00     0.123 A 
ATOM      9  C   UNL     1       3.275  35.377  27.324  1.00  0.00     0.094 A 
ATOM     10  C   UNL     1       4.035  36.546  27.413  1.00  0.00     0.146 A 
ATOM     11  O   UNL     1       4.692  36.960  26.334  1.00  0.00    -0.456 OA
ENDROOT
BRANCH   1  12
ATOM     12  C   UNL     1       6.138  38.420  25.050  1.00  0.00     0.021 A 
ATOM     13  C   UNL     1       6.856  37.478  24.289  1.00  0.00     0.016 A 
ATOM     14  C   UNL     1       7.493  37.861  23.106  1.00  0.00     0.051 A 
ATOM     15  C   UNL     1       7.431  39.189  22.666  1.00  0.00     0.157 A 
ATOM     16  C   UNL     1       6.091  39.754  24.609  1.00  0.00     0.062 A 
ATOM     17  C   UNL     1       6.728  40.140  23.423  1.00  0.00     0.158 A 
BRANCH  15  18
ATOM     18  O   UNL     1       8.066  39.567  21.484  1.00  0.00    -0.504 OA
ATOM     19  H   UNL     1       8.363  40.522  21.323  1.00  0.00     0.293 HD
ENDBRANCH  15  18
BRANCH  17  20
ATOM     20  O   UNL     1       6.649  41.471  23.015  1.00  0.00    -0.504 OA
ATOM     21  H   UNL     1       6.457  41.729  22.054  1.00  0.00     0.293 HD
ENDBRANCH  17  20
ENDBRANCH   1  12
BRANCH   6  22
ATOM     22  O   UNL     1       3.258  37.474  30.970  1.00  0.00    -0.507 OA
ATOM     23  H   UNL     1       4.038  37.680  31.576  1.00  0.00     0.293 HD
ENDBRANCH   6  22
BRANCH   8  24
ATOM     24  O   UNL     1       1.847  33.720  28.329  1.00  0.00    -0.508 OA
ATOM     25  H   UNL     1       1.831  33.037  29.077  1.00  0.00     0.293 HD
ENDBRANCH   8  24
TORSDOF 5
ENDMDL
MODEL 6
REMARK VINA RESULT:    -6.683      2.129      6.932
REMARK INTER + INTRA:          -8.161
REMARK INTER:                  -7.874
REMARK INTRA:                  -0.286
REMARK UNBOUND:                -0.306
REMARK SMILES O=c1cc(-c2ccc(O)c(O)c2)oc2cc(O)cc(O)c12
REMARK SMILES IDX 4 1 3 2 2 3 1 4 21 5 19 6 18 7 16 8 15 9 14 10 13 11 5 12
REMARK SMILES IDX 6 13 7 14 8 15 12 16 10 17 9 18 11 20 20 22 17 24
REMARK H PARENT 9 19 11 21 20 23 17 25
REMARK Flexibility Score: inf
ROOT
ATOM      1  C   UNL     1       4.276  35.590  29.476  1.00  0.00     0.138 A 
ATOM      2  C   UNL     1       5.520  35.738  30.104  1.00  0.00     0.100 A 
ATOM      3  C   UNL     1       6.508  36.521  29.506  1.00  0.00     0.197 A 
ATOM      4  O   UNL     1       7.591  36.686  30.124  1.00  0.00    -0.289 OA
ATOM      5  C   UNL     1       6.259  37.133  28.254  1.00  0.00     0.107 A 
ATOM      6  C   UNL     1       7.205  37.919  27.531  1.00  0.00     0.134 A 
ATOM      7  C   UNL     1       6.806  38.570  26.357  1.00  0.00     0.093 A 
ATOM      8  C   UNL     1       5.514  38.415  25.849  1.00  0.00     0.123 A 
ATOM      9  C   UNL     1       4.599  37.607  26.519  1.00  0.00     0.094 A 
ATOM     10  C   UNL     1       4.956  36.970  27.711  1.00  0.00     0.146 A 
ATOM     11  O   UNL     1       4.048  36.220  28.327  1.00  0.00    -0.456 OA
ENDROOT
BRANCH   1  12
ATOM     12  C   UNL     1       3.191  34.769  30.067  1.00  0.00     0.021 A 
ATOM     13  C   UNL     1       2.785  34.932  31.406  1.00  0.00     0.016 A 
ATOM     14  C   UNL     1       1.767  34.138  31.939  1.00  0.00     0.051 A 
ATOM     15  C   UNL     1       1.142  33.163  31.151  1.00  0.00     0.157 A 
ATOM     16  C   UNL     1       2.568  33.779  29.286  1.00  0.00     0.062 A 
ATOM     17  C   UNL     1       1.547  32.982  29.819  1.00  0.00     0.158 A 
BRANCH  15  18
ATOM     18  O   UNL     1       0.126  32.374  31.687  1.00  0.00    -0.504 OA
ATOM     19  H   UNL     1      -0.671  32.085  31.130  1.00  0.00     0.293 HD
ENDBRANCH  15  18
BRANCH  17  20
ATOM     20  O   UNL     1       0.948  32.018  29.008  1.00  0.00    -0.504 OA
ATOM     21  H   UNL     1       0.436  31.234  29.394  1.00  0.00     0.293 HD
ENDBRANCH  17  20
ENDBRANCH   1  12
BRANCH   6  22
ATOM     22  O   UNL     1       8.543  38.070  27.905  1.00  0.00    -0.507 OA
ATOM     23  H   UNL     1       9.278  38.399  27.297  1.00  0.00     0.293 HD
ENDBRANCH   6  22
BRANCH   8  24
ATOM     24  O   UNL     1       5.131  39.055  24.672  1.00  0.00    -0.508 OA
ATOM     25  H   UNL     1       5.797  39.571  24.109  1.00  0.00     0.293 HD
ENDBRANCH   8  24
TORSDOF 5
ENDMDL
MODEL 7
REMARK VINA RESULT:    -6.634      2.683      4.454
REMARK INTER + INTRA:          -8.103
REMARK INTER:                  -7.841
REMARK INTRA:                  -0.262
REMARK UNBOUND:                -0.306
REMARK SMILES O=c1cc(-c2ccc(O)c(O)c2)oc2cc(O)cc(O)c12
REMARK SMILES IDX 4 1 3 2 2 3 1 4 21 5 19 6 18 7 16 8 15 9 14 10 13 11 5 12
REMARK SMILES IDX 6 13 7 14 8 15 12 16 10 17 9 18 11 20 20 22 17 24
REMARK H PARENT 9 19 11 21 20 23 17 25
REMARK Flexibility Score: inf
ROOT
ATOM      1  C   UNL     1       5.682  38.088  26.191  1.00  0.00     0.138 A 
ATOM      2  C   UNL     1       4.741  37.057  26.061  1.00  0.00     0.100 A 
ATOM      3  C   UNL     1       4.129  36.533  27.199  1.00  0.00     0.197 A 
ATOM      4  O   UNL     1       3.243  35.653  27.046  1.00  0.00    -0.289 OA
ATOM      5  C   UNL     1       4.486  37.022  28.479  1.00  0.00     0.107 A 
ATOM      6  C   UNL     1       3.958  36.534  29.712  1.00  0.00     0.134 A 
ATOM      7  C   UNL     1       4.300  37.175  30.909  1.00  0.00     0.093 A 
ATOM      8  C   UNL     1       5.196  38.246  30.924  1.00  0.00     0.123 A 
ATOM      9  C   UNL     1       5.758  38.695  29.731  1.00  0.00     0.094 A 
ATOM     10  C   UNL     1       5.412  38.099  28.516  1.00  0.00     0.146 A 
ATOM     11  O   UNL     1       5.959  38.568  27.399  1.00  0.00    -0.456 OA
ENDROOT
BRANCH   1  12
ATOM     12  C   UNL     1       6.363  38.682  25.013  1.00  0.00     0.021 A 
ATOM     13  C   UNL     1       5.955  39.913  24.465  1.00  0.00     0.016 A 
ATOM     14  C   UNL     1       6.609  40.444  23.350  1.00  0.00     0.051 A 
ATOM     15  C   UNL     1       7.674  39.752  22.758  1.00  0.00     0.157 A 
ATOM     16  C   UNL     1       7.425  37.988  24.405  1.00  0.00     0.062 A 
ATOM     17  C   UNL     1       8.082  38.518  23.288  1.00  0.00     0.158 A 
BRANCH  15  18
ATOM     18  O   UNL     1       8.325  40.286  21.647  1.00  0.00    -0.504 OA
ATOM     19  H   UNL     1       9.286  40.603  21.696  1.00  0.00     0.293 HD
ENDBRANCH  15  18
BRANCH  17  20
ATOM     20  O   UNL     1       9.136  37.803  22.720  1.00  0.00    -0.504 OA
ATOM     21  H   UNL     1      10.099  37.958  22.993  1.00  0.00     0.293 HD
ENDBRANCH  17  20
ENDBRANCH   1  12
BRANCH   6  22
ATOM     22  O   UNL     1       3.123  35.419  29.817  1.00  0.00    -0.507 OA
ATOM     23  H   UNL     1       2.870  34.813  29.051  1.00  0.00     0.293 HD
ENDBRANCH   6  22
BRANCH   8  24
ATOM     24  O   UNL     1       5.541  38.868  32.122  1.00  0.00    -0.508 OA
ATOM     25  H   UNL     1       6.417  39.368  32.227  1.00  0.00     0.293 HD
ENDBRANCH   8  24
TORSDOF 5
ENDMDL
MODEL 8
REMARK VINA RESULT:    -6.397      5.300      8.498
REMARK INTER + INTRA:          -7.825
REMARK INTER:                  -7.539
REMARK INTRA:                  -0.286
REMARK UNBOUND:                -0.306
REMARK SMILES O=c1cc(-c2ccc(O)c(O)c2)oc2cc(O)cc(O)c12
REMARK SMILES IDX 4 1 3 2 2 3 1 4 21 5 19 6 18 7 16 8 15 9 14 10 13 11 5 12
REMARK SMILES IDX 6 13 7 14 8 15 12 16 10 17 9 18 11 20 20 22 17 24
REMARK H PARENT 9 19 11 21 20 23 17 25
REMARK Flexibility Score: inf
ROOT
ATOM      1  C   UNL     1       9.340  40.734  23.292  1.00  0.00     0.138 A 
ATOM      2  C   UNL     1      10.257  40.491  24.324  1.00  0.00     0.100 A 
ATOM      3  C   UNL     1       9.907  39.640  25.372  1.00  0.00     0.197 A 
ATOM      4  O   UNL     1      10.774  39.392  26.251  1.00  0.00    -0.289 OA
ATOM      5  C   UNL     1       8.620  39.053  25.403  1.00  0.00     0.107 A 
ATOM      6  C   UNL     1       8.139  38.202  26.442  1.00  0.00     0.134 A 
ATOM      7  C   UNL     1       6.888  37.587  26.306  1.00  0.00     0.093 A 
ATOM      8  C   UNL     1       6.077  37.840  25.198  1.00  0.00     0.123 A 
ATOM      9  C   UNL     1       6.515  38.711  24.203  1.00  0.00     0.094 A 
ATOM     10  C   UNL     1       7.772  39.314  24.293  1.00  0.00     0.146 A 
ATOM     11  O   UNL     1       8.157  40.127  23.315  1.00  0.00    -0.456 OA
ENDROOT
BRANCH   1  12
ATOM     12  C   UNL     1       9.660  41.631  22.153  1.00  0.00     0.021 A 
ATOM     13  C   UNL     1      10.845  41.486  21.407  1.00  0.00     0.016 A 
ATOM     14  C   UNL     1      11.125  42.352  20.346  1.00  0.00     0.051 A 
ATOM     15  C   UNL     1      10.233  43.380  20.017  1.00  0.00     0.157 A 
ATOM     16  C   UNL     1       8.776  42.674  21.825  1.00  0.00     0.062 A 
ATOM     17  C   UNL     1       9.054  43.542  20.762  1.00  0.00     0.158 A 
BRANCH  15  18
ATOM     18  O   UNL     1      10.515  44.241  18.957  1.00  0.00    -0.504 OA
ATOM     19  H   UNL     1      11.282  44.901  18.999  1.00  0.00     0.293 HD
ENDBRANCH  15  18
BRANCH  17  20
ATOM     20  O   UNL     1       8.146  44.558  20.463  1.00  0.00    -0.504 OA
ATOM     21  H   UNL     1       8.234  45.130  19.631  1.00  0.00     0.293 HD
ENDBRANCH  17  20
ENDBRANCH   1  12
BRANCH   6  22
ATOM     22  O   UNL     1       8.832  37.950  27.629  1.00  0.00    -0.507 OA
ATOM     23  H   UNL     1       8.408  37.640  28.490  1.00  0.00     0.293 HD
ENDBRANCH   6  22
BRANCH   8  24
ATOM     24  O   UNL     1       4.827  37.234  25.079  1.00  0.00    -0.508 OA
ATOM     25  H   UNL     1       4.054  37.491  25.681  1.00  0.00     0.293 HD
ENDBRANCH   8  24
TORSDOF 5
ENDMDL
MODEL 9
REMARK VINA RESULT:    -6.327      3.751      5.275
REMARK INTER + INTRA:          -7.743
REMARK INTER:                  -7.425
REMARK INTRA:                  -0.318
REMARK UNBOUND:                -0.306
REMARK SMILES O=c1cc(-c2ccc(O)c(O)c2)oc2cc(O)cc(O)c12
REMARK SMILES IDX 4 1 3 2 2 3 1 4 21 5 19 6 18 7 16 8 15 9 14 10 13 11 5 12
REMARK SMILES IDX 6 13 7 14 8 15 12 16 10 17 9 18 11 20 20 22 17 24
REMARK H PARENT 9 19 11 21 20 23 17 25
REMARK Flexibility Score: inf
ROOT
ATOM      1  C   UNL     1       7.116  38.206  25.764  1.00  0.00     0.138 A 
ATOM      2  C   UNL     1       5.833  38.660  26.098  1.00  0.00     0.100 A 
ATOM      3  C   UNL     1       5.288  38.337  27.341  1.00  0.00     0.197 A 
ATOM      4  O   UNL     1       4.161  38.811  27.637  1.00  0.00    -0.289 OA
ATOM      5  C   UNL     1       6.021  37.527  28.242  1.00  0.00     0.107 A 
ATOM      6  C   UNL     1       5.550  37.100  29.519  1.00  0.00     0.134 A 
ATOM      7  C   UNL     1       6.409  36.397  30.371  1.00  0.00     0.093 A 
ATOM      8  C   UNL     1       7.703  36.053  29.969  1.00  0.00     0.123 A 
ATOM      9  C   UNL     1       8.153  36.419  28.703  1.00  0.00     0.094 A 
ATOM     10  C   UNL     1       7.331  37.151  27.842  1.00  0.00     0.146 A 
ATOM     11  O   UNL     1       7.806  37.493  26.648  1.00  0.00    -0.456 OA
ENDROOT
BRANCH   1  12
ATOM     12  C   UNL     1       7.743  38.520  24.455  1.00  0.00     0.021 A 
ATOM     13  C   UNL     1       7.057  39.242  23.460  1.00  0.00     0.016 A 
ATOM     14  C   UNL     1       7.668  39.515  22.233  1.00  0.00     0.051 A 
ATOM     15  C   UNL     1       8.969  39.065  21.975  1.00  0.00     0.157 A 
ATOM     16  C   UNL     1       9.044  38.061  24.183  1.00  0.00     0.062 A 
ATOM     17  C   UNL     1       9.659  38.332  22.955  1.00  0.00     0.158 A 
BRANCH  15  18
ATOM     18  O   UNL     1       9.576  39.340  20.751  1.00  0.00    -0.504 OA
ATOM     19  H   UNL     1      10.566  39.544  20.684  1.00  0.00     0.293 HD
ENDBRANCH  15  18
BRANCH  17  20
ATOM     20  O   UNL     1      10.954  37.867  22.728  1.00  0.00    -0.504 OA
ATOM     21  H   UNL     1      11.472  37.355  23.432  1.00  0.00     0.293 HD
ENDBRANCH  17  20
ENDBRANCH   1  12
BRANCH   6  22
ATOM     22  O   UNL     1       4.249  37.316  29.984  1.00  0.00    -0.507 OA
ATOM     23  H   UNL     1       3.654  36.606  30.382  1.00  0.00     0.293 HD
ENDBRANCH   6  22
BRANCH   8  24
ATOM     24  O   UNL     1       8.546  35.341  30.819  1.00  0.00    -0.508 OA
ATOM     25  H   UNL     1       8.741  34.358  30.670  1.00  0.00     0.293 HD
ENDBRANCH   8  24
TORSDOF 5
ENDMDL
