MODEL 1
REMARK VINA RESULT:    -3.713      0.000      0.000
REMARK INTER + INTRA:         -14.416
REMARK INTER:                  -9.356
REMARK INTRA:                  -5.060
REMARK UNBOUND:                -5.060
REMARK SMILES CCCCCCCCCCCCCCCCCCCCCCCCCCCC(=O)[O-]
REMARK SMILES IDX 15 1 16 2 17 3 18 4 19 5 20 6 21 7 22 8 23 9 24 10 25 11
REMARK SMILES IDX 26 12 27 13 28 14 29 15 30 16 14 17 13 18 12 19 11 20 10 21
REMARK SMILES IDX 9 22 8 23 7 24 6 25 5 26 4 27 3 28 2 29 1 30
REMARK H PARENT
REMARK Flexibility Score: inf
ROOT
ATOM      1  C   UNL     1     -24.174   6.780  21.178  1.00  0.00     0.000 C 
ENDROOT
BRANCH   1   2
ATOM      2  C   UNL     1     -23.562   8.087  20.644  1.00  0.00     0.000 C 
BRANCH   2   3
ATOM      3  C   UNL     1     -22.060   8.196  20.953  1.00  0.00     0.000 C 
BRANCH   3   4
ATOM      4  C   UNL     1     -21.194   8.178  19.681  1.00  0.00     0.000 C 
BRANCH   4   5
ATOM      5  C   UNL     1     -22.003   8.487  18.408  1.00  0.00     0.000 C 
BRANCH   5   6
ATOM      6  C   UNL     1     -22.392   7.253  17.570  1.00  0.00     0.000 C 
BRANCH   6   7
ATOM      7  C   UNL     1     -21.240   6.268  17.281  1.00  0.00     0.000 C 
BRANCH   7   8
ATOM      8  C   UNL     1     -20.436   6.567  16.000  1.00  0.00     0.000 C 
BRANCH   8   9
ATOM      9  C   UNL     1     -18.926   6.780  16.221  1.00  0.00     0.000 C 
BRANCH   9  10
ATOM     10  C   UNL     1     -18.513   6.819  17.710  1.00  0.00     0.000 C 
BRANCH  10  11
ATOM     11  C   UNL     1     -17.943   5.497  18.258  1.00  0.00     0.000 C 
BRANCH  11  12
ATOM     12  C   UNL     1     -17.081   5.617  19.531  1.00  0.00     0.006 C 
BRANCH  12  13
ATOM     13  C   UNL     1     -17.451   6.806  20.437  1.00  0.00     0.053 C 
BRANCH  13  14
ATOM     14  C   UNL     1     -17.205   6.514  21.888  1.00  0.00     0.041 C 
ATOM     15  O   UNL     1     -17.964   6.997  22.768  1.00  0.00    -0.550 OA
ATOM     16  O   UNL     1     -16.154   5.688  22.268  1.00  0.00    -0.550 OA
ENDBRANCH  13  14
ENDBRANCH  12  13
ENDBRANCH  11  12
ENDBRANCH  10  11
ENDBRANCH   9  10
ENDBRANCH   8   9
ENDBRANCH   7   8
ENDBRANCH   6   7
ENDBRANCH   5   6
ENDBRANCH   4   5
ENDBRANCH   3   4
ENDBRANCH   2   3
ENDBRANCH   1   2
BRANCH   1  17
ATOM     17  C   UNL     1     -23.129   5.671  21.376  1.00  0.00     0.000 C 
BRANCH  17  18
ATOM     18  C   UNL     1     -22.965   4.780  20.135  1.00  0.00     0.000 C 
BRANCH  18  19
ATOM     19  C   UNL     1     -21.657   3.982  20.198  1.00  0.00     0.000 C 
BRANCH  19  20
ATOM     20  C   UNL     1     -20.554   4.790  20.901  1.00  0.00     0.000 C 
BRANCH  20  21
ATOM     21  C   UNL     1     -19.966   4.055  22.124  1.00  0.00     0.000 C 
BRANCH  21  22
ATOM     22  C   UNL     1     -20.805   2.853  22.600  1.00  0.00    -0.000 C 
BRANCH  22  23
ATOM     23  C   UNL     1     -21.779   3.146  23.753  1.00  0.00    -0.000 C 
BRANCH  23  24
ATOM     24  C   UNL     1     -22.905   2.103  23.862  1.00  0.00    -0.000 C 
BRANCH  24  25
ATOM     25  C   UNL     1     -24.116   2.435  22.971  1.00  0.00    -0.000 C 
BRANCH  25  26
ATOM     26  C   UNL     1     -24.183   1.658  21.639  1.00  0.00    -0.000 C 
BRANCH  26  27
ATOM     27  C   UNL     1     -24.126   0.122  21.769  1.00  0.00    -0.000 C 
BRANCH  27  28
ATOM     28  C   UNL     1     -23.326  -0.593  20.665  1.00  0.00    -0.000 C 
BRANCH  28  29
ATOM     29  C   UNL     1     -21.936   0.022  20.446  1.00  0.00    -0.003 C 
ATOM     30  C   UNL     1     -20.916  -0.568  21.417  1.00  0.00     0.004 C 
ENDBRANCH  28  29
ENDBRANCH  27  28
ENDBRANCH  26  27
ENDBRANCH  25  26
ENDBRANCH  24  25
ENDBRANCH  23  24
ENDBRANCH  22  23
ENDBRANCH  21  22
ENDBRANCH  20  21
ENDBRANCH  19  20
ENDBRANCH  18  19
ENDBRANCH  17  18
ENDBRANCH   1  17
TORSDOF 26
ENDMDL
MODEL 2
REMARK VINA RESULT:    -3.672      1.274      3.321
REMARK INTER + INTRA:         -14.313
REMARK INTER:                  -9.281
REMARK INTRA:                  -5.032
REMARK UNBOUND:                -5.060
REMARK SMILES CCCCCCCCCCCCCCCCCCCCCCCCCCCC(=O)[O-]
REMARK SMILES IDX 15 1 16 2 17 3 18 4 19 5 20 6 21 7 22 8 23 9 24 10 25 11
REMARK SMILES IDX 26 12 27 13 28 14 29 15 30 16 14 17 13 18 12 19 11 20 10 21
REMARK SMILES IDX 9 22 8 23 7 24 6 25 5 26 4 27 3 28 2 29 1 30
REMARK H PARENT
REMARK Flexibility Score: inf
ROOT
ATOM      1  C   UNL     1     -21.461   4.240  20.109  1.00  0.00     0.000 C 
ENDROOT
BRANCH   1   2
ATOM      2  C   UNL     1     -22.882   4.819  19.996  1.00  0.00     0.000 C 
BRANCH   2   3
ATOM      3  C   UNL     1     -23.311   5.562  21.272  1.00  0.00     0.000 C 
BRANCH   3   4
ATOM      4  C   UNL     1     -23.865   6.966  20.977  1.00  0.00     0.000 C 
BRANCH   4   5
ATOM      5  C   UNL     1     -22.753   8.003  20.733  1.00  0.00     0.000 C 
BRANCH   5   6
ATOM      6  C   UNL     1     -22.840   8.743  19.383  1.00  0.00     0.000 C 
BRANCH   6   7
ATOM      7  C   UNL     1     -21.839   8.266  18.309  1.00  0.00     0.000 C 
BRANCH   7   8
ATOM      8  C   UNL     1     -22.355   7.137  17.397  1.00  0.00     0.000 C 
BRANCH   8   9
ATOM      9  C   UNL     1     -21.264   6.185  16.870  1.00  0.00     0.000 C 
BRANCH   9  10
ATOM     10  C   UNL     1     -20.104   6.904  16.146  1.00  0.00     0.000 C 
BRANCH  10  11
ATOM     11  C   UNL     1     -18.729   6.761  16.826  1.00  0.00     0.000 C 
BRANCH  11  12
ATOM     12  C   UNL     1     -18.756   6.346  18.311  1.00  0.00     0.006 C 
BRANCH  12  13
ATOM     13  C   UNL     1     -18.199   4.936  18.585  1.00  0.00     0.053 C 
BRANCH  13  14
ATOM     14  C   UNL     1     -17.026   4.959  19.520  1.00  0.00     0.041 C 
ATOM     15  O   UNL     1     -15.993   5.615  19.223  1.00  0.00    -0.550 OA
ATOM     16  O   UNL     1     -17.082   4.279  20.729  1.00  0.00    -0.550 OA
ENDBRANCH  13  14
ENDBRANCH  12  13
ENDBRANCH  11  12
ENDBRANCH  10  11
ENDBRANCH   9  10
ENDBRANCH   8   9
ENDBRANCH   7   8
ENDBRANCH   6   7
ENDBRANCH   5   6
ENDBRANCH   4   5
ENDBRANCH   3   4
ENDBRANCH   2   3
ENDBRANCH   1   2
BRANCH   1  17
ATOM     17  C   UNL     1     -21.038   3.979  21.563  1.00  0.00     0.000 C 
BRANCH  17  18
ATOM     18  C   UNL     1     -20.169   2.721  21.712  1.00  0.00     0.000 C 
BRANCH  18  19
ATOM     19  C   UNL     1     -19.923   2.055  20.353  1.00  0.00     0.000 C 
BRANCH  19  20
ATOM     20  C   UNL     1     -19.735   0.537  20.510  1.00  0.00     0.000 C 
BRANCH  20  21
ATOM     21  C   UNL     1     -21.069  -0.236  20.469  1.00  0.00     0.000 C 
BRANCH  21  22
ATOM     22  C   UNL     1     -21.563  -0.712  21.849  1.00  0.00    -0.000 C 
BRANCH  22  23
ATOM     23  C   UNL     1     -23.051  -0.454  22.141  1.00  0.00    -0.000 C 
BRANCH  23  24
ATOM     24  C   UNL     1     -23.737   0.383  21.047  1.00  0.00    -0.000 C 
BRANCH  24  25
ATOM     25  C   UNL     1     -24.105   1.800  21.520  1.00  0.00    -0.000 C 
BRANCH  25  26
ATOM     26  C   UNL     1     -24.831   1.871  22.879  1.00  0.00    -0.000 C 
BRANCH  26  27
ATOM     27  C   UNL     1     -24.597   3.165  23.685  1.00  0.00    -0.000 C 
BRANCH  27  28
ATOM     28  C   UNL     1     -23.258   3.226  24.441  1.00  0.00    -0.000 C 
BRANCH  28  29
ATOM     29  C   UNL     1     -22.799   1.851  24.948  1.00  0.00    -0.003 C 
ATOM     30  C   UNL     1     -21.282   1.806  25.111  1.00  0.00     0.004 C 
ENDBRANCH  28  29
ENDBRANCH  27  28
ENDBRANCH  26  27
ENDBRANCH  25  26
ENDBRANCH  24  25
ENDBRANCH  23  24
ENDBRANCH  22  23
ENDBRANCH  21  22
ENDBRANCH  20  21
ENDBRANCH  19  20
ENDBRANCH  18  19
ENDBRANCH  17  18
ENDBRANCH   1  17
TORSDOF 26
ENDMDL
MODEL 3
REMARK VINA RESULT:    -3.652      1.825      6.579
REMARK INTER + INTRA:         -14.263
REMARK INTER:                  -8.633
REMARK INTRA:                  -5.630
REMARK UNBOUND:                -5.060
REMARK SMILES CCCCCCCCCCCCCCCCCCCCCCCCCCCC(=O)[O-]
REMARK SMILES IDX 15 1 16 2 17 3 18 4 19 5 20 6 21 7 22 8 23 9 24 10 25 11
REMARK SMILES IDX 26 12 27 13 28 14 29 15 30 16 14 17 13 18 12 19 11 20 10 21
REMARK SMILES IDX 9 22 8 23 7 24 6 25 5 26 4 27 3 28 2 29 1 30
REMARK H PARENT
REMARK Flexibility Score: inf
ROOT
ATOM      1  C   UNL     1     -23.556   3.665  23.948  1.00  0.00     0.000 C 
ENDROOT
BRANCH   1   2
ATOM      2  C   UNL     1     -24.163   2.314  24.365  1.00  0.00     0.000 C 
BRANCH   2   3
ATOM      3  C   UNL     1     -25.216   1.814  23.362  1.00  0.00     0.000 C 
BRANCH   3   4
ATOM      4  C   UNL     1     -24.587   1.078  22.167  1.00  0.00     0.000 C 
BRANCH   4   5
ATOM      5  C   UNL     1     -24.349  -0.417  22.449  1.00  0.00     0.000 C 
BRANCH   5   6
ATOM      6  C   UNL     1     -23.695  -1.200  21.293  1.00  0.00     0.000 C 
BRANCH   6   7
ATOM      7  C   UNL     1     -22.913  -0.339  20.279  1.00  0.00     0.000 C 
BRANCH   7   8
ATOM      8  C   UNL     1     -21.409  -0.191  20.576  1.00  0.00     0.000 C 
BRANCH   8   9
ATOM      9  C   UNL     1     -20.949   1.250  20.871  1.00  0.00     0.000 C 
BRANCH   9  10
ATOM     10  C   UNL     1     -20.942   1.607  22.374  1.00  0.00     0.000 C 
BRANCH  10  11
ATOM     11  C   UNL     1     -19.841   2.599  22.798  1.00  0.00     0.000 C 
BRANCH  11  12
ATOM     12  C   UNL     1     -18.560   2.584  21.941  1.00  0.00     0.006 C 
BRANCH  12  13
ATOM     13  C   UNL     1     -18.224   3.934  21.279  1.00  0.00     0.053 C 
BRANCH  13  14
ATOM     14  C   UNL     1     -17.860   3.783  19.832  1.00  0.00     0.041 C 
ATOM     15  O   UNL     1     -18.081   2.698  19.233  1.00  0.00    -0.550 OA
ATOM     16  O   UNL     1     -17.300   4.848  19.137  1.00  0.00    -0.550 OA
ENDBRANCH  13  14
ENDBRANCH  12  13
ENDBRANCH  11  12
ENDBRANCH  10  11
ENDBRANCH   9  10
ENDBRANCH   8   9
ENDBRANCH   7   8
ENDBRANCH   6   7
ENDBRANCH   5   6
ENDBRANCH   4   5
ENDBRANCH   3   4
ENDBRANCH   2   3
ENDBRANCH   1   2
BRANCH   1  17
ATOM     17  C   UNL     1     -24.608   4.650  23.414  1.00  0.00     0.000 C 
BRANCH  17  18
ATOM     18  C   UNL     1     -24.173   5.333  22.108  1.00  0.00     0.000 C 
BRANCH  18  19
ATOM     19  C   UNL     1     -22.772   4.875  21.685  1.00  0.00     0.000 C 
BRANCH  19  20
ATOM     20  C   UNL     1     -22.727   4.562  20.180  1.00  0.00     0.000 C 
BRANCH  20  21
ATOM     21  C   UNL     1     -21.295   4.595  19.608  1.00  0.00     0.000 C 
BRANCH  21  22
ATOM     22  C   UNL     1     -21.099   5.604  18.459  1.00  0.00    -0.000 C 
BRANCH  22  23
ATOM     23  C   UNL     1     -22.384   6.281  17.953  1.00  0.00    -0.000 C 
BRANCH  23  24
ATOM     24  C   UNL     1     -22.442   7.781  18.296  1.00  0.00    -0.000 C 
BRANCH  24  25
ATOM     25  C   UNL     1     -23.431   8.096  19.432  1.00  0.00    -0.000 C 
BRANCH  25  26
ATOM     26  C   UNL     1     -22.783   8.418  20.795  1.00  0.00    -0.000 C 
BRANCH  26  27
ATOM     27  C   UNL     1     -21.276   8.744  20.747  1.00  0.00    -0.000 C 
BRANCH  27  28
ATOM     28  C   UNL     1     -20.370   7.734  21.476  1.00  0.00    -0.000 C 
BRANCH  28  29
ATOM     29  C   UNL     1     -19.017   7.538  20.778  1.00  0.00    -0.003 C 
ATOM     30  C   UNL     1     -18.914   8.406  19.527  1.00  0.00     0.004 C 
ENDBRANCH  28  29
ENDBRANCH  27  28
ENDBRANCH  26  27
ENDBRANCH  25  26
ENDBRANCH  24  25
ENDBRANCH  23  24
ENDBRANCH  22  23
ENDBRANCH  21  22
ENDBRANCH  20  21
ENDBRANCH  19  20
ENDBRANCH  18  19
ENDBRANCH  17  18
ENDBRANCH   1  17
TORSDOF 26
ENDMDL
MODEL 4
REMARK VINA RESULT:    -3.650      1.654      3.156
REMARK INTER + INTRA:         -14.259
REMARK INTER:                  -9.608
REMARK INTRA:                  -4.651
REMARK UNBOUND:                -5.060
REMARK SMILES CCCCCCCCCCCCCCCCCCCCCCCCCCCC(=O)[O-]
REMARK SMILES IDX 15 1 16 2 17 3 18 4 19 5 20 6 21 7 22 8 23 9 24 10 25 11
REMARK SMILES IDX 26 12 27 13 28 14 29 15 30 16 14 17 13 18 12 19 11 20 10 21
REMARK SMILES IDX 9 22 8 23 7 24 6 25 5 26 4 27 3 28 2 29 1 30
REMARK H PARENT
REMARK Flexibility Score: inf
ROOT
ATOM      1  C   UNL     1     -21.865   8.028  20.925  1.00  0.00     0.000 C 
ENDROOT
BRANCH   1   2
ATOM      2  C   UNL     1     -21.108   7.940  19.589  1.00  0.00     0.000 C 
BRANCH   2   3
ATOM      3  C   UNL     1     -21.978   8.370  18.397  1.00  0.00     0.000 C 
BRANCH   3   4
ATOM      4  C   UNL     1     -22.517   7.172  17.598  1.00  0.00     0.000 C 
BRANCH   4   5
ATOM      5  C   UNL     1     -21.395   6.287  17.025  1.00  0.00     0.000 C 
BRANCH   5   6
ATOM      6  C   UNL     1     -20.485   6.981  15.990  1.00  0.00     0.000 C 
BRANCH   6   7
ATOM      7  C   UNL     1     -18.971   6.818  16.236  1.00  0.00     0.000 C 
BRANCH   7   8
ATOM      8  C   UNL     1     -18.601   6.019  17.501  1.00  0.00     0.000 C 
BRANCH   8   9
ATOM      9  C   UNL     1     -17.727   6.784  18.514  1.00  0.00     0.000 C 
BRANCH   9  10
ATOM     10  C   UNL     1     -16.241   6.362  18.500  1.00  0.00     0.000 C 
BRANCH  10  11
ATOM     11  C   UNL     1     -15.833   5.393  19.625  1.00  0.00     0.000 C 
BRANCH  11  12
ATOM     12  C   UNL     1     -16.946   5.021  20.625  1.00  0.00     0.006 C 
BRANCH  12  13
ATOM     13  C   UNL     1     -16.876   3.572  21.142  1.00  0.00     0.053 C 
BRANCH  13  14
ATOM     14  C   UNL     1     -17.273   2.574  20.093  1.00  0.00     0.041 C 
ATOM     15  O   UNL     1     -18.111   2.887  19.208  1.00  0.00    -0.550 OA
ATOM     16  O   UNL     1     -16.701   1.309  20.079  1.00  0.00    -0.550 OA
ENDBRANCH  13  14
ENDBRANCH  12  13
ENDBRANCH  11  12
ENDBRANCH  10  11
ENDBRANCH   9  10
ENDBRANCH   8   9
ENDBRANCH   7   8
ENDBRANCH   6   7
ENDBRANCH   5   6
ENDBRANCH   4   5
ENDBRANCH   3   4
ENDBRANCH   2   3
ENDBRANCH   1   2
BRANCH   1  17
ATOM     17  C   UNL     1     -23.383   8.183  20.740  1.00  0.00     0.000 C 
BRANCH  17  18
ATOM     18  C   UNL     1     -24.155   6.889  21.039  1.00  0.00     0.000 C 
BRANCH  18  19
ATOM     19  C   UNL     1     -23.198   5.750  21.413  1.00  0.00     0.000 C 
BRANCH  19  20
ATOM     20  C   UNL     1     -23.069   4.740  20.260  1.00  0.00     0.000 C 
BRANCH  20  21
ATOM     21  C   UNL     1     -21.615   4.278  20.033  1.00  0.00     0.000 C 
BRANCH  21  22
ATOM     22  C   UNL     1     -20.820   4.041  21.331  1.00  0.00    -0.000 C 
BRANCH  22  23
ATOM     23  C   UNL     1     -20.613   2.567  21.717  1.00  0.00    -0.000 C 
BRANCH  23  24
ATOM     24  C   UNL     1     -21.184   1.591  20.672  1.00  0.00    -0.000 C 
BRANCH  24  25
ATOM     25  C   UNL     1     -21.979   0.436  21.305  1.00  0.00    -0.000 C 
BRANCH  25  26
ATOM     26  C   UNL     1     -23.505   0.489  21.082  1.00  0.00    -0.000 C 
BRANCH  26  27
ATOM     27  C   UNL     1     -24.208   1.745  21.637  1.00  0.00    -0.000 C 
BRANCH  27  28
ATOM     28  C   UNL     1     -25.168   1.485  22.813  1.00  0.00    -0.000 C 
BRANCH  28  29
ATOM     29  C   UNL     1     -25.023   2.521  23.938  1.00  0.00    -0.003 C 
ATOM     30  C   UNL     1     -23.651   3.188  23.896  1.00  0.00     0.004 C 
ENDBRANCH  28  29
ENDBRANCH  27  28
ENDBRANCH  26  27
ENDBRANCH  25  26
ENDBRANCH  24  25
ENDBRANCH  23  24
ENDBRANCH  22  23
ENDBRANCH  21  22
ENDBRANCH  20  21
ENDBRANCH  19  20
ENDBRANCH  18  19
ENDBRANCH  17  18
ENDBRANCH   1  17
TORSDOF 26
ENDMDL
MODEL 5
REMARK VINA RESULT:    -3.646      1.277      2.664
REMARK INTER + INTRA:         -14.247
REMARK INTER:                  -9.225
REMARK INTRA:                  -5.023
REMARK UNBOUND:                -5.060
REMARK SMILES CCCCCCCCCCCCCCCCCCCCCCCCCCCC(=O)[O-]
REMARK SMILES IDX 15 1 16 2 17 3 18 4 19 5 20 6 21 7 22 8 23 9 24 10 25 11
REMARK SMILES IDX 26 12 27 13 28 14 29 15 30 16 14 17 13 18 12 19 11 20 10 21
REMARK SMILES IDX 9 22 8 23 7 24 6 25 5 26 4 27 3 28 2 29 1 30
REMARK H PARENT
REMARK Flexibility Score: inf
ROOT
ATOM      1  C   UNL     1     -21.341   4.560  20.041  1.00  0.00     0.000 C 
ENDROOT
BRANCH   1   2
ATOM      2  C   UNL     1     -22.856   4.665  20.288  1.00  0.00     0.000 C 
BRANCH   2   3
ATOM      3  C   UNL     1     -23.197   5.666  21.403  1.00  0.00     0.000 C 
BRANCH   3   4
ATOM      4  C   UNL     1     -23.890   6.931  20.868  1.00  0.00     0.000 C 
BRANCH   4   5
ATOM      5  C   UNL     1     -22.914   8.106  20.676  1.00  0.00     0.000 C 
BRANCH   5   6
ATOM      6  C   UNL     1     -22.904   8.717  19.260  1.00  0.00     0.000 C 
BRANCH   6   7
ATOM      7  C   UNL     1     -21.855   8.122  18.298  1.00  0.00     0.000 C 
BRANCH   7   8
ATOM      8  C   UNL     1     -22.371   6.981  17.400  1.00  0.00     0.000 C 
BRANCH   8   9
ATOM      9  C   UNL     1     -21.269   6.157  16.706  1.00  0.00     0.000 C 
BRANCH   9  10
ATOM     10  C   UNL     1     -20.167   7.018  16.049  1.00  0.00     0.000 C 
BRANCH  10  11
ATOM     11  C   UNL     1     -18.770   6.873  16.682  1.00  0.00     0.000 C 
BRANCH  11  12
ATOM     12  C   UNL     1     -18.638   5.793  17.775  1.00  0.00     0.006 C 
BRANCH  12  13
ATOM     13  C   UNL     1     -17.815   6.231  19.001  1.00  0.00     0.053 C 
BRANCH  13  14
ATOM     14  C   UNL     1     -18.399   7.435  19.678  1.00  0.00     0.041 C 
ATOM     15  O   UNL     1     -18.025   8.591  19.347  1.00  0.00    -0.550 OA
ATOM     16  O   UNL     1     -19.375   7.285  20.656  1.00  0.00    -0.550 OA
ENDBRANCH  13  14
ENDBRANCH  12  13
ENDBRANCH  11  12
ENDBRANCH  10  11
ENDBRANCH   9  10
ENDBRANCH   8   9
ENDBRANCH   7   8
ENDBRANCH   6   7
ENDBRANCH   5   6
ENDBRANCH   4   5
ENDBRANCH   3   4
ENDBRANCH   2   3
ENDBRANCH   1   2
BRANCH   1  17
ATOM     17  C   UNL     1     -20.781   3.165  20.359  1.00  0.00     0.000 C 
BRANCH  17  18
ATOM     18  C   UNL     1     -19.349   3.211  20.914  1.00  0.00     0.000 C 
BRANCH  18  19
ATOM     19  C   UNL     1     -19.252   2.471  22.254  1.00  0.00     0.000 C 
BRANCH  19  20
ATOM     20  C   UNL     1     -20.635   2.349  22.915  1.00  0.00     0.000 C 
BRANCH  20  21
ATOM     21  C   UNL     1     -20.881   3.434  23.984  1.00  0.00     0.000 C 
BRANCH  21  22
ATOM     22  C   UNL     1     -22.369   3.671  24.308  1.00  0.00    -0.000 C 
BRANCH  22  23
ATOM     23  C   UNL     1     -23.276   2.437  24.176  1.00  0.00    -0.000 C 
BRANCH  23  24
ATOM     24  C   UNL     1     -24.492   2.684  23.266  1.00  0.00    -0.000 C 
BRANCH  24  25
ATOM     25  C   UNL     1     -24.826   1.476  22.373  1.00  0.00    -0.000 C 
BRANCH  25  26
ATOM     26  C   UNL     1     -23.884   1.269  21.169  1.00  0.00    -0.000 C 
BRANCH  26  27
ATOM     27  C   UNL     1     -23.356  -0.169  20.985  1.00  0.00    -0.000 C 
BRANCH  27  28
ATOM     28  C   UNL     1     -21.823  -0.301  20.972  1.00  0.00    -0.000 C 
BRANCH  28  29
ATOM     29  C   UNL     1     -21.292  -1.177  22.117  1.00  0.00    -0.003 C 
ATOM     30  C   UNL     1     -22.246  -1.161  23.307  1.00  0.00     0.004 C 
ENDBRANCH  28  29
ENDBRANCH  27  28
ENDBRANCH  26  27
ENDBRANCH  25  26
ENDBRANCH  24  25
ENDBRANCH  23  24
ENDBRANCH  22  23
ENDBRANCH  21  22
ENDBRANCH  20  21
ENDBRANCH  19  20
ENDBRANCH  18  19
ENDBRANCH  17  18
ENDBRANCH   1  17
TORSDOF 26
ENDMDL
MODEL 6
REMARK VINA RESULT:    -3.630      2.061      7.312
REMARK INTER + INTRA:         -14.207
REMARK INTER:                  -8.990
REMARK INTRA:                  -5.217
REMARK UNBOUND:                -5.060
REMARK SMILES CCCCCCCCCCCCCCCCCCCCCCCCCCCC(=O)[O-]
REMARK SMILES IDX 15 1 16 2 17 3 18 4 19 5 20 6 21 7 22 8 23 9 24 10 25 11
REMARK SMILES IDX 26 12 27 13 28 14 29 15 30 16 14 17 13 18 12 19 11 20 10 21
REMARK SMILES IDX 9 22 8 23 7 24 6 25 5 26 4 27 3 28 2 29 1 30
REMARK H PARENT
REMARK Flexibility Score: inf
ROOT
ATOM      1  C   UNL     1     -20.416   3.471  21.295  1.00  0.00     0.000 C 
ENDROOT
BRANCH   1   2
ATOM      2  C   UNL     1     -20.064   3.129  22.753  1.00  0.00     0.000 C 
BRANCH   2   3
ATOM      3  C   UNL     1     -20.804   4.026  23.757  1.00  0.00     0.000 C 
BRANCH   3   4
ATOM      4  C   UNL     1     -21.277   3.254  25.001  1.00  0.00     0.000 C 
BRANCH   4   5
ATOM      5  C   UNL     1     -22.798   3.013  25.007  1.00  0.00     0.000 C 
BRANCH   5   6
ATOM      6  C   UNL     1     -23.631   4.108  24.310  1.00  0.00     0.000 C 
BRANCH   6   7
ATOM      7  C   UNL     1     -24.731   3.588  23.360  1.00  0.00     0.000 C 
BRANCH   7   8
ATOM      8  C   UNL     1     -24.889   2.055  23.328  1.00  0.00     0.000 C 
BRANCH   8   9
ATOM      9  C   UNL     1     -24.687   1.415  21.941  1.00  0.00     0.000 C 
BRANCH   9  10
ATOM     10  C   UNL     1     -24.064   0.002  21.990  1.00  0.00     0.000 C 
BRANCH  10  11
ATOM     11  C   UNL     1     -23.520  -0.512  20.644  1.00  0.00     0.000 C 
BRANCH  11  12
ATOM     12  C   UNL     1     -22.002  -0.347  20.429  1.00  0.00     0.006 C 
BRANCH  12  13
ATOM     13  C   UNL     1     -21.190  -0.201  21.729  1.00  0.00     0.053 C 
BRANCH  13  14
ATOM     14  C   UNL     1     -19.718  -0.393  21.506  1.00  0.00     0.041 C 
ATOM     15  O   UNL     1     -19.075  -1.219  22.204  1.00  0.00    -0.550 OA
ATOM     16  O   UNL     1     -19.063   0.320  20.510  1.00  0.00    -0.550 OA
ENDBRANCH  13  14
ENDBRANCH  12  13
ENDBRANCH  11  12
ENDBRANCH  10  11
ENDBRANCH   9  10
ENDBRANCH   8   9
ENDBRANCH   7   8
ENDBRANCH   6   7
ENDBRANCH   5   6
ENDBRANCH   4   5
ENDBRANCH   3   4
ENDBRANCH   2   3
ENDBRANCH   1   2
BRANCH   1  17
ATOM     17  C   UNL     1     -21.916   3.326  20.995  1.00  0.00     0.000 C 
BRANCH  17  18
ATOM     18  C   UNL     1     -22.494   4.538  20.248  1.00  0.00     0.000 C 
BRANCH  18  19
ATOM     19  C   UNL     1     -22.431   5.802  21.115  1.00  0.00     0.000 C 
BRANCH  19  20
ATOM     20  C   UNL     1     -23.788   6.524  21.132  1.00  0.00     0.000 C 
BRANCH  20  21
ATOM     21  C   UNL     1     -23.750   7.881  20.397  1.00  0.00     0.000 C 
BRANCH  21  22
ATOM     22  C   UNL     1     -22.333   8.347  20.010  1.00  0.00    -0.000 C 
BRANCH  22  23
ATOM     23  C   UNL     1     -22.060   8.439  18.500  1.00  0.00    -0.000 C 
BRANCH  23  24
ATOM     24  C   UNL     1     -22.705   7.290  17.705  1.00  0.00    -0.000 C 
BRANCH  24  25
ATOM     25  C   UNL     1     -21.671   6.299  17.141  1.00  0.00    -0.000 C 
BRANCH  25  26
ATOM     26  C   UNL     1     -20.369   6.938  16.614  1.00  0.00    -0.000 C 
BRANCH  26  27
ATOM     27  C   UNL     1     -19.071   6.431  17.275  1.00  0.00    -0.000 C 
BRANCH  27  28
ATOM     28  C   UNL     1     -19.261   5.762  18.648  1.00  0.00    -0.000 C 
BRANCH  28  29
ATOM     29  C   UNL     1     -19.034   6.731  19.818  1.00  0.00    -0.003 C 
ATOM     30  C   UNL     1     -18.412   8.038  19.334  1.00  0.00     0.004 C 
ENDBRANCH  28  29
ENDBRANCH  27  28
ENDBRANCH  26  27
ENDBRANCH  25  26
ENDBRANCH  24  25
ENDBRANCH  23  24
ENDBRANCH  22  23
ENDBRANCH  21  22
ENDBRANCH  20  21
ENDBRANCH  19  20
ENDBRANCH  18  19
ENDBRANCH  17  18
ENDBRANCH   1  17
TORSDOF 26
ENDMDL
MODEL 7
REMARK VINA RESULT:    -3.616      1.342      3.173
REMARK INTER + INTRA:         -14.172
REMARK INTER:                  -9.187
REMARK INTRA:                  -4.985
REMARK UNBOUND:                -5.060
REMARK SMILES CCCCCCCCCCCCCCCCCCCCCCCCCCCC(=O)[O-]
REMARK SMILES IDX 15 1 16 2 17 3 18 4 19 5 20 6 21 7 22 8 23 9 24 10 25 11
REMARK SMILES IDX 26 12 27 13 28 14 29 15 30 16 14 17 13 18 12 19 11 20 10 21
REMARK SMILES IDX 9 22 8 23 7 24 6 25 5 26 4 27 3 28 2 29 1 30
REMARK H PARENT
REMARK Flexibility Score: inf
ROOT
ATOM      1  C   UNL     1     -22.689   4.656  20.120  1.00  0.00     0.000 C 
ENDROOT
BRANCH   1   2
ATOM      2  C   UNL     1     -22.709   5.762  21.189  1.00  0.00     0.000 C 
BRANCH   2   3
ATOM      3  C   UNL     1     -23.979   6.625  21.110  1.00  0.00     0.000 C 
BRANCH   3   4
ATOM      4  C   UNL     1     -23.735   7.968  20.400  1.00  0.00     0.000 C 
BRANCH   4   5
ATOM      5  C   UNL     1     -22.238   8.306  20.269  1.00  0.00     0.000 C 
BRANCH   5   6
ATOM      6  C   UNL     1     -21.740   8.498  18.822  1.00  0.00     0.000 C 
BRANCH   6   7
ATOM      7  C   UNL     1     -22.440   7.617  17.766  1.00  0.00     0.000 C 
BRANCH   7   8
ATOM      8  C   UNL     1     -21.578   6.472  17.201  1.00  0.00     0.000 C 
BRANCH   8   9
ATOM      9  C   UNL     1     -20.497   6.915  16.196  1.00  0.00     0.000 C 
BRANCH   9  10
ATOM     10  C   UNL     1     -19.053   6.731  16.712  1.00  0.00     0.000 C 
BRANCH  10  11
ATOM     11  C   UNL     1     -18.932   5.948  18.033  1.00  0.00     0.000 C 
BRANCH  11  12
ATOM     12  C   UNL     1     -18.392   6.745  19.237  1.00  0.00     0.006 C 
BRANCH  12  13
ATOM     13  C   UNL     1     -18.746   6.139  20.608  1.00  0.00     0.053 C 
BRANCH  13  14
ATOM     14  C   UNL     1     -19.071   7.190  21.628  1.00  0.00     0.041 C 
ATOM     15  O   UNL     1     -19.713   6.886  22.667  1.00  0.00    -0.550 OA
ATOM     16  O   UNL     1     -18.645   8.499  21.445  1.00  0.00    -0.550 OA
ENDBRANCH  13  14
ENDBRANCH  12  13
ENDBRANCH  11  12
ENDBRANCH  10  11
ENDBRANCH   9  10
ENDBRANCH   8   9
ENDBRANCH   7   8
ENDBRANCH   6   7
ENDBRANCH   5   6
ENDBRANCH   4   5
ENDBRANCH   3   4
ENDBRANCH   2   3
ENDBRANCH   1   2
BRANCH   1  17
ATOM     17  C   UNL     1     -22.338   3.276  20.699  1.00  0.00     0.000 C 
BRANCH  17  18
ATOM     18  C   UNL     1     -20.852   2.923  20.537  1.00  0.00     0.000 C 
BRANCH  18  19
ATOM     19  C   UNL     1     -20.588   1.459  20.909  1.00  0.00     0.000 C 
BRANCH  19  20
ATOM     20  C   UNL     1     -21.733   0.554  20.423  1.00  0.00     0.000 C 
BRANCH  20  21
ATOM     21  C   UNL     1     -22.171  -0.474  21.487  1.00  0.00     0.000 C 
BRANCH  21  22
ATOM     22  C   UNL     1     -23.698  -0.628  21.621  1.00  0.00    -0.000 C 
BRANCH  22  23
ATOM     23  C   UNL     1     -24.334   0.122  22.804  1.00  0.00    -0.000 C 
BRANCH  23  24
ATOM     24  C   UNL     1     -24.935   1.479  22.396  1.00  0.00    -0.000 C 
BRANCH  24  25
ATOM     25  C   UNL     1     -25.309   2.355  23.605  1.00  0.00    -0.000 C 
BRANCH  25  26
ATOM     26  C   UNL     1     -24.828   3.819  23.529  1.00  0.00    -0.000 C 
BRANCH  26  27
ATOM     27  C   UNL     1     -23.664   4.180  24.473  1.00  0.00    -0.000 C 
BRANCH  27  28
ATOM     28  C   UNL     1     -22.431   3.263  24.364  1.00  0.00    -0.000 C 
BRANCH  28  29
ATOM     29  C   UNL     1     -21.127   4.044  24.146  1.00  0.00    -0.003 C 
ATOM     30  C   UNL     1     -19.923   3.107  24.131  1.00  0.00     0.004 C 
ENDBRANCH  28  29
ENDBRANCH  27  28
ENDBRANCH  26  27
ENDBRANCH  25  26
ENDBRANCH  24  25
ENDBRANCH  23  24
ENDBRANCH  22  23
ENDBRANCH  21  22
ENDBRANCH  20  21
ENDBRANCH  19  20
ENDBRANCH  18  19
ENDBRANCH  17  18
ENDBRANCH   1  17
TORSDOF 26
ENDMDL
MODEL 8
REMARK VINA RESULT:    -3.599      2.576      7.242
REMARK INTER + INTRA:         -14.129
REMARK INTER:                  -9.152
REMARK INTRA:                  -4.976
REMARK UNBOUND:                -5.060
REMARK SMILES CCCCCCCCCCCCCCCCCCCCCCCCCCCC(=O)[O-]
REMARK SMILES IDX 15 1 16 2 17 3 18 4 19 5 20 6 21 7 22 8 23 9 24 10 25 11
REMARK SMILES IDX 26 12 27 13 28 14 29 15 30 16 14 17 13 18 12 19 11 20 10 21
REMARK SMILES IDX 9 22 8 23 7 24 6 25 5 26 4 27 3 28 2 29 1 30
REMARK H PARENT
REMARK Flexibility Score: inf
ROOT
ATOM      1  C   UNL     1     -22.983   5.870  21.465  1.00  0.00     0.000 C 
ENDROOT
BRANCH   1   2
ATOM      2  C   UNL     1     -23.068   4.498  20.774  1.00  0.00     0.000 C 
BRANCH   2   3
ATOM      3  C   UNL     1     -21.795   4.166  19.978  1.00  0.00     0.000 C 
BRANCH   3   4
ATOM      4  C   UNL     1     -21.118   2.872  20.461  1.00  0.00     0.000 C 
BRANCH   4   5
ATOM      5  C   UNL     1     -20.917   2.841  21.987  1.00  0.00     0.000 C 
BRANCH   5   6
ATOM      6  C   UNL     1     -20.501   1.471  22.560  1.00  0.00     0.000 C 
BRANCH   6   7
ATOM      7  C   UNL     1     -20.573   0.296  21.563  1.00  0.00     0.000 C 
BRANCH   7   8
ATOM      8  C   UNL     1     -21.725  -0.696  21.811  1.00  0.00     0.000 C 
BRANCH   8   9
ATOM      9  C   UNL     1     -22.907  -0.570  20.831  1.00  0.00     0.000 C 
BRANCH   9  10
ATOM     10  C   UNL     1     -23.829   0.637  21.118  1.00  0.00     0.000 C 
BRANCH  10  11
ATOM     11  C   UNL     1     -24.257   0.788  22.590  1.00  0.00     0.000 C 
BRANCH  11  12
ATOM     12  C   UNL     1     -24.952   2.116  22.952  1.00  0.00     0.006 C 
BRANCH  12  13
ATOM     13  C   UNL     1     -24.230   2.931  24.042  1.00  0.00     0.053 C 
BRANCH  13  14
ATOM     14  C   UNL     1     -25.181   3.485  25.062  1.00  0.00     0.041 C 
ATOM     15  O   UNL     1     -26.093   2.758  25.537  1.00  0.00    -0.550 OA
ATOM     16  O   UNL     1     -25.047   4.794  25.506  1.00  0.00    -0.550 OA
ENDBRANCH  13  14
ENDBRANCH  12  13
ENDBRANCH  11  12
ENDBRANCH  10  11
ENDBRANCH   9  10
ENDBRANCH   8   9
ENDBRANCH   7   8
ENDBRANCH   6   7
ENDBRANCH   5   6
ENDBRANCH   4   5
ENDBRANCH   3   4
ENDBRANCH   2   3
ENDBRANCH   1   2
BRANCH   1  17
ATOM     17  C   UNL     1     -24.181   6.775  21.139  1.00  0.00     0.000 C 
BRANCH  17  18
ATOM     18  C   UNL     1     -23.799   7.975  20.258  1.00  0.00     0.000 C 
BRANCH  18  19
ATOM     19  C   UNL     1     -22.275   8.119  20.153  1.00  0.00     0.000 C 
BRANCH  19  20
ATOM     20  C   UNL     1     -21.837   8.267  18.687  1.00  0.00     0.000 C 
BRANCH  20  21
ATOM     21  C   UNL     1     -22.535   7.257  17.752  1.00  0.00     0.000 C 
BRANCH  21  22
ATOM     22  C   UNL     1     -21.568   6.320  17.004  1.00  0.00    -0.000 C 
BRANCH  22  23
ATOM     23  C   UNL     1     -20.334   7.002  16.390  1.00  0.00    -0.000 C 
BRANCH  23  24
ATOM     24  C   UNL     1     -19.015   6.314  16.781  1.00  0.00    -0.000 C 
BRANCH  24  25
ATOM     25  C   UNL     1     -18.392   6.900  18.062  1.00  0.00    -0.000 C 
BRANCH  25  26
ATOM     26  C   UNL     1     -18.880   6.262  19.379  1.00  0.00    -0.000 C 
BRANCH  26  27
ATOM     27  C   UNL     1     -17.951   5.183  19.972  1.00  0.00    -0.000 C 
BRANCH  27  28
ATOM     28  C   UNL     1     -18.007   3.817  19.262  1.00  0.00    -0.000 C 
BRANCH  28  29
ATOM     29  C   UNL     1     -17.318   2.703  20.062  1.00  0.00    -0.003 C 
ATOM     30  C   UNL     1     -17.254   3.053  21.546  1.00  0.00     0.004 C 
ENDBRANCH  28  29
ENDBRANCH  27  28
ENDBRANCH  26  27
ENDBRANCH  25  26
ENDBRANCH  24  25
ENDBRANCH  23  24
ENDBRANCH  22  23
ENDBRANCH  21  22
ENDBRANCH  20  21
ENDBRANCH  19  20
ENDBRANCH  18  19
ENDBRANCH  17  18
ENDBRANCH   1  17
TORSDOF 26
ENDMDL
MODEL 9
REMARK VINA RESULT:    -3.582      2.791      7.715
REMARK INTER + INTRA:         -14.087
REMARK INTER:                  -9.094
REMARK INTRA:                  -4.993
REMARK UNBOUND:                -5.060
REMARK SMILES CCCCCCCCCCCCCCCCCCCCCCCCCCCC(=O)[O-]
REMARK SMILES IDX 15 1 16 2 17 3 18 4 19 5 20 6 21 7 22 8 23 9 24 10 25 11
REMARK SMILES IDX 26 12 27 13 28 14 29 15 30 16 14 17 13 18 12 19 11 20 10 21
REMARK SMILES IDX 9 22 8 23 7 24 6 25 5 26 4 27 3 28 2 29 1 30
REMARK H PARENT
REMARK Flexibility Score: inf
ROOT
ATOM      1  C   UNL     1     -22.670   4.554  20.080  1.00  0.00     0.000 C 
ENDROOT
BRANCH   1   2
ATOM      2  C   UNL     1     -22.763   3.179  20.764  1.00  0.00     0.000 C 
BRANCH   2   3
ATOM      3  C   UNL     1     -21.408   2.453  20.799  1.00  0.00     0.000 C 
BRANCH   3   4
ATOM      4  C   UNL     1     -20.699   2.594  22.157  1.00  0.00     0.000 C 
BRANCH   4   5
ATOM      5  C   UNL     1     -21.399   1.801  23.276  1.00  0.00     0.000 C 
BRANCH   5   6
ATOM      6  C   UNL     1     -21.608   2.580  24.590  1.00  0.00     0.000 C 
BRANCH   6   7
ATOM      7  C   UNL     1     -22.079   4.039  24.419  1.00  0.00     0.000 C 
BRANCH   7   8
ATOM      8  C   UNL     1     -23.591   4.209  24.176  1.00  0.00     0.000 C 
BRANCH   8   9
ATOM      9  C   UNL     1     -24.464   3.058  24.712  1.00  0.00     0.000 C 
BRANCH   9  10
ATOM     10  C   UNL     1     -25.610   2.648  23.760  1.00  0.00     0.000 C 
BRANCH  10  11
ATOM     11  C   UNL     1     -25.296   1.446  22.850  1.00  0.00     0.000 C 
BRANCH  11  12
ATOM     12  C   UNL     1     -24.567   0.267  23.525  1.00  0.00     0.006 C 
BRANCH  12  13
ATOM     13  C   UNL     1     -24.505  -1.013  22.670  1.00  0.00     0.053 C 
BRANCH  13  14
ATOM     14  C   UNL     1     -23.334  -1.013  21.731  1.00  0.00     0.041 C 
ATOM     15  O   UNL     1     -22.260  -1.581  22.059  1.00  0.00    -0.550 OA
ATOM     16  O   UNL     1     -23.437  -0.409  20.484  1.00  0.00    -0.550 OA
ENDBRANCH  13  14
ENDBRANCH  12  13
ENDBRANCH  11  12
ENDBRANCH  10  11
ENDBRANCH   9  10
ENDBRANCH   8   9
ENDBRANCH   7   8
ENDBRANCH   6   7
ENDBRANCH   5   6
ENDBRANCH   4   5
ENDBRANCH   3   4
ENDBRANCH   2   3
ENDBRANCH   1   2
BRANCH   1  17
ATOM     17  C   UNL     1     -22.575   5.714  21.084  1.00  0.00     0.000 C 
BRANCH  17  18
ATOM     18  C   UNL     1     -23.844   6.580  21.113  1.00  0.00     0.000 C 
BRANCH  18  19
ATOM     19  C   UNL     1     -23.567   7.981  20.553  1.00  0.00     0.000 C 
BRANCH  19  20
ATOM     20  C   UNL     1     -22.078   8.153  20.213  1.00  0.00     0.000 C 
BRANCH  20  21
ATOM     21  C   UNL     1     -21.844   8.514  18.731  1.00  0.00     0.000 C 
BRANCH  21  22
ATOM     22  C   UNL     1     -22.507   7.544  17.735  1.00  0.00    -0.000 C 
BRANCH  22  23
ATOM     23  C   UNL     1     -21.591   6.438  17.185  1.00  0.00    -0.000 C 
BRANCH  23  24
ATOM     24  C   UNL     1     -20.405   6.992  16.376  1.00  0.00    -0.000 C 
BRANCH  24  25
ATOM     25  C   UNL     1     -19.047   6.452  16.858  1.00  0.00    -0.000 C 
BRANCH  25  26
ATOM     26  C   UNL     1     -18.502   7.102  18.146  1.00  0.00    -0.000 C 
BRANCH  26  27
ATOM     27  C   UNL     1     -18.830   6.350  19.453  1.00  0.00    -0.000 C 
BRANCH  27  28
ATOM     28  C   UNL     1     -19.059   4.836  19.291  1.00  0.00    -0.000 C 
BRANCH  28  29
ATOM     29  C   UNL     1     -17.901   3.997  19.851  1.00  0.00    -0.003 C 
ATOM     30  C   UNL     1     -17.999   2.547  19.383  1.00  0.00     0.004 C 
ENDBRANCH  28  29
ENDBRANCH  27  28
ENDBRANCH  26  27
ENDBRANCH  25  26
ENDBRANCH  24  25
ENDBRANCH  23  24
ENDBRANCH  22  23
ENDBRANCH  21  22
ENDBRANCH  20  21
ENDBRANCH  19  20
ENDBRANCH  18  19
ENDBRANCH  17  18
ENDBRANCH   1  17
TORSDOF 26
ENDMDL
