MODEL 1
REMARK VINA RESULT:    -5.207      0.000      0.000
REMARK INTER + INTRA:         -14.736
REMARK INTER:                 -11.903
REMARK INTRA:                  -2.833
REMARK UNBOUND:                -2.833
REMARK SMILES CCCCCCCCCCCCCCCCCCCCCCCC(=O)[O-]
REMARK SMILES IDX 13 1 14 2 15 3 16 4 17 5 18 6 19 7 20 8 21 9 22 10 23 11
REMARK SMILES IDX 24 12 25 13 26 14 12 15 11 16 10 17 9 18 8 19 7 20 6 21 5 22
REMARK SMILES IDX 4 23 3 24 2 25 1 26
REMARK H PARENT
REMARK Flexibility Score: inf
ROOT
ATOM      1  C   UNL     1       9.613  12.918  39.419  1.00  0.00     0.000 C 
ENDROOT
BRANCH   1   2
ATOM      2  C   UNL     1       9.932  11.595  38.695  1.00  0.00     0.000 C 
BRANCH   2   3
ATOM      3  C   UNL     1       8.883  10.478  38.876  1.00  0.00     0.000 C 
BRANCH   3   4
ATOM      4  C   UNL     1       9.432   9.145  39.416  1.00  0.00     0.000 C 
BRANCH   4   5
ATOM      5  C   UNL     1       8.912   8.807  40.821  1.00  0.00     0.000 C 
BRANCH   5   6
ATOM      6  C   UNL     1       7.381   8.881  40.867  1.00  0.00     0.000 C 
BRANCH   6   7
ATOM      7  C   UNL     1       6.908   9.883  41.930  1.00  0.00     0.000 C 
BRANCH   7   8
ATOM      8  C   UNL     1       7.938  10.077  43.053  1.00  0.00     0.000 C 
BRANCH   8   9
ATOM      9  C   UNL     1       7.466   9.488  44.391  1.00  0.00     0.000 C 
BRANCH   9  10
ATOM     10  C   UNL     1       8.406   8.371  44.860  1.00  0.00     0.006 C 
BRANCH  10  11
ATOM     11  C   UNL     1       9.788   8.505  44.214  1.00  0.00     0.053 C 
BRANCH  11  12
ATOM     12  C   UNL     1      10.774   9.055  45.196  1.00  0.00     0.041 C 
ATOM     13  O   UNL     1      10.800  10.288  45.447  1.00  0.00    -0.550 OA
ATOM     14  O   UNL     1      11.635   8.197  45.870  1.00  0.00    -0.550 OA
ENDBRANCH  11  12
ENDBRANCH  10  11
ENDBRANCH   9  10
ENDBRANCH   8   9
ENDBRANCH   7   8
ENDBRANCH   6   7
ENDBRANCH   5   6
ENDBRANCH   4   5
ENDBRANCH   3   4
ENDBRANCH   2   3
ENDBRANCH   1   2
BRANCH   1  15
ATOM     15  C   UNL     1       8.986  12.762  40.817  1.00  0.00     0.000 C 
BRANCH  15  16
ATOM     16  C   UNL     1       7.523  13.244  40.905  1.00  0.00     0.000 C 
BRANCH  16  17
ATOM     17  C   UNL     1       7.092  13.571  42.346  1.00  0.00     0.000 C 
BRANCH  17  18
ATOM     18  C   UNL     1       6.007  14.657  42.410  1.00  0.00    -0.000 C 
BRANCH  18  19
ATOM     19  C   UNL     1       6.592  16.078  42.473  1.00  0.00    -0.000 C 
BRANCH  19  20
ATOM     20  C   UNL     1       7.988  16.109  43.117  1.00  0.00    -0.000 C 
BRANCH  20  21
ATOM     21  C   UNL     1       8.937  17.096  42.416  1.00  0.00    -0.000 C 
BRANCH  21  22
ATOM     22  C   UNL     1      10.005  16.390  41.563  1.00  0.00    -0.000 C 
BRANCH  22  23
ATOM     23  C   UNL     1      11.385  16.309  42.248  1.00  0.00    -0.000 C 
BRANCH  23  24
ATOM     24  C   UNL     1      12.169  17.629  42.130  1.00  0.00    -0.000 C 
BRANCH  24  25
ATOM     25  C   UNL     1      13.595  17.522  42.695  1.00  0.00    -0.003 C 
ATOM     26  C   UNL     1      14.459  18.735  42.346  1.00  0.00     0.004 C 
ENDBRANCH  24  25
ENDBRANCH  23  24
ENDBRANCH  22  23
ENDBRANCH  21  22
ENDBRANCH  20  21
ENDBRANCH  19  20
ENDBRANCH  18  19
ENDBRANCH  17  18
ENDBRANCH  16  17
ENDBRANCH  15  16
ENDBRANCH   1  15
TORSDOF 22
ENDMDL
MODEL 2
REMARK VINA RESULT:    -5.176      1.672      2.607
REMARK INTER + INTRA:         -14.665
REMARK INTER:                 -10.810
REMARK INTRA:                  -3.855
REMARK UNBOUND:                -2.833
REMARK SMILES CCCCCCCCCCCCCCCCCCCCCCCC(=O)[O-]
REMARK SMILES IDX 13 1 14 2 15 3 16 4 17 5 18 6 19 7 20 8 21 9 22 10 23 11
REMARK SMILES IDX 24 12 25 13 26 14 12 15 11 16 10 17 9 18 8 19 7 20 6 21 5 22
REMARK SMILES IDX 4 23 3 24 2 25 1 26
REMARK H PARENT
REMARK Flexibility Score: inf
ROOT
ATOM      1  C   UNL     1       9.778  12.841  39.322  1.00  0.00     0.000 C 
ENDROOT
BRANCH   1   2
ATOM      2  C   UNL     1      10.092  11.525  38.585  1.00  0.00     0.000 C 
BRANCH   2   3
ATOM      3  C   UNL     1       9.027  10.417  38.735  1.00  0.00     0.000 C 
BRANCH   3   4
ATOM      4  C   UNL     1       9.521   9.120  39.401  1.00  0.00     0.000 C 
BRANCH   4   5
ATOM      5  C   UNL     1       8.375   8.226  39.896  1.00  0.00     0.000 C 
BRANCH   5   6
ATOM      6  C   UNL     1       7.067   9.021  39.992  1.00  0.00     0.000 C 
BRANCH   6   7
ATOM      7  C   UNL     1       6.234   8.569  41.200  1.00  0.00     0.000 C 
BRANCH   7   8
ATOM      8  C   UNL     1       7.091   7.913  42.292  1.00  0.00     0.000 C 
BRANCH   8   9
ATOM      9  C   UNL     1       7.515   8.909  43.382  1.00  0.00     0.000 C 
BRANCH   9  10
ATOM     10  C   UNL     1       9.022   9.184  43.317  1.00  0.00     0.006 C 
BRANCH  10  11
ATOM     11  C   UNL     1       9.827   7.934  43.687  1.00  0.00     0.053 C 
BRANCH  11  12
ATOM     12  C   UNL     1      10.821   8.251  44.760  1.00  0.00     0.041 C 
ATOM     13  O   UNL     1      12.053   8.097  44.549  1.00  0.00    -0.550 OA
ATOM     14  O   UNL     1      10.389   8.760  45.978  1.00  0.00    -0.550 OA
ENDBRANCH  11  12
ENDBRANCH  10  11
ENDBRANCH   9  10
ENDBRANCH   8   9
ENDBRANCH   7   8
ENDBRANCH   6   7
ENDBRANCH   5   6
ENDBRANCH   4   5
ENDBRANCH   3   4
ENDBRANCH   2   3
ENDBRANCH   1   2
BRANCH   1  15
ATOM     15  C   UNL     1       8.472  12.835  40.138  1.00  0.00     0.000 C 
BRANCH  15  16
ATOM     16  C   UNL     1       8.672  12.536  41.639  1.00  0.00     0.000 C 
BRANCH  16  17
ATOM     17  C   UNL     1       7.344  12.288  42.377  1.00  0.00     0.000 C 
BRANCH  17  18
ATOM     18  C   UNL     1       6.136  12.250  41.429  1.00  0.00    -0.000 C 
BRANCH  18  19
ATOM     19  C   UNL     1       4.920  13.011  41.986  1.00  0.00    -0.000 C 
BRANCH  19  20
ATOM     20  C   UNL     1       5.038  14.531  41.785  1.00  0.00    -0.000 C 
BRANCH  20  21
ATOM     21  C   UNL     1       5.013  15.303  43.115  1.00  0.00    -0.000 C 
BRANCH  21  22
ATOM     22  C   UNL     1       6.035  16.453  43.155  1.00  0.00    -0.000 C 
BRANCH  22  23
ATOM     23  C   UNL     1       7.501  15.975  43.106  1.00  0.00    -0.000 C 
BRANCH  23  24
ATOM     24  C   UNL     1       8.180  16.324  41.770  1.00  0.00    -0.000 C 
BRANCH  24  25
ATOM     25  C   UNL     1       9.654  16.726  41.943  1.00  0.00    -0.003 C 
ATOM     26  C   UNL     1      10.602  15.527  41.893  1.00  0.00     0.004 C 
ENDBRANCH  24  25
ENDBRANCH  23  24
ENDBRANCH  22  23
ENDBRANCH  21  22
ENDBRANCH  20  21
ENDBRANCH  19  20
ENDBRANCH  18  19
ENDBRANCH  17  18
ENDBRANCH  16  17
ENDBRANCH  15  16
ENDBRANCH   1  15
TORSDOF 22
ENDMDL
MODEL 3
REMARK VINA RESULT:    -5.119      4.120      9.354
REMARK INTER + INTRA:         -14.535
REMARK INTER:                 -13.391
REMARK INTRA:                  -1.144
REMARK UNBOUND:                -2.833
REMARK SMILES CCCCCCCCCCCCCCCCCCCCCCCC(=O)[O-]
REMARK SMILES IDX 13 1 14 2 15 3 16 4 17 5 18 6 19 7 20 8 21 9 22 10 23 11
REMARK SMILES IDX 24 12 25 13 26 14 12 15 11 16 10 17 9 18 8 19 7 20 6 21 5 22
REMARK SMILES IDX 4 23 3 24 2 25 1 26
REMARK H PARENT
REMARK Flexibility Score: inf
ROOT
ATOM      1  C   UNL     1       9.892  16.811  41.985  1.00  0.00     0.000 C 
ENDROOT
BRANCH   1   2
ATOM      2  C   UNL     1      11.391  16.466  42.071  1.00  0.00     0.000 C 
BRANCH   2   3
ATOM      3  C   UNL     1      12.346  17.678  42.045  1.00  0.00     0.000 C 
BRANCH   3   4
ATOM      4  C   UNL     1      13.625  17.524  42.887  1.00  0.00     0.000 C 
BRANCH   4   5
ATOM      5  C   UNL     1      14.779  18.409  42.396  1.00  0.00     0.000 C 
BRANCH   5   6
ATOM      6  C   UNL     1      15.833  17.571  41.663  1.00  0.00     0.000 C 
BRANCH   6   7
ATOM      7  C   UNL     1      17.239  17.848  42.214  1.00  0.00     0.000 C 
BRANCH   7   8
ATOM      8  C   UNL     1      18.060  16.562  42.401  1.00  0.00     0.000 C 
BRANCH   8   9
ATOM      9  C   UNL     1      19.572  16.830  42.421  1.00  0.00     0.000 C 
BRANCH   9  10
ATOM     10  C   UNL     1      20.360  15.545  42.138  1.00  0.00     0.006 C 
BRANCH  10  11
ATOM     11  C   UNL     1      19.579  14.308  42.591  1.00  0.00     0.053 C 
BRANCH  11  12
ATOM     12  C   UNL     1      20.245  13.672  43.770  1.00  0.00     0.041 C 
ATOM     13  O   UNL     1      21.403  13.188  43.661  1.00  0.00    -0.550 OA
ATOM     14  O   UNL     1      19.605  13.655  45.003  1.00  0.00    -0.550 OA
ENDBRANCH  11  12
ENDBRANCH  10  11
ENDBRANCH   9  10
ENDBRANCH   8   9
ENDBRANCH   7   8
ENDBRANCH   6   7
ENDBRANCH   5   6
ENDBRANCH   4   5
ENDBRANCH   3   4
ENDBRANCH   2   3
ENDBRANCH   1   2
BRANCH   1  15
ATOM     15  C   UNL     1       8.953  15.602  41.815  1.00  0.00     0.000 C 
BRANCH  15  16
ATOM     16  C   UNL     1       9.687  14.252  41.682  1.00  0.00     0.000 C 
BRANCH  16  17
ATOM     17  C   UNL     1       9.422  13.562  40.332  1.00  0.00     0.000 C 
BRANCH  17  18
ATOM     18  C   UNL     1       8.618  12.260  40.477  1.00  0.00    -0.000 C 
BRANCH  18  19
ATOM     19  C   UNL     1       8.564  11.755  41.929  1.00  0.00    -0.000 C 
BRANCH  19  20
ATOM     20  C   UNL     1       7.858  10.394  42.049  1.00  0.00    -0.000 C 
BRANCH  20  21
ATOM     21  C   UNL     1       7.210  10.189  43.429  1.00  0.00    -0.000 C 
BRANCH  21  22
ATOM     22  C   UNL     1       7.753   8.950  44.163  1.00  0.00    -0.000 C 
BRANCH  22  23
ATOM     23  C   UNL     1       8.397   9.275  45.527  1.00  0.00    -0.000 C 
BRANCH  23  24
ATOM     24  C   UNL     1       9.883   9.650  45.392  1.00  0.00    -0.000 C 
BRANCH  24  25
ATOM     25  C   UNL     1      10.726   8.518  44.782  1.00  0.00    -0.003 C 
ATOM     26  C   UNL     1      12.106   8.398  45.429  1.00  0.00     0.004 C 
ENDBRANCH  24  25
ENDBRANCH  23  24
ENDBRANCH  22  23
ENDBRANCH  21  22
ENDBRANCH  20  21
ENDBRANCH  19  20
ENDBRANCH  18  19
ENDBRANCH  17  18
ENDBRANCH  16  17
ENDBRANCH  15  16
ENDBRANCH   1  15
TORSDOF 22
ENDMDL
MODEL 4
REMARK VINA RESULT:    -5.044      9.944     14.242
REMARK INTER + INTRA:         -14.365
REMARK INTER:                 -11.689
REMARK INTRA:                  -2.676
REMARK UNBOUND:                -2.833
REMARK SMILES CCCCCCCCCCCCCCCCCCCCCCCC(=O)[O-]
REMARK SMILES IDX 13 1 14 2 15 3 16 4 17 5 18 6 19 7 20 8 21 9 22 10 23 11
REMARK SMILES IDX 24 12 25 13 26 14 12 15 11 16 10 17 9 18 8 19 7 20 6 21 5 22
REMARK SMILES IDX 4 23 3 24 2 25 1 26
REMARK H PARENT
REMARK Flexibility Score: inf
ROOT
ATOM      1  C   UNL     1      23.842  13.907  42.457  1.00  0.00     0.000 C 
ENDROOT
BRANCH   1   2
ATOM      2  C   UNL     1      24.610  14.599  41.314  1.00  0.00     0.000 C 
BRANCH   2   3
ATOM      3  C   UNL     1      24.188  16.055  41.026  1.00  0.00     0.000 C 
BRANCH   3   4
ATOM      4  C   UNL     1      23.501  16.782  42.195  1.00  0.00     0.000 C 
BRANCH   4   5
ATOM      5  C   UNL     1      22.132  17.367  41.818  1.00  0.00     0.000 C 
BRANCH   5   6
ATOM      6  C   UNL     1      21.133  16.249  41.498  1.00  0.00     0.000 C 
BRANCH   6   7
ATOM      7  C   UNL     1      19.822  16.443  42.274  1.00  0.00     0.000 C 
BRANCH   7   8
ATOM      8  C   UNL     1      19.200  15.110  42.718  1.00  0.00     0.000 C 
BRANCH   8   9
ATOM      9  C   UNL     1      20.217  13.959  42.718  1.00  0.00     0.000 C 
BRANCH   9  10
ATOM     10  C   UNL     1      20.496  13.473  44.145  1.00  0.00     0.006 C 
BRANCH  10  11
ATOM     11  C   UNL     1      20.367  11.951  44.244  1.00  0.00     0.053 C 
BRANCH  11  12
ATOM     12  C   UNL     1      19.897  11.554  45.608  1.00  0.00     0.041 C 
ATOM     13  O   UNL     1      19.322  12.393  46.351  1.00  0.00    -0.550 OA
ATOM     14  O   UNL     1      20.052  10.243  46.042  1.00  0.00    -0.550 OA
ENDBRANCH  11  12
ENDBRANCH  10  11
ENDBRANCH   9  10
ENDBRANCH   8   9
ENDBRANCH   7   8
ENDBRANCH   6   7
ENDBRANCH   5   6
ENDBRANCH   4   5
ENDBRANCH   3   4
ENDBRANCH   2   3
ENDBRANCH   1   2
BRANCH   1  15
ATOM     15  C   UNL     1      24.635  12.828  43.217  1.00  0.00     0.000 C 
BRANCH  15  16
ATOM     16  C   UNL     1      23.824  12.113  44.318  1.00  0.00     0.000 C 
BRANCH  16  17
ATOM     17  C   UNL     1      24.509  10.830  44.822  1.00  0.00     0.000 C 
BRANCH  17  18
ATOM     18  C   UNL     1      23.531   9.864  45.507  1.00  0.00    -0.000 C 
BRANCH  18  19
ATOM     19  C   UNL     1      23.304   8.576  44.697  1.00  0.00    -0.000 C 
BRANCH  19  20
ATOM     20  C   UNL     1      21.995   8.613  43.891  1.00  0.00    -0.000 C 
BRANCH  20  21
ATOM     21  C   UNL     1      22.209   9.089  42.444  1.00  0.00    -0.000 C 
BRANCH  21  22
ATOM     22  C   UNL     1      20.888   9.298  41.685  1.00  0.00    -0.000 C 
BRANCH  22  23
ATOM     23  C   UNL     1      21.064   9.387  40.155  1.00  0.00    -0.000 C 
BRANCH  23  24
ATOM     24  C   UNL     1      19.894   8.736  39.397  1.00  0.00    -0.000 C 
BRANCH  24  25
ATOM     25  C   UNL     1      18.537   8.982  40.079  1.00  0.00    -0.003 C 
ATOM     26  C   UNL     1      17.460   7.999  39.620  1.00  0.00     0.004 C 
ENDBRANCH  24  25
ENDBRANCH  23  24
ENDBRANCH  22  23
ENDBRANCH  21  22
ENDBRANCH  20  21
ENDBRANCH  19  20
ENDBRANCH  18  19
ENDBRANCH  17  18
ENDBRANCH  16  17
ENDBRANCH  15  16
ENDBRANCH   1  15
TORSDOF 22
ENDMDL
MODEL 5
REMARK VINA RESULT:    -4.978      6.475     10.815
REMARK INTER + INTRA:         -14.213
REMARK INTER:                 -13.230
REMARK INTRA:                  -0.984
REMARK UNBOUND:                -2.833
REMARK SMILES CCCCCCCCCCCCCCCCCCCCCCCC(=O)[O-]
REMARK SMILES IDX 13 1 14 2 15 3 16 4 17 5 18 6 19 7 20 8 21 9 22 10 23 11
REMARK SMILES IDX 24 12 25 13 26 14 12 15 11 16 10 17 9 18 8 19 7 20 6 21 5 22
REMARK SMILES IDX 4 23 3 24 2 25 1 26
REMARK H PARENT
REMARK Flexibility Score: inf
ROOT
ATOM      1  C   UNL     1      18.278  16.464  42.395  1.00  0.00     0.000 C 
ENDROOT
BRANCH   1   2
ATOM      2  C   UNL     1      17.281  17.639  42.426  1.00  0.00     0.000 C 
BRANCH   2   3
ATOM      3  C   UNL     1      16.038  17.470  41.527  1.00  0.00     0.000 C 
BRANCH   3   4
ATOM      4  C   UNL     1      14.900  18.472  41.788  1.00  0.00     0.000 C 
BRANCH   4   5
ATOM      5  C   UNL     1      13.813  17.918  42.721  1.00  0.00     0.000 C 
BRANCH   5   6
ATOM      6  C   UNL     1      12.433  18.001  42.057  1.00  0.00     0.000 C 
BRANCH   6   7
ATOM      7  C   UNL     1      11.609  16.736  42.338  1.00  0.00     0.000 C 
BRANCH   7   8
ATOM      8  C   UNL     1      10.155  16.865  41.861  1.00  0.00     0.000 C 
BRANCH   8   9
ATOM      9  C   UNL     1       9.302  15.646  42.242  1.00  0.00     0.000 C 
BRANCH   9  10
ATOM     10  C   UNL     1       9.821  14.377  41.555  1.00  0.00     0.006 C 
BRANCH  10  11
ATOM     11  C   UNL     1       8.742  13.751  40.666  1.00  0.00     0.053 C 
BRANCH  11  12
ATOM     12  C   UNL     1       9.300  12.589  39.907  1.00  0.00     0.041 C 
ATOM     13  O   UNL     1       9.038  11.411  40.267  1.00  0.00    -0.550 OA
ATOM     14  O   UNL     1      10.072  12.807  38.773  1.00  0.00    -0.550 OA
ENDBRANCH  11  12
ENDBRANCH  10  11
ENDBRANCH   9  10
ENDBRANCH   8   9
ENDBRANCH   7   8
ENDBRANCH   6   7
ENDBRANCH   5   6
ENDBRANCH   4   5
ENDBRANCH   3   4
ENDBRANCH   2   3
ENDBRANCH   1   2
BRANCH   1  15
ATOM     15  C   UNL     1      19.763  16.868  42.363  1.00  0.00     0.000 C 
BRANCH  15  16
ATOM     16  C   UNL     1      20.739  15.685  42.534  1.00  0.00     0.000 C 
BRANCH  16  17
ATOM     17  C   UNL     1      20.014  14.337  42.699  1.00  0.00     0.000 C 
BRANCH  17  18
ATOM     18  C   UNL     1      20.375  13.624  44.011  1.00  0.00    -0.000 C 
BRANCH  18  19
ATOM     19  C   UNL     1      20.553  12.106  43.833  1.00  0.00    -0.000 C 
BRANCH  19  20
ATOM     20  C   UNL     1      21.249  11.749  42.508  1.00  0.00    -0.000 C 
BRANCH  20  21
ATOM     21  C   UNL     1      20.488  10.672  41.717  1.00  0.00    -0.000 C 
BRANCH  21  22
ATOM     22  C   UNL     1      21.411   9.559  41.191  1.00  0.00    -0.000 C 
BRANCH  22  23
ATOM     23  C   UNL     1      21.053   9.084  39.768  1.00  0.00    -0.000 C 
BRANCH  23  24
ATOM     24  C   UNL     1      19.572   9.329  39.430  1.00  0.00    -0.000 C 
BRANCH  24  25
ATOM     25  C   UNL     1      18.705   8.074  39.624  1.00  0.00    -0.003 C 
ATOM     26  C   UNL     1      17.236   8.407  39.884  1.00  0.00     0.004 C 
ENDBRANCH  24  25
ENDBRANCH  23  24
ENDBRANCH  22  23
ENDBRANCH  21  22
ENDBRANCH  20  21
ENDBRANCH  19  20
ENDBRANCH  18  19
ENDBRANCH  17  18
ENDBRANCH  16  17
ENDBRANCH  15  16
ENDBRANCH   1  15
TORSDOF 22
ENDMDL
MODEL 6
REMARK VINA RESULT:    -4.958     10.341     14.805
REMARK INTER + INTRA:         -14.169
REMARK INTER:                 -10.570
REMARK INTRA:                  -3.598
REMARK UNBOUND:                -2.833
REMARK SMILES CCCCCCCCCCCCCCCCCCCCCCCC(=O)[O-]
REMARK SMILES IDX 13 1 14 2 15 3 16 4 17 5 18 6 19 7 20 8 21 9 22 10 23 11
REMARK SMILES IDX 24 12 25 13 26 14 12 15 11 16 10 17 9 18 8 19 7 20 6 21 5 22
REMARK SMILES IDX 4 23 3 24 2 25 1 26
REMARK H PARENT
REMARK Flexibility Score: inf
ROOT
ATOM      1  C   UNL     1      20.628  11.245  43.633  1.00  0.00     0.000 C 
ENDROOT
BRANCH   1   2
ATOM      2  C   UNL     1      21.514  12.498  43.767  1.00  0.00     0.000 C 
BRANCH   2   3
ATOM      3  C   UNL     1      22.582  12.668  42.665  1.00  0.00     0.000 C 
BRANCH   3   4
ATOM      4  C   UNL     1      23.973  13.098  43.162  1.00  0.00     0.000 C 
BRANCH   4   5
ATOM      5  C   UNL     1      24.953  13.400  42.019  1.00  0.00     0.000 C 
BRANCH   5   6
ATOM      6  C   UNL     1      24.657  14.770  41.398  1.00  0.00     0.000 C 
BRANCH   6   7
ATOM      7  C   UNL     1      24.727  15.882  42.454  1.00  0.00     0.000 C 
BRANCH   7   8
ATOM      8  C   UNL     1      23.966  17.146  42.027  1.00  0.00     0.000 C 
BRANCH   8   9
ATOM      9  C   UNL     1      22.481  17.098  42.418  1.00  0.00     0.000 C 
BRANCH   9  10
ATOM     10  C   UNL     1      21.611  16.710  41.217  1.00  0.00     0.006 C 
BRANCH  10  11
ATOM     11  C   UNL     1      20.737  15.494  41.539  1.00  0.00     0.053 C 
BRANCH  11  12
ATOM     12  C   UNL     1      19.737  15.833  42.598  1.00  0.00     0.041 C 
ATOM     13  O   UNL     1      18.930  16.785  42.427  1.00  0.00    -0.550 OA
ATOM     14  O   UNL     1      19.665  15.069  43.756  1.00  0.00    -0.550 OA
ENDBRANCH  11  12
ENDBRANCH  10  11
ENDBRANCH   9  10
ENDBRANCH   8   9
ENDBRANCH   7   8
ENDBRANCH   6   7
ENDBRANCH   5   6
ENDBRANCH   4   5
ENDBRANCH   3   4
ENDBRANCH   2   3
ENDBRANCH   1   2
BRANCH   1  15
ATOM     15  C   UNL     1      20.371  10.484  44.946  1.00  0.00     0.000 C 
BRANCH  15  16
ATOM     16  C   UNL     1      21.269   9.243  45.139  1.00  0.00     0.000 C 
BRANCH  16  17
ATOM     17  C   UNL     1      22.671   9.601  45.664  1.00  0.00     0.000 C 
BRANCH  17  18
ATOM     18  C   UNL     1      23.752   9.518  44.575  1.00  0.00    -0.000 C 
BRANCH  18  19
ATOM     19  C   UNL     1      23.322   8.656  43.376  1.00  0.00    -0.000 C 
BRANCH  19  20
ATOM     20  C   UNL     1      23.550   9.366  42.031  1.00  0.00    -0.000 C 
BRANCH  20  21
ATOM     21  C   UNL     1      22.384   9.155  41.050  1.00  0.00    -0.000 C 
BRANCH  21  22
ATOM     22  C   UNL     1      21.563   7.893  41.367  1.00  0.00    -0.000 C 
BRANCH  22  23
ATOM     23  C   UNL     1      20.054   8.166  41.534  1.00  0.00    -0.000 C 
BRANCH  23  24
ATOM     24  C   UNL     1      19.533   9.188  40.509  1.00  0.00    -0.000 C 
BRANCH  24  25
ATOM     25  C   UNL     1      18.839   8.522  39.308  1.00  0.00    -0.003 C 
ATOM     26  C   UNL     1      17.415   8.068  39.628  1.00  0.00     0.004 C 
ENDBRANCH  24  25
ENDBRANCH  23  24
ENDBRANCH  22  23
ENDBRANCH  21  22
ENDBRANCH  20  21
ENDBRANCH  19  20
ENDBRANCH  18  19
ENDBRANCH  17  18
ENDBRANCH  16  17
ENDBRANCH  15  16
ENDBRANCH   1  15
TORSDOF 22
ENDMDL
MODEL 7
REMARK VINA RESULT:    -4.940     10.341     13.362
REMARK INTER + INTRA:         -14.127
REMARK INTER:                 -11.357
REMARK INTRA:                  -2.770
REMARK UNBOUND:                -2.833
REMARK SMILES CCCCCCCCCCCCCCCCCCCCCCCC(=O)[O-]
REMARK SMILES IDX 13 1 14 2 15 3 16 4 17 5 18 6 19 7 20 8 21 9 22 10 23 11
REMARK SMILES IDX 24 12 25 13 26 14 12 15 11 16 10 17 9 18 8 19 7 20 6 21 5 22
REMARK SMILES IDX 4 23 3 24 2 25 1 26
REMARK H PARENT
REMARK Flexibility Score: inf
ROOT
ATOM      1  C   UNL     1      24.088  13.636  43.383  1.00  0.00     0.000 C 
ENDROOT
BRANCH   1   2
ATOM      2  C   UNL     1      24.634  12.254  43.791  1.00  0.00     0.000 C 
BRANCH   2   3
ATOM      3  C   UNL     1      23.594  11.114  43.802  1.00  0.00     0.000 C 
BRANCH   3   4
ATOM      4  C   UNL     1      23.768  10.079  44.927  1.00  0.00     0.000 C 
BRANCH   4   5
ATOM      5  C   UNL     1      22.461   9.776  45.674  1.00  0.00     0.000 C 
BRANCH   5   6
ATOM      6  C   UNL     1      21.967   8.361  45.353  1.00  0.00     0.000 C 
BRANCH   6   7
ATOM      7  C   UNL     1      20.624   8.399  44.610  1.00  0.00     0.000 C 
BRANCH   7   8
ATOM      8  C   UNL     1      20.788   8.227  43.092  1.00  0.00     0.000 C 
BRANCH   8   9
ATOM      9  C   UNL     1      20.579   9.542  42.326  1.00  0.00     0.000 C 
BRANCH   9  10
ATOM     10  C   UNL     1      20.853   9.354  40.829  1.00  0.00     0.006 C 
BRANCH  10  11
ATOM     11  C   UNL     1      19.899   8.323  40.218  1.00  0.00     0.053 C 
BRANCH  11  12
ATOM     12  C   UNL     1      18.658   8.991  39.718  1.00  0.00     0.041 C 
ATOM     13  O   UNL     1      18.669  10.217  39.428  1.00  0.00    -0.550 OA
ATOM     14  O   UNL     1      17.499   8.250  39.528  1.00  0.00    -0.550 OA
ENDBRANCH  11  12
ENDBRANCH  10  11
ENDBRANCH   9  10
ENDBRANCH   8   9
ENDBRANCH   7   8
ENDBRANCH   6   7
ENDBRANCH   5   6
ENDBRANCH   4   5
ENDBRANCH   3   4
ENDBRANCH   2   3
ENDBRANCH   1   2
BRANCH   1  15
ATOM     15  C   UNL     1      25.051  14.497  42.543  1.00  0.00     0.000 C 
BRANCH  15  16
ATOM     16  C   UNL     1      25.112  15.976  42.980  1.00  0.00     0.000 C 
BRANCH  16  17
ATOM     17  C   UNL     1      24.119  16.864  42.209  1.00  0.00     0.000 C 
BRANCH  17  18
ATOM     18  C   UNL     1      23.469  16.136  41.022  1.00  0.00    -0.000 C 
BRANCH  18  19
ATOM     19  C   UNL     1      21.935  16.250  41.024  1.00  0.00    -0.000 C 
BRANCH  19  20
ATOM     20  C   UNL     1      21.364  16.449  42.438  1.00  0.00    -0.000 C 
BRANCH  20  21
ATOM     21  C   UNL     1      19.838  16.264  42.487  1.00  0.00    -0.000 C 
BRANCH  21  22
ATOM     22  C   UNL     1      19.425  14.848  42.923  1.00  0.00    -0.000 C 
BRANCH  22  23
ATOM     23  C   UNL     1      20.580  13.827  42.874  1.00  0.00    -0.000 C 
BRANCH  23  24
ATOM     24  C   UNL     1      20.408  12.707  43.915  1.00  0.00    -0.000 C 
BRANCH  24  25
ATOM     25  C   UNL     1      19.671  13.181  45.179  1.00  0.00    -0.003 C 
ATOM     26  C   UNL     1      19.443  12.053  46.186  1.00  0.00     0.004 C 
ENDBRANCH  24  25
ENDBRANCH  23  24
ENDBRANCH  22  23
ENDBRANCH  21  22
ENDBRANCH  20  21
ENDBRANCH  19  20
ENDBRANCH  18  19
ENDBRANCH  17  18
ENDBRANCH  16  17
ENDBRANCH  15  16
ENDBRANCH   1  15
TORSDOF 22
ENDMDL
MODEL 8
REMARK VINA RESULT:    -4.744      1.419      2.962
REMARK INTER + INTRA:         -13.679
REMARK INTER:                 -11.139
REMARK INTRA:                  -2.539
REMARK UNBOUND:                -2.833
REMARK SMILES CCCCCCCCCCCCCCCCCCCCCCCC(=O)[O-]
REMARK SMILES IDX 13 1 14 2 15 3 16 4 17 5 18 6 19 7 20 8 21 9 22 10 23 11
REMARK SMILES IDX 24 12 25 13 26 14 12 15 11 16 10 17 9 18 8 19 7 20 6 21 5 22
REMARK SMILES IDX 4 23 3 24 2 25 1 26
REMARK H PARENT
REMARK Flexibility Score: inf
ROOT
ATOM      1  C   UNL     1       6.547  13.502  41.405  1.00  0.00     0.000 C 
ENDROOT
BRANCH   1   2
ATOM      2  C   UNL     1       7.510  12.459  42.004  1.00  0.00     0.000 C 
BRANCH   2   3
ATOM      3  C   UNL     1       8.886  12.362  41.312  1.00  0.00     0.000 C 
BRANCH   3   4
ATOM      4  C   UNL     1       8.848  12.365  39.773  1.00  0.00     0.000 C 
BRANCH   4   5
ATOM      5  C   UNL     1       9.867  11.404  39.145  1.00  0.00     0.000 C 
BRANCH   5   6
ATOM      6  C   UNL     1       9.170  10.153  38.598  1.00  0.00     0.000 C 
BRANCH   6   7
ATOM      7  C   UNL     1       7.729  10.052  39.120  1.00  0.00     0.000 C 
BRANCH   7   8
ATOM      8  C   UNL     1       7.540   8.887  40.103  1.00  0.00     0.000 C 
BRANCH   8   9
ATOM      9  C   UNL     1       8.821   8.571  40.890  1.00  0.00     0.000 C 
BRANCH   9  10
ATOM     10  C   UNL     1       8.492   8.161  42.330  1.00  0.00     0.006 C 
BRANCH  10  11
ATOM     11  C   UNL     1       8.944   9.233  43.326  1.00  0.00     0.053 C 
BRANCH  11  12
ATOM     12  C   UNL     1       7.875   9.490  44.340  1.00  0.00     0.041 C 
ATOM     13  O   UNL     1       6.682   9.665  43.975  1.00  0.00    -0.550 OA
ATOM     14  O   UNL     1       8.188   9.489  45.694  1.00  0.00    -0.550 OA
ENDBRANCH  11  12
ENDBRANCH  10  11
ENDBRANCH   9  10
ENDBRANCH   8   9
ENDBRANCH   7   8
ENDBRANCH   6   7
ENDBRANCH   5   6
ENDBRANCH   4   5
ENDBRANCH   3   4
ENDBRANCH   2   3
ENDBRANCH   1   2
BRANCH   1  15
ATOM     15  C   UNL     1       5.316  13.827  42.272  1.00  0.00     0.000 C 
BRANCH  15  16
ATOM     16  C   UNL     1       5.257  15.292  42.752  1.00  0.00     0.000 C 
BRANCH  16  17
ATOM     17  C   UNL     1       6.641  15.848  43.132  1.00  0.00     0.000 C 
BRANCH  17  18
ATOM     18  C   UNL     1       7.055  17.051  42.270  1.00  0.00    -0.000 C 
BRANCH  18  19
ATOM     19  C   UNL     1       8.581  17.177  42.120  1.00  0.00    -0.000 C 
BRANCH  19  20
ATOM     20  C   UNL     1       9.309  15.853  42.404  1.00  0.00    -0.000 C 
BRANCH  20  21
ATOM     21  C   UNL     1      10.785  15.890  41.975  1.00  0.00    -0.000 C 
BRANCH  21  22
ATOM     22  C   UNL     1      11.393  17.301  42.059  1.00  0.00    -0.000 C 
BRANCH  22  23
ATOM     23  C   UNL     1      12.891  17.306  42.428  1.00  0.00    -0.000 C 
BRANCH  23  24
ATOM     24  C   UNL     1      13.541  18.681  42.196  1.00  0.00    -0.000 C 
BRANCH  24  25
ATOM     25  C   UNL     1      15.059  18.667  42.442  1.00  0.00    -0.003 C 
ATOM     26  C   UNL     1      15.771  17.558  41.667  1.00  0.00     0.004 C 
ENDBRANCH  24  25
ENDBRANCH  23  24
ENDBRANCH  22  23
ENDBRANCH  21  22
ENDBRANCH  20  21
ENDBRANCH  19  20
ENDBRANCH  18  19
ENDBRANCH  17  18
ENDBRANCH  16  17
ENDBRANCH  15  16
ENDBRANCH   1  15
TORSDOF 22
ENDMDL
MODEL 9
REMARK VINA RESULT:    -4.737     10.741     13.358
REMARK INTER + INTRA:         -13.663
REMARK INTER:                  -9.839
REMARK INTRA:                  -3.824
REMARK UNBOUND:                -2.833
REMARK SMILES CCCCCCCCCCCCCCCCCCCCCCCC(=O)[O-]
REMARK SMILES IDX 13 1 14 2 15 3 16 4 17 5 18 6 19 7 20 8 21 9 22 10 23 11
REMARK SMILES IDX 24 12 25 13 26 14 12 15 11 16 10 17 9 18 8 19 7 20 6 21 5 22
REMARK SMILES IDX 4 23 3 24 2 25 1 26
REMARK H PARENT
REMARK Flexibility Score: inf
ROOT
ATOM      1  C   UNL     1      19.862   9.710  40.484  1.00  0.00     0.000 C 
ENDROOT
BRANCH   1   2
ATOM      2  C   UNL     1      20.676   9.013  39.377  1.00  0.00     0.000 C 
BRANCH   2   3
ATOM      3  C   UNL     1      21.869   8.167  39.873  1.00  0.00     0.000 C 
BRANCH   3   4
ATOM      4  C   UNL     1      23.253   8.649  39.405  1.00  0.00     0.000 C 
BRANCH   4   5
ATOM      5  C   UNL     1      24.353   8.426  40.453  1.00  0.00     0.000 C 
BRANCH   5   6
ATOM      6  C   UNL     1      23.745   8.031  41.804  1.00  0.00     0.000 C 
BRANCH   6   7
ATOM      7  C   UNL     1      24.774   8.170  42.935  1.00  0.00     0.000 C 
BRANCH   7   8
ATOM      8  C   UNL     1      24.583   9.460  43.747  1.00  0.00     0.000 C 
BRANCH   8   9
ATOM      9  C   UNL     1      23.906   9.206  45.102  1.00  0.00     0.000 C 
BRANCH   9  10
ATOM     10  C   UNL     1      22.382   9.133  44.948  1.00  0.00     0.006 C 
BRANCH  10  11
ATOM     11  C   UNL     1      21.684  10.095  45.914  1.00  0.00     0.053 C 
BRANCH  11  12
ATOM     12  C   UNL     1      20.209  10.110  45.663  1.00  0.00     0.041 C 
ATOM     13  O   UNL     1      19.566  11.191  45.720  1.00  0.00    -0.550 OA
ATOM     14  O   UNL     1      19.551   8.935  45.320  1.00  0.00    -0.550 OA
ENDBRANCH  11  12
ENDBRANCH  10  11
ENDBRANCH   9  10
ENDBRANCH   8   9
ENDBRANCH   7   8
ENDBRANCH   6   7
ENDBRANCH   5   6
ENDBRANCH   4   5
ENDBRANCH   3   4
ENDBRANCH   2   3
ENDBRANCH   1   2
BRANCH   1  15
ATOM     15  C   UNL     1      20.586   9.854  41.835  1.00  0.00     0.000 C 
BRANCH  15  16
ATOM     16  C   UNL     1      20.839  11.317  42.258  1.00  0.00     0.000 C 
BRANCH  16  17
ATOM     17  C   UNL     1      22.326  11.706  42.188  1.00  0.00     0.000 C 
BRANCH  17  18
ATOM     18  C   UNL     1      22.736  12.689  43.296  1.00  0.00    -0.000 C 
BRANCH  18  19
ATOM     19  C   UNL     1      24.108  13.334  43.040  1.00  0.00    -0.000 C 
BRANCH  19  20
ATOM     20  C   UNL     1      24.009  14.852  42.809  1.00  0.00    -0.000 C 
BRANCH  20  21
ATOM     21  C   UNL     1      23.924  15.215  41.318  1.00  0.00    -0.000 C 
BRANCH  21  22
ATOM     22  C   UNL     1      22.518  15.676  40.897  1.00  0.00    -0.000 C 
BRANCH  22  23
ATOM     23  C   UNL     1      22.014  16.907  41.680  1.00  0.00    -0.000 C 
BRANCH  23  24
ATOM     24  C   UNL     1      20.549  16.750  42.126  1.00  0.00    -0.000 C 
BRANCH  24  25
ATOM     25  C   UNL     1      20.352  15.588  43.114  1.00  0.00    -0.003 C 
ATOM     26  C   UNL     1      19.157  14.706  42.754  1.00  0.00     0.004 C 
ENDBRANCH  24  25
ENDBRANCH  23  24
ENDBRANCH  22  23
ENDBRANCH  21  22
ENDBRANCH  20  21
ENDBRANCH  19  20
ENDBRANCH  18  19
ENDBRANCH  17  18
ENDBRANCH  16  17
ENDBRANCH  15  16
ENDBRANCH   1  15
TORSDOF 22
ENDMDL
