MODEL 1
REMARK VINA RESULT:    -4.159      0.000      0.000
REMARK INTER + INTRA:          -7.570
REMARK INTER:                  -6.348
REMARK INTRA:                  -1.222
REMARK UNBOUND:                -1.222
REMARK SMILES CCCCCCCCCCC(=O)[O-]
REMARK SMILES IDX 7 1 8 2 9 3 10 4 11 5 12 6 13 7 6 8 5 9 4 10 3 11 2 12 1 13
REMARK H PARENT
REMARK Flexibility Score: inf
ROOT
ATOM      1  C   UNL     1     -20.720  45.409  -8.133  1.00  0.00     0.000 C 
ENDROOT
BRANCH   1   2
ATOM      2  C   UNL     1     -20.525  44.551  -6.878  1.00  0.00     0.000 C 
BRANCH   2   3
ATOM      3  C   UNL     1     -19.451  45.153  -5.959  1.00  0.00     0.006 C 
BRANCH   3   4
ATOM      4  C   UNL     1     -19.034  46.562  -6.398  1.00  0.00     0.053 C 
BRANCH   4   5
ATOM      5  C   UNL     1     -17.989  47.140  -5.494  1.00  0.00     0.041 C 
ATOM      6  O   UNL     1     -18.309  47.976  -4.608  1.00  0.00    -0.550 OA
ATOM      7  O   UNL     1     -16.666  46.732  -5.609  1.00  0.00    -0.550 OA
ENDBRANCH   4   5
ENDBRANCH   3   4
ENDBRANCH   2   3
ENDBRANCH   1   2
BRANCH   1   8
ATOM      8  C   UNL     1     -20.319  44.638  -9.395  1.00  0.00     0.000 C 
BRANCH   8   9
ATOM      9  C   UNL     1     -20.231  43.130  -9.115  1.00  0.00    -0.000 C 
BRANCH   9  10
ATOM     10  C   UNL     1     -18.832  42.554  -9.386  1.00  0.00    -0.000 C 
BRANCH  10  11
ATOM     11  C   UNL     1     -17.788  43.648  -9.666  1.00  0.00    -0.000 C 
BRANCH  11  12
ATOM     12  C   UNL     1     -16.920  43.960  -8.436  1.00  0.00    -0.003 C 
ATOM     13  C   UNL     1     -16.898  42.818  -7.419  1.00  0.00     0.004 C 
ENDBRANCH  11  12
ENDBRANCH  10  11
ENDBRANCH   9  10
ENDBRANCH   8   9
ENDBRANCH   1   8
TORSDOF 9
ENDMDL
MODEL 2
REMARK VINA RESULT:    -4.125      1.987      4.101
REMARK INTER + INTRA:          -7.518
REMARK INTER:                  -6.040
REMARK INTRA:                  -1.477
REMARK UNBOUND:                -1.222
REMARK SMILES CCCCCCCCCCC(=O)[O-]
REMARK SMILES IDX 7 1 8 2 9 3 10 4 11 5 12 6 13 7 6 8 5 9 4 10 3 11 2 12 1 13
REMARK H PARENT
REMARK Flexibility Score: inf
ROOT
ATOM      1  C   UNL     1     -17.244  44.051  -6.141  1.00  0.00     0.000 C 
ENDROOT
BRANCH   1   2
ATOM      2  C   UNL     1     -17.146  43.119  -7.354  1.00  0.00     0.000 C 
BRANCH   2   3
ATOM      3  C   UNL     1     -16.563  43.856  -8.570  1.00  0.00     0.006 C 
BRANCH   3   4
ATOM      4  C   UNL     1     -16.240  45.323  -8.260  1.00  0.00     0.053 C 
BRANCH   4   5
ATOM      5  C   UNL     1     -16.931  46.257  -9.205  1.00  0.00     0.041 C 
ATOM      6  O   UNL     1     -17.307  45.851 -10.336  1.00  0.00    -0.550 OA
ATOM      7  O   UNL     1     -17.189  47.569  -8.824  1.00  0.00    -0.550 OA
ENDBRANCH   4   5
ENDBRANCH   3   4
ENDBRANCH   2   3
ENDBRANCH   1   2
BRANCH   1   8
ATOM      8  C   UNL     1     -18.702  44.243  -5.709  1.00  0.00     0.000 C 
BRANCH   8   9
ATOM      9  C   UNL     1     -19.143  45.703  -5.894  1.00  0.00    -0.000 C 
BRANCH   9  10
ATOM     10  C   UNL     1     -19.927  45.927  -7.197  1.00  0.00    -0.000 C 
BRANCH  10  11
ATOM     11  C   UNL     1     -20.625  44.650  -7.693  1.00  0.00    -0.000 C 
BRANCH  11  12
ATOM     12  C   UNL     1     -20.282  44.323  -9.155  1.00  0.00    -0.003 C 
ATOM     13  C   UNL     1     -20.247  42.819  -9.435  1.00  0.00     0.004 C 
ENDBRANCH  11  12
ENDBRANCH  10  11
ENDBRANCH   9  10
ENDBRANCH   8   9
ENDBRANCH   1   8
TORSDOF 9
ENDMDL
MODEL 3
REMARK VINA RESULT:    -4.094      1.170      2.914
REMARK INTER + INTRA:          -7.470
REMARK INTER:                  -6.120
REMARK INTRA:                  -1.350
REMARK UNBOUND:                -1.222
REMARK SMILES CCCCCCCCCCC(=O)[O-]
REMARK SMILES IDX 7 1 8 2 9 3 10 4 11 5 12 6 13 7 6 8 5 9 4 10 3 11 2 12 1 13
REMARK H PARENT
REMARK Flexibility Score: inf
ROOT
ATOM      1  C   UNL     1     -17.180  43.052  -7.277  1.00  0.00     0.000 C 
ENDROOT
BRANCH   1   2
ATOM      2  C   UNL     1     -17.229  44.217  -6.282  1.00  0.00     0.000 C 
BRANCH   2   3
ATOM      3  C   UNL     1     -18.589  44.274  -5.567  1.00  0.00     0.006 C 
BRANCH   3   4
ATOM      4  C   UNL     1     -19.454  45.442  -6.057  1.00  0.00     0.053 C 
BRANCH   4   5
ATOM      5  C   UNL     1     -18.664  46.710  -6.169  1.00  0.00     0.041 C 
ATOM      6  O   UNL     1     -18.570  47.303  -7.276  1.00  0.00    -0.550 OA
ATOM      7  O   UNL     1     -18.058  47.255  -5.043  1.00  0.00    -0.550 OA
ENDBRANCH   4   5
ENDBRANCH   3   4
ENDBRANCH   2   3
ENDBRANCH   1   2
BRANCH   1   8
ATOM      8  C   UNL     1     -16.476  43.466  -8.575  1.00  0.00     0.000 C 
BRANCH   8   9
ATOM      9  C   UNL     1     -17.114  44.731  -9.167  1.00  0.00    -0.000 C 
BRANCH   9  10
ATOM     10  C   UNL     1     -18.234  44.418 -10.173  1.00  0.00    -0.000 C 
BRANCH  10  11
ATOM     11  C   UNL     1     -19.633  44.729  -9.615  1.00  0.00    -0.000 C 
BRANCH  11  12
ATOM     12  C   UNL     1     -20.358  43.471  -9.112  1.00  0.00    -0.003 C 
ATOM     13  C   UNL     1     -19.897  42.197  -9.821  1.00  0.00     0.004 C 
ENDBRANCH  11  12
ENDBRANCH  10  11
ENDBRANCH   9  10
ENDBRANCH   8   9
ENDBRANCH   1   8
TORSDOF 9
ENDMDL
MODEL 4
REMARK VINA RESULT:    -4.070      1.621      3.255
REMARK INTER + INTRA:          -7.433
REMARK INTER:                  -6.172
REMARK INTRA:                  -1.261
REMARK UNBOUND:                -1.222
REMARK SMILES CCCCCCCCCCC(=O)[O-]
REMARK SMILES IDX 7 1 8 2 9 3 10 4 11 5 12 6 13 7 6 8 5 9 4 10 3 11 2 12 1 13
REMARK H PARENT
REMARK Flexibility Score: inf
ROOT
ATOM      1  C   UNL     1     -17.996  43.877  -5.875  1.00  0.00     0.000 C 
ENDROOT
BRANCH   1   2
ATOM      2  C   UNL     1     -16.870  44.049  -6.901  1.00  0.00     0.000 C 
BRANCH   2   3
ATOM      3  C   UNL     1     -16.771  45.509  -7.371  1.00  0.00     0.006 C 
BRANCH   3   4
ATOM      4  C   UNL     1     -15.419  46.142  -7.019  1.00  0.00     0.053 C 
BRANCH   4   5
ATOM      5  C   UNL     1     -15.322  46.472  -5.561  1.00  0.00     0.041 C 
ATOM      6  O   UNL     1     -16.230  47.141  -5.001  1.00  0.00    -0.550 OA
ATOM      7  O   UNL     1     -14.245  46.013  -4.813  1.00  0.00    -0.550 OA
ENDBRANCH   4   5
ENDBRANCH   3   4
ENDBRANCH   2   3
ENDBRANCH   1   2
BRANCH   1   8
ATOM      8  C   UNL     1     -18.977  45.053  -5.930  1.00  0.00     0.000 C 
BRANCH   8   9
ATOM      9  C   UNL     1     -20.313  44.626  -6.556  1.00  0.00    -0.000 C 
BRANCH   9  10
ATOM     10  C   UNL     1     -20.676  45.450  -7.803  1.00  0.00    -0.000 C 
BRANCH  10  11
ATOM     11  C   UNL     1     -20.184  44.796  -9.105  1.00  0.00    -0.000 C 
BRANCH  11  12
ATOM     12  C   UNL     1     -20.378  43.272  -9.108  1.00  0.00    -0.003 C 
ATOM     13  C   UNL     1     -19.106  42.512  -9.485  1.00  0.00     0.004 C 
ENDBRANCH  11  12
ENDBRANCH  10  11
ENDBRANCH   9  10
ENDBRANCH   8   9
ENDBRANCH   1   8
TORSDOF 9
ENDMDL
MODEL 5
REMARK VINA RESULT:    -4.069      1.777      3.121
REMARK INTER + INTRA:          -7.432
REMARK INTER:                  -6.068
REMARK INTRA:                  -1.365
REMARK UNBOUND:                -1.222
REMARK SMILES CCCCCCCCCCC(=O)[O-]
REMARK SMILES IDX 7 1 8 2 9 3 10 4 11 5 12 6 13 7 6 8 5 9 4 10 3 11 2 12 1 13
REMARK H PARENT
REMARK Flexibility Score: inf
ROOT
ATOM      1  C   UNL     1     -18.675  44.186  -5.771  1.00  0.00     0.000 C 
ENDROOT
BRANCH   1   2
ATOM      2  C   UNL     1     -19.241  45.609  -5.836  1.00  0.00     0.000 C 
BRANCH   2   3
ATOM      3  C   UNL     1     -19.187  46.159  -7.270  1.00  0.00     0.006 C 
BRANCH   3   4
ATOM      4  C   UNL     1     -18.311  47.414  -7.377  1.00  0.00     0.053 C 
BRANCH   4   5
ATOM      5  C   UNL     1     -17.229  47.252  -8.400  1.00  0.00     0.041 C 
ATOM      6  O   UNL     1     -16.038  47.066  -8.039  1.00  0.00    -0.550 OA
ATOM      7  O   UNL     1     -17.543  47.273  -9.754  1.00  0.00    -0.550 OA
ENDBRANCH   4   5
ENDBRANCH   3   4
ENDBRANCH   2   3
ENDBRANCH   1   2
BRANCH   1   8
ATOM      8  C   UNL     1     -17.220  44.148  -6.255  1.00  0.00     0.000 C 
BRANCH   8   9
ATOM      9  C   UNL     1     -17.012  43.028  -7.286  1.00  0.00    -0.000 C 
BRANCH   9  10
ATOM     10  C   UNL     1     -16.625  43.563  -8.675  1.00  0.00    -0.000 C 
BRANCH  10  11
ATOM     11  C   UNL     1     -17.824  43.633  -9.636  1.00  0.00    -0.000 C 
BRANCH  11  12
ATOM     12  C   UNL     1     -18.910  42.600  -9.297  1.00  0.00    -0.003 C 
ATOM     13  C   UNL     1     -20.312  43.208  -9.243  1.00  0.00     0.004 C 
ENDBRANCH  11  12
ENDBRANCH  10  11
ENDBRANCH   9  10
ENDBRANCH   8   9
ENDBRANCH   1   8
TORSDOF 9
ENDMDL
MODEL 6
REMARK VINA RESULT:    -4.035      1.694      2.901
REMARK INTER + INTRA:          -7.380
REMARK INTER:                  -6.017
REMARK INTRA:                  -1.363
REMARK UNBOUND:                -1.222
REMARK SMILES CCCCCCCCCCC(=O)[O-]
REMARK SMILES IDX 7 1 8 2 9 3 10 4 11 5 12 6 13 7 6 8 5 9 4 10 3 11 2 12 1 13
REMARK H PARENT
REMARK Flexibility Score: inf
ROOT
ATOM      1  C   UNL     1     -19.262  44.847  -5.644  1.00  0.00     0.000 C 
ENDROOT
BRANCH   1   2
ATOM      2  C   UNL     1     -18.053  43.932  -5.871  1.00  0.00     0.000 C 
BRANCH   2   3
ATOM      3  C   UNL     1     -16.789  44.752  -6.170  1.00  0.00     0.006 C 
BRANCH   3   4
ATOM      4  C   UNL     1     -17.094  46.244  -6.352  1.00  0.00     0.053 C 
BRANCH   4   5
ATOM      5  C   UNL     1     -16.786  46.710  -7.742  1.00  0.00     0.041 C 
ATOM      6  O   UNL     1     -15.772  46.272  -8.347  1.00  0.00    -0.550 OA
ATOM      7  O   UNL     1     -17.638  47.602  -8.382  1.00  0.00    -0.550 OA
ENDBRANCH   4   5
ENDBRANCH   3   4
ENDBRANCH   2   3
ENDBRANCH   1   2
BRANCH   1   8
ATOM      8  C   UNL     1     -20.399  44.510  -6.616  1.00  0.00     0.000 C 
BRANCH   8   9
ATOM      9  C   UNL     1     -20.434  45.504  -7.788  1.00  0.00    -0.000 C 
BRANCH   9  10
ATOM     10  C   UNL     1     -20.194  44.829  -9.148  1.00  0.00    -0.000 C 
BRANCH  10  11
ATOM     11  C   UNL     1     -20.326  43.298  -9.078  1.00  0.00    -0.000 C 
BRANCH  11  12
ATOM     12  C   UNL     1     -19.035  42.577  -9.497  1.00  0.00    -0.003 C 
ATOM     13  C   UNL     1     -17.829  43.515  -9.574  1.00  0.00     0.004 C 
ENDBRANCH  11  12
ENDBRANCH  10  11
ENDBRANCH   9  10
ENDBRANCH   8   9
ENDBRANCH   1   8
TORSDOF 9
ENDMDL
MODEL 7
REMARK VINA RESULT:    -4.020      2.804      4.050
REMARK INTER + INTRA:          -7.358
REMARK INTER:                  -5.902
REMARK INTRA:                  -1.456
REMARK UNBOUND:                -1.222
REMARK SMILES CCCCCCCCCCC(=O)[O-]
REMARK SMILES IDX 7 1 8 2 9 3 10 4 11 5 12 6 13 7 6 8 5 9 4 10 3 11 2 12 1 13
REMARK H PARENT
REMARK Flexibility Score: inf
ROOT
ATOM      1  C   UNL     1     -18.814  44.531  -5.671  1.00  0.00     0.000 C 
ENDROOT
BRANCH   1   2
ATOM      2  C   UNL     1     -19.143  45.969  -6.086  1.00  0.00     0.000 C 
BRANCH   2   3
ATOM      3  C   UNL     1     -20.017  45.993  -7.350  1.00  0.00     0.006 C 
BRANCH   3   4
ATOM      4  C   UNL     1     -20.659  44.630  -7.637  1.00  0.00     0.053 C 
BRANCH   4   5
ATOM      5  C   UNL     1     -20.332  44.139  -9.014  1.00  0.00     0.041 C 
ATOM      6  O   UNL     1     -20.019  44.956  -9.920  1.00  0.00    -0.550 OA
ATOM      7  O   UNL     1     -20.341  42.777  -9.289  1.00  0.00    -0.550 OA
ENDBRANCH   4   5
ENDBRANCH   3   4
ENDBRANCH   2   3
ENDBRANCH   1   2
BRANCH   1   8
ATOM      8  C   UNL     1     -17.347  44.194  -5.964  1.00  0.00     0.000 C 
BRANCH   8   9
ATOM      9  C   UNL     1     -17.236  43.147  -7.082  1.00  0.00    -0.000 C 
BRANCH   9  10
ATOM     10  C   UNL     1     -16.638  43.720  -8.377  1.00  0.00    -0.000 C 
BRANCH  10  11
ATOM     11  C   UNL     1     -16.162  45.174  -8.214  1.00  0.00    -0.000 C 
BRANCH  11  12
ATOM     12  C   UNL     1     -16.758  46.110  -9.277  1.00  0.00    -0.003 C 
ATOM     13  C   UNL     1     -16.995  47.528  -8.755  1.00  0.00     0.004 C 
ENDBRANCH  11  12
ENDBRANCH  10  11
ENDBRANCH   9  10
ENDBRANCH   8   9
ENDBRANCH   1   8
TORSDOF 9
ENDMDL
MODEL 8
REMARK VINA RESULT:    -3.964      0.863      1.756
REMARK INTER + INTRA:          -7.271
REMARK INTER:                  -6.090
REMARK INTRA:                  -1.180
REMARK UNBOUND:                -1.222
REMARK SMILES CCCCCCCCCCC(=O)[O-]
REMARK SMILES IDX 7 1 8 2 9 3 10 4 11 5 12 6 13 7 6 8 5 9 4 10 3 11 2 12 1 13
REMARK H PARENT
REMARK Flexibility Score: inf
ROOT
ATOM      1  C   UNL     1     -20.280  44.478  -6.684  1.00  0.00     0.000 C 
ENDROOT
BRANCH   1   2
ATOM      2  C   UNL     1     -19.229  45.217  -5.848  1.00  0.00     0.000 C 
BRANCH   2   3
ATOM      3  C   UNL     1     -18.996  46.637  -6.386  1.00  0.00     0.006 C 
BRANCH   3   4
ATOM      4  C   UNL     1     -17.568  46.833  -6.910  1.00  0.00     0.053 C 
BRANCH   4   5
ATOM      5  C   UNL     1     -16.543  46.500  -5.870  1.00  0.00     0.041 C 
ATOM      6  O   UNL     1     -15.763  45.526  -6.037  1.00  0.00    -0.550 OA
ATOM      7  O   UNL     1     -16.426  47.287  -4.730  1.00  0.00    -0.550 OA
ENDBRANCH   4   5
ENDBRANCH   3   4
ENDBRANCH   2   3
ENDBRANCH   1   2
BRANCH   1   8
ATOM      8  C   UNL     1     -20.727  45.324  -7.882  1.00  0.00     0.000 C 
BRANCH   8   9
ATOM      9  C   UNL     1     -20.303  44.670  -9.206  1.00  0.00    -0.000 C 
BRANCH   9  10
ATOM     10  C   UNL     1     -20.143  43.145  -9.092  1.00  0.00    -0.000 C 
BRANCH  10  11
ATOM     11  C   UNL     1     -18.744  42.665  -9.513  1.00  0.00    -0.000 C 
BRANCH  11  12
ATOM     12  C   UNL     1     -17.620  43.451  -8.820  1.00  0.00    -0.003 C 
ATOM     13  C   UNL     1     -17.091  42.751  -7.567  1.00  0.00     0.004 C 
ENDBRANCH  11  12
ENDBRANCH  10  11
ENDBRANCH   9  10
ENDBRANCH   8   9
ENDBRANCH   1   8
TORSDOF 9
ENDMDL
MODEL 9
REMARK VINA RESULT:    -3.922      1.267      3.167
REMARK INTER + INTRA:          -7.207
REMARK INTER:                  -5.757
REMARK INTRA:                  -1.450
REMARK UNBOUND:                -1.222
REMARK SMILES CCCCCCCCCCC(=O)[O-]
REMARK SMILES IDX 7 1 8 2 9 3 10 4 11 5 12 6 13 7 6 8 5 9 4 10 3 11 2 12 1 13
REMARK H PARENT
REMARK Flexibility Score: inf
ROOT
ATOM      1  C   UNL     1     -17.962  43.179  -9.419  1.00  0.00     0.000 C 
ENDROOT
BRANCH   1   2
ATOM      2  C   UNL     1     -17.243  42.761  -8.131  1.00  0.00     0.000 C 
BRANCH   2   3
ATOM      3  C   UNL     1     -16.702  43.987  -7.379  1.00  0.00     0.006 C 
BRANCH   3   4
ATOM      4  C   UNL     1     -16.629  45.232  -8.273  1.00  0.00     0.053 C 
BRANCH   4   5
ATOM      5  C   UNL     1     -16.966  46.480  -7.516  1.00  0.00     0.041 C 
ATOM      6  O   UNL     1     -16.697  46.570  -6.289  1.00  0.00    -0.550 OA
ATOM      7  O   UNL     1     -17.546  47.558  -8.174  1.00  0.00    -0.550 OA
ENDBRANCH   4   5
ENDBRANCH   3   4
ENDBRANCH   2   3
ENDBRANCH   1   2
BRANCH   1   8
ATOM      8  C   UNL     1     -19.261  42.388  -9.607  1.00  0.00     0.000 C 
BRANCH   8   9
ATOM      9  C   UNL     1     -20.482  43.235  -9.218  1.00  0.00    -0.000 C 
BRANCH   9  10
ATOM     10  C   UNL     1     -20.194  44.744  -9.251  1.00  0.00    -0.000 C 
BRANCH  10  11
ATOM     11  C   UNL     1     -20.467  45.427  -7.900  1.00  0.00    -0.000 C 
BRANCH  11  12
ATOM     12  C   UNL     1     -20.589  44.418  -6.746  1.00  0.00    -0.003 C 
ATOM     13  C   UNL     1     -19.650  44.733  -5.581  1.00  0.00     0.004 C 
ENDBRANCH  11  12
ENDBRANCH  10  11
ENDBRANCH   9  10
ENDBRANCH   8   9
ENDBRANCH   1   8
TORSDOF 9
ENDMDL
