MODEL 1
REMARK VINA RESULT:    -3.914      0.000      0.000
REMARK INTER + INTRA:          -6.327
REMARK INTER:                  -5.287
REMARK INTRA:                  -1.040
REMARK UNBOUND:                -1.040
REMARK SMILES CC(=O)CCC=C(C)CCC=C(C)C
REMARK SMILES IDX 7 1 6 2 8 3 9 4 10 5 11 6 13 7 12 8 14 9 5 10 4 11 2 12 3 13
REMARK SMILES IDX 1 14
REMARK H PARENT
REMARK Flexibility Score: inf
ROOT
ATOM      1  C   UNL     1      27.154  28.727  29.618  1.00  0.00    -0.077 C 
ATOM      2  C   UNL     1      26.935  27.479  29.146  1.00  0.00    -0.028 C 
ATOM      3  C   UNL     1      26.216  29.388  30.599  1.00  0.00     0.039 C 
ENDROOT
BRANCH   1   4
ATOM      4  C   UNL     1      28.380  29.486  29.149  1.00  0.00     0.034 C 
BRANCH   4   5
ATOM      5  C   UNL     1      28.995  28.858  27.890  1.00  0.00     0.032 C 
BRANCH   5   6
ATOM      6  C   UNL     1      28.969  29.811  26.717  1.00  0.00    -0.028 C 
ATOM      7  C   UNL     1      26.995  28.705  25.641  1.00  0.00     0.039 C 
ATOM      8  C   UNL     1      28.103  29.728  25.682  1.00  0.00    -0.080 C 
ATOM      9  C   UNL     1      28.194  30.719  24.550  1.00  0.00     0.039 C 
ENDBRANCH   5   6
ENDBRANCH   4   5
ENDBRANCH   1   4
BRANCH   2  10
ATOM     10  C   UNL     1      25.782  26.592  29.557  1.00  0.00     0.035 C 
BRANCH  10  11
ATOM     11  C   UNL     1      24.924  26.193  28.351  1.00  0.00     0.079 C 
BRANCH  11  12
ATOM     12  C   UNL     1      23.607  26.928  28.336  1.00  0.00     0.130 C 
ATOM     13  O   UNL     1      22.564  26.299  28.412  1.00  0.00    -0.300 OA
ATOM     14  C   UNL     1      23.554  28.424  28.233  1.00  0.00     0.087 C 
ENDBRANCH  11  12
ENDBRANCH  10  11
ENDBRANCH   2  10
TORSDOF 6
ENDMDL
MODEL 2
REMARK VINA RESULT:    -3.779      3.585      6.501
REMARK INTER + INTRA:          -6.144
REMARK INTER:                  -5.228
REMARK INTRA:                  -0.916
REMARK UNBOUND:                -1.040
REMARK SMILES CC(=O)CCC=C(C)CCC=C(C)C
REMARK SMILES IDX 7 1 6 2 8 3 9 4 10 5 11 6 13 7 12 8 14 9 5 10 4 11 2 12 3 13
REMARK SMILES IDX 1 14
REMARK H PARENT
REMARK Flexibility Score: inf
ROOT
ATOM      1  C   UNL     1      27.967  28.835  25.240  1.00  0.00    -0.077 C 
ATOM      2  C   UNL     1      28.928  29.783  25.156  1.00  0.00    -0.028 C 
ATOM      3  C   UNL     1      26.518  29.133  24.940  1.00  0.00     0.039 C 
ENDROOT
BRANCH   1   4
ATOM      4  C   UNL     1      28.359  27.428  25.646  1.00  0.00     0.034 C 
BRANCH   4   5
ATOM      5  C   UNL     1      28.880  27.372  27.089  1.00  0.00     0.032 C 
BRANCH   5   6
ATOM      6  C   UNL     1      27.759  27.483  28.096  1.00  0.00    -0.028 C 
ATOM      7  C   UNL     1      28.564  29.673  29.007  1.00  0.00     0.039 C 
ATOM      8  C   UNL     1      27.630  28.489  28.990  1.00  0.00    -0.080 C 
ATOM      9  C   UNL     1      26.484  28.476  29.969  1.00  0.00     0.039 C 
ENDBRANCH   5   6
ENDBRANCH   4   5
ENDBRANCH   1   4
BRANCH   2  10
ATOM     10  C   UNL     1      28.691  31.213  24.723  1.00  0.00     0.035 C 
BRANCH  10  11
ATOM     11  C   UNL     1      29.125  31.439  23.271  1.00  0.00     0.079 C 
BRANCH  11  12
ATOM     12  C   UNL     1      28.785  32.829  22.797  1.00  0.00     0.130 C 
ATOM     13  O   UNL     1      28.753  33.068  21.600  1.00  0.00    -0.300 OA
ATOM     14  C   UNL     1      28.483  33.929  23.772  1.00  0.00     0.087 C 
ENDBRANCH  11  12
ENDBRANCH  10  11
ENDBRANCH   2  10
TORSDOF 6
ENDMDL
MODEL 3
REMARK VINA RESULT:    -3.773      9.564     12.963
REMARK INTER + INTRA:          -6.136
REMARK INTER:                  -5.476
REMARK INTRA:                  -0.660
REMARK UNBOUND:                -1.040
REMARK SMILES CC(=O)CCC=C(C)CCC=C(C)C
REMARK SMILES IDX 7 1 6 2 8 3 9 4 10 5 11 6 13 7 12 8 14 9 5 10 4 11 2 12 3 13
REMARK SMILES IDX 1 14
REMARK H PARENT
REMARK Flexibility Score: inf
ROOT
ATOM      1  C   UNL     1      26.687  37.431  20.639  1.00  0.00    -0.077 C 
ATOM      2  C   UNL     1      27.053  38.731  20.696  1.00  0.00    -0.028 C 
ATOM      3  C   UNL     1      25.240  37.002  20.700  1.00  0.00     0.039 C 
ENDROOT
BRANCH   1   4
ATOM      4  C   UNL     1      27.763  36.370  20.509  1.00  0.00     0.034 C 
BRANCH   4   5
ATOM      5  C   UNL     1      28.682  36.332  21.738  1.00  0.00     0.032 C 
BRANCH   5   6
ATOM      6  C   UNL     1      28.764  34.947  22.335  1.00  0.00    -0.028 C 
ATOM      7  C   UNL     1      26.822  35.308  23.875  1.00  0.00     0.039 C 
ATOM      8  C   UNL     1      27.962  34.490  23.324  1.00  0.00    -0.080 C 
ATOM      9  C   UNL     1      28.160  33.096  23.863  1.00  0.00     0.039 C 
ENDBRANCH   5   6
ENDBRANCH   4   5
ENDBRANCH   1   4
BRANCH   2  10
ATOM     10  C   UNL     1      26.091  39.895  20.782  1.00  0.00     0.035 C 
BRANCH  10  11
ATOM     11  C   UNL     1      26.800  41.178  21.229  1.00  0.00     0.079 C 
BRANCH  11  12
ATOM     12  C   UNL     1      26.864  42.195  20.119  1.00  0.00     0.130 C 
ATOM     13  O   UNL     1      27.268  41.860  19.016  1.00  0.00    -0.300 OA
ATOM     14  C   UNL     1      26.437  43.616  20.341  1.00  0.00     0.087 C 
ENDBRANCH  11  12
ENDBRANCH  10  11
ENDBRANCH   2  10
TORSDOF 6
ENDMDL
MODEL 4
REMARK VINA RESULT:    -3.761      2.552      4.360
REMARK INTER + INTRA:          -6.121
REMARK INTER:                  -5.614
REMARK INTRA:                  -0.507
REMARK UNBOUND:                -1.040
REMARK SMILES CC(=O)CCC=C(C)CCC=C(C)C
REMARK SMILES IDX 7 1 6 2 8 3 9 4 10 5 11 6 13 7 12 8 14 9 5 10 4 11 2 12 3 13
REMARK SMILES IDX 1 14
REMARK H PARENT
REMARK Flexibility Score: inf
ROOT
ATOM      1  C   UNL     1      28.162  29.740  25.600  1.00  0.00    -0.077 C 
ATOM      2  C   UNL     1      28.516  28.920  26.616  1.00  0.00    -0.028 C 
ATOM      3  C   UNL     1      26.947  29.476  24.743  1.00  0.00     0.039 C 
ENDROOT
BRANCH   1   4
ATOM      4  C   UNL     1      29.012  30.962  25.313  1.00  0.00     0.034 C 
BRANCH   4   5
ATOM      5  C   UNL     1      28.839  31.454  23.869  1.00  0.00     0.032 C 
BRANCH   5   6
ATOM      6  C   UNL     1      28.347  32.882  23.818  1.00  0.00    -0.028 C 
ATOM      7  C   UNL     1      28.886  33.161  21.387  1.00  0.00     0.039 C 
ATOM      8  C   UNL     1      28.401  33.671  22.721  1.00  0.00    -0.080 C 
ATOM      9  C   UNL     1      27.907  35.093  22.799  1.00  0.00     0.039 C 
ENDBRANCH   5   6
ENDBRANCH   4   5
ENDBRANCH   1   4
BRANCH   2  10
ATOM     10  C   UNL     1      27.742  27.692  27.042  1.00  0.00     0.035 C 
BRANCH  10  11
ATOM     11  C   UNL     1      27.705  27.554  28.568  1.00  0.00     0.079 C 
BRANCH  11  12
ATOM     12  C   UNL     1      26.375  27.982  29.134  1.00  0.00     0.130 C 
ATOM     13  O   UNL     1      26.325  28.478  30.249  1.00  0.00    -0.300 OA
ATOM     14  C   UNL     1      25.107  27.814  28.350  1.00  0.00     0.087 C 
ENDBRANCH  11  12
ENDBRANCH  10  11
ENDBRANCH   2  10
TORSDOF 6
ENDMDL
MODEL 5
REMARK VINA RESULT:    -3.721      6.862     10.427
REMARK INTER + INTRA:          -6.066
REMARK INTER:                  -5.555
REMARK INTRA:                  -0.512
REMARK UNBOUND:                -1.040
REMARK SMILES CC(=O)CCC=C(C)CCC=C(C)C
REMARK SMILES IDX 7 1 6 2 8 3 9 4 10 5 11 6 13 7 12 8 14 9 5 10 4 11 2 12 3 13
REMARK SMILES IDX 1 14
REMARK H PARENT
REMARK Flexibility Score: inf
ROOT
ATOM      1  C   UNL     1      27.991  34.794  22.198  1.00  0.00    -0.077 C 
ATOM      2  C   UNL     1      27.158  35.857  22.283  1.00  0.00    -0.028 C 
ATOM      3  C   UNL     1      28.458  34.247  20.870  1.00  0.00     0.039 C 
ENDROOT
BRANCH   1   4
ATOM      4  C   UNL     1      28.470  34.133  23.475  1.00  0.00     0.034 C 
BRANCH   4   5
ATOM      5  C   UNL     1      28.949  32.695  23.231  1.00  0.00     0.032 C 
BRANCH   5   6
ATOM      6  C   UNL     1      28.416  31.741  24.274  1.00  0.00    -0.028 C 
ATOM      7  C   UNL     1      29.098  29.695  22.999  1.00  0.00     0.039 C 
ATOM      8  C   UNL     1      28.440  30.393  24.163  1.00  0.00    -0.080 C 
ATOM      9  C   UNL     1      27.847  29.542  25.257  1.00  0.00     0.039 C 
ENDBRANCH   5   6
ENDBRANCH   4   5
ENDBRANCH   1   4
BRANCH   2  10
ATOM     10  C   UNL     1      26.636  36.640  21.098  1.00  0.00     0.035 C 
BRANCH  10  11
ATOM     11  C   UNL     1      27.441  37.925  20.877  1.00  0.00     0.079 C 
BRANCH  11  12
ATOM     12  C   UNL     1      27.589  38.244  19.411  1.00  0.00     0.130 C 
ATOM     13  O   UNL     1      26.825  39.038  18.886  1.00  0.00    -0.300 OA
ATOM     14  C   UNL     1      28.664  37.605  18.582  1.00  0.00     0.087 C 
ENDBRANCH  11  12
ENDBRANCH  10  11
ENDBRANCH   2  10
TORSDOF 6
ENDMDL
MODEL 6
REMARK VINA RESULT:    -3.675      5.738      8.637
REMARK INTER + INTRA:          -6.004
REMARK INTER:                  -5.495
REMARK INTRA:                  -0.509
REMARK UNBOUND:                -1.040
REMARK SMILES CC(=O)CCC=C(C)CCC=C(C)C
REMARK SMILES IDX 7 1 6 2 8 3 9 4 10 5 11 6 13 7 12 8 14 9 5 10 4 11 2 12 3 13
REMARK SMILES IDX 1 14
REMARK H PARENT
REMARK Flexibility Score: inf
ROOT
ATOM      1  C   UNL     1      28.382  34.535  22.933  1.00  0.00    -0.077 C 
ATOM      2  C   UNL     1      29.064  33.391  23.168  1.00  0.00    -0.028 C 
ATOM      3  C   UNL     1      27.249  34.990  23.822  1.00  0.00     0.039 C 
ENDROOT
BRANCH   1   4
ATOM      4  C   UNL     1      28.767  35.388  21.740  1.00  0.00     0.034 C 
BRANCH   4   5
ATOM      5  C   UNL     1      27.554  35.729  20.864  1.00  0.00     0.032 C 
BRANCH   5   6
ATOM      6  C   UNL     1      27.277  37.215  20.841  1.00  0.00    -0.028 C 
ATOM      7  C   UNL     1      24.789  36.925  20.849  1.00  0.00     0.039 C 
ATOM      8  C   UNL     1      26.042  37.763  20.793  1.00  0.00    -0.080 C 
ATOM      9  C   UNL     1      25.891  39.262  20.742  1.00  0.00     0.039 C 
ENDBRANCH   5   6
ENDBRANCH   4   5
ENDBRANCH   1   4
BRANCH   2  10
ATOM     10  C   UNL     1      28.818  32.467  24.339  1.00  0.00     0.035 C 
BRANCH  10  11
ATOM     11  C   UNL     1      28.430  31.060  23.871  1.00  0.00     0.079 C 
BRANCH  11  12
ATOM     12  C   UNL     1      28.038  30.176  25.028  1.00  0.00     0.130 C 
ATOM     13  O   UNL     1      28.606  30.300  26.102  1.00  0.00    -0.300 OA
ATOM     14  C   UNL     1      26.957  29.145  24.887  1.00  0.00     0.087 C 
ENDBRANCH  11  12
ENDBRANCH  10  11
ENDBRANCH   2  10
TORSDOF 6
ENDMDL
MODEL 7
REMARK VINA RESULT:    -3.658      8.596     12.085
REMARK INTER + INTRA:          -5.981
REMARK INTER:                  -5.201
REMARK INTRA:                  -0.779
REMARK UNBOUND:                -1.040
REMARK SMILES CC(=O)CCC=C(C)CCC=C(C)C
REMARK SMILES IDX 7 1 6 2 8 3 9 4 10 5 11 6 13 7 12 8 14 9 5 10 4 11 2 12 3 13
REMARK SMILES IDX 1 14
REMARK H PARENT
REMARK Flexibility Score: inf
ROOT
ATOM      1  C   UNL     1      26.351  36.824  21.338  1.00  0.00    -0.077 C 
ATOM      2  C   UNL     1      27.476  37.227  20.704  1.00  0.00    -0.028 C 
ATOM      3  C   UNL     1      24.974  37.176  20.828  1.00  0.00     0.039 C 
ENDROOT
BRANCH   1   4
ATOM      4  C   UNL     1      26.478  35.993  22.600  1.00  0.00     0.034 C 
BRANCH   4   5
ATOM      5  C   UNL     1      27.944  35.802  23.016  1.00  0.00     0.032 C 
BRANCH   5   6
ATOM      6  C   UNL     1      28.161  34.479  23.712  1.00  0.00    -0.028 C 
ATOM      7  C   UNL     1      28.795  33.279  21.607  1.00  0.00     0.039 C 
ATOM      8  C   UNL     1      28.503  33.331  23.086  1.00  0.00    -0.080 C 
ATOM      9  C   UNL     1      28.662  32.062  23.884  1.00  0.00     0.039 C 
ENDBRANCH   5   6
ENDBRANCH   4   5
ENDBRANCH   1   4
BRANCH   2  10
ATOM     10  C   UNL     1      27.502  38.022  19.417  1.00  0.00     0.035 C 
BRANCH  10  11
ATOM     11  C   UNL     1      28.389  39.266  19.544  1.00  0.00     0.079 C 
BRANCH  11  12
ATOM     12  C   UNL     1      27.569  40.518  19.726  1.00  0.00     0.130 C 
ATOM     13  O   UNL     1      27.419  41.283  18.786  1.00  0.00    -0.300 OA
ATOM     14  C   UNL     1      26.929  40.843  21.043  1.00  0.00     0.087 C 
ENDBRANCH  11  12
ENDBRANCH  10  11
ENDBRANCH   2  10
TORSDOF 6
ENDMDL
MODEL 8
REMARK VINA RESULT:    -3.552     10.404     13.945
REMARK INTER + INTRA:          -5.838
REMARK INTER:                  -5.385
REMARK INTRA:                  -0.453
REMARK UNBOUND:                -1.040
REMARK SMILES CC(=O)CCC=C(C)CCC=C(C)C
REMARK SMILES IDX 7 1 6 2 8 3 9 4 10 5 11 6 13 7 12 8 14 9 5 10 4 11 2 12 3 13
REMARK SMILES IDX 1 14
REMARK H PARENT
REMARK Flexibility Score: inf
ROOT
ATOM      1  C   UNL     1      26.969  38.702  20.135  1.00  0.00    -0.077 C 
ATOM      2  C   UNL     1      27.781  39.429  19.334  1.00  0.00    -0.028 C 
ATOM      3  C   UNL     1      25.718  39.285  20.749  1.00  0.00     0.039 C 
ENDROOT
BRANCH   1   4
ATOM      4  C   UNL     1      27.324  37.257  20.425  1.00  0.00     0.034 C 
BRANCH   4   5
ATOM      5  C   UNL     1      27.857  37.073  21.853  1.00  0.00     0.032 C 
BRANCH   5   6
ATOM      6  C   UNL     1      28.285  35.648  22.113  1.00  0.00    -0.028 C 
ATOM      7  C   UNL     1      26.673  35.328  24.004  1.00  0.00     0.039 C 
ATOM      8  C   UNL     1      27.791  34.868  23.102  1.00  0.00    -0.080 C 
ATOM      9  C   UNL     1      28.320  33.469  23.285  1.00  0.00     0.039 C 
ENDBRANCH   5   6
ENDBRANCH   4   5
ENDBRANCH   1   4
BRANCH   2  10
ATOM     10  C   UNL     1      27.530  40.863  18.926  1.00  0.00     0.035 C 
BRANCH  10  11
ATOM     11  C   UNL     1      28.309  41.842  19.812  1.00  0.00     0.079 C 
BRANCH  11  12
ATOM     12  C   UNL     1      27.557  43.134  20.008  1.00  0.00     0.130 C 
ATOM     13  O   UNL     1      27.632  43.720  21.077  1.00  0.00    -0.300 OA
ATOM     14  C   UNL     1      26.717  43.719  18.911  1.00  0.00     0.087 C 
ENDBRANCH  11  12
ENDBRANCH  10  11
ENDBRANCH   2  10
TORSDOF 6
ENDMDL
MODEL 9
REMARK VINA RESULT:    -2.766      9.977     13.141
REMARK INTER + INTRA:          -4.777
REMARK INTER:                  -4.143
REMARK INTRA:                  -0.634
REMARK UNBOUND:                -1.040
REMARK SMILES CC(=O)CCC=C(C)CCC=C(C)C
REMARK SMILES IDX 7 1 6 2 8 3 9 4 10 5 11 6 13 7 12 8 14 9 5 10 4 11 2 12 3 13
REMARK SMILES IDX 1 14
REMARK H PARENT
REMARK Flexibility Score: inf
ROOT
ATOM      1  C   UNL     1      26.744  38.484  20.001  1.00  0.00    -0.077 C 
ATOM      2  C   UNL     1      27.298  37.257  20.135  1.00  0.00    -0.028 C 
ATOM      3  C   UNL     1      25.599  38.944  20.871  1.00  0.00     0.039 C 
ENDROOT
BRANCH   1   4
ATOM      4  C   UNL     1      27.291  39.425  18.946  1.00  0.00     0.034 C 
BRANCH   4   5
ATOM      5  C   UNL     1      28.080  40.586  19.568  1.00  0.00     0.032 C 
BRANCH   5   6
ATOM      6  C   UNL     1      27.658  41.921  18.999  1.00  0.00    -0.028 C 
ATOM      7  C   UNL     1      26.524  42.653  21.110  1.00  0.00     0.039 C 
ATOM      8  C   UNL     1      26.924  42.839  19.667  1.00  0.00    -0.080 C 
ATOM      9  C   UNL     1      26.534  44.125  18.984  1.00  0.00     0.039 C 
ENDBRANCH   5   6
ENDBRANCH   4   5
ENDBRANCH   1   4
BRANCH   2  10
ATOM     10  C   UNL     1      26.886  36.233  21.168  1.00  0.00     0.035 C 
BRANCH  10  11
ATOM     11  C   UNL     1      27.789  36.290  22.405  1.00  0.00     0.079 C 
BRANCH  11  12
ATOM     12  C   UNL     1      27.413  35.239  23.418  1.00  0.00     0.130 C 
ATOM     13  O   UNL     1      26.476  35.437  24.175  1.00  0.00    -0.300 OA
ATOM     14  C   UNL     1      28.170  33.946  23.513  1.00  0.00     0.087 C 
ENDBRANCH  11  12
ENDBRANCH  10  11
ENDBRANCH   2  10
TORSDOF 6
ENDMDL
