MODEL 1
REMARK VINA RESULT:    -5.132      0.000      0.000
REMARK INTER + INTRA:         -12.567
REMARK INTER:                  -9.932
REMARK INTRA:                  -2.634
REMARK UNBOUND:                -2.634
REMARK SMILES CCCCCCCCCCCCCCCCCC(=O)[O-]
REMARK SMILES IDX 10 1 11 2 12 3 13 4 14 5 15 6 16 7 17 8 18 9 19 10 20 11
REMARK SMILES IDX 9 12 8 13 7 14 6 15 5 16 4 17 3 18 2 19 1 20
REMARK H PARENT
REMARK Flexibility Score: inf
ROOT
ATOM      1  C   UNL     1     -34.107  40.789  43.560  1.00  0.00     0.000 C 
ENDROOT
BRANCH   1   2
ATOM      2  C   UNL     1     -34.413  42.280  43.775  1.00  0.00     0.000 C 
BRANCH   2   3
ATOM      3  C   UNL     1     -35.621  42.768  42.955  1.00  0.00     0.000 C 
BRANCH   3   4
ATOM      4  C   UNL     1     -35.264  43.540  41.670  1.00  0.00     0.000 C 
BRANCH   4   5
ATOM      5  C   UNL     1     -35.390  42.729  40.366  1.00  0.00     0.000 C 
BRANCH   5   6
ATOM      6  C   UNL     1     -34.456  43.217  39.239  1.00  0.00     0.000 C 
BRANCH   6   7
ATOM      7  C   UNL     1     -34.021  44.681  39.429  1.00  0.00     0.006 C 
BRANCH   7   8
ATOM      8  C   UNL     1     -32.541  44.894  39.087  1.00  0.00     0.053 C 
BRANCH   8   9
ATOM      9  C   UNL     1     -32.369  45.509  37.732  1.00  0.00     0.041 C 
ATOM     10  O   UNL     1     -31.276  45.398  37.118  1.00  0.00    -0.550 OA
ATOM     11  O   UNL     1     -33.409  46.233  37.161  1.00  0.00    -0.550 OA
ENDBRANCH   8   9
ENDBRANCH   7   8
ENDBRANCH   6   7
ENDBRANCH   5   6
ENDBRANCH   4   5
ENDBRANCH   3   4
ENDBRANCH   2   3
ENDBRANCH   1   2
BRANCH   1  12
ATOM     12  C   UNL     1     -32.616  40.571  43.276  1.00  0.00     0.000 C 
BRANCH  12  13
ATOM     13  C   UNL     1     -32.142  41.455  42.113  1.00  0.00    -0.000 C 
BRANCH  13  14
ATOM     14  C   UNL     1     -32.315  40.785  40.737  1.00  0.00    -0.000 C 
BRANCH  14  15
ATOM     15  C   UNL     1     -33.027  39.420  40.757  1.00  0.00    -0.000 C 
BRANCH  15  16
ATOM     16  C   UNL     1     -33.782  39.117  39.451  1.00  0.00    -0.000 C 
BRANCH  16  17
ATOM     17  C   UNL     1     -35.312  39.154  39.619  1.00  0.00    -0.000 C 
BRANCH  17  18
ATOM     18  C   UNL     1     -35.822  38.887  41.048  1.00  0.00    -0.000 C 
BRANCH  18  19
ATOM     19  C   UNL     1     -37.159  39.579  41.347  1.00  0.00    -0.003 C 
ATOM     20  C   UNL     1     -37.796  40.120  40.070  1.00  0.00     0.004 C 
ENDBRANCH  18  19
ENDBRANCH  17  18
ENDBRANCH  16  17
ENDBRANCH  15  16
ENDBRANCH  14  15
ENDBRANCH  13  14
ENDBRANCH  12  13
ENDBRANCH   1  12
TORSDOF 16
ENDMDL
MODEL 2
REMARK VINA RESULT:    -5.046      1.654      4.589
REMARK INTER + INTRA:         -12.399
REMARK INTER:                  -9.596
REMARK INTRA:                  -2.803
REMARK UNBOUND:                -2.634
REMARK SMILES CCCCCCCCCCCCCCCCCC(=O)[O-]
REMARK SMILES IDX 10 1 11 2 12 3 13 4 14 5 15 6 16 7 17 8 18 9 19 10 20 11
REMARK SMILES IDX 9 12 8 13 7 14 6 15 5 16 4 17 3 18 2 19 1 20
REMARK H PARENT
REMARK Flexibility Score: inf
ROOT
ATOM      1  C   UNL     1     -36.855  39.887  41.751  1.00  0.00     0.000 C 
ENDROOT
BRANCH   1   2
ATOM      2  C   UNL     1     -35.866  38.759  42.086  1.00  0.00     0.000 C 
BRANCH   2   3
ATOM      3  C   UNL     1     -34.444  39.034  41.562  1.00  0.00     0.000 C 
BRANCH   3   4
ATOM      4  C   UNL     1     -34.335  39.194  40.034  1.00  0.00     0.000 C 
BRANCH   4   5
ATOM      5  C   UNL     1     -33.793  40.556  39.558  1.00  0.00     0.000 C 
BRANCH   5   6
ATOM      6  C   UNL     1     -33.952  41.684  40.598  1.00  0.00     0.000 C 
BRANCH   6   7
ATOM      7  C   UNL     1     -33.356  43.017  40.115  1.00  0.00     0.006 C 
BRANCH   7   8
ATOM      8  C   UNL     1     -34.399  44.141  40.083  1.00  0.00     0.053 C 
BRANCH   8   9
ATOM      9  C   UNL     1     -34.579  44.689  38.700  1.00  0.00     0.041 C 
ATOM     10  O   UNL     1     -35.058  45.842  38.532  1.00  0.00    -0.550 OA
ATOM     11  O   UNL     1     -34.246  43.913  37.597  1.00  0.00    -0.550 OA
ENDBRANCH   8   9
ENDBRANCH   7   8
ENDBRANCH   6   7
ENDBRANCH   5   6
ENDBRANCH   4   5
ENDBRANCH   3   4
ENDBRANCH   2   3
ENDBRANCH   1   2
BRANCH   1  12
ATOM     12  C   UNL     1     -37.866  40.084  42.887  1.00  0.00     0.000 C 
BRANCH  12  13
ATOM     13  C   UNL     1     -37.464  41.266  43.782  1.00  0.00    -0.000 C 
BRANCH  13  14
ATOM     14  C   UNL     1     -36.648  42.337  43.035  1.00  0.00    -0.000 C 
BRANCH  14  15
ATOM     15  C   UNL     1     -35.340  42.767  43.726  1.00  0.00    -0.000 C 
BRANCH  15  16
ATOM     16  C   UNL     1     -34.985  41.891  44.938  1.00  0.00    -0.000 C 
BRANCH  16  17
ATOM     17  C   UNL     1     -33.809  40.936  44.666  1.00  0.00    -0.000 C 
BRANCH  17  18
ATOM     18  C   UNL     1     -32.556  41.594  44.058  1.00  0.00    -0.000 C 
BRANCH  18  19
ATOM     19  C   UNL     1     -31.725  40.627  43.204  1.00  0.00    -0.003 C 
ATOM     20  C   UNL     1     -30.557  41.348  42.536  1.00  0.00     0.004 C 
ENDBRANCH  18  19
ENDBRANCH  17  18
ENDBRANCH  16  17
ENDBRANCH  15  16
ENDBRANCH  14  15
ENDBRANCH  13  14
ENDBRANCH  12  13
ENDBRANCH   1  12
TORSDOF 16
ENDMDL
MODEL 3
REMARK VINA RESULT:    -5.012      1.649      3.445
REMARK INTER + INTRA:         -12.335
REMARK INTER:                  -9.310
REMARK INTRA:                  -3.024
REMARK UNBOUND:                -2.634
REMARK SMILES CCCCCCCCCCCCCCCCCC(=O)[O-]
REMARK SMILES IDX 10 1 11 2 12 3 13 4 14 5 15 6 16 7 17 8 18 9 19 10 20 11
REMARK SMILES IDX 9 12 8 13 7 14 6 15 5 16 4 17 3 18 2 19 1 20
REMARK H PARENT
REMARK Flexibility Score: inf
ROOT
ATOM      1  C   UNL     1     -32.645  39.637  40.730  1.00  0.00     0.000 C 
ENDROOT
BRANCH   1   2
ATOM      2  C   UNL     1     -33.659  39.770  39.582  1.00  0.00     0.000 C 
BRANCH   2   3
ATOM      3  C   UNL     1     -35.049  39.216  39.945  1.00  0.00     0.000 C 
BRANCH   3   4
ATOM      4  C   UNL     1     -35.847  40.071  40.949  1.00  0.00     0.000 C 
BRANCH   4   5
ATOM      5  C   UNL     1     -36.080  41.533  40.519  1.00  0.00     0.000 C 
BRANCH   5   6
ATOM      6  C   UNL     1     -35.397  42.566  41.438  1.00  0.00     0.000 C 
BRANCH   6   7
ATOM      7  C   UNL     1     -34.923  43.813  40.670  1.00  0.00     0.006 C 
BRANCH   7   8
ATOM      8  C   UNL     1     -34.279  43.454  39.325  1.00  0.00     0.053 C 
BRANCH   8   9
ATOM      9  C   UNL     1     -34.390  44.579  38.341  1.00  0.00     0.041 C 
ATOM     10  O   UNL     1     -33.816  44.503  37.224  1.00  0.00    -0.550 OA
ATOM     11  O   UNL     1     -35.103  45.724  38.674  1.00  0.00    -0.550 OA
ENDBRANCH   8   9
ENDBRANCH   7   8
ENDBRANCH   6   7
ENDBRANCH   5   6
ENDBRANCH   4   5
ENDBRANCH   3   4
ENDBRANCH   2   3
ENDBRANCH   1   2
BRANCH   1  12
ATOM     12  C   UNL     1     -31.983  40.986  41.035  1.00  0.00     0.000 C 
BRANCH  12  13
ATOM     13  C   UNL     1     -32.211  41.392  42.499  1.00  0.00    -0.000 C 
BRANCH  13  14
ATOM     14  C   UNL     1     -32.785  40.251  43.358  1.00  0.00    -0.000 C 
BRANCH  14  15
ATOM     15  C   UNL     1     -33.979  40.638  44.251  1.00  0.00    -0.000 C 
BRANCH  15  16
ATOM     16  C   UNL     1     -34.967  39.479  44.468  1.00  0.00    -0.000 C 
BRANCH  16  17
ATOM     17  C   UNL     1     -36.283  39.927  45.131  1.00  0.00    -0.000 C 
BRANCH  17  18
ATOM     18  C   UNL     1     -36.811  41.301  44.678  1.00  0.00    -0.000 C 
BRANCH  18  19
ATOM     19  C   UNL     1     -37.987  41.199  43.698  1.00  0.00    -0.003 C 
ATOM     20  C   UNL     1     -38.899  40.028  44.054  1.00  0.00     0.004 C 
ENDBRANCH  18  19
ENDBRANCH  17  18
ENDBRANCH  16  17
ENDBRANCH  15  16
ENDBRANCH  14  15
ENDBRANCH  13  14
ENDBRANCH  12  13
ENDBRANCH   1  12
TORSDOF 16
ENDMDL
MODEL 4
REMARK VINA RESULT:    -5.004      4.174      6.493
REMARK INTER + INTRA:         -12.318
REMARK INTER:                  -9.305
REMARK INTRA:                  -3.014
REMARK UNBOUND:                -2.634
REMARK SMILES CCCCCCCCCCCCCCCCCC(=O)[O-]
REMARK SMILES IDX 10 1 11 2 12 3 13 4 14 5 15 6 16 7 17 8 18 9 19 10 20 11
REMARK SMILES IDX 9 12 8 13 7 14 6 15 5 16 4 17 3 18 2 19 1 20
REMARK H PARENT
REMARK Flexibility Score: inf
ROOT
ATOM      1  C   UNL     1     -37.749  40.488  42.739  1.00  0.00     0.000 C 
ENDROOT
BRANCH   1   2
ATOM      2  C   UNL     1     -37.580  41.718  43.644  1.00  0.00     0.000 C 
BRANCH   2   3
ATOM      3  C   UNL     1     -36.106  42.115  43.847  1.00  0.00     0.000 C 
BRANCH   3   4
ATOM      4  C   UNL     1     -35.503  41.703  45.204  1.00  0.00     0.000 C 
BRANCH   4   5
ATOM      5  C   UNL     1     -34.300  40.745  45.118  1.00  0.00     0.000 C 
BRANCH   5   6
ATOM      6  C   UNL     1     -34.688  39.289  44.787  1.00  0.00     0.000 C 
BRANCH   6   7
ATOM      7  C   UNL     1     -33.863  38.710  43.625  1.00  0.00     0.006 C 
BRANCH   7   8
ATOM      8  C   UNL     1     -34.631  38.742  42.297  1.00  0.00     0.053 C 
BRANCH   8   9
ATOM      9  C   UNL     1     -33.936  39.591  41.276  1.00  0.00     0.041 C 
ATOM     10  O   UNL     1     -33.527  39.081  40.200  1.00  0.00    -0.550 OA
ATOM     11  O   UNL     1     -33.712  40.938  41.530  1.00  0.00    -0.550 OA
ENDBRANCH   8   9
ENDBRANCH   7   8
ENDBRANCH   6   7
ENDBRANCH   5   6
ENDBRANCH   4   5
ENDBRANCH   3   4
ENDBRANCH   2   3
ENDBRANCH   1   2
BRANCH   1  12
ATOM     12  C   UNL     1     -38.234  39.277  43.546  1.00  0.00     0.000 C 
BRANCH  12  13
ATOM     13  C   UNL     1     -39.477  39.632  44.377  1.00  0.00    -0.000 C 
BRANCH  13  14
ATOM     14  C   UNL     1     -39.411  39.095  45.818  1.00  0.00    -0.000 C 
BRANCH  14  15
ATOM     15  C   UNL     1     -38.141  39.471  46.603  1.00  0.00    -0.000 C 
BRANCH  15  16
ATOM     16  C   UNL     1     -37.314  38.246  47.029  1.00  0.00    -0.000 C 
BRANCH  16  17
ATOM     17  C   UNL     1     -38.045  36.913  46.784  1.00  0.00    -0.000 C 
BRANCH  17  18
ATOM     18  C   UNL     1     -37.204  35.820  46.098  1.00  0.00    -0.000 C 
BRANCH  18  19
ATOM     19  C   UNL     1     -36.663  36.250  44.728  1.00  0.00    -0.003 C 
ATOM     20  C   UNL     1     -36.554  35.058  43.781  1.00  0.00     0.004 C 
ENDBRANCH  18  19
ENDBRANCH  17  18
ENDBRANCH  16  17
ENDBRANCH  15  16
ENDBRANCH  14  15
ENDBRANCH  13  14
ENDBRANCH  12  13
ENDBRANCH   1  12
TORSDOF 16
ENDMDL
MODEL 5
REMARK VINA RESULT:    -4.975      3.176      5.232
REMARK INTER + INTRA:         -12.262
REMARK INTER:                  -9.022
REMARK INTRA:                  -3.241
REMARK UNBOUND:                -2.634
REMARK SMILES CCCCCCCCCCCCCCCCCC(=O)[O-]
REMARK SMILES IDX 10 1 11 2 12 3 13 4 14 5 15 6 16 7 17 8 18 9 19 10 20 11
REMARK SMILES IDX 9 12 8 13 7 14 6 15 5 16 4 17 3 18 2 19 1 20
REMARK H PARENT
REMARK Flexibility Score: inf
ROOT
ATOM      1  C   UNL     1     -35.551  38.003  43.075  1.00  0.00     0.000 C 
ENDROOT
BRANCH   1   2
ATOM      2  C   UNL     1     -34.269  38.504  43.758  1.00  0.00     0.000 C 
BRANCH   2   3
ATOM      3  C   UNL     1     -34.549  39.496  44.903  1.00  0.00     0.000 C 
BRANCH   3   4
ATOM      4  C   UNL     1     -34.386  40.982  44.528  1.00  0.00     0.000 C 
BRANCH   4   5
ATOM      5  C   UNL     1     -35.679  41.817  44.597  1.00  0.00     0.000 C 
BRANCH   5   6
ATOM      6  C   UNL     1     -36.063  42.479  43.257  1.00  0.00     0.000 C 
BRANCH   6   7
ATOM      7  C   UNL     1     -34.922  42.422  42.227  1.00  0.00     0.006 C 
BRANCH   7   8
ATOM      8  C   UNL     1     -35.445  42.398  40.785  1.00  0.00     0.053 C 
BRANCH   8   9
ATOM      9  C   UNL     1     -34.918  43.551  39.986  1.00  0.00     0.041 C 
ATOM     10  O   UNL     1     -34.483  43.368  38.819  1.00  0.00    -0.550 OA
ATOM     11  O   UNL     1     -34.877  44.822  40.545  1.00  0.00    -0.550 OA
ENDBRANCH   8   9
ENDBRANCH   7   8
ENDBRANCH   6   7
ENDBRANCH   5   6
ENDBRANCH   4   5
ENDBRANCH   3   4
ENDBRANCH   2   3
ENDBRANCH   1   2
BRANCH   1  12
ATOM     12  C   UNL     1     -35.851  38.815  41.809  1.00  0.00     0.000 C 
BRANCH  12  13
ATOM     13  C   UNL     1     -37.321  39.257  41.774  1.00  0.00    -0.000 C 
BRANCH  13  14
ATOM     14  C   UNL     1     -38.134  38.745  42.977  1.00  0.00    -0.000 C 
BRANCH  14  15
ATOM     15  C   UNL     1     -38.750  39.839  43.868  1.00  0.00    -0.000 C 
BRANCH  15  16
ATOM     16  C   UNL     1     -39.116  39.333  45.273  1.00  0.00    -0.000 C 
BRANCH  16  17
ATOM     17  C   UNL     1     -37.952  39.446  46.275  1.00  0.00    -0.000 C 
BRANCH  17  18
ATOM     18  C   UNL     1     -37.667  38.173  47.094  1.00  0.00    -0.000 C 
BRANCH  18  19
ATOM     19  C   UNL     1     -37.687  36.895  46.245  1.00  0.00    -0.003 C 
ATOM     20  C   UNL     1     -36.319  36.217  46.240  1.00  0.00     0.004 C 
ENDBRANCH  18  19
ENDBRANCH  17  18
ENDBRANCH  16  17
ENDBRANCH  15  16
ENDBRANCH  14  15
ENDBRANCH  13  14
ENDBRANCH  12  13
ENDBRANCH   1  12
TORSDOF 16
ENDMDL
MODEL 6
REMARK VINA RESULT:    -4.959      2.790      5.340
REMARK INTER + INTRA:         -12.231
REMARK INTER:                  -9.053
REMARK INTRA:                  -3.178
REMARK UNBOUND:                -2.634
REMARK SMILES CCCCCCCCCCCCCCCCCC(=O)[O-]
REMARK SMILES IDX 10 1 11 2 12 3 13 4 14 5 15 6 16 7 17 8 18 9 19 10 20 11
REMARK SMILES IDX 9 12 8 13 7 14 6 15 5 16 4 17 3 18 2 19 1 20
REMARK H PARENT
REMARK Flexibility Score: inf
ROOT
ATOM      1  C   UNL     1     -37.948  39.183  42.274  1.00  0.00     0.000 C 
ENDROOT
BRANCH   1   2
ATOM      2  C   UNL     1     -36.857  38.120  42.480  1.00  0.00     0.000 C 
BRANCH   2   3
ATOM      3  C   UNL     1     -36.596  37.809  43.966  1.00  0.00     0.000 C 
BRANCH   3   4
ATOM      4  C   UNL     1     -35.137  37.998  44.423  1.00  0.00     0.000 C 
BRANCH   4   5
ATOM      5  C   UNL     1     -34.144  38.357  43.300  1.00  0.00     0.000 C 
BRANCH   5   6
ATOM      6  C   UNL     1     -33.221  39.544  43.645  1.00  0.00     0.000 C 
BRANCH   6   7
ATOM      7  C   UNL     1     -31.954  39.576  42.772  1.00  0.00     0.006 C 
BRANCH   7   8
ATOM      8  C   UNL     1     -31.307  40.967  42.742  1.00  0.00     0.053 C 
BRANCH   8   9
ATOM      9  C   UNL     1     -30.260  41.066  41.675  1.00  0.00     0.041 C 
ATOM     10  O   UNL     1     -29.298  40.254  41.652  1.00  0.00    -0.550 OA
ATOM     11  O   UNL     1     -30.332  42.076  40.724  1.00  0.00    -0.550 OA
ENDBRANCH   8   9
ENDBRANCH   7   8
ENDBRANCH   6   7
ENDBRANCH   5   6
ENDBRANCH   4   5
ENDBRANCH   3   4
ENDBRANCH   2   3
ENDBRANCH   1   2
BRANCH   1  12
ATOM     12  C   UNL     1     -38.228  39.940  43.578  1.00  0.00     0.000 C 
BRANCH  12  13
ATOM     13  C   UNL     1     -37.646  41.360  43.526  1.00  0.00    -0.000 C 
BRANCH  13  14
ATOM     14  C   UNL     1     -36.442  41.553  44.467  1.00  0.00    -0.000 C 
BRANCH  14  15
ATOM     15  C   UNL     1     -35.341  42.493  43.941  1.00  0.00    -0.000 C 
BRANCH  15  16
ATOM     16  C   UNL     1     -35.563  42.920  42.481  1.00  0.00    -0.000 C 
BRANCH  16  17
ATOM     17  C   UNL     1     -34.542  42.297  41.511  1.00  0.00    -0.000 C 
BRANCH  17  18
ATOM     18  C   UNL     1     -35.035  41.052  40.750  1.00  0.00    -0.000 C 
BRANCH  18  19
ATOM     19  C   UNL     1     -34.023  40.541  39.715  1.00  0.00    -0.003 C 
ATOM     20  C   UNL     1     -34.056  39.018  39.619  1.00  0.00     0.004 C 
ENDBRANCH  18  19
ENDBRANCH  17  18
ENDBRANCH  16  17
ENDBRANCH  15  16
ENDBRANCH  14  15
ENDBRANCH  13  14
ENDBRANCH  12  13
ENDBRANCH   1  12
TORSDOF 16
ENDMDL
MODEL 7
REMARK VINA RESULT:    -4.909      2.272      3.728
REMARK INTER + INTRA:         -12.135
REMARK INTER:                  -9.251
REMARK INTRA:                  -2.884
REMARK UNBOUND:                -2.634
REMARK SMILES CCCCCCCCCCCCCCCCCC(=O)[O-]
REMARK SMILES IDX 10 1 11 2 12 3 13 4 14 5 15 6 16 7 17 8 18 9 19 10 20 11
REMARK SMILES IDX 9 12 8 13 7 14 6 15 5 16 4 17 3 18 2 19 1 20
REMARK H PARENT
REMARK Flexibility Score: inf
ROOT
ATOM      1  C   UNL     1     -37.276  40.018  41.542  1.00  0.00     0.000 C 
ENDROOT
BRANCH   1   2
ATOM      2  C   UNL     1     -37.713  39.981  43.014  1.00  0.00     0.000 C 
BRANCH   2   3
ATOM      3  C   UNL     1     -37.662  41.364  43.690  1.00  0.00     0.000 C 
BRANCH   3   4
ATOM      4  C   UNL     1     -36.349  41.676  44.433  1.00  0.00     0.000 C 
BRANCH   4   5
ATOM      5  C   UNL     1     -35.350  42.551  43.651  1.00  0.00     0.000 C 
BRANCH   5   6
ATOM      6  C   UNL     1     -36.013  43.455  42.592  1.00  0.00     0.000 C 
BRANCH   6   7
ATOM      7  C   UNL     1     -35.184  43.552  41.300  1.00  0.00     0.006 C 
BRANCH   7   8
ATOM      8  C   UNL     1     -34.981  45.005  40.850  1.00  0.00     0.053 C 
BRANCH   8   9
ATOM      9  C   UNL     1     -34.352  45.080  39.492  1.00  0.00     0.041 C 
ATOM     10  O   UNL     1     -33.151  44.739  39.331  1.00  0.00    -0.550 OA
ATOM     11  O   UNL     1     -35.084  45.557  38.413  1.00  0.00    -0.550 OA
ENDBRANCH   8   9
ENDBRANCH   7   8
ENDBRANCH   6   7
ENDBRANCH   5   6
ENDBRANCH   4   5
ENDBRANCH   3   4
ENDBRANCH   2   3
ENDBRANCH   1   2
BRANCH   1  12
ATOM     12  C   UNL     1     -36.287  38.887  41.234  1.00  0.00     0.000 C 
BRANCH  12  13
ATOM     13  C   UNL     1     -34.944  39.449  40.742  1.00  0.00    -0.000 C 
BRANCH  13  14
ATOM     14  C   UNL     1     -33.930  39.667  41.880  1.00  0.00    -0.000 C 
BRANCH  14  15
ATOM     15  C   UNL     1     -33.880  38.550  42.939  1.00  0.00    -0.000 C 
BRANCH  15  16
ATOM     16  C   UNL     1     -34.070  39.073  44.372  1.00  0.00    -0.000 C 
BRANCH  16  17
ATOM     17  C   UNL     1     -35.053  38.222  45.198  1.00  0.00    -0.000 C 
BRANCH  17  18
ATOM     18  C   UNL     1     -35.325  36.811  44.643  1.00  0.00    -0.000 C 
BRANCH  18  19
ATOM     19  C   UNL     1     -36.798  36.586  44.274  1.00  0.00    -0.003 C 
ATOM     20  C   UNL     1     -36.926  35.657  43.069  1.00  0.00     0.004 C 
ENDBRANCH  18  19
ENDBRANCH  17  18
ENDBRANCH  16  17
ENDBRANCH  15  16
ENDBRANCH  14  15
ENDBRANCH  13  14
ENDBRANCH  12  13
ENDBRANCH   1  12
TORSDOF 16
ENDMDL
MODEL 8
REMARK VINA RESULT:    -4.891      1.354      3.769
REMARK INTER + INTRA:         -12.100
REMARK INTER:                  -9.079
REMARK INTRA:                  -3.021
REMARK UNBOUND:                -2.634
REMARK SMILES CCCCCCCCCCCCCCCCCC(=O)[O-]
REMARK SMILES IDX 10 1 11 2 12 3 13 4 14 5 15 6 16 7 17 8 18 9 19 10 20 11
REMARK SMILES IDX 9 12 8 13 7 14 6 15 5 16 4 17 3 18 2 19 1 20
REMARK H PARENT
REMARK Flexibility Score: inf
ROOT
ATOM      1  C   UNL     1     -37.639  39.159  42.149  1.00  0.00     0.000 C 
ENDROOT
BRANCH   1   2
ATOM      2  C   UNL     1     -37.813  40.387  43.055  1.00  0.00     0.000 C 
BRANCH   2   3
ATOM      3  C   UNL     1     -36.566  40.683  43.910  1.00  0.00     0.000 C 
BRANCH   3   4
ATOM      4  C   UNL     1     -36.174  42.171  43.994  1.00  0.00     0.000 C 
BRANCH   4   5
ATOM      5  C   UNL     1     -34.976  42.579  43.116  1.00  0.00     0.000 C 
BRANCH   5   6
ATOM      6  C   UNL     1     -35.332  42.764  41.626  1.00  0.00     0.000 C 
BRANCH   6   7
ATOM      7  C   UNL     1     -34.088  42.971  40.745  1.00  0.00     0.006 C 
BRANCH   7   8
ATOM      8  C   UNL     1     -34.455  43.312  39.296  1.00  0.00     0.053 C 
BRANCH   8   9
ATOM      9  C   UNL     1     -34.137  44.738  38.966  1.00  0.00     0.041 C 
ATOM     10  O   UNL     1     -32.991  45.053  38.552  1.00  0.00    -0.550 OA
ATOM     11  O   UNL     1     -35.100  45.724  39.147  1.00  0.00    -0.550 OA
ENDBRANCH   8   9
ENDBRANCH   7   8
ENDBRANCH   6   7
ENDBRANCH   5   6
ENDBRANCH   4   5
ENDBRANCH   3   4
ENDBRANCH   2   3
ENDBRANCH   1   2
BRANCH   1  12
ATOM     12  C   UNL     1     -38.043  39.481  40.705  1.00  0.00     0.000 C 
BRANCH  12  13
ATOM     13  C   UNL     1     -36.831  39.958  39.889  1.00  0.00    -0.000 C 
BRANCH  13  14
ATOM     14  C   UNL     1     -35.664  38.955  39.902  1.00  0.00    -0.000 C 
BRANCH  14  15
ATOM     15  C   UNL     1     -34.283  39.549  39.567  1.00  0.00    -0.000 C 
BRANCH  15  16
ATOM     16  C   UNL     1     -33.255  39.352  40.694  1.00  0.00    -0.000 C 
BRANCH  16  17
ATOM     17  C   UNL     1     -33.907  39.107  42.067  1.00  0.00    -0.000 C 
BRANCH  17  18
ATOM     18  C   UNL     1     -33.040  39.483  43.282  1.00  0.00    -0.000 C 
BRANCH  18  19
ATOM     19  C   UNL     1     -31.696  40.112  42.889  1.00  0.00    -0.003 C 
ATOM     20  C   UNL     1     -31.476  41.437  43.614  1.00  0.00     0.004 C 
ENDBRANCH  18  19
ENDBRANCH  17  18
ENDBRANCH  16  17
ENDBRANCH  15  16
ENDBRANCH  14  15
ENDBRANCH  13  14
ENDBRANCH  12  13
ENDBRANCH   1  12
TORSDOF 16
ENDMDL
MODEL 9
REMARK VINA RESULT:    -4.889      5.874      8.404
REMARK INTER + INTRA:         -12.097
REMARK INTER:                  -9.207
REMARK INTRA:                  -2.890
REMARK UNBOUND:                -2.634
REMARK SMILES CCCCCCCCCCCCCCCCCC(=O)[O-]
REMARK SMILES IDX 10 1 11 2 12 3 13 4 14 5 15 6 16 7 17 8 18 9 19 10 20 11
REMARK SMILES IDX 9 12 8 13 7 14 6 15 5 16 4 17 3 18 2 19 1 20
REMARK H PARENT
REMARK Flexibility Score: inf
ROOT
ATOM      1  C   UNL     1     -34.079  39.735  42.289  1.00  0.00     0.000 C 
ENDROOT
BRANCH   1   2
ATOM      2  C   UNL     1     -33.727  38.866  43.507  1.00  0.00     0.000 C 
BRANCH   2   3
ATOM      3  C   UNL     1     -34.661  37.651  43.664  1.00  0.00     0.000 C 
BRANCH   3   4
ATOM      4  C   UNL     1     -35.732  37.793  44.764  1.00  0.00     0.000 C 
BRANCH   4   5
ATOM      5  C   UNL     1     -36.592  36.538  45.001  1.00  0.00     0.000 C 
BRANCH   5   6
ATOM      6  C   UNL     1     -37.542  36.656  46.212  1.00  0.00     0.000 C 
BRANCH   6   7
ATOM      7  C   UNL     1     -38.108  38.077  46.377  1.00  0.00     0.006 C 
BRANCH   7   8
ATOM      8  C   UNL     1     -38.650  38.324  47.791  1.00  0.00     0.053 C 
BRANCH   8   9
ATOM      9  C   UNL     1     -40.145  38.405  47.804  1.00  0.00     0.041 C 
ATOM     10  O   UNL     1     -40.775  38.328  48.891  1.00  0.00    -0.550 OA
ATOM     11  O   UNL     1     -40.844  38.533  46.610  1.00  0.00    -0.550 OA
ENDBRANCH   8   9
ENDBRANCH   7   8
ENDBRANCH   6   7
ENDBRANCH   5   6
ENDBRANCH   4   5
ENDBRANCH   3   4
ENDBRANCH   2   3
ENDBRANCH   1   2
BRANCH   1  12
ATOM     12  C   UNL     1     -35.136  39.051  41.414  1.00  0.00     0.000 C 
BRANCH  12  13
ATOM     13  C   UNL     1     -35.900  40.080  40.568  1.00  0.00    -0.000 C 
BRANCH  13  14
ATOM     14  C   UNL     1     -37.349  40.295  41.042  1.00  0.00    -0.000 C 
BRANCH  14  15
ATOM     15  C   UNL     1     -37.827  39.335  42.148  1.00  0.00    -0.000 C 
BRANCH  15  16
ATOM     16  C   UNL     1     -38.403  40.067  43.371  1.00  0.00    -0.000 C 
BRANCH  16  17
ATOM     17  C   UNL     1     -37.743  41.436  43.618  1.00  0.00    -0.000 C 
BRANCH  17  18
ATOM     18  C   UNL     1     -36.517  41.414  44.550  1.00  0.00    -0.000 C 
BRANCH  18  19
ATOM     19  C   UNL     1     -35.455  42.454  44.169  1.00  0.00    -0.003 C 
ATOM     20  C   UNL     1     -35.805  43.140  42.851  1.00  0.00     0.004 C 
ENDBRANCH  18  19
ENDBRANCH  17  18
ENDBRANCH  16  17
ENDBRANCH  15  16
ENDBRANCH  14  15
ENDBRANCH  13  14
ENDBRANCH  12  13
ENDBRANCH   1  12
TORSDOF 16
ENDMDL
