MODEL 1
REMARK VINA RESULT:    -3.043      0.000      0.000
REMARK INTER + INTRA:          -3.850
REMARK INTER:                  -3.754
REMARK INTRA:                  -0.096
REMARK UNBOUND:                -0.096
REMARK SMILES CCCCCC(=O)[O-]
REMARK SMILES IDX 4 1 5 2 6 3 7 4 8 5 3 6 2 7 1 8
REMARK H PARENT
REMARK Flexibility Score: inf
ROOT
ATOM      1  C   UNL     1      56.222  28.653  50.502  1.00  0.00     0.006 C 
ENDROOT
BRANCH   1   2
ATOM      2  C   UNL     1      57.603  28.121  50.110  1.00  0.00     0.053 C 
BRANCH   2   3
ATOM      3  C   UNL     1      58.605  29.232  50.080  1.00  0.00     0.041 C 
ATOM      4  O   UNL     1      58.839  29.902  51.120  1.00  0.00    -0.550 OA
ATOM      5  O   UNL     1      59.316  29.496  48.917  1.00  0.00    -0.550 OA
ENDBRANCH   2   3
ENDBRANCH   1   2
BRANCH   1   6
ATOM      6  C   UNL     1      55.108  27.828  49.841  1.00  0.00     0.000 C 
BRANCH   6   7
ATOM      7  C   UNL     1      55.526  26.373  49.578  1.00  0.00    -0.003 C 
ATOM      8  C   UNL     1      54.465  25.582  48.812  1.00  0.00     0.004 C 
ENDBRANCH   6   7
ENDBRANCH   1   6
TORSDOF 4
ENDMDL
MODEL 2
REMARK VINA RESULT:    -3.024      1.128      1.415
REMARK INTER + INTRA:          -3.826
REMARK INTER:                  -3.693
REMARK INTRA:                  -0.133
REMARK UNBOUND:                -0.096
REMARK SMILES CCCCCC(=O)[O-]
REMARK SMILES IDX 4 1 5 2 6 3 7 4 8 5 3 6 2 7 1 8
REMARK H PARENT
REMARK Flexibility Score: inf
ROOT
ATOM      1  C   UNL     1      57.325  28.601  50.381  1.00  0.00     0.006 C 
ENDROOT
BRANCH   1   2
ATOM      2  C   UNL     1      58.513  27.698  50.040  1.00  0.00     0.053 C 
BRANCH   2   3
ATOM      3  C   UNL     1      59.528  28.447  49.235  1.00  0.00     0.041 C 
ATOM      4  O   UNL     1      59.323  29.647  48.917  1.00  0.00    -0.550 OA
ATOM      5  O   UNL     1      60.722  27.834  48.880  1.00  0.00    -0.550 OA
ENDBRANCH   2   3
ENDBRANCH   1   2
BRANCH   1   6
ATOM      6  C   UNL     1      55.994  27.878  50.128  1.00  0.00     0.000 C 
BRANCH   6   7
ATOM      7  C   UNL     1      56.186  26.399  49.758  1.00  0.00    -0.003 C 
ATOM      8  C   UNL     1      54.958  25.796  49.076  1.00  0.00     0.004 C 
ENDBRANCH   6   7
ENDBRANCH   1   6
TORSDOF 4
ENDMDL
MODEL 3
REMARK VINA RESULT:    -3.000     12.717     13.832
REMARK INTER + INTRA:          -3.797
REMARK INTER:                  -3.670
REMARK INTRA:                  -0.127
REMARK UNBOUND:                -0.096
REMARK SMILES CCCCCC(=O)[O-]
REMARK SMILES IDX 4 1 5 2 6 3 7 4 8 5 3 6 2 7 1 8
REMARK H PARENT
REMARK Flexibility Score: inf
ROOT
ATOM      1  C   UNL     1      61.876  33.218  60.100  1.00  0.00     0.006 C 
ENDROOT
BRANCH   1   2
ATOM      2  C   UNL     1      62.644  31.901  60.241  1.00  0.00     0.053 C 
BRANCH   2   3
ATOM      3  C   UNL     1      61.888  30.943  61.106  1.00  0.00     0.041 C 
ATOM      4  O   UNL     1      60.680  31.159  61.386  1.00  0.00    -0.550 OA
ATOM      5  O   UNL     1      62.504  29.785  61.563  1.00  0.00    -0.550 OA
ENDBRANCH   2   3
ENDBRANCH   1   2
BRANCH   1   6
ATOM      6  C   UNL     1      62.821  34.422  60.227  1.00  0.00     0.000 C 
BRANCH   6   7
ATOM      7  C   UNL     1      64.243  34.016  60.645  1.00  0.00    -0.003 C 
ATOM      8  C   UNL     1      64.985  35.134  61.377  1.00  0.00     0.004 C 
ENDBRANCH   6   7
ENDBRANCH   1   6
TORSDOF 4
ENDMDL
MODEL 4
REMARK VINA RESULT:    -2.931      3.624      4.893
REMARK INTER + INTRA:          -3.712
REMARK INTER:                  -3.598
REMARK INTRA:                  -0.114
REMARK UNBOUND:                -0.096
REMARK SMILES CCCCCC(=O)[O-]
REMARK SMILES IDX 4 1 5 2 6 3 7 4 8 5 3 6 2 7 1 8
REMARK H PARENT
REMARK Flexibility Score: inf
ROOT
ATOM      1  C   UNL     1      54.726  27.924  49.767  1.00  0.00     0.006 C 
ENDROOT
BRANCH   1   2
ATOM      2  C   UNL     1      55.254  26.521  49.452  1.00  0.00     0.053 C 
BRANCH   2   3
ATOM      3  C   UNL     1      54.130  25.613  49.063  1.00  0.00     0.041 C 
ATOM      4  O   UNL     1      53.260  26.000  48.239  1.00  0.00    -0.550 OA
ATOM      5  O   UNL     1      54.073  24.322  49.570  1.00  0.00    -0.550 OA
ENDBRANCH   2   3
ENDBRANCH   1   2
BRANCH   1   6
ATOM      6  C   UNL     1      55.815  28.787  50.419  1.00  0.00     0.000 C 
BRANCH   6   7
ATOM      7  C   UNL     1      57.190  28.101  50.425  1.00  0.00    -0.003 C 
ATOM      8  C   UNL     1      58.316  29.027  49.966  1.00  0.00     0.004 C 
ENDBRANCH   6   7
ENDBRANCH   1   6
TORSDOF 4
ENDMDL
MODEL 5
REMARK VINA RESULT:    -2.922      2.831      4.429
REMARK INTER + INTRA:          -3.701
REMARK INTER:                  -3.629
REMARK INTRA:                  -0.072
REMARK UNBOUND:                -0.096
REMARK SMILES CCCCCC(=O)[O-]
REMARK SMILES IDX 4 1 5 2 6 3 7 4 8 5 3 6 2 7 1 8
REMARK H PARENT
REMARK Flexibility Score: inf
ROOT
ATOM      1  C   UNL     1      57.650  27.969  50.128  1.00  0.00     0.006 C 
ENDROOT
BRANCH   1   2
ATOM      2  C   UNL     1      56.172  28.182  50.467  1.00  0.00     0.053 C 
BRANCH   2   3
ATOM      3  C   UNL     1      55.310  27.265  49.657  1.00  0.00     0.041 C 
ATOM      4  O   UNL     1      55.724  26.118  49.344  1.00  0.00    -0.550 OA
ATOM      5  O   UNL     1      54.030  27.659  49.291  1.00  0.00    -0.550 OA
ENDBRANCH   2   3
ENDBRANCH   1   2
BRANCH   1   6
ATOM      6  C   UNL     1      58.407  29.304  50.109  1.00  0.00     0.000 C 
BRANCH   6   7
ATOM      7  C   UNL     1      59.530  29.332  49.060  1.00  0.00    -0.003 C 
ATOM      8  C   UNL     1      60.328  28.029  49.014  1.00  0.00     0.004 C 
ENDBRANCH   6   7
ENDBRANCH   1   6
TORSDOF 4
ENDMDL
MODEL 6
REMARK VINA RESULT:    -2.824      2.037      2.732
REMARK INTER + INTRA:          -3.580
REMARK INTER:                  -3.437
REMARK INTRA:                  -0.143
REMARK UNBOUND:                -0.096
REMARK SMILES CCCCCC(=O)[O-]
REMARK SMILES IDX 4 1 5 2 6 3 7 4 8 5 3 6 2 7 1 8
REMARK H PARENT
REMARK Flexibility Score: inf
ROOT
ATOM      1  C   UNL     1      58.835  29.058  50.426  1.00  0.00     0.006 C 
ENDROOT
BRANCH   1   2
ATOM      2  C   UNL     1      59.633  29.027  49.119  1.00  0.00     0.053 C 
BRANCH   2   3
ATOM      3  C   UNL     1      60.543  27.839  49.087  1.00  0.00     0.041 C 
ATOM      4  O   UNL     1      61.791  27.999  49.068  1.00  0.00    -0.550 OA
ATOM      5  O   UNL     1      60.013  26.557  49.129  1.00  0.00    -0.550 OA
ENDBRANCH   2   3
ENDBRANCH   1   2
BRANCH   1   6
ATOM      6  C   UNL     1      57.331  28.910  50.155  1.00  0.00     0.000 C 
BRANCH   6   7
ATOM      7  C   UNL     1      56.833  27.470  50.355  1.00  0.00    -0.003 C 
ATOM      8  C   UNL     1      55.424  27.250  49.805  1.00  0.00     0.004 C 
ENDBRANCH   6   7
ENDBRANCH   1   6
TORSDOF 4
ENDMDL
MODEL 7
REMARK VINA RESULT:    -2.812     12.587     13.155
REMARK INTER + INTRA:          -3.565
REMARK INTER:                  -3.383
REMARK INTRA:                  -0.182
REMARK UNBOUND:                -0.096
REMARK SMILES CCCCCC(=O)[O-]
REMARK SMILES IDX 4 1 5 2 6 3 7 4 8 5 3 6 2 7 1 8
REMARK H PARENT
REMARK Flexibility Score: inf
ROOT
ATOM      1  C   UNL     1      62.206  32.274  59.757  1.00  0.00     0.006 C 
ENDROOT
BRANCH   1   2
ATOM      2  C   UNL     1      62.097  33.791  59.934  1.00  0.00     0.053 C 
BRANCH   2   3
ATOM      3  C   UNL     1      63.355  34.343  60.525  1.00  0.00     0.041 C 
ATOM      4  O   UNL     1      63.391  35.530  60.942  1.00  0.00    -0.550 OA
ATOM      5  O   UNL     1      64.473  33.531  60.661  1.00  0.00    -0.550 OA
ENDBRANCH   2   3
ENDBRANCH   1   2
BRANCH   1   6
ATOM      6  C   UNL     1      61.182  31.543  60.637  1.00  0.00     0.000 C 
BRANCH   6   7
ATOM      7  C   UNL     1      61.806  30.388  61.437  1.00  0.00    -0.003 C 
ATOM      8  C   UNL     1      63.284  30.173  61.110  1.00  0.00     0.004 C 
ENDBRANCH   6   7
ENDBRANCH   1   6
TORSDOF 4
ENDMDL
MODEL 8
REMARK VINA RESULT:    -2.807     12.067     13.176
REMARK INTER + INTRA:          -3.559
REMARK INTER:                  -3.384
REMARK INTRA:                  -0.175
REMARK UNBOUND:                -0.096
REMARK SMILES CCCCCC(=O)[O-]
REMARK SMILES IDX 4 1 5 2 6 3 7 4 8 5 3 6 2 7 1 8
REMARK H PARENT
REMARK Flexibility Score: inf
ROOT
ATOM      1  C   UNL     1      61.283  31.537  59.954  1.00  0.00     0.006 C 
ENDROOT
BRANCH   1   2
ATOM      2  C   UNL     1      61.373  30.810  61.299  1.00  0.00     0.053 C 
BRANCH   2   3
ATOM      3  C   UNL     1      62.523  29.852  61.302  1.00  0.00     0.041 C 
ATOM      4  O   UNL     1      63.705  30.282  61.330  1.00  0.00    -0.550 OA
ATOM      5  O   UNL     1      62.287  28.484  61.323  1.00  0.00    -0.550 OA
ENDBRANCH   2   3
ENDBRANCH   1   2
BRANCH   1   6
ATOM      6  C   UNL     1      61.629  33.025  60.110  1.00  0.00     0.000 C 
BRANCH   6   7
ATOM      7  C   UNL     1      63.073  33.344  59.693  1.00  0.00    -0.003 C 
ATOM      8  C   UNL     1      63.748  34.355  60.620  1.00  0.00     0.004 C 
ENDBRANCH   6   7
ENDBRANCH   1   6
TORSDOF 4
ENDMDL
MODEL 9
REMARK VINA RESULT:    -2.719     12.474     12.921
REMARK INTER + INTRA:          -3.451
REMARK INTER:                  -3.320
REMARK INTRA:                  -0.131
REMARK UNBOUND:                -0.096
REMARK SMILES CCCCCC(=O)[O-]
REMARK SMILES IDX 4 1 5 2 6 3 7 4 8 5 3 6 2 7 1 8
REMARK H PARENT
REMARK Flexibility Score: inf
ROOT
ATOM      1  C   UNL     1      61.444  31.930  60.439  1.00  0.00     0.006 C 
ENDROOT
BRANCH   1   2
ATOM      2  C   UNL     1      62.921  32.211  60.151  1.00  0.00     0.053 C 
BRANCH   2   3
ATOM      3  C   UNL     1      63.237  33.654  60.386  1.00  0.00     0.041 C 
ATOM      4  O   UNL     1      62.343  34.529  60.242  1.00  0.00    -0.550 OA
ATOM      5  O   UNL     1      64.504  34.029  60.811  1.00  0.00    -0.550 OA
ENDBRANCH   2   3
ENDBRANCH   1   2
BRANCH   1   6
ATOM      6  C   UNL     1      61.285  30.715  61.365  1.00  0.00     0.000 C 
BRANCH   6   7
ATOM      7  C   UNL     1      62.552  29.846  61.422  1.00  0.00    -0.003 C 
ATOM      8  C   UNL     1      62.283  28.385  61.062  1.00  0.00     0.004 C 
ENDBRANCH   6   7
ENDBRANCH   1   6
TORSDOF 4
ENDMDL
