MODEL 1
REMARK VINA RESULT:    -3.896      0.000      0.000
REMARK INTER + INTRA:          -4.352
REMARK INTER:                  -4.807
REMARK INTRA:                   0.455
REMARK UNBOUND:                 0.455
REMARK SMILES O=c1c(O)c(-c2cc(O)c(O)c(O)c2)oc2cc(O)cc(O)c12
REMARK SMILES IDX 5 1 3 2 2 3 1 4 23 5 21 6 20 7 18 8 17 9 16 10 15 11 6 12
REMARK SMILES IDX 7 13 8 14 14 15 10 16 12 17 9 18 11 20 13 22 4 24 22 26
REMARK SMILES IDX 19 28
REMARK H PARENT 9 19 11 21 13 23 4 25 22 27 19 29
REMARK Flexibility Score: inf
ROOT
ATOM      1  C   UNL     1     148.713  15.825  35.412  1.00  0.00     0.180 A 
ATOM      2  C   UNL     1     148.843  15.838  34.013  1.00  0.00     0.208 A 
ATOM      3  C   UNL     1     148.954  14.616  33.328  1.00  0.00     0.238 A 
ATOM      4  O   UNL     1     149.124  14.637  32.080  1.00  0.00    -0.285 OA
ATOM      5  C   UNL     1     148.917  13.398  34.049  1.00  0.00     0.111 A 
ATOM      6  C   UNL     1     148.980  12.102  33.453  1.00  0.00     0.134 A 
ATOM      7  C   UNL     1     149.068  10.970  34.273  1.00  0.00     0.093 A 
ATOM      8  C   UNL     1     149.028  11.082  35.662  1.00  0.00     0.123 A 
ATOM      9  C   UNL     1     148.906  12.339  36.253  1.00  0.00     0.094 A 
ATOM     10  C   UNL     1     148.853  13.491  35.463  1.00  0.00     0.146 A 
ATOM     11  O   UNL     1     148.749  14.669  36.065  1.00  0.00    -0.452 OA
ENDROOT
BRANCH   1  12
ATOM     12  C   UNL     1     148.568  17.069  36.201  1.00  0.00     0.029 A 
ATOM     13  C   UNL     1     148.151  17.038  37.544  1.00  0.00     0.062 A 
ATOM     14  C   UNL     1     148.040  18.224  38.283  1.00  0.00     0.162 A 
ATOM     15  C   UNL     1     148.907  18.300  35.620  1.00  0.00     0.062 A 
ATOM     16  C   UNL     1     148.362  19.454  37.684  1.00  0.00     0.200 A 
ATOM     17  C   UNL     1     148.798  19.489  36.354  1.00  0.00     0.162 A 
BRANCH  14  18
ATOM     18  O   UNL     1     147.619  18.183  39.611  1.00  0.00    -0.504 OA
ATOM     19  H   UNL     1     147.829  18.935  40.258  1.00  0.00     0.293 HD
ENDBRANCH  14  18
BRANCH  16  20
ATOM     20  O   UNL     1     148.256  20.648  38.398  1.00  0.00    -0.502 OA
ATOM     21  H   UNL     1     147.934  21.506  37.967  1.00  0.00     0.293 HD
ENDBRANCH  16  20
BRANCH  17  22
ATOM     22  O   UNL     1     149.123  20.710  35.767  1.00  0.00    -0.504 OA
ATOM     23  H   UNL     1     148.409  21.385  35.515  1.00  0.00     0.293 HD
ENDBRANCH  17  22
ENDBRANCH   1  12
BRANCH   2  24
ATOM     24  O   UNL     1     148.899  17.052  33.323  1.00  0.00    -0.502 OA
ATOM     25  H   UNL     1     149.774  17.476  33.037  1.00  0.00     0.293 HD
ENDBRANCH   2  24
BRANCH   6  26
ATOM     26  O   UNL     1     148.933  11.874  32.076  1.00  0.00    -0.507 OA
ATOM     27  H   UNL     1     149.458  11.160  31.593  1.00  0.00     0.293 HD
ENDBRANCH   6  26
BRANCH   8  28
ATOM     28  O   UNL     1     149.101   9.932  36.446  1.00  0.00    -0.508 OA
ATOM     29  H   UNL     1     148.740   9.913  37.392  1.00  0.00     0.293 HD
ENDBRANCH   8  28
TORSDOF 7
ENDMDL
MODEL 2
REMARK VINA RESULT:    -3.788      0.082      1.751
REMARK INTER + INTRA:          -4.219
REMARK INTER:                  -4.625
REMARK INTRA:                   0.406
REMARK UNBOUND:                 0.455
REMARK SMILES O=c1c(O)c(-c2cc(O)c(O)c(O)c2)oc2cc(O)cc(O)c12
REMARK SMILES IDX 5 1 3 2 2 3 1 4 23 5 21 6 20 7 18 8 17 9 16 10 15 11 6 12
REMARK SMILES IDX 7 13 8 14 14 15 10 16 12 17 9 18 11 20 13 22 4 24 22 26
REMARK SMILES IDX 19 28
REMARK H PARENT 9 19 11 21 13 23 4 25 22 27 19 29
REMARK Flexibility Score: inf
ROOT
ATOM      1  C   UNL     1     148.797  15.850  35.432  1.00  0.00     0.180 A 
ATOM      2  C   UNL     1     148.904  15.840  34.031  1.00  0.00     0.208 A 
ATOM      3  C   UNL     1     148.975  14.607  33.362  1.00  0.00     0.238 A 
ATOM      4  O   UNL     1     149.125  14.606  32.112  1.00  0.00    -0.285 OA
ATOM      5  C   UNL     1     148.923  13.400  34.101  1.00  0.00     0.111 A 
ATOM      6  C   UNL     1     148.946  12.095  33.523  1.00  0.00     0.134 A 
ATOM      7  C   UNL     1     149.021  10.972  34.357  1.00  0.00     0.093 A 
ATOM      8  C   UNL     1     149.008  11.104  35.745  1.00  0.00     0.123 A 
ATOM      9  C   UNL     1     148.924  12.373  36.319  1.00  0.00     0.094 A 
ATOM     10  C   UNL     1     148.884  13.514  35.515  1.00  0.00     0.146 A 
ATOM     11  O   UNL     1     148.817  14.703  36.101  1.00  0.00    -0.452 OA
ENDROOT
BRANCH   1  12
ATOM     12  C   UNL     1     148.693  17.108  36.206  1.00  0.00     0.029 A 
ATOM     13  C   UNL     1     148.968  18.354  35.615  1.00  0.00     0.062 A 
ATOM     14  C   UNL     1     148.842  19.537  36.356  1.00  0.00     0.162 A 
ATOM     15  C   UNL     1     148.254  17.066  37.537  1.00  0.00     0.062 A 
ATOM     16  C   UNL     1     148.424  19.482  37.696  1.00  0.00     0.200 A 
ATOM     17  C   UNL     1     148.127  18.245  38.284  1.00  0.00     0.162 A 
BRANCH  14  18
ATOM     18  O   UNL     1     149.125  20.767  35.763  1.00  0.00    -0.504 OA
ATOM     19  H   UNL     1     148.776  21.005  34.842  1.00  0.00     0.293 HD
ENDBRANCH  14  18
BRANCH  16  20
ATOM     20  O   UNL     1     148.295  20.645  38.456  1.00  0.00    -0.502 OA
ATOM     21  H   UNL     1     149.031  21.339  38.507  1.00  0.00     0.293 HD
ENDBRANCH  16  20
BRANCH  17  22
ATOM     22  O   UNL     1     147.706  18.197  39.611  1.00  0.00    -0.504 OA
ATOM     23  H   UNL     1     148.289  18.538  40.366  1.00  0.00     0.293 HD
ENDBRANCH  17  22
ENDBRANCH   1  12
BRANCH   2  24
ATOM     24  O   UNL     1     148.975  17.043  33.323  1.00  0.00    -0.502 OA
ATOM     25  H   UNL     1     148.250  17.749  33.375  1.00  0.00     0.293 HD
ENDBRANCH   2  24
BRANCH   6  26
ATOM     26  O   UNL     1     148.871  11.848  32.150  1.00  0.00    -0.507 OA
ATOM     27  H   UNL     1     148.894  10.932  31.728  1.00  0.00     0.293 HD
ENDBRANCH   6  26
BRANCH   8  28
ATOM     28  O   UNL     1     149.067   9.965  36.544  1.00  0.00    -0.508 OA
ATOM     29  H   UNL     1     148.523   9.138  36.328  1.00  0.00     0.293 HD
ENDBRANCH   8  28
TORSDOF 7
ENDMDL
MODEL 3
REMARK VINA RESULT:    -2.536      1.449      7.045
REMARK INTER + INTRA:          -2.674
REMARK INTER:                  -2.729
REMARK INTRA:                   0.055
REMARK UNBOUND:                 0.455
REMARK SMILES O=c1c(O)c(-c2cc(O)c(O)c(O)c2)oc2cc(O)cc(O)c12
REMARK SMILES IDX 5 1 3 2 2 3 1 4 23 5 21 6 20 7 18 8 17 9 16 10 15 11 6 12
REMARK SMILES IDX 7 13 8 14 14 15 10 16 12 17 9 18 11 20 13 22 4 24 22 26
REMARK SMILES IDX 19 28
REMARK H PARENT 9 19 11 21 13 23 4 25 22 27 19 29
REMARK Flexibility Score: inf
ROOT
ATOM      1  C   UNL     1     147.967  15.133  35.726  1.00  0.00     0.180 A 
ATOM      2  C   UNL     1     147.325  16.161  35.015  1.00  0.00     0.208 A 
ATOM      3  C   UNL     1     147.202  17.428  35.610  1.00  0.00     0.238 A 
ATOM      4  O   UNL     1     146.578  18.328  34.990  1.00  0.00    -0.285 OA
ATOM      5  C   UNL     1     147.736  17.653  36.901  1.00  0.00     0.111 A 
ATOM      6  C   UNL     1     147.705  18.908  37.583  1.00  0.00     0.134 A 
ATOM      7  C   UNL     1     148.147  18.983  38.909  1.00  0.00     0.093 A 
ATOM      8  C   UNL     1     148.680  17.868  39.556  1.00  0.00     0.123 A 
ATOM      9  C   UNL     1     148.771  16.653  38.878  1.00  0.00     0.094 A 
ATOM     10  C   UNL     1     148.305  16.536  37.566  1.00  0.00     0.146 A 
ATOM     11  O   UNL     1     148.399  15.358  36.961  1.00  0.00    -0.452 OA
ENDROOT
BRANCH   1  12
ATOM     12  C   UNL     1     148.156  13.779  35.156  1.00  0.00     0.029 A 
ATOM     13  C   UNL     1     148.547  13.598  33.818  1.00  0.00     0.062 A 
ATOM     14  C   UNL     1     148.744  12.310  33.301  1.00  0.00     0.162 A 
ATOM     15  C   UNL     1     148.000  12.655  35.979  1.00  0.00     0.062 A 
ATOM     16  C   UNL     1     148.563  11.189  34.129  1.00  0.00     0.200 A 
ATOM     17  C   UNL     1     148.195  11.365  35.469  1.00  0.00     0.162 A 
BRANCH  14  18
ATOM     18  O   UNL     1     149.125  12.141  31.971  1.00  0.00    -0.504 OA
ATOM     19  H   UNL     1     150.081  12.288  31.669  1.00  0.00     0.293 HD
ENDBRANCH  14  18
BRANCH  16  20
ATOM     20  O   UNL     1     148.749   9.897  33.637  1.00  0.00    -0.502 OA
ATOM     21  H   UNL     1     148.139   9.130  33.894  1.00  0.00     0.293 HD
ENDBRANCH  16  20
BRANCH  17  22
ATOM     22  O   UNL     1     148.023  10.250  36.288  1.00  0.00    -0.504 OA
ATOM     23  H   UNL     1     148.604   9.426  36.191  1.00  0.00     0.293 HD
ENDBRANCH  17  22
ENDBRANCH   1  12
BRANCH   2  24
ATOM     24  O   UNL     1     146.786  15.910  33.750  1.00  0.00    -0.502 OA
ATOM     25  H   UNL     1     145.880  16.264  33.465  1.00  0.00     0.293 HD
ENDBRANCH   2  24
BRANCH   6  26
ATOM     26  O   UNL     1     147.277  20.102  36.998  1.00  0.00    -0.507 OA
ATOM     27  H   UNL     1     147.506  20.398  36.061  1.00  0.00     0.293 HD
ENDBRANCH   6  26
BRANCH   8  28
ATOM     28  O   UNL     1     149.125  17.985  40.870  1.00  0.00    -0.508 OA
ATOM     29  H   UNL     1     148.703  18.641  41.516  1.00  0.00     0.293 HD
ENDBRANCH   8  28
TORSDOF 7
ENDMDL
MODEL 4
REMARK VINA RESULT:    -2.292      1.444      6.836
REMARK INTER + INTRA:          -2.373
REMARK INTER:                  -2.500
REMARK INTRA:                   0.127
REMARK UNBOUND:                 0.455
REMARK SMILES O=c1c(O)c(-c2cc(O)c(O)c(O)c2)oc2cc(O)cc(O)c12
REMARK SMILES IDX 5 1 3 2 2 3 1 4 23 5 21 6 20 7 18 8 17 9 16 10 15 11 6 12
REMARK SMILES IDX 7 13 8 14 14 15 10 16 12 17 9 18 11 20 13 22 4 24 22 26
REMARK SMILES IDX 19 28
REMARK H PARENT 9 19 11 21 13 23 4 25 22 27 19 29
REMARK Flexibility Score: inf
ROOT
ATOM      1  C   UNL     1     148.011  15.143  35.791  1.00  0.00     0.180 A 
ATOM      2  C   UNL     1     147.352  16.156  35.074  1.00  0.00     0.208 A 
ATOM      3  C   UNL     1     147.210  17.425  35.662  1.00  0.00     0.238 A 
ATOM      4  O   UNL     1     146.571  18.311  35.036  1.00  0.00    -0.285 OA
ATOM      5  C   UNL     1     147.740  17.667  36.951  1.00  0.00     0.111 A 
ATOM      6  C   UNL     1     147.689  18.925  37.625  1.00  0.00     0.134 A 
ATOM      7  C   UNL     1     148.130  19.016  38.951  1.00  0.00     0.093 A 
ATOM      8  C   UNL     1     148.681  17.913  39.604  1.00  0.00     0.123 A 
ATOM      9  C   UNL     1     148.791  16.695  38.934  1.00  0.00     0.094 A 
ATOM     10  C   UNL     1     148.327  16.563  37.623  1.00  0.00     0.146 A 
ATOM     11  O   UNL     1     148.440  15.383  37.025  1.00  0.00    -0.452 OA
ENDROOT
BRANCH   1  12
ATOM     12  C   UNL     1     148.222  13.790  35.229  1.00  0.00     0.029 A 
ATOM     13  C   UNL     1     148.018  12.636  36.007  1.00  0.00     0.062 A 
ATOM     14  C   UNL     1     148.199  11.361  35.452  1.00  0.00     0.162 A 
ATOM     15  C   UNL     1     148.575  13.649  33.879  1.00  0.00     0.062 A 
ATOM     16  C   UNL     1     148.575  11.232  34.104  1.00  0.00     0.200 A 
ATOM     17  C   UNL     1     148.759  12.378  33.319  1.00  0.00     0.162 A 
BRANCH  14  18
ATOM     18  O   UNL     1     148.002  10.224  36.233  1.00  0.00    -0.504 OA
ATOM     19  H   UNL     1     147.085   9.976  36.588  1.00  0.00     0.293 HD
ENDBRANCH  14  18
BRANCH  16  20
ATOM     20  O   UNL     1     148.766   9.975  33.530  1.00  0.00    -0.502 OA
ATOM     21  H   UNL     1     149.414   9.825  32.767  1.00  0.00     0.293 HD
ENDBRANCH  16  20
BRANCH  17  22
ATOM     22  O   UNL     1     149.125  12.244  31.981  1.00  0.00    -0.504 OA
ATOM     23  H   UNL     1     149.009  11.369  31.483  1.00  0.00     0.293 HD
ENDBRANCH  17  22
ENDBRANCH   1  12
BRANCH   2  24
ATOM     24  O   UNL     1     146.817  15.889  33.811  1.00  0.00    -0.502 OA
ATOM     25  H   UNL     1     145.848  16.079  33.579  1.00  0.00     0.293 HD
ENDBRANCH   2  24
BRANCH   6  26
ATOM     26  O   UNL     1     147.242  20.109  37.034  1.00  0.00    -0.507 OA
ATOM     27  H   UNL     1     146.550  20.160  36.301  1.00  0.00     0.293 HD
ENDBRANCH   6  26
BRANCH   8  28
ATOM     28  O   UNL     1     149.125  18.045  40.918  1.00  0.00    -0.508 OA
ATOM     29  H   UNL     1     150.098  17.908  41.164  1.00  0.00     0.293 HD
ENDBRANCH   8  28
TORSDOF 7
ENDMDL
MODEL 5
REMARK VINA RESULT:    -1.726      1.409      2.518
REMARK INTER + INTRA:          -1.675
REMARK INTER:                  -2.117
REMARK INTRA:                   0.442
REMARK UNBOUND:                 0.455
REMARK SMILES O=c1c(O)c(-c2cc(O)c(O)c(O)c2)oc2cc(O)cc(O)c12
REMARK SMILES IDX 5 1 3 2 2 3 1 4 23 5 21 6 20 7 18 8 17 9 16 10 15 11 6 12
REMARK SMILES IDX 7 13 8 14 14 15 10 16 12 17 9 18 11 20 13 22 4 24 22 26
REMARK SMILES IDX 19 28
REMARK H PARENT 9 19 11 21 13 23 4 25 22 27 19 29
REMARK Flexibility Score: inf
ROOT
ATOM      1  C   UNL     1     148.843  16.201  36.032  1.00  0.00     0.180 A 
ATOM      2  C   UNL     1     148.725  16.842  34.787  1.00  0.00     0.208 A 
ATOM      3  C   UNL     1     148.616  16.060  33.625  1.00  0.00     0.238 A 
ATOM      4  O   UNL     1     148.565  16.640  32.509  1.00  0.00    -0.285 OA
ATOM      5  C   UNL     1     148.611  14.648  33.725  1.00  0.00     0.111 A 
ATOM      6  C   UNL     1     148.464  13.758  32.617  1.00  0.00     0.134 A 
ATOM      7  C   UNL     1     148.605  12.379  32.817  1.00  0.00     0.093 A 
ATOM      8  C   UNL     1     148.820  11.854  34.091  1.00  0.00     0.123 A 
ATOM      9  C   UNL     1     148.904  12.711  35.188  1.00  0.00     0.094 A 
ATOM     10  C   UNL     1     148.804  14.094  35.017  1.00  0.00     0.146 A 
ATOM     11  O   UNL     1     148.901  14.875  36.086  1.00  0.00    -0.452 OA
ENDROOT
BRANCH   1  12
ATOM     12  C   UNL     1     148.937  16.956  37.302  1.00  0.00     0.029 A 
ATOM     13  C   UNL     1     148.992  18.361  37.314  1.00  0.00     0.062 A 
ATOM     14  C   UNL     1     149.058  19.061  38.527  1.00  0.00     0.162 A 
ATOM     15  C   UNL     1     148.913  16.264  38.522  1.00  0.00     0.062 A 
ATOM     16  C   UNL     1     149.056  18.356  39.743  1.00  0.00     0.200 A 
ATOM     17  C   UNL     1     148.979  16.957  39.737  1.00  0.00     0.162 A 
BRANCH  14  18
ATOM     18  O   UNL     1     149.120  20.453  38.528  1.00  0.00    -0.504 OA
ATOM     19  H   UNL     1     149.549  20.967  37.766  1.00  0.00     0.293 HD
ENDBRANCH  14  18
BRANCH  16  20
ATOM     20  O   UNL     1     149.125  19.030  40.962  1.00  0.00    -0.502 OA
ATOM     21  H   UNL     1     148.353  19.581  41.317  1.00  0.00     0.293 HD
ENDBRANCH  16  20
BRANCH  17  22
ATOM     22  O   UNL     1     148.970  16.263  40.945  1.00  0.00    -0.504 OA
ATOM     23  H   UNL     1     148.960  15.250  40.976  1.00  0.00     0.293 HD
ENDBRANCH  17  22
ENDBRANCH   1  12
BRANCH   2  24
ATOM     24  O   UNL     1     148.754  18.237  34.710  1.00  0.00    -0.502 OA
ATOM     25  H   UNL     1     149.620  18.761  34.656  1.00  0.00     0.293 HD
ENDBRANCH   2  24
BRANCH   6  26
ATOM     26  O   UNL     1     148.158  14.173  31.319  1.00  0.00    -0.507 OA
ATOM     27  H   UNL     1     147.426  14.825  31.082  1.00  0.00     0.293 HD
ENDBRANCH   6  26
BRANCH   8  28
ATOM     28  O   UNL     1     148.938  10.476  34.255  1.00  0.00    -0.508 OA
ATOM     29  H   UNL     1     148.123   9.882  34.349  1.00  0.00     0.293 HD
ENDBRANCH   8  28
TORSDOF 7
ENDMDL
