MODEL 1
REMARK VINA RESULT:     3.181      0.000      0.000
REMARK INTER + INTRA:           3.495
REMARK INTER:                   3.646
REMARK INTRA:                  -0.151
REMARK UNBOUND:                -0.151
REMARK SMILES O=C([O-])C=Cc1ccc(O)cc1
REMARK SMILES IDX 6 1 7 2 12 3 8 4 11 5 9 6 5 7 4 8 2 9 1 10 3 11 10 12
REMARK H PARENT 10 13
REMARK Flexibility Score: inf
ROOT
ATOM      1  C   UNL     1      19.284  41.956  11.476  1.00  0.00    -0.025 A 
ATOM      2  C   UNL     1      19.093  43.277  11.036  1.00  0.00     0.012 A 
ATOM      3  C   UNL     1      20.255  41.702  12.467  1.00  0.00     0.012 A 
ATOM      4  C   UNL     1      19.835  44.325  11.590  1.00  0.00     0.047 A 
ATOM      5  C   UNL     1      20.995  42.754  13.016  1.00  0.00     0.047 A 
ATOM      6  C   UNL     1      20.786  44.068  12.581  1.00  0.00     0.115 A 
ENDROOT
BRANCH   1   7
ATOM      7  C   UNL     1      18.479  40.877  10.851  1.00  0.00     0.010 C 
ATOM      8  C   UNL     1      17.321  41.087  10.210  1.00  0.00     0.025 C 
BRANCH   8   9
ATOM      9  C   UNL     1      16.563  39.985   9.596  1.00  0.00     0.064 C 
ATOM     10  O   UNL     1      17.174  39.096   8.947  1.00  0.00    -0.545 OA
ATOM     11  O   UNL     1      15.180  39.910   9.719  1.00  0.00    -0.545 OA
ENDBRANCH   8   9
ENDBRANCH   1   7
BRANCH   6  12
ATOM     12  O   UNL     1      21.518  45.122  13.123  1.00  0.00    -0.508 OA
ATOM     13  H   UNL     1      21.217  45.597  13.965  1.00  0.00     0.293 HD
ENDBRANCH   6  12
TORSDOF 3
ENDMDL
MODEL 2
REMARK VINA RESULT:     3.866      1.083      5.887
REMARK INTER + INTRA:           4.280
REMARK INTER:                   4.420
REMARK INTRA:                  -0.141
REMARK UNBOUND:                -0.151
REMARK SMILES O=C([O-])C=Cc1ccc(O)cc1
REMARK SMILES IDX 6 1 7 2 12 3 8 4 11 5 9 6 5 7 4 8 2 9 1 10 3 11 10 12
REMARK H PARENT 10 13
REMARK Flexibility Score: inf
ROOT
ATOM      1  C   UNL     1      18.869  41.684  10.845  1.00  0.00    -0.025 A 
ATOM      2  C   UNL     1      19.181  40.321  10.704  1.00  0.00     0.012 A 
ATOM      3  C   UNL     1      17.644  42.159  10.328  1.00  0.00     0.012 A 
ATOM      4  C   UNL     1      18.283  39.446  10.084  1.00  0.00     0.047 A 
ATOM      5  C   UNL     1      16.750  41.280   9.709  1.00  0.00     0.047 A 
ATOM      6  C   UNL     1      17.067  39.921   9.587  1.00  0.00     0.115 A 
ENDROOT
BRANCH   1   7
ATOM      7  C   UNL     1      19.857  42.575  11.500  1.00  0.00     0.010 C 
ATOM      8  C   UNL     1      19.949  43.891  11.262  1.00  0.00     0.025 C 
BRANCH   8   9
ATOM      9  C   UNL     1      20.939  44.737  11.945  1.00  0.00     0.064 C 
ATOM     10  O   UNL     1      20.721  45.120  13.125  1.00  0.00    -0.545 OA
ATOM     11  O   UNL     1      22.113  45.125  11.310  1.00  0.00    -0.545 OA
ENDBRANCH   8   9
ENDBRANCH   1   7
BRANCH   6  12
ATOM     12  O   UNL     1      16.182  39.038   8.973  1.00  0.00    -0.508 OA
ATOM     13  H   UNL     1      15.392  38.647   9.472  1.00  0.00     0.293 HD
ENDBRANCH   6  12
TORSDOF 3
ENDMDL
MODEL 3
REMARK VINA RESULT:     5.780      1.046      1.219
REMARK INTER + INTRA:           6.474
REMARK INTER:                   6.615
REMARK INTRA:                  -0.141
REMARK UNBOUND:                -0.151
REMARK SMILES O=C([O-])C=Cc1ccc(O)cc1
REMARK SMILES IDX 6 1 7 2 12 3 8 4 11 5 9 6 5 7 4 8 2 9 1 10 3 11 10 12
REMARK H PARENT 10 13
REMARK Flexibility Score: inf
ROOT
ATOM      1  C   UNL     1      18.813  41.417  11.047  1.00  0.00    -0.025 A 
ATOM      2  C   UNL     1      18.961  42.809  10.919  1.00  0.00     0.012 A 
ATOM      3  C   UNL     1      19.730  40.707  11.849  1.00  0.00     0.012 A 
ATOM      4  C   UNL     1      19.985  43.481  11.594  1.00  0.00     0.047 A 
ATOM      5  C   UNL     1      20.753  41.383  12.521  1.00  0.00     0.047 A 
ATOM      6  C   UNL     1      20.882  42.772  12.397  1.00  0.00     0.115 A 
ENDROOT
BRANCH   1   7
ATOM      7  C   UNL     1      17.717  40.748  10.303  1.00  0.00     0.010 C 
ATOM      8  C   UNL     1      16.416  40.970  10.535  1.00  0.00     0.025 C 
BRANCH   8   9
ATOM      9  C   UNL     1      15.362  40.290   9.764  1.00  0.00     0.064 C 
ATOM     10  O   UNL     1      15.679  39.581   8.772  1.00  0.00    -0.545 OA
ATOM     11  O   UNL     1      14.023  40.418  10.110  1.00  0.00    -0.545 OA
ENDBRANCH   8   9
ENDBRANCH   1   7
BRANCH   6  12
ATOM     12  O   UNL     1      21.897  43.454  13.064  1.00  0.00    -0.508 OA
ATOM     13  H   UNL     1      21.871  44.459  13.182  1.00  0.00     0.293 HD
ENDBRANCH   6  12
TORSDOF 3
ENDMDL
