MODEL 1
REMARK VINA RESULT:    -2.669      0.000      0.000
REMARK INTER + INTRA:          -4.144
REMARK INTER:                  -3.762
REMARK INTRA:                  -0.382
REMARK UNBOUND:                -0.382
REMARK SMILES CCCCCCCCC=O
REMARK SMILES IDX 5 1 4 2 3 3 2 4 1 5 6 6 7 7 8 8 9 9 10 10
REMARK H PARENT
REMARK Flexibility Score: inf
ROOT
ATOM      1  C   UNL     1     230.302 241.302 234.902  1.00  0.00     0.000 C 
ENDROOT
BRANCH   1   2
ATOM      2  C   UNL     1     229.032 241.914 234.294  1.00  0.00    -0.000 C 
BRANCH   2   3
ATOM      3  C   UNL     1     229.384 242.940 233.206  1.00  0.00    -0.000 C 
BRANCH   3   4
ATOM      4  C   UNL     1     228.219 243.197 232.237  1.00  0.00    -0.003 C 
ATOM      5  C   UNL     1     226.890 242.644 232.750  1.00  0.00     0.004 C 
ENDBRANCH   3   4
ENDBRANCH   2   3
ENDBRANCH   1   2
BRANCH   1   6
ATOM      6  C   UNL     1     231.559 241.553 234.048  1.00  0.00     0.000 C 
BRANCH   6   7
ATOM      7  C   UNL     1     232.211 240.288 233.452  1.00  0.00     0.008 C 
BRANCH   7   8
ATOM      8  C   UNL     1     231.411 238.993 233.663  1.00  0.00     0.072 C 
BRANCH   8   9
ATOM      9  C   UNL     1     231.976 237.832 232.897  1.00  0.00     0.224 C 
ATOM     10  O   UNL     1     232.619 238.030 231.880  1.00  0.00    -0.303 OA
ENDBRANCH   8   9
ENDBRANCH   7   8
ENDBRANCH   6   7
ENDBRANCH   1   6
TORSDOF 7
ENDMDL
MODEL 2
REMARK VINA RESULT:    -2.631     10.159     12.375
REMARK INTER + INTRA:          -4.090
REMARK INTER:                  -3.730
REMARK INTRA:                  -0.360
REMARK UNBOUND:                -0.382
REMARK SMILES CCCCCCCCC=O
REMARK SMILES IDX 5 1 4 2 3 3 2 4 1 5 6 6 7 7 8 8 9 9 10 10
REMARK H PARENT
REMARK Flexibility Score: inf
ROOT
ATOM      1  C   UNL     1     227.310 230.047 234.618  1.00  0.00     0.000 C 
ENDROOT
BRANCH   1   2
ATOM      2  C   UNL     1     226.890 231.389 234.002  1.00  0.00    -0.000 C 
BRANCH   2   3
ATOM      3  C   UNL     1     228.104 232.129 233.420  1.00  0.00    -0.000 C 
BRANCH   3   4
ATOM      4  C   UNL     1     229.438 231.474 233.813  1.00  0.00    -0.003 C 
ATOM      5  C   UNL     1     230.587 231.872 232.886  1.00  0.00     0.004 C 
ENDBRANCH   3   4
ENDBRANCH   2   3
ENDBRANCH   1   2
BRANCH   1   6
ATOM      6  C   UNL     1     226.305 228.915 234.337  1.00  0.00     0.000 C 
BRANCH   6   7
ATOM      7  C   UNL     1     225.503 229.059 233.027  1.00  0.00     0.008 C 
BRANCH   7   8
ATOM      8  C   UNL     1     225.441 227.786 232.169  1.00  0.00     0.072 C 
BRANCH   8   9
ATOM      9  C   UNL     1     225.945 226.573 232.897  1.00  0.00     0.224 C 
ATOM     10  O   UNL     1     225.756 225.462 232.431  1.00  0.00    -0.303 OA
ENDBRANCH   8   9
ENDBRANCH   7   8
ENDBRANCH   6   7
ENDBRANCH   1   6
TORSDOF 7
ENDMDL
MODEL 3
REMARK VINA RESULT:    -2.602      9.849     11.262
REMARK INTER + INTRA:          -4.049
REMARK INTER:                  -3.423
REMARK INTRA:                  -0.626
REMARK UNBOUND:                -0.382
REMARK SMILES CCCCCCCCC=O
REMARK SMILES IDX 5 1 4 2 3 3 2 4 1 5 6 6 7 7 8 8 9 9 10 10
REMARK H PARENT
REMARK Flexibility Score: inf
ROOT
ATOM      1  C   UNL     1     239.719 235.270 235.896  1.00  0.00     0.000 C 
ENDROOT
BRANCH   1   2
ATOM      2  C   UNL     1     238.492 236.076 235.446  1.00  0.00    -0.000 C 
BRANCH   2   3
ATOM      3  C   UNL     1     237.806 235.405 234.247  1.00  0.00    -0.000 C 
BRANCH   3   4
ATOM      4  C   UNL     1     238.091 236.130 232.922  1.00  0.00    -0.003 C 
ATOM      5  C   UNL     1     238.807 235.243 231.904  1.00  0.00     0.004 C 
ENDBRANCH   3   4
ENDBRANCH   2   3
ENDBRANCH   1   2
BRANCH   1   6
ATOM      6  C   UNL     1     241.030 236.074 235.814  1.00  0.00     0.000 C 
BRANCH   6   7
ATOM      7  C   UNL     1     241.502 236.415 234.385  1.00  0.00     0.008 C 
BRANCH   7   8
ATOM      8  C   UNL     1     241.324 237.888 233.985  1.00  0.00     0.072 C 
BRANCH   8   9
ATOM      9  C   UNL     1     242.623 238.549 233.620  1.00  0.00     0.224 C 
ATOM     10  O   UNL     1     242.618 239.653 233.103  1.00  0.00    -0.303 OA
ENDBRANCH   8   9
ENDBRANCH   7   8
ENDBRANCH   6   7
ENDBRANCH   1   6
TORSDOF 7
ENDMDL
MODEL 4
REMARK VINA RESULT:    -2.597      9.704     11.780
REMARK INTER + INTRA:          -4.042
REMARK INTER:                  -3.777
REMARK INTRA:                  -0.265
REMARK UNBOUND:                -0.382
REMARK SMILES CCCCCCCCC=O
REMARK SMILES IDX 5 1 4 2 3 3 2 4 1 5 6 6 7 7 8 8 9 9 10 10
REMARK H PARENT
REMARK Flexibility Score: inf
ROOT
ATOM      1  C   UNL     1     241.497 236.655 234.362  1.00  0.00     0.000 C 
ENDROOT
BRANCH   1   2
ATOM      2  C   UNL     1     240.367 236.248 233.404  1.00  0.00    -0.000 C 
BRANCH   2   3
ATOM      3  C   UNL     1     239.096 237.066 233.677  1.00  0.00    -0.000 C 
BRANCH   3   4
ATOM      4  C   UNL     1     237.892 236.576 232.856  1.00  0.00    -0.003 C 
ATOM      5  C   UNL     1     238.257 235.460 231.878  1.00  0.00     0.004 C 
ENDBRANCH   3   4
ENDBRANCH   2   3
ENDBRANCH   1   2
BRANCH   1   6
ATOM      6  C   UNL     1     241.690 238.180 234.451  1.00  0.00     0.000 C 
BRANCH   6   7
ATOM      7  C   UNL     1     242.628 238.785 233.386  1.00  0.00     0.008 C 
BRANCH   7   8
ATOM      8  C   UNL     1     242.849 240.301 233.512  1.00  0.00     0.072 C 
BRANCH   8   9
ATOM      9  C   UNL     1     242.968 240.982 232.179  1.00  0.00     0.224 C 
ATOM     10  O   UNL     1     244.001 241.558 231.881  1.00  0.00    -0.303 OA
ENDBRANCH   8   9
ENDBRANCH   7   8
ENDBRANCH   6   7
ENDBRANCH   1   6
TORSDOF 7
ENDMDL
MODEL 5
REMARK VINA RESULT:    -2.590     11.969     14.834
REMARK INTER + INTRA:          -4.032
REMARK INTER:                  -3.278
REMARK INTRA:                  -0.753
REMARK UNBOUND:                -0.382
REMARK SMILES CCCCCCCCC=O
REMARK SMILES IDX 5 1 4 2 3 3 2 4 1 5 6 6 7 7 8 8 9 9 10 10
REMARK H PARENT
REMARK Flexibility Score: inf
ROOT
ATOM      1  C   UNL     1     236.654 227.372 233.788  1.00  0.00     0.000 C 
ENDROOT
BRANCH   1   2
ATOM      2  C   UNL     1     237.876 226.551 234.224  1.00  0.00    -0.000 C 
BRANCH   2   3
ATOM      3  C   UNL     1     238.344 226.967 235.626  1.00  0.00    -0.000 C 
BRANCH   3   4
ATOM      4  C   UNL     1     239.733 227.625 235.615  1.00  0.00    -0.003 C 
ATOM      5  C   UNL     1     239.664 229.152 235.609  1.00  0.00     0.004 C 
ENDBRANCH   3   4
ENDBRANCH   2   3
ENDBRANCH   1   2
BRANCH   1   6
ATOM      6  C   UNL     1     236.067 228.228 234.925  1.00  0.00     0.000 C 
BRANCH   6   7
ATOM      7  C   UNL     1     236.039 229.747 234.656  1.00  0.00     0.008 C 
BRANCH   7   8
ATOM      8  C   UNL     1     236.803 230.190 233.398  1.00  0.00     0.072 C 
BRANCH   8   9
ATOM      9  C   UNL     1     235.892 230.702 232.318  1.00  0.00     0.224 C 
ATOM     10  O   UNL     1     235.012 229.984 231.875  1.00  0.00    -0.303 OA
ENDBRANCH   8   9
ENDBRANCH   7   8
ENDBRANCH   6   7
ENDBRANCH   1   6
TORSDOF 7
ENDMDL
MODEL 6
REMARK VINA RESULT:    -2.584     12.373     16.347
REMARK INTER + INTRA:          -4.024
REMARK INTER:                  -3.649
REMARK INTRA:                  -0.375
REMARK UNBOUND:                -0.382
REMARK SMILES CCCCCCCCC=O
REMARK SMILES IDX 5 1 4 2 3 3 2 4 1 5 6 6 7 7 8 8 9 9 10 10
REMARK H PARENT
REMARK Flexibility Score: inf
ROOT
ATOM      1  C   UNL     1     238.502 227.210 234.890  1.00  0.00     0.000 C 
ENDROOT
BRANCH   1   2
ATOM      2  C   UNL     1     239.687 226.436 234.293  1.00  0.00    -0.000 C 
BRANCH   2   3
ATOM      3  C   UNL     1     239.234 225.566 233.111  1.00  0.00    -0.000 C 
BRANCH   3   4
ATOM      4  C   UNL     1     240.377 225.259 232.131  1.00  0.00    -0.003 C 
ATOM      5  C   UNL     1     241.732 225.765 232.625  1.00  0.00     0.004 C 
ENDBRANCH   3   4
ENDBRANCH   2   3
ENDBRANCH   1   2
BRANCH   1   6
ATOM      6  C   UNL     1     237.165 226.890 234.198  1.00  0.00     0.000 C 
BRANCH   6   7
ATOM      7  C   UNL     1     236.490 228.084 233.491  1.00  0.00     0.008 C 
BRANCH   7   8
ATOM      8  C   UNL     1     237.025 229.463 233.909  1.00  0.00     0.072 C 
BRANCH   8   9
ATOM      9  C   UNL     1     236.626 230.552 232.954  1.00  0.00     0.224 C 
ATOM     10  O   UNL     1     235.750 230.347 232.131  1.00  0.00    -0.303 OA
ENDBRANCH   8   9
ENDBRANCH   7   8
ENDBRANCH   6   7
ENDBRANCH   1   6
TORSDOF 7
ENDMDL
MODEL 7
REMARK VINA RESULT:    -2.583     12.910     16.000
REMARK INTER + INTRA:          -4.022
REMARK INTER:                  -3.624
REMARK INTRA:                  -0.398
REMARK UNBOUND:                -0.382
REMARK SMILES CCCCCCCCC=O
REMARK SMILES IDX 5 1 4 2 3 3 2 4 1 5 6 6 7 7 8 8 9 9 10 10
REMARK H PARENT
REMARK Flexibility Score: inf
ROOT
ATOM      1  C   UNL     1     238.715 227.458 234.626  1.00  0.00     0.000 C 
ENDROOT
BRANCH   1   2
ATOM      2  C   UNL     1     237.758 228.645 234.443  1.00  0.00    -0.000 C 
BRANCH   2   3
ATOM      3  C   UNL     1     236.449 228.196 233.776  1.00  0.00    -0.000 C 
BRANCH   3   4
ATOM      4  C   UNL     1     235.869 229.264 232.835  1.00  0.00    -0.003 C 
ATOM      5  C   UNL     1     236.573 230.614 232.967  1.00  0.00     0.004 C 
ENDBRANCH   3   4
ENDBRANCH   2   3
ENDBRANCH   1   2
BRANCH   1   6
ATOM      6  C   UNL     1     238.179 226.152 234.012  1.00  0.00     0.000 C 
BRANCH   6   7
ATOM      7  C   UNL     1     239.250 225.089 233.691  1.00  0.00     0.008 C 
BRANCH   7   8
ATOM      8  C   UNL     1     239.825 225.167 232.269  1.00  0.00     0.072 C 
BRANCH   8   9
ATOM      9  C   UNL     1     241.279 225.545 232.252  1.00  0.00     0.224 C 
ATOM     10  O   UNL     1     241.726 226.276 233.120  1.00  0.00    -0.303 OA
ENDBRANCH   8   9
ENDBRANCH   7   8
ENDBRANCH   6   7
ENDBRANCH   1   6
TORSDOF 7
ENDMDL
MODEL 8
REMARK VINA RESULT:    -2.543      2.452      5.253
REMARK INTER + INTRA:          -3.966
REMARK INTER:                  -3.597
REMARK INTRA:                  -0.369
REMARK UNBOUND:                -0.382
REMARK SMILES CCCCCCCCC=O
REMARK SMILES IDX 5 1 4 2 3 3 2 4 1 5 6 6 7 7 8 8 9 9 10 10
REMARK H PARENT
REMARK Flexibility Score: inf
ROOT
ATOM      1  C   UNL     1     232.048 240.739 234.787  1.00  0.00     0.000 C 
ENDROOT
BRANCH   1   2
ATOM      2  C   UNL     1     232.345 239.234 234.710  1.00  0.00    -0.000 C 
BRANCH   2   3
ATOM      3  C   UNL     1     231.438 238.549 233.678  1.00  0.00    -0.000 C 
BRANCH   3   4
ATOM      4  C   UNL     1     232.232 237.758 232.626  1.00  0.00    -0.003 C 
ATOM      5  C   UNL     1     233.243 238.624 231.875  1.00  0.00     0.004 C 
ENDBRANCH   3   4
ENDBRANCH   2   3
ENDBRANCH   1   2
BRANCH   1   6
ATOM      6  C   UNL     1     231.046 241.211 233.717  1.00  0.00     0.000 C 
BRANCH   6   7
ATOM      7  C   UNL     1     229.982 242.213 234.211  1.00  0.00     0.008 C 
BRANCH   7   8
ATOM      8  C   UNL     1     229.419 243.139 233.121  1.00  0.00     0.072 C 
BRANCH   8   9
ATOM      9  C   UNL     1     227.920 243.232 233.158  1.00  0.00     0.224 C 
ATOM     10  O   UNL     1     227.256 242.681 232.297  1.00  0.00    -0.303 OA
ENDBRANCH   8   9
ENDBRANCH   7   8
ENDBRANCH   6   7
ENDBRANCH   1   6
TORSDOF 7
ENDMDL
MODEL 9
REMARK VINA RESULT:    -2.537      9.353     11.725
REMARK INTER + INTRA:          -3.957
REMARK INTER:                  -3.620
REMARK INTRA:                  -0.337
REMARK UNBOUND:                -0.382
REMARK SMILES CCCCCCCCC=O
REMARK SMILES IDX 5 1 4 2 3 3 2 4 1 5 6 6 7 7 8 8 9 9 10 10
REMARK H PARENT
REMARK Flexibility Score: inf
ROOT
ATOM      1  C   UNL     1     227.228 229.755 234.528  1.00  0.00     0.000 C 
ENDROOT
BRANCH   1   2
ATOM      2  C   UNL     1     226.058 228.773 234.366  1.00  0.00    -0.000 C 
BRANCH   2   3
ATOM      3  C   UNL     1     225.264 229.073 233.087  1.00  0.00    -0.000 C 
BRANCH   3   4
ATOM      4  C   UNL     1     225.367 227.943 232.049  1.00  0.00    -0.003 C 
ATOM      5  C   UNL     1     225.783 226.609 232.666  1.00  0.00     0.004 C 
ENDBRANCH   3   4
ENDBRANCH   2   3
ENDBRANCH   1   2
BRANCH   1   6
ATOM      6  C   UNL     1     226.823 231.219 234.275  1.00  0.00     0.000 C 
BRANCH   6   7
ATOM      7  C   UNL     1     227.922 232.105 233.653  1.00  0.00     0.008 C 
BRANCH   7   8
ATOM      8  C   UNL     1     229.349 231.551 233.794  1.00  0.00     0.072 C 
BRANCH   8   9
ATOM      9  C   UNL     1     230.389 232.487 233.247  1.00  0.00     0.224 C 
ATOM     10  O   UNL     1     230.897 232.263 232.161  1.00  0.00    -0.303 OA
ENDBRANCH   8   9
ENDBRANCH   7   8
ENDBRANCH   6   7
ENDBRANCH   1   6
TORSDOF 7
ENDMDL
