MODEL 1
REMARK VINA RESULT:    -6.952      0.000      0.000
REMARK INTER + INTRA:          -8.166
REMARK INTER:                  -8.374
REMARK INTRA:                   0.209
REMARK UNBOUND:                 0.209
REMARK SMILES O=c1c(O)c(-c2ccc(O)c(O)c2)oc2cc(O)cc(O)c12
REMARK SMILES IDX 5 1 3 2 2 3 1 4 22 5 20 6 19 7 17 8 16 9 15 10 14 11 6 12
REMARK SMILES IDX 7 13 8 14 9 15 13 16 11 17 10 18 12 20 4 22 21 24 18 26
REMARK H PARENT 10 19 12 21 4 23 21 25 18 27
REMARK Flexibility Score: inf
ROOT
ATOM      1  C   UNL     1      21.340  -4.362  -0.984  1.00  0.00     0.180 A 
ATOM      2  C   UNL     1      22.104  -5.529  -1.185  1.00  0.00     0.208 A 
ATOM      3  C   UNL     1      22.432  -5.907  -2.497  1.00  0.00     0.238 A 
ATOM      4  O   UNL     1      23.106  -6.955  -2.690  1.00  0.00    -0.285 OA
ATOM      5  C   UNL     1      22.011  -5.107  -3.578  1.00  0.00     0.111 A 
ATOM      6  C   UNL     1      22.302  -5.415  -4.929  1.00  0.00     0.134 A 
ATOM      7  C   UNL     1      21.854  -4.564  -5.950  1.00  0.00     0.093 A 
ATOM      8  C   UNL     1      21.125  -3.412  -5.647  1.00  0.00     0.123 A 
ATOM      9  C   UNL     1      20.833  -3.102  -4.315  1.00  0.00     0.094 A 
ATOM     10  C   UNL     1      21.268  -3.940  -3.284  1.00  0.00     0.146 A 
ATOM     11  O   UNL     1      20.973  -3.625  -2.028  1.00  0.00    -0.452 OA
ENDROOT
BRANCH   1  12
ATOM     12  C   UNL     1      20.939  -3.909   0.367  1.00  0.00     0.025 A 
ATOM     13  C   UNL     1      20.950  -2.547   0.717  1.00  0.00     0.016 A 
ATOM     14  C   UNL     1      20.592  -2.146   2.005  1.00  0.00     0.051 A 
ATOM     15  C   UNL     1      20.231  -3.094   2.967  1.00  0.00     0.157 A 
ATOM     16  C   UNL     1      20.597  -4.860   1.342  1.00  0.00     0.062 A 
ATOM     17  C   UNL     1      20.235  -4.459   2.637  1.00  0.00     0.158 A 
BRANCH  15  18
ATOM     18  O   UNL     1      19.875  -2.662   4.245  1.00  0.00    -0.504 OA
ATOM     19  H   UNL     1      18.910  -2.511   4.513  1.00  0.00     0.293 HD
ENDBRANCH  15  18
BRANCH  17  20
ATOM     20  O   UNL     1      19.883  -5.410   3.592  1.00  0.00    -0.504 OA
ATOM     21  H   UNL     1      20.496  -5.637   4.366  1.00  0.00     0.293 HD
ENDBRANCH  17  20
ENDBRANCH   1  12
BRANCH   2  22
ATOM     22  O   UNL     1      22.550  -6.277  -0.093  1.00  0.00    -0.502 OA
ATOM     23  H   UNL     1      22.421  -5.972   0.864  1.00  0.00     0.293 HD
ENDBRANCH   2  22
BRANCH   6  24
ATOM     24  O   UNL     1      23.031  -6.558  -5.264  1.00  0.00    -0.507 OA
ATOM     25  H   UNL     1      23.665  -6.573  -6.054  1.00  0.00     0.293 HD
ENDBRANCH   6  24
BRANCH   8  26
ATOM     26  O   UNL     1      20.693  -2.582  -6.679  1.00  0.00    -0.508 OA
ATOM     27  H   UNL     1      20.571  -2.929  -7.623  1.00  0.00     0.293 HD
ENDBRANCH   8  26
TORSDOF 6
ENDMDL
MODEL 2
REMARK VINA RESULT:    -6.650      1.720      2.137
REMARK INTER + INTRA:          -7.803
REMARK INTER:                  -8.337
REMARK INTRA:                   0.534
REMARK UNBOUND:                 0.209
REMARK SMILES O=c1c(O)c(-c2ccc(O)c(O)c2)oc2cc(O)cc(O)c12
REMARK SMILES IDX 5 1 3 2 2 3 1 4 22 5 20 6 19 7 17 8 16 9 15 10 14 11 6 12
REMARK SMILES IDX 7 13 8 14 9 15 13 16 11 17 10 18 12 20 4 22 21 24 18 26
REMARK H PARENT 10 19 12 21 4 23 21 25 18 27
REMARK Flexibility Score: inf
ROOT
ATOM      1  C   UNL     1      20.312  -3.847   0.560  1.00  0.00     0.180 A 
ATOM      2  C   UNL     1      20.177  -5.229   0.322  1.00  0.00     0.208 A 
ATOM      3  C   UNL     1      20.296  -5.705  -0.994  1.00  0.00     0.238 A 
ATOM      4  O   UNL     1      20.167  -6.938  -1.222  1.00  0.00    -0.285 OA
ATOM      5  C   UNL     1      20.566  -4.800  -2.040  1.00  0.00     0.111 A 
ATOM      6  C   UNL     1      20.704  -5.197  -3.392  1.00  0.00     0.134 A 
ATOM      7  C   UNL     1      20.981  -4.236  -4.376  1.00  0.00     0.093 A 
ATOM      8  C   UNL     1      21.123  -2.890  -4.035  1.00  0.00     0.123 A 
ATOM      9  C   UNL     1      20.988  -2.490  -2.702  1.00  0.00     0.094 A 
ATOM     10  C   UNL     1      20.710  -3.433  -1.708  1.00  0.00     0.146 A 
ATOM     11  O   UNL     1      20.581  -3.026  -0.450  1.00  0.00    -0.452 OA
ENDROOT
BRANCH   1  12
ATOM     12  C   UNL     1      20.182  -3.268   1.917  1.00  0.00     0.025 A 
ATOM     13  C   UNL     1      20.212  -1.878   2.126  1.00  0.00     0.016 A 
ATOM     14  C   UNL     1      20.113  -1.356   3.417  1.00  0.00     0.051 A 
ATOM     15  C   UNL     1      19.995  -2.210   4.519  1.00  0.00     0.157 A 
ATOM     16  C   UNL     1      20.086  -4.123   3.027  1.00  0.00     0.062 A 
ATOM     17  C   UNL     1      19.985  -3.601   4.324  1.00  0.00     0.158 A 
BRANCH  15  18
ATOM     18  O   UNL     1      19.895  -1.659   5.796  1.00  0.00    -0.504 OA
ATOM     19  H   UNL     1      19.798  -2.233   6.624  1.00  0.00     0.293 HD
ENDBRANCH  15  18
BRANCH  17  20
ATOM     20  O   UNL     1      19.875  -4.458   5.418  1.00  0.00    -0.504 OA
ATOM     21  H   UNL     1      19.130  -5.141   5.484  1.00  0.00     0.293 HD
ENDBRANCH  17  20
ENDBRANCH   1  12
BRANCH   2  22
ATOM     22  O   UNL     1      19.960  -6.111   1.383  1.00  0.00    -0.502 OA
ATOM     23  H   UNL     1      19.308  -6.884   1.321  1.00  0.00     0.293 HD
ENDBRANCH   2  22
BRANCH   6  24
ATOM     24  O   UNL     1      20.568  -6.536  -3.765  1.00  0.00    -0.507 OA
ATOM     25  H   UNL     1      20.609  -6.826  -4.735  1.00  0.00     0.293 HD
ENDBRANCH   6  24
BRANCH   8  26
ATOM     26  O   UNL     1      21.400  -1.955  -5.031  1.00  0.00    -0.508 OA
ATOM     27  H   UNL     1      22.164  -1.296  -4.941  1.00  0.00     0.293 HD
ENDBRANCH   8  26
TORSDOF 6
ENDMDL
MODEL 3
REMARK VINA RESULT:    -6.218      1.326      6.870
REMARK INTER + INTRA:          -7.282
REMARK INTER:                  -7.436
REMARK INTRA:                   0.154
REMARK UNBOUND:                 0.209
REMARK SMILES O=c1c(O)c(-c2ccc(O)c(O)c2)oc2cc(O)cc(O)c12
REMARK SMILES IDX 5 1 3 2 2 3 1 4 22 5 20 6 19 7 17 8 16 9 15 10 14 11 6 12
REMARK SMILES IDX 7 13 8 14 9 15 13 16 11 17 10 18 12 20 4 22 21 24 18 26
REMARK H PARENT 10 19 12 21 4 23 21 25 18 27
REMARK Flexibility Score: inf
ROOT
ATOM      1  C   UNL     1      20.851  -4.802  -1.011  1.00  0.00     0.180 A 
ATOM      2  C   UNL     1      20.652  -6.005  -0.304  1.00  0.00     0.208 A 
ATOM      3  C   UNL     1      20.396  -5.945   1.075  1.00  0.00     0.238 A 
ATOM      4  O   UNL     1      20.226  -7.015   1.721  1.00  0.00    -0.285 OA
ATOM      5  C   UNL     1      20.323  -4.692   1.717  1.00  0.00     0.111 A 
ATOM      6  C   UNL     1      20.066  -4.544   3.101  1.00  0.00     0.134 A 
ATOM      7  C   UNL     1      20.001  -3.262   3.665  1.00  0.00     0.093 A 
ATOM      8  C   UNL     1      20.186  -2.127   2.874  1.00  0.00     0.123 A 
ATOM      9  C   UNL     1      20.441  -2.265   1.506  1.00  0.00     0.094 A 
ATOM     10  C   UNL     1      20.512  -3.535   0.926  1.00  0.00     0.146 A 
ATOM     11  O   UNL     1      20.761  -3.639  -0.375  1.00  0.00    -0.452 OA
ENDROOT
BRANCH   1  12
ATOM     12  C   UNL     1      21.144  -4.784  -2.463  1.00  0.00     0.025 A 
ATOM     13  C   UNL     1      21.955  -5.766  -3.059  1.00  0.00     0.016 A 
ATOM     14  C   UNL     1      22.238  -5.713  -4.425  1.00  0.00     0.051 A 
ATOM     15  C   UNL     1      21.730  -4.676  -5.214  1.00  0.00     0.157 A 
ATOM     16  C   UNL     1      20.654  -3.732  -3.253  1.00  0.00     0.062 A 
ATOM     17  C   UNL     1      20.936  -3.678  -4.626  1.00  0.00     0.158 A 
BRANCH  15  18
ATOM     18  O   UNL     1      22.028  -4.652  -6.576  1.00  0.00    -0.504 OA
ATOM     19  H   UNL     1      22.465  -5.436  -7.046  1.00  0.00     0.293 HD
ENDBRANCH  15  18
BRANCH  17  20
ATOM     20  O   UNL     1      20.432  -2.637  -5.404  1.00  0.00    -0.504 OA
ATOM     21  H   UNL     1      20.411  -1.683  -5.065  1.00  0.00     0.293 HD
ENDBRANCH  17  20
ENDBRANCH   1  12
BRANCH   2  22
ATOM     22  O   UNL     1      20.680  -7.230  -0.973  1.00  0.00    -0.502 OA
ATOM     23  H   UNL     1      20.803  -8.111  -0.488  1.00  0.00     0.293 HD
ENDBRANCH   2  22
BRANCH   6  24
ATOM     24  O   UNL     1      19.875  -5.660   3.919  1.00  0.00    -0.507 OA
ATOM     25  H   UNL     1      20.510  -5.880   4.677  1.00  0.00     0.293 HD
ENDBRANCH   6  24
BRANCH   8  26
ATOM     26  O   UNL     1      20.114  -0.863   3.457  1.00  0.00    -0.508 OA
ATOM     27  H   UNL     1      19.731  -0.070   2.958  1.00  0.00     0.293 HD
ENDBRANCH   8  26
TORSDOF 6
ENDMDL
MODEL 4
REMARK VINA RESULT:    -6.208      2.445      4.232
REMARK INTER + INTRA:          -7.270
REMARK INTER:                  -7.775
REMARK INTRA:                   0.505
REMARK UNBOUND:                 0.209
REMARK SMILES O=c1c(O)c(-c2ccc(O)c(O)c2)oc2cc(O)cc(O)c12
REMARK SMILES IDX 5 1 3 2 2 3 1 4 22 5 20 6 19 7 17 8 16 9 15 10 14 11 6 12
REMARK SMILES IDX 7 13 8 14 9 15 13 16 11 17 10 18 12 20 4 22 21 24 18 26
REMARK H PARENT 10 19 12 21 4 23 21 25 18 27
REMARK Flexibility Score: inf
ROOT
ATOM      1  C   UNL     1      20.140  -3.220   2.655  1.00  0.00     0.180 A 
ATOM      2  C   UNL     1      20.012  -4.619   2.756  1.00  0.00     0.208 A 
ATOM      3  C   UNL     1      20.054  -5.390   1.582  1.00  0.00     0.238 A 
ATOM      4  O   UNL     1      19.930  -6.642   1.658  1.00  0.00    -0.285 OA
ATOM      5  C   UNL     1      20.243  -4.754   0.338  1.00  0.00     0.111 A 
ATOM      6  C   UNL     1      20.301  -5.457  -0.890  1.00  0.00     0.134 A 
ATOM      7  C   UNL     1      20.501  -4.753  -2.086  1.00  0.00     0.093 A 
ATOM      8  C   UNL     1      20.644  -3.364  -2.079  1.00  0.00     0.123 A 
ATOM      9  C   UNL     1      20.588  -2.664  -0.870  1.00  0.00     0.094 A 
ATOM     10  C   UNL     1      20.387  -3.347   0.333  1.00  0.00     0.146 A 
ATOM     11  O   UNL     1      20.332  -2.657   1.467  1.00  0.00    -0.452 OA
ENDROOT
BRANCH   1  12
ATOM     12  C   UNL     1      20.087  -2.339   3.845  1.00  0.00     0.025 A 
ATOM     13  C   UNL     1      20.006  -0.942   3.719  1.00  0.00     0.016 A 
ATOM     14  C   UNL     1      19.982  -0.130   4.854  1.00  0.00     0.051 A 
ATOM     15  C   UNL     1      20.054  -0.697   6.131  1.00  0.00     0.157 A 
ATOM     16  C   UNL     1      20.182  -2.904   5.127  1.00  0.00     0.062 A 
ATOM     17  C   UNL     1      20.157  -2.090   6.270  1.00  0.00     0.158 A 
BRANCH  15  18
ATOM     18  O   UNL     1      20.026   0.139   7.246  1.00  0.00    -0.504 OA
ATOM     19  H   UNL     1      20.553  -0.066   8.087  1.00  0.00     0.293 HD
ENDBRANCH  15  18
BRANCH  17  20
ATOM     20  O   UNL     1      20.237  -2.662   7.538  1.00  0.00    -0.504 OA
ATOM     21  H   UNL     1      20.149  -2.103   8.379  1.00  0.00     0.293 HD
ENDBRANCH  17  20
ENDBRANCH   1  12
BRANCH   2  22
ATOM     22  O   UNL     1      19.875  -5.229   4.005  1.00  0.00    -0.502 OA
ATOM     23  H   UNL     1      19.037  -5.728   4.277  1.00  0.00     0.293 HD
ENDBRANCH   2  22
BRANCH   6  24
ATOM     24  O   UNL     1      20.162  -6.846  -0.930  1.00  0.00    -0.507 OA
ATOM     25  H   UNL     1      20.910  -7.465  -0.639  1.00  0.00     0.293 HD
ENDBRANCH   6  24
BRANCH   8  26
ATOM     26  O   UNL     1      20.843  -2.688  -3.282  1.00  0.00    -0.508 OA
ATOM     27  H   UNL     1      21.295  -3.133  -4.071  1.00  0.00     0.293 HD
ENDBRANCH   8  26
TORSDOF 6
ENDMDL
MODEL 5
REMARK VINA RESULT:    -6.007      1.668      2.483
REMARK INTER + INTRA:          -7.028
REMARK INTER:                  -7.489
REMARK INTRA:                   0.461
REMARK UNBOUND:                 0.209
REMARK SMILES O=c1c(O)c(-c2ccc(O)c(O)c2)oc2cc(O)cc(O)c12
REMARK SMILES IDX 5 1 3 2 2 3 1 4 22 5 20 6 19 7 17 8 16 9 15 10 14 11 6 12
REMARK SMILES IDX 7 13 8 14 9 15 13 16 11 17 10 18 12 20 4 22 21 24 18 26
REMARK H PARENT 10 19 12 21 4 23 21 25 18 27
REMARK Flexibility Score: inf
ROOT
ATOM      1  C   UNL     1      20.908  -5.461  -1.835  1.00  0.00     0.180 A 
ATOM      2  C   UNL     1      21.026  -6.485  -2.796  1.00  0.00     0.208 A 
ATOM      3  C   UNL     1      21.230  -6.132  -4.140  1.00  0.00     0.238 A 
ATOM      4  O   UNL     1      21.327  -7.038  -5.011  1.00  0.00    -0.285 OA
ATOM      5  C   UNL     1      21.332  -4.772  -4.495  1.00  0.00     0.111 A 
ATOM      6  C   UNL     1      21.541  -4.332  -5.825  1.00  0.00     0.134 A 
ATOM      7  C   UNL     1      21.640  -2.960  -6.097  1.00  0.00     0.093 A 
ATOM      8  C   UNL     1      21.536  -2.021  -5.069  1.00  0.00     0.123 A 
ATOM      9  C   UNL     1      21.330  -2.448  -3.754  1.00  0.00     0.094 A 
ATOM     10  C   UNL     1      21.226  -3.811  -3.462  1.00  0.00     0.146 A 
ATOM     11  O   UNL     1      21.024  -4.190  -2.205  1.00  0.00    -0.452 OA
ENDROOT
BRANCH   1  12
ATOM     12  C   UNL     1      20.674  -5.753  -0.402  1.00  0.00     0.025 A 
ATOM     13  C   UNL     1      20.559  -7.073   0.068  1.00  0.00     0.016 A 
ATOM     14  C   UNL     1      20.313  -7.322   1.420  1.00  0.00     0.051 A 
ATOM     15  C   UNL     1      20.164  -6.262   2.320  1.00  0.00     0.157 A 
ATOM     16  C   UNL     1      20.501  -4.690   0.500  1.00  0.00     0.062 A 
ATOM     17  C   UNL     1      20.255  -4.938   1.858  1.00  0.00     0.158 A 
BRANCH  15  18
ATOM     18  O   UNL     1      19.921  -6.543   3.664  1.00  0.00    -0.504 OA
ATOM     19  H   UNL     1      18.991  -6.741   4.013  1.00  0.00     0.293 HD
ENDBRANCH  15  18
BRANCH  17  20
ATOM     20  O   UNL     1      20.100  -3.877   2.747  1.00  0.00    -0.504 OA
ATOM     21  H   UNL     1      19.263  -3.306   2.752  1.00  0.00     0.293 HD
ENDBRANCH  17  20
ENDBRANCH   1  12
BRANCH   2  22
ATOM     22  O   UNL     1      20.971  -7.826  -2.410  1.00  0.00    -0.502 OA
ATOM     23  H   UNL     1      21.801  -8.399  -2.317  1.00  0.00     0.293 HD
ENDBRANCH   2  22
BRANCH   6  24
ATOM     24  O   UNL     1      21.650  -5.246  -6.875  1.00  0.00    -0.507 OA
ATOM     25  H   UNL     1      22.502  -5.338  -7.415  1.00  0.00     0.293 HD
ENDBRANCH   6  24
BRANCH   8  26
ATOM     26  O   UNL     1      21.640  -0.663  -5.366  1.00  0.00    -0.508 OA
ATOM     27  H   UNL     1      22.077  -0.339  -6.219  1.00  0.00     0.293 HD
ENDBRANCH   8  26
TORSDOF 6
ENDMDL
MODEL 6
REMARK VINA RESULT:    -5.932      9.330     13.570
REMARK INTER + INTRA:          -6.937
REMARK INTER:                  -6.813
REMARK INTRA:                  -0.124
REMARK UNBOUND:                 0.209
REMARK SMILES O=c1c(O)c(-c2ccc(O)c(O)c2)oc2cc(O)cc(O)c12
REMARK SMILES IDX 5 1 3 2 2 3 1 4 22 5 20 6 19 7 17 8 16 9 15 10 14 11 6 12
REMARK SMILES IDX 7 13 8 14 9 15 13 16 11 17 10 18 12 20 4 22 21 24 18 26
REMARK H PARENT 10 19 12 21 4 23 21 25 18 27
REMARK Flexibility Score: inf
ROOT
ATOM      1  C   UNL     1      26.477  -7.258   8.364  1.00  0.00     0.180 A 
ATOM      2  C   UNL     1      27.059  -6.137   8.988  1.00  0.00     0.208 A 
ATOM      3  C   UNL     1      26.661  -5.804  10.293  1.00  0.00     0.238 A 
ATOM      4  O   UNL     1      27.167  -4.797  10.857  1.00  0.00    -0.285 OA
ATOM      5  C   UNL     1      25.709  -6.605  10.956  1.00  0.00     0.111 A 
ATOM      6  C   UNL     1      25.257  -6.341  12.271  1.00  0.00     0.134 A 
ATOM      7  C   UNL     1      24.313  -7.190  12.867  1.00  0.00     0.093 A 
ATOM      8  C   UNL     1      23.814  -8.296  12.175  1.00  0.00     0.123 A 
ATOM      9  C   UNL     1      24.255  -8.562  10.875  1.00  0.00     0.094 A 
ATOM     10  C   UNL     1      25.195  -7.725  10.264  1.00  0.00     0.146 A 
ATOM     11  O   UNL     1      25.594  -7.998   9.027  1.00  0.00    -0.452 OA
ENDROOT
BRANCH   1  12
ATOM     12  C   UNL     1      26.832  -7.661   6.984  1.00  0.00     0.025 A 
ATOM     13  C   UNL     1      28.146  -8.020   6.640  1.00  0.00     0.016 A 
ATOM     14  C   UNL     1      28.462  -8.372   5.326  1.00  0.00     0.051 A 
ATOM     15  C   UNL     1      27.476  -8.360   4.334  1.00  0.00     0.157 A 
ATOM     16  C   UNL     1      25.849  -7.628   5.981  1.00  0.00     0.062 A 
ATOM     17  C   UNL     1      26.163  -7.983   4.661  1.00  0.00     0.158 A 
BRANCH  15  18
ATOM     18  O   UNL     1      27.821  -8.719   3.032  1.00  0.00    -0.504 OA
ATOM     19  H   UNL     1      28.451  -9.487   2.834  1.00  0.00     0.293 HD
ENDBRANCH  15  18
BRANCH  17  20
ATOM     20  O   UNL     1      25.177  -7.961   3.677  1.00  0.00    -0.504 OA
ATOM     21  H   UNL     1      25.140  -8.663   2.947  1.00  0.00     0.293 HD
ENDBRANCH  17  20
ENDBRANCH   1  12
BRANCH   2  22
ATOM     22  O   UNL     1      28.037  -5.389   8.327  1.00  0.00    -0.502 OA
ATOM     23  H   UNL     1      28.906  -5.119   8.771  1.00  0.00     0.293 HD
ENDBRANCH   2  22
BRANCH   6  24
ATOM     24  O   UNL     1      25.738  -5.244  12.990  1.00  0.00    -0.507 OA
ATOM     25  H   UNL     1      26.425  -4.610  12.599  1.00  0.00     0.293 HD
ENDBRANCH   6  24
BRANCH   8  26
ATOM     26  O   UNL     1      22.877  -9.125  12.789  1.00  0.00    -0.508 OA
ATOM     27  H   UNL     1      22.994 -10.131  12.811  1.00  0.00     0.293 HD
ENDBRANCH   8  26
TORSDOF 6
ENDMDL
MODEL 7
REMARK VINA RESULT:    -5.923      1.717      2.409
REMARK INTER + INTRA:          -6.926
REMARK INTER:                  -7.138
REMARK INTRA:                   0.212
REMARK UNBOUND:                 0.209
REMARK SMILES O=c1c(O)c(-c2ccc(O)c(O)c2)oc2cc(O)cc(O)c12
REMARK SMILES IDX 5 1 3 2 2 3 1 4 22 5 20 6 19 7 17 8 16 9 15 10 14 11 6 12
REMARK SMILES IDX 7 13 8 14 9 15 13 16 11 17 10 18 12 20 4 22 21 24 18 26
REMARK H PARENT 10 19 12 21 4 23 21 25 18 27
REMARK Flexibility Score: inf
ROOT
ATOM      1  C   UNL     1      21.410  -3.878  -0.454  1.00  0.00     0.180 A 
ATOM      2  C   UNL     1      22.444  -3.227  -1.155  1.00  0.00     0.208 A 
ATOM      3  C   UNL     1      22.799  -3.698  -2.429  1.00  0.00     0.238 A 
ATOM      4  O   UNL     1      23.730  -3.130  -3.063  1.00  0.00    -0.285 OA
ATOM      5  C   UNL     1      22.106  -4.792  -2.986  1.00  0.00     0.111 A 
ATOM      6  C   UNL     1      22.400  -5.325  -4.264  1.00  0.00     0.134 A 
ATOM      7  C   UNL     1      21.659  -6.411  -4.753  1.00  0.00     0.093 A 
ATOM      8  C   UNL     1      20.632  -6.972  -3.991  1.00  0.00     0.123 A 
ATOM      9  C   UNL     1      20.337  -6.451  -2.727  1.00  0.00     0.094 A 
ATOM     10  C   UNL     1      21.066  -5.370  -2.222  1.00  0.00     0.146 A 
ATOM     11  O   UNL     1      20.769  -4.897  -1.017  1.00  0.00    -0.452 OA
ENDROOT
BRANCH   1  12
ATOM     12  C   UNL     1      20.991  -3.452   0.901  1.00  0.00     0.025 A 
ATOM     13  C   UNL     1      21.006  -2.099   1.282  1.00  0.00     0.016 A 
ATOM     14  C   UNL     1      20.630  -1.723   2.573  1.00  0.00     0.051 A 
ATOM     15  C   UNL     1      20.248  -2.690   3.508  1.00  0.00     0.157 A 
ATOM     16  C   UNL     1      20.627  -4.422   1.849  1.00  0.00     0.062 A 
ATOM     17  C   UNL     1      20.249  -4.048   3.147  1.00  0.00     0.158 A 
BRANCH  15  18
ATOM     18  O   UNL     1      19.875  -2.285   4.789  1.00  0.00    -0.504 OA
ATOM     19  H   UNL     1      19.260  -1.496   4.946  1.00  0.00     0.293 HD
ENDBRANCH  15  18
BRANCH  17  20
ATOM     20  O   UNL     1      19.875  -5.018   4.075  1.00  0.00    -0.504 OA
ATOM     21  H   UNL     1      20.371  -5.899   4.150  1.00  0.00     0.293 HD
ENDBRANCH  17  20
ENDBRANCH   1  12
BRANCH   2  22
ATOM     22  O   UNL     1      23.081  -2.114  -0.602  1.00  0.00    -0.502 OA
ATOM     23  H   UNL     1      22.758  -1.671   0.249  1.00  0.00     0.293 HD
ENDBRANCH   2  22
BRANCH   6  24
ATOM     24  O   UNL     1      23.420  -4.786  -5.051  1.00  0.00    -0.507 OA
ATOM     25  H   UNL     1      23.693  -3.813  -4.976  1.00  0.00     0.293 HD
ENDBRANCH   6  24
BRANCH   8  26
ATOM     26  O   UNL     1      19.909  -8.050  -4.499  1.00  0.00    -0.508 OA
ATOM     27  H   UNL     1      19.643  -8.832  -3.914  1.00  0.00     0.293 HD
ENDBRANCH   8  26
TORSDOF 6
ENDMDL
