MODEL 1
REMARK VINA RESULT:     6.291      0.000      0.000
REMARK INTER + INTRA:           6.364
REMARK INTER:                   6.658
REMARK INTRA:                  -0.294
REMARK UNBOUND:                -0.294
REMARK SMILES C=C(C)[C@H]1CC[C@H](C)[C@]12CC=C(C)CC2
REMARK SMILES IDX 8 1 7 2 6 3 5 4 4 5 9 6 15 7 14 8 12 9 11 10 10 11 13 12
REMARK SMILES IDX 2 13 1 14 3 15
REMARK H PARENT
REMARK Flexibility Score: inf
ROOT
ATOM      1  C   UNL     1     134.881 139.440 160.733  1.00  0.00     0.008 C 
ATOM      2  C   UNL     1     135.622 139.809 162.029  1.00  0.00    -0.007 C 
ATOM      3  C   UNL     1     134.887 140.865 162.837  1.00  0.00     0.004 C 
ATOM      4  C   UNL     1     135.587 140.827 164.178  1.00  0.00     0.009 C 
ATOM      5  C   UNL     1     135.833 139.336 164.440  1.00  0.00     0.021 C 
ATOM      6  C   UNL     1     135.949 138.641 163.024  1.00  0.00    -0.017 C 
ATOM      7  C   UNL     1     137.395 138.088 162.686  1.00  0.00     0.012 C 
ATOM      8  C   UNL     1     137.501 136.558 162.760  1.00  0.00     0.031 C 
ATOM      9  C   UNL     1     136.446 135.955 161.864  1.00  0.00    -0.077 C 
ATOM     10  C   UNL     1     135.196 136.439 161.940  1.00  0.00    -0.027 C 
ATOM     11  C   UNL     1     134.875 137.490 162.969  1.00  0.00     0.035 C 
ATOM     12  C   UNL     1     136.791 134.910 160.840  1.00  0.00     0.039 C 
ENDROOT
BRANCH   5  13
ATOM     13  C   UNL     1     136.944 139.035 165.448  1.00  0.00    -0.077 C 
ATOM     14  C   UNL     1     138.069 139.770 165.421  1.00  0.00     0.008 C 
ATOM     15  C   UNL     1     136.840 137.887 166.426  1.00  0.00     0.039 C 
ENDBRANCH   5  13
TORSDOF 1
ENDMDL
