MODEL 1
REMARK VINA RESULT:    -7.460      0.000      0.000
REMARK INTER + INTRA:          -8.320
REMARK INTER:                  -8.114
REMARK INTRA:                  -0.206
REMARK UNBOUND:                -0.206
REMARK SMILES CC(=O)[C@@H]1CC[C@H]2[C@H]3CC=C4C[C@H](O)CC[C@@]4(C)[C@H]3CC[C@]12C
REMARK SMILES IDX 4 1 5 2 6 3 7 4 22 5 21 6 20 7 19 8 8 9 9 10 10 11 11 12
REMARK SMILES IDX 17 13 16 14 15 15 13 16 12 17 18 18 23 19 2 20 1 21 3 22
REMARK SMILES IDX 14 23
REMARK H PARENT 14 24
REMARK Flexibility Score: inf
ROOT
ATOM      1  C   UNL     1     115.118 120.095 130.129  1.00  0.00     0.062 C 
ATOM      2  C   UNL     1     113.757 120.390 130.819  1.00  0.00     0.012 C 
ATOM      3  C   UNL     1     113.557 121.916 130.808  1.00  0.00     0.005 C 
ATOM      4  C   UNL     1     114.730 122.449 129.993  1.00  0.00    -0.001 C 
ATOM      5  C   UNL     1     115.877 121.454 130.195  1.00  0.00    -0.020 C 
ATOM      6  C   UNL     1     116.924 121.732 129.093  1.00  0.00     0.008 C 
ATOM      7  C   UNL     1     117.421 123.195 129.129  1.00  0.00     0.005 C 
ATOM      8  C   UNL     1     116.282 124.273 129.094  1.00  0.00     0.003 C 
ATOM      9  C   UNL     1     115.110 123.946 130.086  1.00  0.00     0.000 C 
ATOM     10  C   UNL     1     115.298 124.499 131.528  1.00  0.00     0.031 C 
ATOM     11  C   UNL     1     116.519 125.357 131.745  1.00  0.00    -0.027 C 
ATOM     12  C   UNL     1     117.200 125.963 130.753  1.00  0.00    -0.065 C 
ATOM     13  C   UNL     1     116.792 125.756 129.294  1.00  0.00    -0.008 C 
ATOM     14  C   UNL     1     117.988 126.071 128.332  1.00  0.00     0.014 C 
ATOM     15  C   UNL     1     118.745 127.356 128.687  1.00  0.00     0.033 C 
ATOM     16  C   UNL     1     119.291 127.257 130.116  1.00  0.00     0.118 C 
ATOM     17  C   UNL     1     118.154 127.084 131.131  1.00  0.00     0.063 C 
ATOM     18  C   UNL     1     115.643 126.749 128.968  1.00  0.00     0.016 C 
ATOM     19  C   UNL     1     116.570 121.529 131.588  1.00  0.00     0.012 C 
ENDROOT
BRANCH   1  20
ATOM     20  C   UNL     1     114.991 119.518 128.720  1.00  0.00     0.133 C 
ATOM     21  C   UNL     1     113.985 119.998 127.709  1.00  0.00     0.088 C 
ATOM     22  O   UNL     1     115.710 118.578 128.413  1.00  0.00    -0.300 OA
ENDBRANCH   1  20
BRANCH  16  23
ATOM     23  O   UNL     1     120.068 128.387 130.429  1.00  0.00    -0.393 OA
ATOM     24  H   UNL     1     120.996 128.078 130.599  1.00  0.00     0.210 HD
ENDBRANCH  16  23
TORSDOF 2
ENDMDL
MODEL 2
REMARK VINA RESULT:    -6.887      1.903      6.560
REMARK INTER + INTRA:          -7.697
REMARK INTER:                  -7.634
REMARK INTRA:                  -0.063
REMARK UNBOUND:                -0.206
REMARK SMILES CC(=O)[C@@H]1CC[C@H]2[C@H]3CC=C4C[C@H](O)CC[C@@]4(C)[C@H]3CC[C@]12C
REMARK SMILES IDX 4 1 5 2 6 3 7 4 22 5 21 6 20 7 19 8 8 9 9 10 10 11 11 12
REMARK SMILES IDX 17 13 16 14 15 15 13 16 12 17 18 18 23 19 2 20 1 21 3 22
REMARK SMILES IDX 14 23
REMARK H PARENT 14 24
REMARK Flexibility Score: inf
ROOT
ATOM      1  C   UNL     1     119.504 125.790 128.935  1.00  0.00     0.062 C 
ATOM      2  C   UNL     1     119.808 125.197 127.532  1.00  0.00     0.012 C 
ATOM      3  C   UNL     1     118.657 124.238 127.179  1.00  0.00     0.005 C 
ATOM      4  C   UNL     1     117.656 124.408 128.316  1.00  0.00    -0.001 C 
ATOM      5  C   UNL     1     118.475 124.796 129.551  1.00  0.00    -0.020 C 
ATOM      6  C   UNL     1     117.488 125.360 130.597  1.00  0.00     0.008 C 
ATOM      7  C   UNL     1     116.374 124.344 130.943  1.00  0.00     0.005 C 
ATOM      8  C   UNL     1     115.601 123.776 129.702  1.00  0.00     0.003 C 
ATOM      9  C   UNL     1     116.561 123.338 128.541  1.00  0.00     0.000 C 
ATOM     10  C   UNL     1     117.071 121.870 128.628  1.00  0.00     0.031 C 
ATOM     11  C   UNL     1     116.492 121.044 129.749  1.00  0.00    -0.027 C 
ATOM     12  C   UNL     1     115.348 121.346 130.395  1.00  0.00    -0.065 C 
ATOM     13  C   UNL     1     114.580 122.622 130.054  1.00  0.00    -0.008 C 
ATOM     14  C   UNL     1     113.646 123.043 131.240  1.00  0.00     0.014 C 
ATOM     15  C   UNL     1     112.861 121.878 131.853  1.00  0.00     0.033 C 
ATOM     16  C   UNL     1     113.835 120.809 132.363  1.00  0.00     0.118 C 
ATOM     17  C   UNL     1     114.691 120.252 131.219  1.00  0.00     0.063 C 
ATOM     18  C   UNL     1     113.681 122.330 128.821  1.00  0.00     0.016 C 
ATOM     19  C   UNL     1     119.285 123.629 130.191  1.00  0.00     0.012 C 
ENDROOT
BRANCH   1  20
ATOM     20  C   UNL     1     119.032 127.243 128.910  1.00  0.00     0.133 C 
ATOM     21  C   UNL     1     119.565 128.310 129.828  1.00  0.00     0.088 C 
ATOM     22  O   UNL     1     118.133 127.545 128.138  1.00  0.00    -0.300 OA
ENDBRANCH   1  20
BRANCH  16  23
ATOM     23  O   UNL     1     113.139 119.774 133.012  1.00  0.00    -0.393 OA
ATOM     24  H   UNL     1     112.758 119.180 132.314  1.00  0.00     0.210 HD
ENDBRANCH  16  23
TORSDOF 2
ENDMDL
MODEL 3
REMARK VINA RESULT:    -6.684      1.579      3.034
REMARK INTER + INTRA:          -7.475
REMARK INTER:                  -7.557
REMARK INTRA:                   0.082
REMARK UNBOUND:                -0.206
REMARK SMILES CC(=O)[C@@H]1CC[C@H]2[C@H]3CC=C4C[C@H](O)CC[C@@]4(C)[C@H]3CC[C@]12C
REMARK SMILES IDX 4 1 5 2 6 3 7 4 22 5 21 6 20 7 19 8 8 9 9 10 10 11 11 12
REMARK SMILES IDX 17 13 16 14 15 15 13 16 12 17 18 18 23 19 2 20 1 21 3 22
REMARK SMILES IDX 14 23
REMARK H PARENT 14 24
REMARK Flexibility Score: inf
ROOT
ATOM      1  C   UNL     1     114.024 121.323 130.651  1.00  0.00     0.062 C 
ATOM      2  C   UNL     1     114.175 120.454 129.371  1.00  0.00     0.012 C 
ATOM      3  C   UNL     1     115.482 120.879 128.678  1.00  0.00     0.005 C 
ATOM      4  C   UNL     1     116.120 121.873 129.642  1.00  0.00    -0.001 C 
ATOM      5  C   UNL     1     114.963 122.539 130.395  1.00  0.00    -0.020 C 
ATOM      6  C   UNL     1     115.565 123.239 131.633  1.00  0.00     0.008 C 
ATOM      7  C   UNL     1     116.659 124.260 131.242  1.00  0.00     0.005 C 
ATOM      8  C   UNL     1     117.794 123.681 130.327  1.00  0.00     0.003 C 
ATOM      9  C   UNL     1     117.234 122.822 129.140  1.00  0.00     0.000 C 
ATOM     10  C   UNL     1     116.896 123.624 127.850  1.00  0.00     0.031 C 
ATOM     11  C   UNL     1     117.250 125.089 127.881  1.00  0.00    -0.027 C 
ATOM     12  C   UNL     1     118.138 125.632 128.738  1.00  0.00    -0.065 C 
ATOM     13  C   UNL     1     118.814 124.769 129.803  1.00  0.00    -0.008 C 
ATOM     14  C   UNL     1     119.345 125.655 130.981  1.00  0.00     0.014 C 
ATOM     15  C   UNL     1     120.070 126.924 130.524  1.00  0.00     0.033 C 
ATOM     16  C   UNL     1     119.129 127.779 129.666  1.00  0.00     0.118 C 
ATOM     17  C   UNL     1     118.677 127.016 128.415  1.00  0.00     0.063 C 
ATOM     18  C   UNL     1     120.035 124.064 129.150  1.00  0.00     0.016 C 
ATOM     19  C   UNL     1     114.155 123.579 129.562  1.00  0.00     0.012 C 
ENDROOT
BRANCH   1  20
ATOM     20  C   UNL     1     114.313 120.573 131.950  1.00  0.00     0.133 C 
ATOM     21  C   UNL     1     113.323 120.447 133.077  1.00  0.00     0.088 C 
ATOM     22  O   UNL     1     115.427 120.095 132.107  1.00  0.00    -0.300 OA
ENDBRANCH   1  20
BRANCH  16  23
ATOM     23  O   UNL     1     119.745 128.993 129.313  1.00  0.00    -0.393 OA
ATOM     24  H   UNL     1     120.217 128.852 128.452  1.00  0.00     0.210 HD
ENDBRANCH  16  23
TORSDOF 2
ENDMDL
MODEL 4
REMARK VINA RESULT:    -6.682      2.104      2.747
REMARK INTER + INTRA:          -7.474
REMARK INTER:                  -7.368
REMARK INTRA:                  -0.106
REMARK UNBOUND:                -0.206
REMARK SMILES CC(=O)[C@@H]1CC[C@H]2[C@H]3CC=C4C[C@H](O)CC[C@@]4(C)[C@H]3CC[C@]12C
REMARK SMILES IDX 4 1 5 2 6 3 7 4 22 5 21 6 20 7 19 8 8 9 9 10 10 11 11 12
REMARK SMILES IDX 17 13 16 14 15 15 13 16 12 17 18 18 23 19 2 20 1 21 3 22
REMARK SMILES IDX 14 23
REMARK H PARENT 14 24
REMARK Flexibility Score: inf
ROOT
ATOM      1  C   UNL     1     114.003 121.632 129.823  1.00  0.00     0.062 C 
ATOM      2  C   UNL     1     113.225 122.757 129.085  1.00  0.00     0.012 C 
ATOM      3  C   UNL     1     114.262 123.773 128.573  1.00  0.00     0.005 C 
ATOM      4  C   UNL     1     115.610 123.142 128.902  1.00  0.00    -0.001 C 
ATOM      5  C   UNL     1     115.385 122.278 130.146  1.00  0.00    -0.020 C 
ATOM      6  C   UNL     1     116.596 121.327 130.270  1.00  0.00     0.008 C 
ATOM      7  C   UNL     1     117.931 122.104 130.345  1.00  0.00     0.005 C 
ATOM      8  C   UNL     1     118.152 123.135 129.184  1.00  0.00     0.003 C 
ATOM      9  C   UNL     1     116.885 124.019 128.911  1.00  0.00     0.000 C 
ATOM     10  C   UNL     1     116.795 125.319 129.763  1.00  0.00     0.031 C 
ATOM     11  C   UNL     1     117.981 125.602 130.649  1.00  0.00    -0.027 C 
ATOM     12  C   UNL     1     119.201 125.056 130.474  1.00  0.00    -0.065 C 
ATOM     13  C   UNL     1     119.440 124.036 129.361  1.00  0.00    -0.008 C 
ATOM     14  C   UNL     1     120.699 123.157 129.673  1.00  0.00     0.014 C 
ATOM     15  C   UNL     1     121.903 123.960 130.178  1.00  0.00     0.033 C 
ATOM     16  C   UNL     1     121.521 124.722 131.452  1.00  0.00     0.118 C 
ATOM     17  C   UNL     1     120.376 125.706 131.184  1.00  0.00     0.063 C 
ATOM     18  C   UNL     1     119.714 124.812 128.044  1.00  0.00     0.016 C 
ATOM     19  C   UNL     1     115.223 123.074 131.475  1.00  0.00     0.012 C 
ENDROOT
BRANCH   1  20
ATOM     20  C   UNL     1     114.093 120.321 129.044  1.00  0.00     0.133 C 
ATOM     21  C   UNL     1     113.836 120.210 127.565  1.00  0.00     0.088 C 
ATOM     22  O   UNL     1     114.334 119.295 129.665  1.00  0.00    -0.300 OA
ENDBRANCH   1  20
BRANCH  16  23
ATOM     23  O   UNL     1     122.638 125.391 131.984  1.00  0.00    -0.393 OA
ATOM     24  H   UNL     1     122.728 126.256 131.505  1.00  0.00     0.210 HD
ENDBRANCH  16  23
TORSDOF 2
ENDMDL
MODEL 5
REMARK VINA RESULT:    -6.590      1.575      2.183
REMARK INTER + INTRA:          -7.374
REMARK INTER:                  -7.265
REMARK INTRA:                  -0.108
REMARK UNBOUND:                -0.206
REMARK SMILES CC(=O)[C@@H]1CC[C@H]2[C@H]3CC=C4C[C@H](O)CC[C@@]4(C)[C@H]3CC[C@]12C
REMARK SMILES IDX 4 1 5 2 6 3 7 4 22 5 21 6 20 7 19 8 8 9 9 10 10 11 11 12
REMARK SMILES IDX 17 13 16 14 15 15 13 16 12 17 18 18 23 19 2 20 1 21 3 22
REMARK SMILES IDX 14 23
REMARK H PARENT 14 24
REMARK Flexibility Score: inf
ROOT
ATOM      1  C   UNL     1     116.096 119.084 129.257  1.00  0.00     0.062 C 
ATOM      2  C   UNL     1     114.680 119.136 128.621  1.00  0.00     0.012 C 
ATOM      3  C   UNL     1     114.347 120.616 128.361  1.00  0.00     0.005 C 
ATOM      4  C   UNL     1     115.626 121.364 128.720  1.00  0.00    -0.001 C 
ATOM      5  C   UNL     1     116.321 120.528 129.798  1.00  0.00    -0.020 C 
ATOM      6  C   UNL     1     117.780 121.026 129.895  1.00  0.00     0.008 C 
ATOM      7  C   UNL     1     117.851 122.538 130.207  1.00  0.00     0.005 C 
ATOM      8  C   UNL     1     117.020 123.445 129.234  1.00  0.00     0.003 C 
ATOM      9  C   UNL     1     115.576 122.889 128.975  1.00  0.00     0.000 C 
ATOM     10  C   UNL     1     114.498 123.360 129.994  1.00  0.00     0.031 C 
ATOM     11  C   UNL     1     114.963 124.363 131.019  1.00  0.00    -0.027 C 
ATOM     12  C   UNL     1     116.065 125.127 130.881  1.00  0.00    -0.065 C 
ATOM     13  C   UNL     1     116.969 124.967 129.659  1.00  0.00    -0.008 C 
ATOM     14  C   UNL     1     118.407 125.514 129.957  1.00  0.00     0.014 C 
ATOM     15  C   UNL     1     118.418 126.864 130.683  1.00  0.00     0.033 C 
ATOM     16  C   UNL     1     117.665 126.742 132.013  1.00  0.00     0.118 C 
ATOM     17  C   UNL     1     116.203 126.341 131.785  1.00  0.00     0.063 C 
ATOM     18  C   UNL     1     116.369 125.810 128.501  1.00  0.00     0.016 C 
ATOM     19  C   UNL     1     115.662 120.600 131.208  1.00  0.00     0.012 C 
ENDROOT
BRANCH   1  20
ATOM     20  C   UNL     1     117.189 118.595 128.309  1.00  0.00     0.133 C 
ATOM     21  C   UNL     1     118.429 117.874 128.765  1.00  0.00     0.088 C 
ATOM     22  O   UNL     1     117.078 118.850 127.118  1.00  0.00    -0.300 OA
ENDBRANCH   1  20
BRANCH  16  23
ATOM     23  O   UNL     1     117.742 127.945 132.738  1.00  0.00    -0.393 OA
ATOM     24  H   UNL     1     118.633 127.979 133.174  1.00  0.00     0.210 HD
ENDBRANCH  16  23
TORSDOF 2
ENDMDL
MODEL 6
REMARK VINA RESULT:    -6.541      2.154      3.234
REMARK INTER + INTRA:          -7.320
REMARK INTER:                  -7.244
REMARK INTRA:                  -0.076
REMARK UNBOUND:                -0.206
REMARK SMILES CC(=O)[C@@H]1CC[C@H]2[C@H]3CC=C4C[C@H](O)CC[C@@]4(C)[C@H]3CC[C@]12C
REMARK SMILES IDX 4 1 5 2 6 3 7 4 22 5 21 6 20 7 19 8 8 9 9 10 10 11 11 12
REMARK SMILES IDX 17 13 16 14 15 15 13 16 12 17 18 18 23 19 2 20 1 21 3 22
REMARK SMILES IDX 14 23
REMARK H PARENT 14 24
REMARK Flexibility Score: inf
ROOT
ATOM      1  C   UNL     1     117.663 118.474 128.269  1.00  0.00     0.062 C 
ATOM      2  C   UNL     1     116.373 117.662 128.575  1.00  0.00     0.012 C 
ATOM      3  C   UNL     1     115.250 118.675 128.861  1.00  0.00     0.005 C 
ATOM      4  C   UNL     1     115.880 120.035 128.577  1.00  0.00    -0.001 C 
ATOM      5  C   UNL     1     117.376 119.882 128.872  1.00  0.00    -0.020 C 
ATOM      6  C   UNL     1     118.095 121.086 128.225  1.00  0.00     0.008 C 
ATOM      7  C   UNL     1     117.543 122.433 128.746  1.00  0.00     0.005 C 
ATOM      8  C   UNL     1     115.986 122.589 128.628  1.00  0.00     0.003 C 
ATOM      9  C   UNL     1     115.212 121.318 129.125  1.00  0.00     0.000 C 
ATOM     10  C   UNL     1     114.882 121.303 130.645  1.00  0.00     0.031 C 
ATOM     11  C   UNL     1     115.254 122.550 131.407  1.00  0.00    -0.027 C 
ATOM     12  C   UNL     1     115.475 123.748 130.830  1.00  0.00    -0.065 C 
ATOM     13  C   UNL     1     115.418 123.897 129.310  1.00  0.00    -0.008 C 
ATOM     14  C   UNL     1     116.216 125.164 128.845  1.00  0.00     0.014 C 
ATOM     15  C   UNL     1     115.950 126.410 129.697  1.00  0.00     0.033 C 
ATOM     16  C   UNL     1     116.310 126.124 131.160  1.00  0.00     0.118 C 
ATOM     17  C   UNL     1     115.462 124.977 131.723  1.00  0.00     0.063 C 
ATOM     18  C   UNL     1     113.933 124.093 128.899  1.00  0.00     0.016 C 
ATOM     19  C   UNL     1     117.741 119.820 130.385  1.00  0.00     0.012 C 
ENDROOT
BRANCH   1  20
ATOM     20  C   UNL     1     118.052 118.493 126.792  1.00  0.00     0.133 C 
ATOM     21  C   UNL     1     119.454 118.741 126.302  1.00  0.00     0.088 C 
ATOM     22  O   UNL     1     117.168 118.354 125.959  1.00  0.00    -0.300 OA
ENDBRANCH   1  20
BRANCH  16  23
ATOM     23  O   UNL     1     116.161 127.282 131.943  1.00  0.00    -0.393 OA
ATOM     24  H   UNL     1     115.688 127.026 132.776  1.00  0.00     0.210 HD
ENDBRANCH  16  23
TORSDOF 2
ENDMDL
MODEL 7
REMARK VINA RESULT:    -6.503      3.617      5.814
REMARK INTER + INTRA:          -7.278
REMARK INTER:                  -7.115
REMARK INTRA:                  -0.163
REMARK UNBOUND:                -0.206
REMARK SMILES CC(=O)[C@@H]1CC[C@H]2[C@H]3CC=C4C[C@H](O)CC[C@@]4(C)[C@H]3CC[C@]12C
REMARK SMILES IDX 4 1 5 2 6 3 7 4 22 5 21 6 20 7 19 8 8 9 9 10 10 11 11 12
REMARK SMILES IDX 17 13 16 14 15 15 13 16 12 17 18 18 23 19 2 20 1 21 3 22
REMARK SMILES IDX 14 23
REMARK H PARENT 14 24
REMARK Flexibility Score: inf
ROOT
ATOM      1  C   UNL     1     113.610 121.806 129.863  1.00  0.00     0.062 C 
ATOM      2  C   UNL     1     113.023 122.914 130.781  1.00  0.00     0.012 C 
ATOM      3  C   UNL     1     114.057 123.190 131.887  1.00  0.00     0.005 C 
ATOM      4  C   UNL     1     115.264 122.342 131.502  1.00  0.00    -0.001 C 
ATOM      5  C   UNL     1     114.712 121.135 130.737  1.00  0.00    -0.020 C 
ATOM      6  C   UNL     1     115.898 120.480 129.996  1.00  0.00     0.008 C 
ATOM      7  C   UNL     1     117.029 120.074 130.969  1.00  0.00     0.005 C 
ATOM      8  C   UNL     1     117.531 121.228 131.905  1.00  0.00     0.003 C 
ATOM      9  C   UNL     1     116.352 122.032 132.557  1.00  0.00     0.000 C 
ATOM     10  C   UNL     1     115.829 121.455 133.904  1.00  0.00     0.031 C 
ATOM     11  C   UNL     1     116.591 120.272 134.447  1.00  0.00    -0.027 C 
ATOM     12  C   UNL     1     117.847 119.950 134.077  1.00  0.00    -0.065 C 
ATOM     13  C   UNL     1     118.569 120.762 133.002  1.00  0.00    -0.008 C 
ATOM     14  C   UNL     1     119.727 119.924 132.358  1.00  0.00     0.014 C 
ATOM     15  C   UNL     1     120.583 119.166 133.377  1.00  0.00     0.033 C 
ATOM     16  C   UNL     1     119.698 118.215 134.192  1.00  0.00     0.118 C 
ATOM     17  C   UNL     1     118.621 118.988 134.963  1.00  0.00     0.063 C 
ATOM     18  C   UNL     1     119.202 122.007 133.681  1.00  0.00     0.016 C 
ATOM     19  C   UNL     1     114.009 120.065 131.624  1.00  0.00     0.012 C 
ENDROOT
BRANCH   1  20
ATOM     20  C   UNL     1     114.108 122.315 128.511  1.00  0.00     0.133 C 
ATOM     21  C   UNL     1     114.998 123.517 128.349  1.00  0.00     0.088 C 
ATOM     22  O   UNL     1     113.720 121.746 127.500  1.00  0.00    -0.300 OA
ENDBRANCH   1  20
BRANCH  16  23
ATOM     23  O   UNL     1     120.479 117.442 135.071  1.00  0.00    -0.393 OA
ATOM     24  H   UNL     1     120.765 118.029 135.817  1.00  0.00     0.210 HD
ENDBRANCH  16  23
TORSDOF 2
ENDMDL
MODEL 8
REMARK VINA RESULT:    -6.455      2.714      4.282
REMARK INTER + INTRA:          -7.227
REMARK INTER:                  -7.115
REMARK INTRA:                  -0.112
REMARK UNBOUND:                -0.206
REMARK SMILES CC(=O)[C@@H]1CC[C@H]2[C@H]3CC=C4C[C@H](O)CC[C@@]4(C)[C@H]3CC[C@]12C
REMARK SMILES IDX 4 1 5 2 6 3 7 4 22 5 21 6 20 7 19 8 8 9 9 10 10 11 11 12
REMARK SMILES IDX 17 13 16 14 15 15 13 16 12 17 18 18 23 19 2 20 1 21 3 22
REMARK SMILES IDX 14 23
REMARK H PARENT 14 24
REMARK Flexibility Score: inf
ROOT
ATOM      1  C   UNL     1     114.169 122.210 132.331  1.00  0.00     0.062 C 
ATOM      2  C   UNL     1     113.090 122.265 131.214  1.00  0.00     0.012 C 
ATOM      3  C   UNL     1     113.807 122.042 129.871  1.00  0.00     0.005 C 
ATOM      4  C   UNL     1     115.248 121.726 130.255  1.00  0.00    -0.001 C 
ATOM      5  C   UNL     1     115.508 122.458 131.575  1.00  0.00    -0.020 C 
ATOM      6  C   UNL     1     116.789 121.852 132.191  1.00  0.00     0.008 C 
ATOM      7  C   UNL     1     117.995 121.958 131.229  1.00  0.00     0.005 C 
ATOM      8  C   UNL     1     117.739 121.373 129.796  1.00  0.00     0.003 C 
ATOM      9  C   UNL     1     116.366 121.834 129.191  1.00  0.00     0.000 C 
ATOM     10  C   UNL     1     116.412 123.175 128.405  1.00  0.00     0.031 C 
ATOM     11  C   UNL     1     117.779 123.790 128.241  1.00  0.00    -0.027 C 
ATOM     12  C   UNL     1     118.934 123.108 128.376  1.00  0.00    -0.065 C 
ATOM     13  C   UNL     1     118.919 121.632 128.776  1.00  0.00    -0.008 C 
ATOM     14  C   UNL     1     120.296 121.210 129.393  1.00  0.00     0.014 C 
ATOM     15  C   UNL     1     121.509 121.727 128.611  1.00  0.00     0.033 C 
ATOM     16  C   UNL     1     121.464 123.258 128.538  1.00  0.00     0.118 C 
ATOM     17  C   UNL     1     120.199 123.739 127.819  1.00  0.00     0.063 C 
ATOM     18  C   UNL     1     118.692 120.786 127.493  1.00  0.00     0.016 C 
ATOM     19  C   UNL     1     115.685 124.000 131.443  1.00  0.00     0.012 C 
ENDROOT
BRANCH   1  20
ATOM     20  C   UNL     1     114.146 120.926 133.158  1.00  0.00     0.133 C 
ATOM     21  C   UNL     1     114.576 120.853 134.598  1.00  0.00     0.088 C 
ATOM     22  O   UNL     1     113.812 119.887 132.605  1.00  0.00    -0.300 OA
ENDBRANCH   1  20
BRANCH  16  23
ATOM     23  O   UNL     1     122.616 123.758 127.905  1.00  0.00    -0.393 OA
ATOM     24  H   UNL     1     123.220 124.110 128.610  1.00  0.00     0.210 HD
ENDBRANCH  16  23
TORSDOF 2
ENDMDL
MODEL 9
REMARK VINA RESULT:    -6.361      1.435      6.568
REMARK INTER + INTRA:          -7.125
REMARK INTER:                  -7.112
REMARK INTRA:                  -0.013
REMARK UNBOUND:                -0.206
REMARK SMILES CC(=O)[C@@H]1CC[C@H]2[C@H]3CC=C4C[C@H](O)CC[C@@]4(C)[C@H]3CC[C@]12C
REMARK SMILES IDX 4 1 5 2 6 3 7 4 22 5 21 6 20 7 19 8 8 9 9 10 10 11 11 12
REMARK SMILES IDX 17 13 16 14 15 15 13 16 12 17 18 18 23 19 2 20 1 21 3 22
REMARK SMILES IDX 14 23
REMARK H PARENT 14 24
REMARK Flexibility Score: inf
ROOT
ATOM      1  C   UNL     1     116.833 126.734 129.396  1.00  0.00     0.062 C 
ATOM      2  C   UNL     1     116.175 127.075 130.761  1.00  0.00     0.012 C 
ATOM      3  C   UNL     1     116.071 125.764 131.561  1.00  0.00     0.005 C 
ATOM      4  C   UNL     1     116.794 124.733 130.701  1.00  0.00    -0.001 C 
ATOM      5  C   UNL     1     116.629 125.197 129.250  1.00  0.00    -0.020 C 
ATOM      6  C   UNL     1     117.663 124.424 128.402  1.00  0.00     0.008 C 
ATOM      7  C   UNL     1     117.490 122.894 128.539  1.00  0.00     0.005 C 
ATOM      8  C   UNL     1     117.482 122.367 130.017  1.00  0.00     0.003 C 
ATOM      9  C   UNL     1     116.566 123.225 130.959  1.00  0.00     0.000 C 
ATOM     10  C   UNL     1     115.078 122.775 131.015  1.00  0.00     0.031 C 
ATOM     11  C   UNL     1     114.745 121.521 130.246  1.00  0.00    -0.027 C 
ATOM     12  C   UNL     1     115.658 120.606 129.864  1.00  0.00    -0.065 C 
ATOM     13  C   UNL     1     117.143 120.829 130.150  1.00  0.00    -0.008 C 
ATOM     14  C   UNL     1     118.030 119.974 129.181  1.00  0.00     0.014 C 
ATOM     15  C   UNL     1     117.543 118.531 129.008  1.00  0.00     0.033 C 
ATOM     16  C   UNL     1     116.107 118.529 128.473  1.00  0.00     0.118 C 
ATOM     17  C   UNL     1     115.154 119.235 129.446  1.00  0.00     0.063 C 
ATOM     18  C   UNL     1     117.432 120.357 131.601  1.00  0.00     0.016 C 
ATOM     19  C   UNL     1     115.208 124.975 128.651  1.00  0.00     0.012 C 
ENDROOT
BRANCH   1  20
ATOM     20  C   UNL     1     118.288 127.185 129.274  1.00  0.00     0.133 C 
ATOM     21  C   UNL     1     119.102 127.698 130.432  1.00  0.00     0.088 C 
ATOM     22  O   UNL     1     118.804 127.181 128.166  1.00  0.00    -0.300 OA
ENDBRANCH   1  20
BRANCH  16  23
ATOM     23  O   UNL     1     115.674 117.215 128.220  1.00  0.00    -0.393 OA
ATOM     24  H   UNL     1     116.441 116.711 127.842  1.00  0.00     0.210 HD
ENDBRANCH  16  23
TORSDOF 2
ENDMDL
