MODEL 1
REMARK VINA RESULT:    -4.578      0.000      0.000
REMARK INTER + INTRA:          -7.711
REMARK INTER:                  -6.986
REMARK INTRA:                  -0.725
REMARK UNBOUND:                -0.725
REMARK SMILES O=C([O-])CCCCCCCCC(=O)[O-]
REMARK SMILES IDX 7 1 6 2 5 3 4 4 2 5 1 6 3 7 8 8 9 9 10 10 11 11 12 12 13 13
REMARK SMILES IDX 14 14
REMARK H PARENT
REMARK Flexibility Score: inf
ROOT
ATOM      1  C   UNL     1      11.912 -13.969  16.210  1.00  0.00     0.000 C 
ENDROOT
BRANCH   1   2
ATOM      2  C   UNL     1      12.991 -13.513  15.216  1.00  0.00     0.000 C 
BRANCH   2   3
ATOM      3  C   UNL     1      13.047 -11.983  15.129  1.00  0.00     0.006 C 
BRANCH   3   4
ATOM      4  C   UNL     1      11.642 -11.376  15.207  1.00  0.00     0.053 C 
BRANCH   4   5
ATOM      5  C   UNL     1      11.720  -9.889  15.337  1.00  0.00     0.041 C 
ATOM      6  O   UNL     1      12.803  -9.288  15.113  1.00  0.00    -0.550 OA
ATOM      7  O   UNL     1      10.582  -9.159  15.657  1.00  0.00    -0.550 OA
ENDBRANCH   4   5
ENDBRANCH   3   4
ENDBRANCH   2   3
ENDBRANCH   1   2
BRANCH   1   8
ATOM      8  C   UNL     1      11.034 -15.099  15.651  1.00  0.00     0.000 C 
BRANCH   8   9
ATOM      9  C   UNL     1      11.476 -15.550  14.247  1.00  0.00     0.000 C 
BRANCH   9  10
ATOM     10  C   UNL     1      12.134 -16.943  14.251  1.00  0.00     0.006 C 
BRANCH  10  11
ATOM     11  C   UNL     1      13.582 -16.958  13.734  1.00  0.00     0.053 C 
BRANCH  11  12
ATOM     12  C   UNL     1      14.570 -17.165  14.840  1.00  0.00     0.041 C 
ATOM     13  O   UNL     1      15.697 -17.672  14.597  1.00  0.00    -0.550 OA
ATOM     14  O   UNL     1      14.261 -16.764  16.134  1.00  0.00    -0.550 OA
ENDBRANCH  11  12
ENDBRANCH  10  11
ENDBRANCH   9  10
ENDBRANCH   8   9
ENDBRANCH   1   8
TORSDOF 9
ENDMDL
MODEL 2
REMARK VINA RESULT:    -4.481      0.914      6.167
REMARK INTER + INTRA:          -7.564
REMARK INTER:                  -6.909
REMARK INTRA:                  -0.655
REMARK UNBOUND:                -0.725
REMARK SMILES O=C([O-])CCCCCCCCC(=O)[O-]
REMARK SMILES IDX 7 1 6 2 5 3 4 4 2 5 1 6 3 7 8 8 9 9 10 10 11 11 12 12 13 13
REMARK SMILES IDX 14 14
REMARK H PARENT
REMARK Flexibility Score: inf
ROOT
ATOM      1  C   UNL     1      11.033 -15.342  14.890  1.00  0.00     0.000 C 
ENDROOT
BRANCH   1   2
ATOM      2  C   UNL     1      11.595 -16.549  14.122  1.00  0.00     0.000 C 
BRANCH   2   3
ATOM      3  C   UNL     1      12.702 -16.115  13.154  1.00  0.00     0.006 C 
BRANCH   3   4
ATOM      4  C   UNL     1      13.936 -17.013  13.291  1.00  0.00     0.053 C 
BRANCH   4   5
ATOM      5  C   UNL     1      14.555 -16.852  14.642  1.00  0.00     0.041 C 
ATOM      6  O   UNL     1      14.658 -17.840  15.415  1.00  0.00    -0.550 OA
ATOM      7  O   UNL     1      15.064 -15.619  15.031  1.00  0.00    -0.550 OA
ENDBRANCH   4   5
ENDBRANCH   3   4
ENDBRANCH   2   3
ENDBRANCH   1   2
BRANCH   1   8
ATOM      8  C   UNL     1      11.771 -15.090  16.214  1.00  0.00     0.000 C 
BRANCH   8   9
ATOM      9  C   UNL     1      11.742 -13.610  16.633  1.00  0.00     0.000 C 
BRANCH   9  10
ATOM     10  C   UNL     1      12.278 -12.671  15.536  1.00  0.00     0.006 C 
BRANCH  10  11
ATOM     11  C   UNL     1      11.269 -11.612  15.062  1.00  0.00     0.053 C 
BRANCH  11  12
ATOM     12  C   UNL     1      11.781 -10.219  15.262  1.00  0.00     0.041 C 
ATOM     13  O   UNL     1      13.006  -9.967  15.116  1.00  0.00    -0.550 OA
ATOM     14  O   UNL     1      10.900  -9.192  15.575  1.00  0.00    -0.550 OA
ENDBRANCH  11  12
ENDBRANCH  10  11
ENDBRANCH   9  10
ENDBRANCH   8   9
ENDBRANCH   1   8
TORSDOF 9
ENDMDL
MODEL 3
REMARK VINA RESULT:    -4.453      2.321      3.634
REMARK INTER + INTRA:          -7.521
REMARK INTER:                  -6.635
REMARK INTRA:                  -0.886
REMARK UNBOUND:                -0.725
REMARK SMILES O=C([O-])CCCCCCCCC(=O)[O-]
REMARK SMILES IDX 7 1 6 2 5 3 4 4 2 5 1 6 3 7 8 8 9 9 10 10 11 11 12 12 13 13
REMARK SMILES IDX 14 14
REMARK H PARENT
REMARK Flexibility Score: inf
ROOT
ATOM      1  C   UNL     1      11.429 -16.188  11.885  1.00  0.00     0.000 C 
ENDROOT
BRANCH   1   2
ATOM      2  C   UNL     1      11.281 -16.364  13.404  1.00  0.00     0.000 C 
BRANCH   2   3
ATOM      3  C   UNL     1      11.443 -15.024  14.130  1.00  0.00     0.006 C 
BRANCH   3   4
ATOM      4  C   UNL     1      11.040 -15.143  15.603  1.00  0.00     0.053 C 
BRANCH   4   5
ATOM      5  C   UNL     1      11.561 -13.981  16.386  1.00  0.00     0.041 C 
ATOM      6  O   UNL     1      12.231 -14.171  17.435  1.00  0.00    -0.550 OA
ATOM      7  O   UNL     1      11.351 -12.685  15.930  1.00  0.00    -0.550 OA
ENDBRANCH   4   5
ENDBRANCH   3   4
ENDBRANCH   2   3
ENDBRANCH   1   2
BRANCH   1   8
ATOM      8  C   UNL     1      12.898 -16.157  11.435  1.00  0.00     0.000 C 
BRANCH   8   9
ATOM      9  C   UNL     1      13.719 -17.320  12.020  1.00  0.00     0.000 C 
BRANCH   9  10
ATOM     10  C   UNL     1      15.105 -16.875  12.522  1.00  0.00     0.006 C 
BRANCH  10  11
ATOM     11  C   UNL     1      15.477 -17.415  13.912  1.00  0.00     0.053 C 
BRANCH  11  12
ATOM     12  C   UNL     1      14.648 -16.795  14.995  1.00  0.00     0.041 C 
ATOM     13  O   UNL     1      13.899 -17.512  15.710  1.00  0.00    -0.550 OA
ATOM     14  O   UNL     1      14.729 -15.430  15.239  1.00  0.00    -0.550 OA
ENDBRANCH  11  12
ENDBRANCH  10  11
ENDBRANCH   9  10
ENDBRANCH   8   9
ENDBRANCH   1   8
TORSDOF 9
ENDMDL
MODEL 4
REMARK VINA RESULT:    -4.413      1.243      6.083
REMARK INTER + INTRA:          -7.460
REMARK INTER:                  -6.966
REMARK INTRA:                  -0.494
REMARK UNBOUND:                -0.725
REMARK SMILES O=C([O-])CCCCCCCCC(=O)[O-]
REMARK SMILES IDX 7 1 6 2 5 3 4 4 2 5 1 6 3 7 8 8 9 9 10 10 11 11 12 12 13 13
REMARK SMILES IDX 14 14
REMARK H PARENT
REMARK Flexibility Score: inf
ROOT
ATOM      1  C   UNL     1      11.371 -16.285  13.481  1.00  0.00     0.000 C 
ENDROOT
BRANCH   1   2
ATOM      2  C   UNL     1      12.376 -16.403  12.324  1.00  0.00     0.000 C 
BRANCH   2   3
ATOM      3  C   UNL     1      13.669 -17.083  12.788  1.00  0.00     0.006 C 
BRANCH   3   4
ATOM      4  C   UNL     1      13.470 -17.783  14.135  1.00  0.00     0.053 C 
BRANCH   4   5
ATOM      5  C   UNL     1      14.690 -17.638  14.988  1.00  0.00     0.041 C 
ATOM      6  O   UNL     1      14.580 -17.391  16.217  1.00  0.00    -0.550 OA
ATOM      7  O   UNL     1      15.951 -17.825  14.434  1.00  0.00    -0.550 OA
ENDBRANCH   4   5
ENDBRANCH   3   4
ENDBRANCH   2   3
ENDBRANCH   1   2
BRANCH   1   8
ATOM      8  C   UNL     1      11.394 -14.898  14.142  1.00  0.00     0.000 C 
BRANCH   8   9
ATOM      9  C   UNL     1      11.264 -14.972  15.674  1.00  0.00     0.000 C 
BRANCH   9  10
ATOM     10  C   UNL     1      11.708 -13.673  16.371  1.00  0.00     0.006 C 
BRANCH  10  11
ATOM     11  C   UNL     1      11.414 -12.394  15.570  1.00  0.00     0.053 C 
BRANCH  11  12
ATOM     12  C   UNL     1      12.669 -11.672  15.185  1.00  0.00     0.041 C 
ATOM     13  O   UNL     1      12.689 -10.413  15.147  1.00  0.00    -0.550 OA
ATOM     14  O   UNL     1      13.825 -12.387  14.903  1.00  0.00    -0.550 OA
ENDBRANCH  11  12
ENDBRANCH  10  11
ENDBRANCH   9  10
ENDBRANCH   8   9
ENDBRANCH   1   8
TORSDOF 9
ENDMDL
MODEL 5
REMARK VINA RESULT:    -4.334      1.341      2.161
REMARK INTER + INTRA:          -7.340
REMARK INTER:                  -6.627
REMARK INTRA:                  -0.713
REMARK UNBOUND:                -0.725
REMARK SMILES O=C([O-])CCCCCCCCC(=O)[O-]
REMARK SMILES IDX 7 1 6 2 5 3 4 4 2 5 1 6 3 7 8 8 9 9 10 10 11 11 12 12 13 13
REMARK SMILES IDX 14 14
REMARK H PARENT
REMARK Flexibility Score: inf
ROOT
ATOM      1  C   UNL     1      11.191 -14.927  14.062  1.00  0.00     0.000 C 
ENDROOT
BRANCH   1   2
ATOM      2  C   UNL     1      11.317 -15.152  15.577  1.00  0.00     0.000 C 
BRANCH   2   3
ATOM      3  C   UNL     1      11.797 -13.879  16.283  1.00  0.00     0.006 C 
BRANCH   3   4
ATOM      4  C   UNL     1      11.372 -12.627  15.508  1.00  0.00     0.053 C 
BRANCH   4   5
ATOM      5  C   UNL     1      12.560 -11.772  15.202  1.00  0.00     0.041 C 
ATOM      6  O   UNL     1      13.659 -12.300  14.891  1.00  0.00    -0.550 OA
ATOM      7  O   UNL     1      12.439 -10.388  15.209  1.00  0.00    -0.550 OA
ENDBRANCH   4   5
ENDBRANCH   3   4
ENDBRANCH   2   3
ENDBRANCH   1   2
BRANCH   1   8
ATOM      8  C   UNL     1      11.439 -16.209  13.252  1.00  0.00     0.000 C 
BRANCH   8   9
ATOM      9  C   UNL     1      12.770 -16.172  12.481  1.00  0.00     0.000 C 
BRANCH   9  10
ATOM     10  C   UNL     1      13.635 -17.422  12.729  1.00  0.00     0.006 C 
BRANCH  10  11
ATOM     11  C   UNL     1      14.962 -17.137  13.452  1.00  0.00     0.053 C 
BRANCH  11  12
ATOM     12  C   UNL     1      14.751 -16.773  14.890  1.00  0.00     0.041 C 
ATOM     13  O   UNL     1      14.774 -15.566  15.248  1.00  0.00    -0.550 OA
ATOM     14  O   UNL     1      14.494 -17.764  15.828  1.00  0.00    -0.550 OA
ENDBRANCH  11  12
ENDBRANCH  10  11
ENDBRANCH   9  10
ENDBRANCH   8   9
ENDBRANCH   1   8
TORSDOF 9
ENDMDL
MODEL 6
REMARK VINA RESULT:    -4.329      3.018      5.725
REMARK INTER + INTRA:          -7.332
REMARK INTER:                  -6.589
REMARK INTRA:                  -0.743
REMARK UNBOUND:                -0.725
REMARK SMILES O=C([O-])CCCCCCCCC(=O)[O-]
REMARK SMILES IDX 7 1 6 2 5 3 4 4 2 5 1 6 3 7 8 8 9 9 10 10 11 11 12 12 13 13
REMARK SMILES IDX 14 14
REMARK H PARENT
REMARK Flexibility Score: inf
ROOT
ATOM      1  C   UNL     1      11.229 -16.521  11.570  1.00  0.00     0.000 C 
ENDROOT
BRANCH   1   2
ATOM      2  C   UNL     1      12.709 -16.199  11.310  1.00  0.00     0.000 C 
BRANCH   2   3
ATOM      3  C   UNL     1      13.618 -17.285  11.897  1.00  0.00     0.006 C 
BRANCH   3   4
ATOM      4  C   UNL     1      14.618 -16.688  12.892  1.00  0.00     0.053 C 
BRANCH   4   5
ATOM      5  C   UNL     1      14.690 -17.525  14.129  1.00  0.00     0.041 C 
ATOM      6  O   UNL     1      13.670 -18.132  14.546  1.00  0.00    -0.550 OA
ATOM      7  O   UNL     1      15.900 -17.675  14.796  1.00  0.00    -0.550 OA
ENDBRANCH   4   5
ENDBRANCH   3   4
ENDBRANCH   2   3
ENDBRANCH   1   2
BRANCH   1   8
ATOM      8  C   UNL     1      10.571 -15.527  12.539  1.00  0.00     0.000 C 
BRANCH   8   9
ATOM      9  C   UNL     1      11.016 -15.740  13.997  1.00  0.00     0.000 C 
BRANCH   9  10
ATOM     10  C   UNL     1      11.829 -14.554  14.549  1.00  0.00     0.006 C 
BRANCH  10  11
ATOM     11  C   UNL     1      11.465 -14.156  15.989  1.00  0.00     0.053 C 
BRANCH  11  12
ATOM     12  C   UNL     1      12.300 -14.880  17.000  1.00  0.00     0.041 C 
ATOM     13  O   UNL     1      13.223 -15.651  16.625  1.00  0.00    -0.550 OA
ATOM     14  O   UNL     1      12.083 -14.677  18.356  1.00  0.00    -0.550 OA
ENDBRANCH  11  12
ENDBRANCH  10  11
ENDBRANCH   9  10
ENDBRANCH   8   9
ENDBRANCH   1   8
TORSDOF 9
ENDMDL
MODEL 7
REMARK VINA RESULT:    -4.289      1.362      1.942
REMARK INTER + INTRA:          -7.270
REMARK INTER:                  -6.666
REMARK INTRA:                  -0.604
REMARK UNBOUND:                -0.725
REMARK SMILES O=C([O-])CCCCCCCCC(=O)[O-]
REMARK SMILES IDX 7 1 6 2 5 3 4 4 2 5 1 6 3 7 8 8 9 9 10 10 11 11 12 12 13 13
REMARK SMILES IDX 14 14
REMARK H PARENT
REMARK Flexibility Score: inf
ROOT
ATOM      1  C   UNL     1      11.866 -15.132  16.124  1.00  0.00     0.000 C 
ENDROOT
BRANCH   1   2
ATOM      2  C   UNL     1      11.710 -13.666  16.558  1.00  0.00     0.000 C 
BRANCH   2   3
ATOM      3  C   UNL     1      11.862 -12.720  15.361  1.00  0.00     0.006 C 
BRANCH   3   4
ATOM      4  C   UNL     1      13.338 -12.455  15.052  1.00  0.00     0.053 C 
BRANCH   4   5
ATOM      5  C   UNL     1      13.565 -11.001  14.785  1.00  0.00     0.041 C 
ATOM      6  O   UNL     1      12.755 -10.141  15.219  1.00  0.00    -0.550 OA
ATOM      7  O   UNL     1      14.700 -10.590  14.097  1.00  0.00    -0.550 OA
ENDBRANCH   4   5
ENDBRANCH   3   4
ENDBRANCH   2   3
ENDBRANCH   1   2
BRANCH   1   8
ATOM      8  C   UNL     1      10.978 -15.489  14.922  1.00  0.00     0.000 C 
BRANCH   8   9
ATOM      9  C   UNL     1      11.743 -16.255  13.829  1.00  0.00     0.000 C 
BRANCH   9  10
ATOM     10  C   UNL     1      13.027 -16.920  14.358  1.00  0.00     0.006 C 
BRANCH  10  11
ATOM     11  C   UNL     1      14.192 -16.931  13.355  1.00  0.00     0.053 C 
BRANCH  11  12
ATOM     12  C   UNL     1      15.515 -16.734  14.029  1.00  0.00     0.041 C 
ATOM     13  O   UNL     1      16.043 -17.677  14.677  1.00  0.00    -0.550 OA
ATOM     14  O   UNL     1      16.182 -15.522  13.913  1.00  0.00    -0.550 OA
ENDBRANCH  11  12
ENDBRANCH  10  11
ENDBRANCH   9  10
ENDBRANCH   8   9
ENDBRANCH   1   8
TORSDOF 9
ENDMDL
MODEL 8
REMARK VINA RESULT:    -4.255      1.984      2.694
REMARK INTER + INTRA:          -7.219
REMARK INTER:                  -6.770
REMARK INTRA:                  -0.449
REMARK UNBOUND:                -0.725
REMARK SMILES O=C([O-])CCCCCCCCC(=O)[O-]
REMARK SMILES IDX 7 1 6 2 5 3 4 4 2 5 1 6 3 7 8 8 9 9 10 10 11 11 12 12 13 13
REMARK SMILES IDX 14 14
REMARK H PARENT
REMARK Flexibility Score: inf
ROOT
ATOM      1  C   UNL     1      11.744 -12.426  15.141  1.00  0.00     0.000 C 
ENDROOT
BRANCH   1   2
ATOM      2  C   UNL     1      11.413 -10.957  15.449  1.00  0.00     0.000 C 
BRANCH   2   3
ATOM      3  C   UNL     1      12.595 -10.044  15.102  1.00  0.00     0.006 C 
BRANCH   3   4
ATOM      4  C   UNL     1      13.834 -10.865  14.732  1.00  0.00     0.053 C 
BRANCH   4   5
ATOM      5  C   UNL     1      14.876  -9.991  14.109  1.00  0.00     0.041 C 
ATOM      6  O   UNL     1      15.528  -9.178  14.816  1.00  0.00    -0.550 OA
ATOM      7  O   UNL     1      15.163 -10.110  12.755  1.00  0.00    -0.550 OA
ENDBRANCH   4   5
ENDBRANCH   3   4
ENDBRANCH   2   3
ENDBRANCH   1   2
BRANCH   1   8
ATOM      8  C   UNL     1      11.495 -13.351  16.342  1.00  0.00     0.000 C 
BRANCH   8   9
ATOM      9  C   UNL     1      11.134 -14.786  15.918  1.00  0.00     0.000 C 
BRANCH   9  10
ATOM     10  C   UNL     1      11.401 -15.048  14.424  1.00  0.00     0.006 C 
BRANCH  10  11
ATOM     11  C   UNL     1      11.543 -16.534  14.060  1.00  0.00     0.053 C 
BRANCH  11  12
ATOM     12  C   UNL     1      12.970 -16.990  14.107  1.00  0.00     0.041 C 
ATOM     13  O   UNL     1      13.889 -16.239  13.686  1.00  0.00    -0.550 OA
ATOM     14  O   UNL     1      13.287 -18.229  14.649  1.00  0.00    -0.550 OA
ENDBRANCH  11  12
ENDBRANCH  10  11
ENDBRANCH   9  10
ENDBRANCH   8   9
ENDBRANCH   1   8
TORSDOF 9
ENDMDL
MODEL 9
REMARK VINA RESULT:    -4.238      2.293      3.406
REMARK INTER + INTRA:          -7.193
REMARK INTER:                  -6.761
REMARK INTRA:                  -0.432
REMARK UNBOUND:                -0.725
REMARK SMILES O=C([O-])CCCCCCCCC(=O)[O-]
REMARK SMILES IDX 7 1 6 2 5 3 4 4 2 5 1 6 3 7 8 8 9 9 10 10 11 11 12 12 13 13
REMARK SMILES IDX 14 14
REMARK H PARENT
REMARK Flexibility Score: inf
ROOT
ATOM      1  C   UNL     1      12.747 -11.623  15.123  1.00  0.00     0.000 C 
ENDROOT
BRANCH   1   2
ATOM      2  C   UNL     1      12.133 -10.218  15.222  1.00  0.00     0.000 C 
BRANCH   2   3
ATOM      3  C   UNL     1      13.217  -9.138  15.130  1.00  0.00     0.006 C 
BRANCH   3   4
ATOM      4  C   UNL     1      14.596  -9.761  14.896  1.00  0.00     0.053 C 
BRANCH   4   5
ATOM      5  C   UNL     1      15.239  -9.170  13.682  1.00  0.00     0.041 C 
ATOM      6  O   UNL     1      15.216  -9.791  12.586  1.00  0.00    -0.550 OA
ATOM      7  O   UNL     1      15.821  -7.910  13.747  1.00  0.00    -0.550 OA
ENDBRANCH   4   5
ENDBRANCH   3   4
ENDBRANCH   2   3
ENDBRANCH   1   2
BRANCH   1   8
ATOM      8  C   UNL     1      11.685 -12.733  15.131  1.00  0.00     0.000 C 
BRANCH   8   9
ATOM      9  C   UNL     1      11.729 -13.584  16.413  1.00  0.00     0.000 C 
BRANCH   9  10
ATOM     10  C   UNL     1      11.424 -15.070  16.150  1.00  0.00     0.006 C 
BRANCH  10  11
ATOM     11  C   UNL     1      11.121 -15.402  14.680  1.00  0.00     0.053 C 
BRANCH  11  12
ATOM     12  C   UNL     1      12.175 -16.276  14.073  1.00  0.00     0.041 C 
ATOM     13  O   UNL     1      12.798 -17.107  14.786  1.00  0.00    -0.550 OA
ATOM     14  O   UNL     1      12.445 -16.199  12.713  1.00  0.00    -0.550 OA
ENDBRANCH  11  12
ENDBRANCH  10  11
ENDBRANCH   9  10
ENDBRANCH   8   9
ENDBRANCH   1   8
TORSDOF 9
ENDMDL
