MODEL 1
REMARK VINA RESULT:    -6.474      0.000      0.000
REMARK INTER + INTRA:         -10.522
REMARK INTER:                  -9.502
REMARK INTRA:                  -1.021
REMARK UNBOUND:                -1.021
REMARK SMILES O=c1c(O[C@@H]2O[C@H](CO)[C@@H](O)[C@H](O)[C@@H]2O)c(-c2ccc(O)c(O)c2)oc2cc(O)cc(O)c12
REMARK SMILES IDX 4 1 3 2 16 3 25 4 2 5 26 6 1 7 33 8 27 9 31 10 28 11 30 12
REMARK SMILES IDX 17 13 18 14 19 15 20 16 24 17 22 18 21 19 23 21 32 23 29 25
REMARK SMILES IDX 5 27 14 28 6 29 12 30 7 31 10 32 15 33 13 35 8 37 9 38 11 40
REMARK H PARENT 21 20 23 22 32 24 29 26 15 34 13 36 9 39 11 41
REMARK Flexibility Score: inf
ROOT
ATOM      1  O   UNL     1       4.701  32.388  70.173  1.00  0.00    -0.454 OA
ENDROOT
BRANCH   1   2
ATOM      2  C   UNL     1       4.004  33.259  69.312  1.00  0.00     0.214 A 
ATOM      3  C   UNL     1       4.589  33.593  68.075  1.00  0.00     0.180 A 
ATOM      4  O   UNL     1       3.938  34.366  67.213  1.00  0.00    -0.452 OA
ATOM      5  C   UNL     1       2.735  33.798  69.619  1.00  0.00     0.239 A 
ATOM      6  C   UNL     1       2.741  34.883  67.456  1.00  0.00     0.146 A 
ATOM      7  O   UNL     1       2.195  33.553  70.730  1.00  0.00    -0.285 OA
ATOM      8  C   UNL     1       2.082  34.624  68.681  1.00  0.00     0.111 A 
ATOM      9  C   UNL     1       2.138  35.690  66.486  1.00  0.00     0.094 A 
ATOM     10  C   UNL     1       0.806  35.198  68.908  1.00  0.00     0.134 A 
ATOM     11  C   UNL     1       0.880  36.251  66.717  1.00  0.00     0.123 A 
ATOM     12  C   UNL     1       0.219  36.005  67.922  1.00  0.00     0.093 A 
BRANCH   3  13
ATOM     13  C   UNL     1       5.911  33.068  67.674  1.00  0.00     0.025 A 
ATOM     14  C   UNL     1       7.046  33.893  67.655  1.00  0.00     0.016 A 
ATOM     15  C   UNL     1       8.287  33.377  67.274  1.00  0.00     0.051 A 
ATOM     16  C   UNL     1       8.408  32.038  66.891  1.00  0.00     0.157 A 
ATOM     17  C   UNL     1       6.029  31.729  67.266  1.00  0.00     0.062 A 
ATOM     18  C   UNL     1       7.274  31.210  66.882  1.00  0.00     0.158 A 
BRANCH  16  19
ATOM     19  O   UNL     1       9.661  31.551  66.518  1.00  0.00    -0.504 OA
ATOM     20  H   UNL     1       9.943  30.596  66.704  1.00  0.00     0.293 HD
ENDBRANCH  16  19
BRANCH  18  21
ATOM     21  O   UNL     1       7.386  29.875  66.493  1.00  0.00    -0.504 OA
ATOM     22  H   UNL     1       8.068  29.256  66.915  1.00  0.00     0.293 HD
ENDBRANCH  18  21
ENDBRANCH   3  13
BRANCH  10  23
ATOM     23  O   UNL     1       0.119  34.971  70.101  1.00  0.00    -0.507 OA
ATOM     24  H   UNL     1       0.240  34.115  70.632  1.00  0.00     0.293 HD
ENDBRANCH  10  23
BRANCH  11  25
ATOM     25  O   UNL     1       0.276  37.057  65.755  1.00  0.00    -0.508 OA
ATOM     26  H   UNL     1      -0.163  36.661  64.931  1.00  0.00     0.293 HD
ENDBRANCH  11  25
ENDBRANCH   1   2
BRANCH   1  27
ATOM     27  C   UNL     1       4.405  32.151  71.552  1.00  0.00     0.339 C 
ATOM     28  C   UNL     1       4.444  30.643  71.864  1.00  0.00     0.214 C 
ATOM     29  O   UNL     1       5.247  32.903  72.418  1.00  0.00    -0.332 OA
ATOM     30  C   UNL     1       5.878  30.107  71.819  1.00  0.00     0.180 C 
ATOM     31  C   UNL     1       6.607  32.489  72.425  1.00  0.00     0.179 C 
ATOM     32  C   UNL     1       6.793  30.975  72.703  1.00  0.00     0.177 C 
BRANCH  28  33
ATOM     33  O   UNL     1       3.646  29.932  70.951  1.00  0.00    -0.384 OA
ATOM     34  H   UNL     1       3.791  30.345  70.060  1.00  0.00     0.211 HD
ENDBRANCH  28  33
BRANCH  30  35
ATOM     35  O   UNL     1       6.343  30.075  70.494  1.00  0.00    -0.387 OA
ATOM     36  H   UNL     1       7.290  30.372  70.513  1.00  0.00     0.211 HD
ENDBRANCH  30  35
BRANCH  31  37
ATOM     37  C   UNL     1       7.386  33.009  71.199  1.00  0.00     0.191 C 
BRANCH  37  38
ATOM     38  O   UNL     1       7.084  34.357  70.955  1.00  0.00    -0.394 OA
ATOM     39  H   UNL     1       6.415  34.628  71.636  1.00  0.00     0.210 HD
ENDBRANCH  37  38
ENDBRANCH  31  37
BRANCH  32  40
ATOM     40  O   UNL     1       6.501  30.729  74.057  1.00  0.00    -0.387 OA
ATOM     41  H   UNL     1       5.830  31.406  74.336  1.00  0.00     0.211 HD
ENDBRANCH  32  40
ENDBRANCH   1  27
TORSDOF 12
ENDMDL
MODEL 2
REMARK VINA RESULT:    -6.168     16.299     19.473
REMARK INTER + INTRA:         -10.073
REMARK INTER:                  -8.744
REMARK INTRA:                  -1.329
REMARK UNBOUND:                -1.021
REMARK SMILES O=c1c(O[C@@H]2O[C@H](CO)[C@@H](O)[C@H](O)[C@@H]2O)c(-c2ccc(O)c(O)c2)oc2cc(O)cc(O)c12
REMARK SMILES IDX 4 1 3 2 16 3 25 4 2 5 26 6 1 7 33 8 27 9 31 10 28 11 30 12
REMARK SMILES IDX 17 13 18 14 19 15 20 16 24 17 22 18 21 19 23 21 32 23 29 25
REMARK SMILES IDX 5 27 14 28 6 29 12 30 7 31 10 32 15 33 13 35 8 37 9 38 11 40
REMARK H PARENT 21 20 23 22 32 24 29 26 15 34 13 36 9 39 11 41
REMARK Flexibility Score: inf
ROOT
ATOM      1  O   UNL     1      18.178  42.407  76.033  1.00  0.00    -0.454 OA
ENDROOT
BRANCH   1   2
ATOM      2  C   UNL     1      18.590  41.183  76.596  1.00  0.00     0.214 A 
ATOM      3  C   UNL     1      18.999  41.166  77.944  1.00  0.00     0.180 A 
ATOM      4  O   UNL     1      19.340  40.022  78.526  1.00  0.00    -0.452 OA
ATOM      5  C   UNL     1      18.592  39.964  75.881  1.00  0.00     0.239 A 
ATOM      6  C   UNL     1      19.344  38.855  77.896  1.00  0.00     0.146 A 
ATOM      7  O   UNL     1      18.269  39.944  74.665  1.00  0.00    -0.285 OA
ATOM      8  C   UNL     1      18.972  38.773  76.534  1.00  0.00     0.111 A 
ATOM      9  C   UNL     1      19.724  37.705  78.595  1.00  0.00     0.094 A 
ATOM     10  C   UNL     1      18.995  37.510  75.890  1.00  0.00     0.134 A 
ATOM     11  C   UNL     1      19.743  36.464  77.954  1.00  0.00     0.123 A 
ATOM     12  C   UNL     1      19.380  36.369  76.609  1.00  0.00     0.093 A 
BRANCH   3  13
ATOM     13  C   UNL     1      19.019  42.394  78.765  1.00  0.00     0.025 A 
ATOM     14  C   UNL     1      20.124  43.260  78.750  1.00  0.00     0.016 A 
ATOM     15  C   UNL     1      20.125  44.418  79.531  1.00  0.00     0.051 A 
ATOM     16  C   UNL     1      19.033  44.718  80.351  1.00  0.00     0.157 A 
ATOM     17  C   UNL     1      17.933  42.685  79.606  1.00  0.00     0.062 A 
ATOM     18  C   UNL     1      17.932  43.845  80.392  1.00  0.00     0.158 A 
BRANCH  16  19
ATOM     19  O   UNL     1      19.061  45.883  81.118  1.00  0.00    -0.504 OA
ATOM     20  H   UNL     1      18.229  46.435  81.286  1.00  0.00     0.293 HD
ENDBRANCH  16  19
BRANCH  18  21
ATOM     21  O   UNL     1      16.842  44.135  81.213  1.00  0.00    -0.504 OA
ATOM     22  H   UNL     1      15.906  44.230  80.837  1.00  0.00     0.293 HD
ENDBRANCH  18  21
ENDBRANCH   3  13
BRANCH  10  23
ATOM     23  O   UNL     1      18.636  37.382  74.548  1.00  0.00    -0.507 OA
ATOM     24  H   UNL     1      18.516  36.474  74.113  1.00  0.00     0.293 HD
ENDBRANCH  10  23
BRANCH  11  25
ATOM     25  O   UNL     1      20.122  35.315  78.646  1.00  0.00    -0.508 OA
ATOM     26  H   UNL     1      20.273  34.434  78.167  1.00  0.00     0.293 HD
ENDBRANCH  11  25
ENDBRANCH   1   2
BRANCH   1  27
ATOM     27  C   UNL     1      19.035  43.483  75.639  1.00  0.00     0.339 C 
ATOM     28  C   UNL     1      19.519  43.289  74.189  1.00  0.00     0.214 C 
ATOM     29  O   UNL     1      18.426  44.753  75.839  1.00  0.00    -0.332 OA
ATOM     30  C   UNL     1      18.375  43.499  73.193  1.00  0.00     0.180 C 
ATOM     31  C   UNL     1      17.336  45.029  74.968  1.00  0.00     0.179 C 
ATOM     32  C   UNL     1      17.679  44.845  73.467  1.00  0.00     0.177 C 
BRANCH  28  33
ATOM     33  O   UNL     1      20.060  42.002  74.021  1.00  0.00    -0.384 OA
ATOM     34  H   UNL     1      21.047  42.102  74.028  1.00  0.00     0.211 HD
ENDBRANCH  28  33
BRANCH  30  35
ATOM     35  O   UNL     1      17.461  42.436  73.270  1.00  0.00    -0.387 OA
ATOM     36  H   UNL     1      17.980  41.625  73.510  1.00  0.00     0.211 HD
ENDBRANCH  30  35
BRANCH  31  37
ATOM     37  C   UNL     1      16.037  44.324  75.413  1.00  0.00     0.191 C 
BRANCH  37  38
ATOM     38  O   UNL     1      15.162  44.164  74.327  1.00  0.00    -0.394 OA
ATOM     39  H   UNL     1      14.832  43.229  74.362  1.00  0.00     0.210 HD
ENDBRANCH  37  38
ENDBRANCH  31  37
BRANCH  32  40
ATOM     40  O   UNL     1      18.523  45.896  73.069  1.00  0.00    -0.387 OA
ATOM     41  H   UNL     1      19.256  45.492  72.534  1.00  0.00     0.211 HD
ENDBRANCH  32  40
ENDBRANCH   1  27
TORSDOF 12
ENDMDL
MODEL 3
REMARK VINA RESULT:    -5.855      1.538      4.987
REMARK INTER + INTRA:          -9.613
REMARK INTER:                  -8.811
REMARK INTRA:                  -0.803
REMARK UNBOUND:                -1.021
REMARK SMILES O=c1c(O[C@@H]2O[C@H](CO)[C@@H](O)[C@H](O)[C@@H]2O)c(-c2ccc(O)c(O)c2)oc2cc(O)cc(O)c12
REMARK SMILES IDX 4 1 3 2 16 3 25 4 2 5 26 6 1 7 33 8 27 9 31 10 28 11 30 12
REMARK SMILES IDX 17 13 18 14 19 15 20 16 24 17 22 18 21 19 23 21 32 23 29 25
REMARK SMILES IDX 5 27 14 28 6 29 12 30 7 31 10 32 15 33 13 35 8 37 9 38 11 40
REMARK H PARENT 21 20 23 22 32 24 29 26 15 34 13 36 9 39 11 41
REMARK Flexibility Score: inf
ROOT
ATOM      1  O   UNL     1       6.107  32.547  68.606  1.00  0.00    -0.454 OA
ENDROOT
BRANCH   1   2
ATOM      2  C   UNL     1       4.976  33.281  69.015  1.00  0.00     0.214 A 
ATOM      3  C   UNL     1       4.661  33.322  70.388  1.00  0.00     0.180 A 
ATOM      4  O   UNL     1       3.635  34.049  70.818  1.00  0.00    -0.452 OA
ATOM      5  C   UNL     1       4.152  33.996  68.118  1.00  0.00     0.239 A 
ATOM      6  C   UNL     1       2.845  34.744  70.012  1.00  0.00     0.146 A 
ATOM      7  O   UNL     1       4.378  33.954  66.880  1.00  0.00    -0.285 OA
ATOM      8  C   UNL     1       3.066  34.746  68.615  1.00  0.00     0.111 A 
ATOM      9  C   UNL     1       1.786  35.475  70.561  1.00  0.00     0.094 A 
ATOM     10  C   UNL     1       2.196  35.496  67.783  1.00  0.00     0.134 A 
ATOM     11  C   UNL     1       0.934  36.212  69.735  1.00  0.00     0.123 A 
ATOM     12  C   UNL     1       1.140  36.222  68.354  1.00  0.00     0.093 A 
BRANCH   3  13
ATOM     13  C   UNL     1       5.474  32.608  71.393  1.00  0.00     0.025 A 
ATOM     14  C   UNL     1       5.126  31.320  71.828  1.00  0.00     0.016 A 
ATOM     15  C   UNL     1       5.908  30.659  72.778  1.00  0.00     0.051 A 
ATOM     16  C   UNL     1       7.037  31.281  73.319  1.00  0.00     0.157 A 
ATOM     17  C   UNL     1       6.595  33.240  71.954  1.00  0.00     0.062 A 
ATOM     18  C   UNL     1       7.381  32.580  72.909  1.00  0.00     0.158 A 
BRANCH  16  19
ATOM     19  O   UNL     1       7.801  30.596  74.264  1.00  0.00    -0.504 OA
ATOM     20  H   UNL     1       7.638  29.621  74.482  1.00  0.00     0.293 HD
ENDBRANCH  16  19
BRANCH  18  21
ATOM     21  O   UNL     1       8.502  33.209  73.450  1.00  0.00    -0.504 OA
ATOM     22  H   UNL     1       8.550  33.455  74.432  1.00  0.00     0.293 HD
ENDBRANCH  18  21
ENDBRANCH   3  13
BRANCH  10  23
ATOM     23  O   UNL     1       2.376  35.528  66.400  1.00  0.00    -0.507 OA
ATOM     24  H   UNL     1       3.152  36.020  65.974  1.00  0.00     0.293 HD
ENDBRANCH  10  23
BRANCH  11  25
ATOM     25  O   UNL     1      -0.123  36.941  70.277  1.00  0.00    -0.508 OA
ATOM     26  H   UNL     1      -0.163  37.162  71.265  1.00  0.00     0.293 HD
ENDBRANCH  11  25
ENDBRANCH   1   2
BRANCH   1  27
ATOM     27  C   UNL     1       6.538  32.345  67.257  1.00  0.00     0.339 C 
ATOM     28  C   UNL     1       7.628  33.364  66.876  1.00  0.00     0.214 C 
ATOM     29  O   UNL     1       6.948  31.003  67.021  1.00  0.00    -0.332 OA
ATOM     30  C   UNL     1       8.940  33.068  67.607  1.00  0.00     0.180 C 
ATOM     31  C   UNL     1       8.152  30.630  67.680  1.00  0.00     0.179 C 
ATOM     32  C   UNL     1       9.335  31.593  67.403  1.00  0.00     0.177 C 
BRANCH  28  33
ATOM     33  O   UNL     1       7.205  34.670  67.178  1.00  0.00    -0.384 OA
ATOM     34  H   UNL     1       6.652  34.978  66.414  1.00  0.00     0.211 HD
ENDBRANCH  28  33
BRANCH  30  35
ATOM     35  O   UNL     1       8.816  33.370  68.972  1.00  0.00    -0.387 OA
ATOM     36  H   UNL     1       8.129  32.758  69.343  1.00  0.00     0.211 HD
ENDBRANCH  30  35
BRANCH  31  37
ATOM     37  C   UNL     1       7.929  30.311  69.174  1.00  0.00     0.191 C 
BRANCH  37  38
ATOM     38  O   UNL     1       6.614  29.875  69.397  1.00  0.00    -0.394 OA
ATOM     39  H   UNL     1       6.497  29.040  68.874  1.00  0.00     0.210 HD
ENDBRANCH  37  38
ENDBRANCH  31  37
BRANCH  32  40
ATOM     40  O   UNL     1       9.764  31.404  66.078  1.00  0.00    -0.387 OA
ATOM     41  H   UNL     1      10.756  31.352  66.099  1.00  0.00     0.211 HD
ENDBRANCH  32  40
ENDBRANCH   1  27
TORSDOF 12
ENDMDL
MODEL 4
REMARK VINA RESULT:    -5.444     15.720     18.931
REMARK INTER + INTRA:          -9.010
REMARK INTER:                  -8.421
REMARK INTRA:                  -0.589
REMARK UNBOUND:                -1.021
REMARK SMILES O=c1c(O[C@@H]2O[C@H](CO)[C@@H](O)[C@H](O)[C@@H]2O)c(-c2ccc(O)c(O)c2)oc2cc(O)cc(O)c12
REMARK SMILES IDX 4 1 3 2 16 3 25 4 2 5 26 6 1 7 33 8 27 9 31 10 28 11 30 12
REMARK SMILES IDX 17 13 18 14 19 15 20 16 24 17 22 18 21 19 23 21 32 23 29 25
REMARK SMILES IDX 5 27 14 28 6 29 12 30 7 31 10 32 15 33 13 35 8 37 9 38 11 40
REMARK H PARENT 21 20 23 22 32 24 29 26 15 34 13 36 9 39 11 41
REMARK Flexibility Score: inf
ROOT
ATOM      1  O   UNL     1      16.907  46.172  74.287  1.00  0.00    -0.454 OA
ENDROOT
BRANCH   1   2
ATOM      2  C   UNL     1      16.717  44.776  74.273  1.00  0.00     0.214 A 
ATOM      3  C   UNL     1      15.402  44.275  74.358  1.00  0.00     0.180 A 
ATOM      4  O   UNL     1      15.178  42.968  74.292  1.00  0.00    -0.452 OA
ATOM      5  C   UNL     1      17.778  43.851  74.158  1.00  0.00     0.239 A 
ATOM      6  C   UNL     1      16.144  42.067  74.171  1.00  0.00     0.146 A 
ATOM      7  O   UNL     1      18.969  44.258  74.117  1.00  0.00    -0.285 OA
ATOM      8  C   UNL     1      17.498  42.470  74.103  1.00  0.00     0.111 A 
ATOM      9  C   UNL     1      15.807  40.711  74.115  1.00  0.00     0.094 A 
ATOM     10  C   UNL     1      18.504  41.479  73.980  1.00  0.00     0.134 A 
ATOM     11  C   UNL     1      16.804  39.740  73.993  1.00  0.00     0.123 A 
ATOM     12  C   UNL     1      18.145  40.124  73.926  1.00  0.00     0.093 A 
BRANCH   3  13
ATOM     13  C   UNL     1      14.235  45.174  74.474  1.00  0.00     0.025 A 
ATOM     14  C   UNL     1      14.182  46.390  73.776  1.00  0.00     0.016 A 
ATOM     15  C   UNL     1      13.069  47.226  73.898  1.00  0.00     0.051 A 
ATOM     16  C   UNL     1      12.004  46.868  74.730  1.00  0.00     0.157 A 
ATOM     17  C   UNL     1      13.176  44.826  75.327  1.00  0.00     0.062 A 
ATOM     18  C   UNL     1      12.058  45.664  75.452  1.00  0.00     0.158 A 
BRANCH  16  19
ATOM     19  O   UNL     1      10.905  47.722  74.829  1.00  0.00    -0.504 OA
ATOM     20  H   UNL     1      10.992  48.724  74.720  1.00  0.00     0.293 HD
ENDBRANCH  16  19
BRANCH  18  21
ATOM     21  O   UNL     1      11.003  45.305  76.290  1.00  0.00    -0.504 OA
ATOM     22  H   UNL     1      11.138  45.170  77.285  1.00  0.00     0.293 HD
ENDBRANCH  18  21
ENDBRANCH   3  13
BRANCH  10  23
ATOM     23  O   UNL     1      19.853  41.830  73.909  1.00  0.00    -0.507 OA
ATOM     24  H   UNL     1      20.355  41.844  73.029  1.00  0.00     0.293 HD
ENDBRANCH  10  23
BRANCH  11  25
ATOM     25  O   UNL     1      16.474  38.387  73.938  1.00  0.00    -0.508 OA
ATOM     26  H   UNL     1      16.862  37.776  73.230  1.00  0.00     0.293 HD
ENDBRANCH  11  25
ENDBRANCH   1   2
BRANCH   1  27
ATOM     27  C   UNL     1      16.869  47.016  75.441  1.00  0.00     0.339 C 
ATOM     28  C   UNL     1      18.268  47.131  76.076  1.00  0.00     0.214 C 
ATOM     29  O   UNL     1      16.301  48.289  75.156  1.00  0.00    -0.332 OA
ATOM     30  C   UNL     1      19.209  47.954  75.192  1.00  0.00     0.180 C 
ATOM     31  C   UNL     1      17.099  49.118  74.320  1.00  0.00     0.179 C 
ATOM     32  C   UNL     1      18.551  49.298  74.831  1.00  0.00     0.177 C 
BRANCH  28  33
ATOM     33  O   UNL     1      18.817  45.854  76.288  1.00  0.00    -0.384 OA
ATOM     34  H   UNL     1      19.482  45.945  77.018  1.00  0.00     0.211 HD
ENDBRANCH  28  33
BRANCH  30  35
ATOM     35  O   UNL     1      19.545  47.232  74.035  1.00  0.00    -0.387 OA
ATOM     36  H   UNL     1      20.335  47.680  73.634  1.00  0.00     0.211 HD
ENDBRANCH  30  35
BRANCH  31  37
ATOM     37  C   UNL     1      16.994  48.725  72.831  1.00  0.00     0.191 C 
BRANCH  37  38
ATOM     38  O   UNL     1      18.179  49.043  72.150  1.00  0.00    -0.394 OA
ATOM     39  H   UNL     1      17.912  49.397  71.262  1.00  0.00     0.210 HD
ENDBRANCH  37  38
ENDBRANCH  31  37
BRANCH  32  40
ATOM     40  O   UNL     1      18.526  50.125  75.968  1.00  0.00    -0.387 OA
ATOM     41  H   UNL     1      17.780  50.769  75.842  1.00  0.00     0.211 HD
ENDBRANCH  32  40
ENDBRANCH   1  27
TORSDOF 12
ENDMDL
MODEL 5
REMARK VINA RESULT:    -5.312     15.597     18.849
REMARK INTER + INTRA:          -8.817
REMARK INTER:                  -8.947
REMARK INTRA:                   0.130
REMARK UNBOUND:                -1.021
REMARK SMILES O=c1c(O[C@@H]2O[C@H](CO)[C@@H](O)[C@H](O)[C@@H]2O)c(-c2ccc(O)c(O)c2)oc2cc(O)cc(O)c12
REMARK SMILES IDX 4 1 3 2 16 3 25 4 2 5 26 6 1 7 33 8 27 9 31 10 28 11 30 12
REMARK SMILES IDX 17 13 18 14 19 15 20 16 24 17 22 18 21 19 23 21 32 23 29 25
REMARK SMILES IDX 5 27 14 28 6 29 12 30 7 31 10 32 15 33 13 35 8 37 9 38 11 40
REMARK H PARENT 21 20 23 22 32 24 29 26 15 34 13 36 9 39 11 41
REMARK Flexibility Score: inf
ROOT
ATOM      1  O   UNL     1      16.969  46.078  74.362  1.00  0.00    -0.454 OA
ENDROOT
BRANCH   1   2
ATOM      2  C   UNL     1      16.723  44.691  74.327  1.00  0.00     0.214 A 
ATOM      3  C   UNL     1      15.387  44.244  74.347  1.00  0.00     0.180 A 
ATOM      4  O   UNL     1      15.113  42.947  74.259  1.00  0.00    -0.452 OA
ATOM      5  C   UNL     1      17.750  43.724  74.252  1.00  0.00     0.239 A 
ATOM      6  C   UNL     1      16.046  42.009  74.174  1.00  0.00     0.146 A 
ATOM      7  O   UNL     1      18.957  44.082  74.270  1.00  0.00    -0.285 OA
ATOM      8  C   UNL     1      17.417  42.357  74.171  1.00  0.00     0.111 A 
ATOM      9  C   UNL     1      15.658  40.668  74.090  1.00  0.00     0.094 A 
ATOM     10  C   UNL     1      18.387  41.326  74.086  1.00  0.00     0.134 A 
ATOM     11  C   UNL     1      16.619  39.658  74.005  1.00  0.00     0.123 A 
ATOM     12  C   UNL     1      17.976  39.987  74.003  1.00  0.00     0.093 A 
BRANCH   3  13
ATOM     13  C   UNL     1      14.253  45.188  74.418  1.00  0.00     0.025 A 
ATOM     14  C   UNL     1      14.272  46.402  73.714  1.00  0.00     0.016 A 
ATOM     15  C   UNL     1      13.190  47.282  73.792  1.00  0.00     0.051 A 
ATOM     16  C   UNL     1      12.084  46.971  74.588  1.00  0.00     0.157 A 
ATOM     17  C   UNL     1      13.151  44.888  75.235  1.00  0.00     0.062 A 
ATOM     18  C   UNL     1      12.064  45.771  75.317  1.00  0.00     0.158 A 
BRANCH  16  19
ATOM     19  O   UNL     1      11.017  47.868  74.644  1.00  0.00    -0.504 OA
ATOM     20  H   UNL     1      10.585  48.135  75.520  1.00  0.00     0.293 HD
ENDBRANCH  16  19
BRANCH  18  21
ATOM     21  O   UNL     1      10.967  45.458  76.119  1.00  0.00    -0.504 OA
ATOM     22  H   UNL     1      10.021  45.488  75.758  1.00  0.00     0.293 HD
ENDBRANCH  18  21
ENDBRANCH   3  13
BRANCH  10  23
ATOM     23  O   UNL     1      19.751  41.622  74.080  1.00  0.00    -0.507 OA
ATOM     24  H   UNL     1      20.203  42.067  74.871  1.00  0.00     0.293 HD
ENDBRANCH  10  23
BRANCH  11  25
ATOM     25  O   UNL     1      16.237  38.320  73.923  1.00  0.00    -0.508 OA
ATOM     26  H   UNL     1      16.074  37.764  74.753  1.00  0.00     0.293 HD
ENDBRANCH  11  25
ENDBRANCH   1   2
BRANCH   1  27
ATOM     27  C   UNL     1      18.249  46.704  74.483  1.00  0.00     0.339 C 
ATOM     28  C   UNL     1      18.708  47.267  73.125  1.00  0.00     0.214 C 
ATOM     29  O   UNL     1      18.270  47.688  75.510  1.00  0.00    -0.332 OA
ATOM     30  C   UNL     1      17.870  48.484  72.720  1.00  0.00     0.180 C 
ATOM     31  C   UNL     1      17.498  48.850  75.230  1.00  0.00     0.179 C 
ATOM     32  C   UNL     1      17.841  49.509  73.869  1.00  0.00     0.177 C 
BRANCH  28  33
ATOM     33  O   UNL     1      18.617  46.280  72.128  1.00  0.00    -0.384 OA
ATOM     34  H   UNL     1      19.441  45.731  72.192  1.00  0.00     0.211 HD
ENDBRANCH  28  33
BRANCH  30  35
ATOM     35  O   UNL     1      16.570  48.084  72.371  1.00  0.00    -0.387 OA
ATOM     36  H   UNL     1      16.107  48.886  72.013  1.00  0.00     0.211 HD
ENDBRANCH  30  35
BRANCH  31  37
ATOM     37  C   UNL     1      15.990  48.623  75.463  1.00  0.00     0.191 C 
BRANCH  37  38
ATOM     38  O   UNL     1      15.544  49.353  76.575  1.00  0.00    -0.394 OA
ATOM     39  H   UNL     1      14.894  48.776  77.054  1.00  0.00     0.210 HD
ENDBRANCH  37  38
ENDBRANCH  31  37
BRANCH  32  40
ATOM     40  O   UNL     1      19.101  50.125  73.975  1.00  0.00    -0.387 OA
ATOM     41  H   UNL     1      19.778  49.445  73.721  1.00  0.00     0.211 HD
ENDBRANCH  32  40
ENDBRANCH   1  27
TORSDOF 12
ENDMDL
MODEL 6
REMARK VINA RESULT:    -4.895      2.220      6.520
REMARK INTER + INTRA:          -8.205
REMARK INTER:                  -7.238
REMARK INTRA:                  -0.967
REMARK UNBOUND:                -1.021
REMARK SMILES O=c1c(O[C@@H]2O[C@H](CO)[C@@H](O)[C@H](O)[C@@H]2O)c(-c2ccc(O)c(O)c2)oc2cc(O)cc(O)c12
REMARK SMILES IDX 4 1 3 2 16 3 25 4 2 5 26 6 1 7 33 8 27 9 31 10 28 11 30 12
REMARK SMILES IDX 17 13 18 14 19 15 20 16 24 17 22 18 21 19 23 21 32 23 29 25
REMARK SMILES IDX 5 27 14 28 6 29 12 30 7 31 10 32 15 33 13 35 8 37 9 38 11 40
REMARK H PARENT 21 20 23 22 32 24 29 26 15 34 13 36 9 39 11 41
REMARK Flexibility Score: inf
ROOT
ATOM      1  O   UNL     1       3.545  32.696  70.300  1.00  0.00    -0.454 OA
ENDROOT
BRANCH   1   2
ATOM      2  C   UNL     1       4.700  32.199  70.936  1.00  0.00     0.214 A 
ATOM      3  C   UNL     1       5.957  32.480  70.363  1.00  0.00     0.180 A 
ATOM      4  O   UNL     1       7.071  32.076  70.962  1.00  0.00    -0.452 OA
ATOM      5  C   UNL     1       4.663  31.449  72.132  1.00  0.00     0.239 A 
ATOM      6  C   UNL     1       7.082  31.382  72.092  1.00  0.00     0.146 A 
ATOM      7  O   UNL     1       3.559  31.146  72.655  1.00  0.00    -0.285 OA
ATOM      8  C   UNL     1       5.870  31.030  72.731  1.00  0.00     0.111 A 
ATOM      9  C   UNL     1       8.308  30.998  72.643  1.00  0.00     0.094 A 
ATOM     10  C   UNL     1       5.919  30.281  73.933  1.00  0.00     0.134 A 
ATOM     11  C   UNL     1       8.349  30.261  73.830  1.00  0.00     0.123 A 
ATOM     12  C   UNL     1       7.160  29.906  74.470  1.00  0.00     0.093 A 
BRANCH   3  13
ATOM     13  C   UNL     1       6.084  33.262  69.116  1.00  0.00     0.025 A 
ATOM     14  C   UNL     1       6.870  34.424  69.064  1.00  0.00     0.016 A 
ATOM     15  C   UNL     1       6.980  35.150  67.876  1.00  0.00     0.051 A 
ATOM     16  C   UNL     1       6.293  34.738  66.731  1.00  0.00     0.157 A 
ATOM     17  C   UNL     1       5.376  32.863  67.972  1.00  0.00     0.062 A 
ATOM     18  C   UNL     1       5.483  33.591  66.778  1.00  0.00     0.158 A 
BRANCH  16  19
ATOM     19  O   UNL     1       6.424  35.482  65.558  1.00  0.00    -0.504 OA
ATOM     20  H   UNL     1       5.866  36.307  65.380  1.00  0.00     0.293 HD
ENDBRANCH  16  19
BRANCH  18  21
ATOM     21  O   UNL     1       4.789  33.178  65.641  1.00  0.00    -0.504 OA
ATOM     22  H   UNL     1       5.012  33.543  64.722  1.00  0.00     0.293 HD
ENDBRANCH  18  21
ENDBRANCH   3  13
BRANCH  10  23
ATOM     23  O   UNL     1       4.749  29.912  74.598  1.00  0.00    -0.507 OA
ATOM     24  H   UNL     1       4.099  30.602  74.956  1.00  0.00     0.293 HD
ENDBRANCH  10  23
BRANCH  11  25
ATOM     25  O   UNL     1       9.569  29.875  74.383  1.00  0.00    -0.508 OA
ATOM     26  H   UNL     1       9.645  29.598  75.355  1.00  0.00     0.293 HD
ENDBRANCH  11  25
ENDBRANCH   1   2
BRANCH   1  27
ATOM     27  C   UNL     1       2.373  33.194  70.952  1.00  0.00     0.339 C 
ATOM     28  C   UNL     1       2.438  34.727  71.089  1.00  0.00     0.214 C 
ATOM     29  O   UNL     1       1.179  32.760  70.313  1.00  0.00    -0.332 OA
ATOM     30  C   UNL     1       2.279  35.410  69.728  1.00  0.00     0.180 C 
ATOM     31  C   UNL     1       0.957  33.328  69.028  1.00  0.00     0.179 C 
ATOM     32  C   UNL     1       1.022  34.877  69.015  1.00  0.00     0.177 C 
BRANCH  28  33
ATOM     33  O   UNL     1       3.657  35.116  71.672  1.00  0.00    -0.384 OA
ATOM     34  H   UNL     1       3.664  36.108  71.689  1.00  0.00     0.211 HD
ENDBRANCH  28  33
BRANCH  30  35
ATOM     35  O   UNL     1       3.426  35.205  68.944  1.00  0.00    -0.387 OA
ATOM     36  H   UNL     1       3.905  36.072  68.899  1.00  0.00     0.211 HD
ENDBRANCH  30  35
BRANCH  31  37
ATOM     37  C   UNL     1       1.804  32.649  67.931  1.00  0.00     0.191 C 
BRANCH  37  38
ATOM     38  O   UNL     1       1.962  33.501  66.827  1.00  0.00    -0.394 OA
ATOM     39  H   UNL     1       2.729  33.150  66.303  1.00  0.00     0.210 HD
ENDBRANCH  37  38
ENDBRANCH  31  37
BRANCH  32  40
ATOM     40  O   UNL     1      -0.124  35.378  69.657  1.00  0.00    -0.387 OA
ATOM     41  H   UNL     1      -0.088  36.368  69.585  1.00  0.00     0.211 HD
ENDBRANCH  32  40
ENDBRANCH   1  27
TORSDOF 12
ENDMDL
MODEL 7
REMARK VINA RESULT:    -4.749      2.447      7.108
REMARK INTER + INTRA:          -7.991
REMARK INTER:                  -6.790
REMARK INTRA:                  -1.201
REMARK UNBOUND:                -1.021
REMARK SMILES O=c1c(O[C@@H]2O[C@H](CO)[C@@H](O)[C@H](O)[C@@H]2O)c(-c2ccc(O)c(O)c2)oc2cc(O)cc(O)c12
REMARK SMILES IDX 4 1 3 2 16 3 25 4 2 5 26 6 1 7 33 8 27 9 31 10 28 11 30 12
REMARK SMILES IDX 17 13 18 14 19 15 20 16 24 17 22 18 21 19 23 21 32 23 29 25
REMARK SMILES IDX 5 27 14 28 6 29 12 30 7 31 10 32 15 33 13 35 8 37 9 38 11 40
REMARK H PARENT 21 20 23 22 32 24 29 26 15 34 13 36 9 39 11 41
REMARK Flexibility Score: inf
ROOT
ATOM      1  O   UNL     1       5.665  31.933  69.327  1.00  0.00    -0.454 OA
ENDROOT
BRANCH   1   2
ATOM      2  C   UNL     1       5.405  31.570  70.664  1.00  0.00     0.214 A 
ATOM      3  C   UNL     1       4.122  31.086  70.991  1.00  0.00     0.180 A 
ATOM      4  O   UNL     1       3.855  30.681  72.228  1.00  0.00    -0.452 OA
ATOM      5  C   UNL     1       6.373  31.646  71.689  1.00  0.00     0.239 A 
ATOM      6  C   UNL     1       4.738  30.724  73.216  1.00  0.00     0.146 A 
ATOM      7  O   UNL     1       7.518  32.108  71.444  1.00  0.00    -0.285 OA
ATOM      8  C   UNL     1       6.045  31.216  72.992  1.00  0.00     0.111 A 
ATOM      9  C   UNL     1       4.360  30.279  74.486  1.00  0.00     0.094 A 
ATOM     10  C   UNL     1       6.960  31.253  74.074  1.00  0.00     0.134 A 
ATOM     11  C   UNL     1       5.267  30.317  75.548  1.00  0.00     0.123 A 
ATOM     12  C   UNL     1       6.560  30.802  75.340  1.00  0.00     0.093 A 
BRANCH   3  13
ATOM     13  C   UNL     1       3.054  30.969  69.977  1.00  0.00     0.025 A 
ATOM     14  C   UNL     1       3.096  29.972  68.989  1.00  0.00     0.016 A 
ATOM     15  C   UNL     1       2.077  29.876  68.040  1.00  0.00     0.051 A 
ATOM     16  C   UNL     1       1.012  30.782  68.052  1.00  0.00     0.157 A 
ATOM     17  C   UNL     1       1.997  31.892  69.974  1.00  0.00     0.062 A 
ATOM     18  C   UNL     1       0.973  31.798  69.021  1.00  0.00     0.158 A 
BRANCH  16  19
ATOM     19  O   UNL     1       0.007  30.659  67.093  1.00  0.00    -0.504 OA
ATOM     20  H   UNL     1      -0.360  31.459  66.593  1.00  0.00     0.293 HD
ENDBRANCH  16  19
BRANCH  18  21
ATOM     21  O   UNL     1      -0.082  32.710  69.034  1.00  0.00    -0.504 OA
ATOM     22  H   UNL     1      -0.602  32.932  68.193  1.00  0.00     0.293 HD
ENDBRANCH  18  21
ENDBRANCH   3  13
BRANCH  10  23
ATOM     23  O   UNL     1       8.260  31.731  73.899  1.00  0.00    -0.507 OA
ATOM     24  H   UNL     1       8.447  32.605  73.421  1.00  0.00     0.293 HD
ENDBRANCH  10  23
BRANCH  11  25
ATOM     25  O   UNL     1       4.895  29.876  76.816  1.00  0.00    -0.508 OA
ATOM     26  H   UNL     1       4.219  29.132  76.941  1.00  0.00     0.293 HD
ENDBRANCH  11  25
ENDBRANCH   1   2
BRANCH   1  27
ATOM     27  C   UNL     1       5.090  33.040  68.627  1.00  0.00     0.339 C 
ATOM     28  C   UNL     1       5.791  34.354  69.019  1.00  0.00     0.214 C 
ATOM     29  O   UNL     1       5.075  32.835  67.220  1.00  0.00    -0.332 OA
ATOM     30  C   UNL     1       7.213  34.411  68.454  1.00  0.00     0.180 C 
ATOM     31  C   UNL     1       6.360  32.850  66.608  1.00  0.00     0.179 C 
ATOM     32  C   UNL     1       7.191  34.115  66.943  1.00  0.00     0.177 C 
BRANCH  28  33
ATOM     33  O   UNL     1       5.834  34.489  70.418  1.00  0.00    -0.384 OA
ATOM     34  H   UNL     1       6.634  33.991  70.730  1.00  0.00     0.211 HD
ENDBRANCH  28  33
BRANCH  30  35
ATOM     35  O   UNL     1       8.042  33.502  69.131  1.00  0.00    -0.387 OA
ATOM     36  H   UNL     1       7.590  32.619  69.100  1.00  0.00     0.211 HD
ENDBRANCH  30  35
BRANCH  31  37
ATOM     37  C   UNL     1       7.119  31.521  66.805  1.00  0.00     0.191 C 
BRANCH  37  38
ATOM     38  O   UNL     1       8.500  31.749  66.903  1.00  0.00    -0.394 OA
ATOM     39  H   UNL     1       8.673  32.062  67.829  1.00  0.00     0.210 HD
ENDBRANCH  37  38
ENDBRANCH  31  37
BRANCH  32  40
ATOM     40  O   UNL     1       6.631  35.211  66.262  1.00  0.00    -0.387 OA
ATOM     41  H   UNL     1       6.678  35.989  66.877  1.00  0.00     0.211 HD
ENDBRANCH  32  40
ENDBRANCH   1  27
TORSDOF 12
ENDMDL
MODEL 8
REMARK VINA RESULT:    -4.555     17.967     20.904
REMARK INTER + INTRA:          -7.706
REMARK INTER:                  -5.977
REMARK INTRA:                  -1.729
REMARK UNBOUND:                -1.021
REMARK SMILES O=c1c(O[C@@H]2O[C@H](CO)[C@@H](O)[C@H](O)[C@@H]2O)c(-c2ccc(O)c(O)c2)oc2cc(O)cc(O)c12
REMARK SMILES IDX 4 1 3 2 16 3 25 4 2 5 26 6 1 7 33 8 27 9 31 10 28 11 30 12
REMARK SMILES IDX 17 13 18 14 19 15 20 16 24 17 22 18 21 19 23 21 32 23 29 25
REMARK SMILES IDX 5 27 14 28 6 29 12 30 7 31 10 32 15 33 13 35 8 37 9 38 11 40
REMARK H PARENT 21 20 23 22 32 24 29 26 15 34 13 36 9 39 11 41
REMARK Flexibility Score: inf
ROOT
ATOM      1  O   UNL     1      18.662  44.696  75.787  1.00  0.00    -0.454 OA
ENDROOT
BRANCH   1   2
ATOM      2  C   UNL     1      18.963  45.749  76.674  1.00  0.00     0.214 A 
ATOM      3  C   UNL     1      19.059  47.056  76.157  1.00  0.00     0.180 A 
ATOM      4  O   UNL     1      19.286  48.082  76.970  1.00  0.00    -0.452 OA
ATOM      5  C   UNL     1      19.153  45.562  78.061  1.00  0.00     0.239 A 
ATOM      6  C   UNL     1      19.457  47.953  78.278  1.00  0.00     0.146 A 
ATOM      7  O   UNL     1      19.112  44.405  78.554  1.00  0.00    -0.285 OA
ATOM      8  C   UNL     1      19.403  46.677  78.887  1.00  0.00     0.111 A 
ATOM      9  C   UNL     1      19.696  49.094  79.050  1.00  0.00     0.094 A 
ATOM     10  C   UNL     1      19.597  46.576  80.288  1.00  0.00     0.134 A 
ATOM     11  C   UNL     1      19.885  48.987  80.430  1.00  0.00     0.123 A 
ATOM     12  C   UNL     1      19.835  47.734  81.044  1.00  0.00     0.093 A 
BRANCH   3  13
ATOM     13  C   UNL     1      18.869  47.339  74.720  1.00  0.00     0.025 A 
ATOM     14  C   UNL     1      19.965  47.484  73.855  1.00  0.00     0.016 A 
ATOM     15  C   UNL     1      19.765  47.750  72.499  1.00  0.00     0.051 A 
ATOM     16  C   UNL     1      18.470  47.893  71.991  1.00  0.00     0.157 A 
ATOM     17  C   UNL     1      17.570  47.506  74.213  1.00  0.00     0.062 A 
ATOM     18  C   UNL     1      17.366  47.774  72.852  1.00  0.00     0.158 A 
BRANCH  16  19
ATOM     19  O   UNL     1      18.301  48.155  70.631  1.00  0.00    -0.504 OA
ATOM     20  H   UNL     1      17.672  48.874  70.297  1.00  0.00     0.293 HD
ENDBRANCH  16  19
BRANCH  18  21
ATOM     21  O   UNL     1      16.073  47.923  72.353  1.00  0.00    -0.504 OA
ATOM     22  H   UNL     1      15.583  47.154  71.910  1.00  0.00     0.293 HD
ENDBRANCH  18  21
ENDBRANCH   3  13
BRANCH  10  23
ATOM     23  O   UNL     1      19.552  45.339  80.932  1.00  0.00    -0.507 OA
ATOM     24  H   UNL     1      19.386  44.478  80.422  1.00  0.00     0.293 HD
ENDBRANCH  10  23
BRANCH  11  25
ATOM     25  O   UNL     1      20.125  50.121  81.203  1.00  0.00    -0.508 OA
ATOM     26  H   UNL     1      19.845  50.167  82.176  1.00  0.00     0.293 HD
ENDBRANCH  11  25
ENDBRANCH   1   2
BRANCH   1  27
ATOM     27  C   UNL     1      19.599  43.991  74.967  1.00  0.00     0.339 C 
ATOM     28  C   UNL     1      19.816  42.561  75.497  1.00  0.00     0.214 C 
ATOM     29  O   UNL     1      19.227  44.006  73.594  1.00  0.00    -0.332 OA
ATOM     30  C   UNL     1      18.576  41.693  75.267  1.00  0.00     0.180 C 
ATOM     31  C   UNL     1      18.068  43.240  73.288  1.00  0.00     0.179 C 
ATOM     32  C   UNL     1      18.142  41.776  73.792  1.00  0.00     0.177 C 
BRANCH  28  33
ATOM     33  O   UNL     1      20.125  42.588  76.869  1.00  0.00    -0.384 OA
ATOM     34  H   UNL     1      21.077  42.323  76.954  1.00  0.00     0.211 HD
ENDBRANCH  28  33
BRANCH  30  35
ATOM     35  O   UNL     1      17.536  42.094  76.121  1.00  0.00    -0.387 OA
ATOM     36  H   UNL     1      17.817  41.869  77.045  1.00  0.00     0.211 HD
ENDBRANCH  30  35
BRANCH  31  37
ATOM     37  C   UNL     1      16.763  43.975  73.661  1.00  0.00     0.191 C 
BRANCH  37  38
ATOM     38  O   UNL     1      15.694  43.071  73.755  1.00  0.00    -0.394 OA
ATOM     39  H   UNL     1      15.865  42.509  74.555  1.00  0.00     0.210 HD
ENDBRANCH  37  38
ENDBRANCH  31  37
BRANCH  32  40
ATOM     40  O   UNL     1      19.063  41.074  72.995  1.00  0.00    -0.387 OA
ATOM     41  H   UNL     1      19.551  40.451  73.595  1.00  0.00     0.211 HD
ENDBRANCH  32  40
ENDBRANCH   1  27
TORSDOF 12
ENDMDL
