MODEL 1
REMARK VINA RESULT:    -3.448      0.000      0.000
REMARK INTER + INTRA:          -4.280
REMARK INTER:                  -4.053
REMARK INTRA:                  -0.226
REMARK UNBOUND:                -0.226
REMARK SMILES [NH3+][C@@H](CO)C(=O)[O-]
REMARK SMILES IDX 3 1 2 2 1 3 5 7 6 8 7 9 4 10
REMARK H PARENT 1 4 1 5 1 6 4 11
REMARK Flexibility Score: inf
ROOT
ATOM      1  C   UNL     1     126.614 115.436 128.639  1.00  0.00     0.227 C 
ENDROOT
BRANCH   1   2
ATOM      2  C   UNL     1     126.635 114.249 129.616  1.00  0.00     0.253 C 
BRANCH   2   3
ATOM      3  N   UNL     1     126.169 113.016 128.967  1.00  0.00    -0.348 N 
ATOM      4  H   UNL     1     126.981 112.375 128.805  1.00  0.00     0.345 HD
ATOM      5  H   UNL     1     125.744 113.244 128.039  1.00  0.00     0.345 HD
ATOM      6  H   UNL     1     125.459 112.526 129.558  1.00  0.00     0.345 HD
ENDBRANCH   2   3
BRANCH   2   7
ATOM      7  C   UNL     1     125.821 114.553 130.846  1.00  0.00     0.102 C 
ATOM      8  O   UNL     1     126.141 114.069 131.964  1.00  0.00    -0.544 OA
ATOM      9  O   UNL     1     124.682 115.343 130.744  1.00  0.00    -0.544 OA
ENDBRANCH   2   7
ENDBRANCH   1   2
BRANCH   1  10
ATOM     10  O   UNL     1     125.414 115.462 127.915  1.00  0.00    -0.390 OA
ATOM     11  H   UNL     1     124.761 114.934 128.443  1.00  0.00     0.210 HD
ENDBRANCH   1  10
TORSDOF 4
ENDMDL
MODEL 2
REMARK VINA RESULT:    -3.345      2.228      3.026
REMARK INTER + INTRA:          -4.158
REMARK INTER:                  -3.808
REMARK INTRA:                  -0.351
REMARK UNBOUND:                -0.226
REMARK SMILES [NH3+][C@@H](CO)C(=O)[O-]
REMARK SMILES IDX 3 1 2 2 1 3 5 7 6 8 7 9 4 10
REMARK H PARENT 1 4 1 5 1 6 4 11
REMARK Flexibility Score: inf
ROOT
ATOM      1  C   UNL     1     124.263 115.764 131.861  1.00  0.00     0.227 C 
ENDROOT
BRANCH   1   2
ATOM      2  C   UNL     1     125.739 115.488 131.532  1.00  0.00     0.253 C 
BRANCH   2   3
ATOM      3  N   UNL     1     126.549 116.708 131.650  1.00  0.00    -0.348 N 
ATOM      4  H   UNL     1     127.505 116.535 131.260  1.00  0.00     0.345 HD
ATOM      5  H   UNL     1     126.650 116.968 132.658  1.00  0.00     0.345 HD
ATOM      6  H   UNL     1     126.107 117.503 131.134  1.00  0.00     0.345 HD
ENDBRANCH   2   3
BRANCH   2   7
ATOM      7  C   UNL     1     125.877 114.879 130.161  1.00  0.00     0.102 C 
ATOM      8  O   UNL     1     126.118 113.650 130.025  1.00  0.00    -0.544 OA
ATOM      9  O   UNL     1     125.778 115.684 129.033  1.00  0.00    -0.544 OA
ENDBRANCH   2   7
ENDBRANCH   1   2
BRANCH   1  10
ATOM     10  O   UNL     1     123.432 115.342 130.814  1.00  0.00    -0.390 OA
ATOM     11  H   UNL     1     122.581 115.054 131.236  1.00  0.00     0.210 HD
ENDBRANCH   1  10
TORSDOF 4
ENDMDL
MODEL 3
REMARK VINA RESULT:    -3.336      1.748      1.833
REMARK INTER + INTRA:          -4.148
REMARK INTER:                  -3.896
REMARK INTRA:                  -0.252
REMARK UNBOUND:                -0.226
REMARK SMILES [NH3+][C@@H](CO)C(=O)[O-]
REMARK SMILES IDX 3 1 2 2 1 3 5 7 6 8 7 9 4 10
REMARK H PARENT 1 4 1 5 1 6 4 11
REMARK Flexibility Score: inf
ROOT
ATOM      1  C   UNL     1     126.071 113.809 129.413  1.00  0.00     0.227 C 
ENDROOT
BRANCH   1   2
ATOM      2  C   UNL     1     126.531 114.519 130.697  1.00  0.00     0.253 C 
BRANCH   2   3
ATOM      3  N   UNL     1     126.594 113.584 131.828  1.00  0.00    -0.348 N 
ATOM      4  H   UNL     1     126.153 114.021 132.671  1.00  0.00     0.345 HD
ATOM      5  H   UNL     1     127.593 113.372 132.056  1.00  0.00     0.345 HD
ATOM      6  H   UNL     1     126.098 112.691 131.606  1.00  0.00     0.345 HD
ENDBRANCH   2   3
BRANCH   2   7
ATOM      7  C   UNL     1     125.636 115.689 131.013  1.00  0.00     0.102 C 
ATOM      8  O   UNL     1     126.120 116.772 131.436  1.00  0.00    -0.544 OA
ATOM      9  O   UNL     1     124.260 115.563 130.875  1.00  0.00    -0.544 OA
ENDBRANCH   2   7
ENDBRANCH   1   2
BRANCH   1  10
ATOM     10  O   UNL     1     125.629 114.739 128.462  1.00  0.00    -0.390 OA
ATOM     11  H   UNL     1     126.427 114.990 127.929  1.00  0.00     0.210 HD
ENDBRANCH   1  10
TORSDOF 4
ENDMDL
MODEL 4
REMARK VINA RESULT:    -3.321     15.549     16.121
REMARK INTER + INTRA:          -4.130
REMARK INTER:                  -3.905
REMARK INTRA:                  -0.225
REMARK UNBOUND:                -0.226
REMARK SMILES [NH3+][C@@H](CO)C(=O)[O-]
REMARK SMILES IDX 3 1 2 2 1 3 5 7 6 8 7 9 4 10
REMARK H PARENT 1 4 1 5 1 6 4 11
REMARK Flexibility Score: inf
ROOT
ATOM      1  C   UNL     1     113.446 122.419 131.139  1.00  0.00     0.227 C 
ENDROOT
BRANCH   1   2
ATOM      2  C   UNL     1     112.034 122.907 130.776  1.00  0.00     0.253 C 
BRANCH   2   3
ATOM      3  N   UNL     1     111.008 122.176 131.531  1.00  0.00    -0.348 N 
ATOM      4  H   UNL     1     110.218 121.918 130.894  1.00  0.00     0.345 HD
ATOM      5  H   UNL     1     110.627 122.785 132.291  1.00  0.00     0.345 HD
ATOM      6  H   UNL     1     111.402 121.306 131.956  1.00  0.00     0.345 HD
ENDBRANCH   2   3
BRANCH   2   7
ATOM      7  C   UNL     1     111.794 122.798 129.293  1.00  0.00     0.102 C 
ATOM      8  O   UNL     1     112.500 122.034 128.582  1.00  0.00    -0.544 OA
ATOM      9  O   UNL     1     110.812 123.575 128.693  1.00  0.00    -0.544 OA
ENDBRANCH   2   7
ENDBRANCH   1   2
BRANCH   1  10
ATOM     10  O   UNL     1     114.421 123.248 130.568  1.00  0.00    -0.390 OA
ATOM     11  H   UNL     1     114.400 124.095 131.084  1.00  0.00     0.210 HD
ENDBRANCH   1  10
TORSDOF 4
ENDMDL
MODEL 5
REMARK VINA RESULT:    -3.304      2.022      3.155
REMARK INTER + INTRA:          -4.110
REMARK INTER:                  -3.757
REMARK INTRA:                  -0.353
REMARK UNBOUND:                -0.226
REMARK SMILES [NH3+][C@@H](CO)C(=O)[O-]
REMARK SMILES IDX 3 1 2 2 1 3 5 7 6 8 7 9 4 10
REMARK H PARENT 1 4 1 5 1 6 4 11
REMARK Flexibility Score: inf
ROOT
ATOM      1  C   UNL     1     125.768 114.735 131.969  1.00  0.00     0.227 C 
ENDROOT
BRANCH   1   2
ATOM      2  C   UNL     1     125.664 115.419 130.597  1.00  0.00     0.253 C 
BRANCH   2   3
ATOM      3  N   UNL     1     124.264 115.690 130.242  1.00  0.00    -0.348 N 
ATOM      4  H   UNL     1     124.144 115.622 129.204  1.00  0.00     0.345 HD
ATOM      5  H   UNL     1     124.005 116.660 130.537  1.00  0.00     0.345 HD
ATOM      6  H   UNL     1     123.620 115.009 130.706  1.00  0.00     0.345 HD
ENDBRANCH   2   3
BRANCH   2   7
ATOM      7  C   UNL     1     126.341 114.595 129.533  1.00  0.00     0.102 C 
ATOM      8  O   UNL     1     127.437 114.964 129.035  1.00  0.00    -0.544 OA
ATOM      9  O   UNL     1     125.734 113.436 129.065  1.00  0.00    -0.544 OA
ENDBRANCH   2   7
ENDBRANCH   1   2
BRANCH   1  10
ATOM     10  O   UNL     1     126.756 113.740 131.954  1.00  0.00    -0.390 OA
ATOM     11  H   UNL     1     127.347 113.927 132.729  1.00  0.00     0.210 HD
ENDBRANCH   1  10
TORSDOF 4
ENDMDL
MODEL 6
REMARK VINA RESULT:    -3.259      2.063      2.893
REMARK INTER + INTRA:          -4.057
REMARK INTER:                  -3.840
REMARK INTRA:                  -0.217
REMARK UNBOUND:                -0.226
REMARK SMILES [NH3+][C@@H](CO)C(=O)[O-]
REMARK SMILES IDX 3 1 2 2 1 3 5 7 6 8 7 9 4 10
REMARK H PARENT 1 4 1 5 1 6 4 11
REMARK Flexibility Score: inf
ROOT
ATOM      1  C   UNL     1     125.454 116.015 131.212  1.00  0.00     0.227 C 
ENDROOT
BRANCH   1   2
ATOM      2  C   UNL     1     125.718 114.523 130.954  1.00  0.00     0.253 C 
BRANCH   2   3
ATOM      3  N   UNL     1     126.595 113.951 131.985  1.00  0.00    -0.348 N 
ATOM      4  H   UNL     1     127.390 113.444 131.529  1.00  0.00     0.345 HD
ATOM      5  H   UNL     1     126.060 113.264 132.564  1.00  0.00     0.345 HD
ATOM      6  H   UNL     1     126.979 114.698 132.608  1.00  0.00     0.345 HD
ENDBRANCH   2   3
BRANCH   2   7
ATOM      7  C   UNL     1     126.292 114.310 129.577  1.00  0.00     0.102 C 
ATOM      8  O   UNL     1     126.101 113.227 128.962  1.00  0.00    -0.544 OA
ATOM      9  O   UNL     1     127.074 115.299 128.994  1.00  0.00    -0.544 OA
ENDBRANCH   2   7
ENDBRANCH   1   2
BRANCH   1  10
ATOM     10  O   UNL     1     126.613 116.652 131.677  1.00  0.00    -0.390 OA
ATOM     11  H   UNL     1     126.927 117.230 130.934  1.00  0.00     0.210 HD
ENDBRANCH   1  10
TORSDOF 4
ENDMDL
MODEL 7
REMARK VINA RESULT:    -3.116      1.935      2.489
REMARK INTER + INTRA:          -3.889
REMARK INTER:                  -3.650
REMARK INTRA:                  -0.239
REMARK UNBOUND:                -0.226
REMARK SMILES [NH3+][C@@H](CO)C(=O)[O-]
REMARK SMILES IDX 3 1 2 2 1 3 5 7 6 8 7 9 4 10
REMARK H PARENT 1 4 1 5 1 6 4 11
REMARK Flexibility Score: inf
ROOT
ATOM      1  C   UNL     1     126.519 113.809 130.514  1.00  0.00     0.227 C 
ENDROOT
BRANCH   1   2
ATOM      2  C   UNL     1     125.352 114.645 129.966  1.00  0.00     0.253 C 
BRANCH   2   3
ATOM      3  N   UNL     1     125.666 115.195 128.640  1.00  0.00    -0.348 N 
ATOM      4  H   UNL     1     125.087 116.050 128.467  1.00  0.00     0.345 HD
ATOM      5  H   UNL     1     125.437 114.490 127.902  1.00  0.00     0.345 HD
ATOM      6  H   UNL     1     126.678 115.447 128.569  1.00  0.00     0.345 HD
ENDBRANCH   2   3
BRANCH   2   7
ATOM      7  C   UNL     1     124.978 115.741 130.930  1.00  0.00     0.102 C 
ATOM      8  O   UNL     1     125.848 116.549 131.352  1.00  0.00    -0.544 OA
ATOM      9  O   UNL     1     123.672 115.840 131.392  1.00  0.00    -0.544 OA
ENDBRANCH   2   7
ENDBRANCH   1   2
BRANCH   1  10
ATOM     10  O   UNL     1     126.606 113.929 131.908  1.00  0.00    -0.390 OA
ATOM     11  H   UNL     1     127.285 113.267 132.200  1.00  0.00     0.210 HD
ENDBRANCH   1  10
TORSDOF 4
ENDMDL
MODEL 8
REMARK VINA RESULT:    -3.076     15.721     16.375
REMARK INTER + INTRA:          -3.842
REMARK INTER:                  -3.832
REMARK INTRA:                  -0.010
REMARK UNBOUND:                -0.226
REMARK SMILES [NH3+][C@@H](CO)C(=O)[O-]
REMARK SMILES IDX 3 1 2 2 1 3 5 7 6 8 7 9 4 10
REMARK H PARENT 1 4 1 5 1 6 4 11
REMARK Flexibility Score: inf
ROOT
ATOM      1  C   UNL     1     111.560 123.464 131.214  1.00  0.00     0.227 C 
ENDROOT
BRANCH   1   2
ATOM      2  C   UNL     1     112.317 122.489 130.298  1.00  0.00     0.253 C 
BRANCH   2   3
ATOM      3  N   UNL     1     113.768 122.713 130.366  1.00  0.00    -0.348 N 
ATOM      4  H   UNL     1     113.985 123.702 130.099  1.00  0.00     0.345 HD
ATOM      5  H   UNL     1     114.255 122.079 129.692  1.00  0.00     0.345 HD
ATOM      6  H   UNL     1     114.131 122.531 131.330  1.00  0.00     0.345 HD
ENDBRANCH   2   3
BRANCH   2   7
ATOM      7  C   UNL     1     111.821 122.592 128.879  1.00  0.00     0.102 C 
ATOM      8  O   UNL     1     110.767 123.228 128.612  1.00  0.00    -0.544 OA
ATOM      9  O   UNL     1     112.507 121.946 127.859  1.00  0.00    -0.544 OA
ENDBRANCH   2   7
ENDBRANCH   1   2
BRANCH   1  10
ATOM     10  O   UNL     1     112.365 123.863 132.290  1.00  0.00    -0.390 OA
ATOM     11  H   UNL     1     112.098 124.795 132.503  1.00  0.00     0.210 HD
ENDBRANCH   1  10
TORSDOF 4
ENDMDL
MODEL 9
REMARK VINA RESULT:    -3.058     15.761     16.191
REMARK INTER + INTRA:          -3.821
REMARK INTER:                  -3.812
REMARK INTRA:                  -0.009
REMARK UNBOUND:                -0.226
REMARK SMILES [NH3+][C@@H](CO)C(=O)[O-]
REMARK SMILES IDX 3 1 2 2 1 3 5 7 6 8 7 9 4 10
REMARK H PARENT 1 4 1 5 1 6 4 11
REMARK Flexibility Score: inf
ROOT
ATOM      1  C   UNL     1     110.727 123.323 128.943  1.00  0.00     0.227 C 
ENDROOT
BRANCH   1   2
ATOM      2  C   UNL     1     112.212 122.951 129.086  1.00  0.00     0.253 C 
BRANCH   2   3
ATOM      3  N   UNL     1     112.645 122.061 128.001  1.00  0.00    -0.348 N 
ATOM      4  H   UNL     1     112.200 121.120 128.118  1.00  0.00     0.345 HD
ATOM      5  H   UNL     1     113.683 121.937 128.038  1.00  0.00     0.345 HD
ATOM      6  H   UNL     1     112.380 122.450 127.068  1.00  0.00     0.345 HD
ENDBRANCH   2   3
BRANCH   2   7
ATOM      7  C   UNL     1     112.481 122.332 130.433  1.00  0.00     0.102 C 
ATOM      8  O   UNL     1     113.641 122.345 130.925  1.00  0.00    -0.544 OA
ATOM      9  O   UNL     1     111.453 121.704 131.124  1.00  0.00    -0.544 OA
ENDBRANCH   2   7
ENDBRANCH   1   2
BRANCH   1  10
ATOM     10  O   UNL     1     110.386 123.498 127.594  1.00  0.00    -0.390 OA
ATOM     11  H   UNL     1     111.203 123.837 127.145  1.00  0.00     0.210 HD
ENDBRANCH   1  10
TORSDOF 4
ENDMDL
