MODEL 1
REMARK VINA RESULT:    -6.011      0.000      0.000
REMARK INTER + INTRA:          -9.385
REMARK INTER:                  -8.295
REMARK INTRA:                  -1.090
REMARK UNBOUND:                -1.090
REMARK SMILES CCCCc1cccc(O)c1CCCC
REMARK SMILES IDX 5 1 11 2 9 3 8 4 7 5 6 6 4 7 3 8 2 9 1 10 12 11 13 12 14 13
REMARK SMILES IDX 15 14 10 15
REMARK H PARENT 10 16
REMARK Flexibility Score: inf
ROOT
ATOM      1  C   UNL     1     -12.913  -6.830  39.401  1.00  0.00    -0.041 A 
ATOM      2  C   UNL     1     -13.584  -6.552  38.172  1.00  0.00    -0.003 A 
ATOM      3  C   UNL     1     -13.210  -7.248  37.000  1.00  0.00     0.119 A 
ATOM      4  C   UNL     1     -12.179  -8.189  37.038  1.00  0.00     0.046 A 
ATOM      5  C   UNL     1     -11.523  -8.463  38.231  1.00  0.00     0.004 A 
ATOM      6  C   UNL     1     -11.886  -7.801  39.401  1.00  0.00     0.004 A 
ENDROOT
BRANCH   1   7
ATOM      7  C   UNL     1     -13.321  -6.094  40.678  1.00  0.00     0.036 C 
BRANCH   7   8
ATOM      8  C   UNL     1     -12.543  -4.816  41.044  1.00  0.00     0.004 C 
BRANCH   8   9
ATOM      9  C   UNL     1     -13.475  -3.665  41.455  1.00  0.00    -0.003 C 
ATOM     10  C   UNL     1     -13.759  -2.741  40.273  1.00  0.00     0.004 C 
ENDBRANCH   8   9
ENDBRANCH   7   8
ENDBRANCH   1   7
BRANCH   2  11
ATOM     11  C   UNL     1     -14.752  -5.583  38.093  1.00  0.00     0.040 C 
BRANCH  11  12
ATOM     12  C   UNL     1     -16.084  -6.326  38.283  1.00  0.00     0.005 C 
BRANCH  12  13
ATOM     13  C   UNL     1     -17.016  -5.621  39.282  1.00  0.00    -0.003 C 
ATOM     14  C   UNL     1     -17.058  -6.317  40.642  1.00  0.00     0.004 C 
ENDBRANCH  12  13
ENDBRANCH  11  12
ENDBRANCH   2  11
BRANCH   3  15
ATOM     15  O   UNL     1     -13.873  -7.005  35.795  1.00  0.00    -0.508 OA
ATOM     16  H   UNL     1     -13.370  -6.898  34.923  1.00  0.00     0.293 HD
ENDBRANCH   3  15
TORSDOF 7
ENDMDL
MODEL 2
REMARK VINA RESULT:    -5.961      1.297      1.845
REMARK INTER + INTRA:          -9.316
REMARK INTER:                  -8.379
REMARK INTRA:                  -0.937
REMARK UNBOUND:                -1.090
REMARK SMILES CCCCc1cccc(O)c1CCCC
REMARK SMILES IDX 5 1 11 2 9 3 8 4 7 5 6 6 4 7 3 8 2 9 1 10 12 11 13 12 14 13
REMARK SMILES IDX 15 14 10 15
REMARK H PARENT 10 16
REMARK Flexibility Score: inf
ROOT
ATOM      1  C   UNL     1     -13.189  -6.461  39.491  1.00  0.00    -0.041 A 
ATOM      2  C   UNL     1     -13.750  -6.436  38.178  1.00  0.00    -0.003 A 
ATOM      3  C   UNL     1     -13.218  -7.279  37.176  1.00  0.00     0.119 A 
ATOM      4  C   UNL     1     -12.139  -8.119  37.461  1.00  0.00     0.046 A 
ATOM      5  C   UNL     1     -11.591  -8.149  38.737  1.00  0.00     0.004 A 
ATOM      6  C   UNL     1     -12.110  -7.337  39.744  1.00  0.00     0.004 A 
ENDROOT
BRANCH   1   7
ATOM      7  C   UNL     1     -13.768  -5.565  40.586  1.00  0.00     0.036 C 
BRANCH   7   8
ATOM      8  C   UNL     1     -13.864  -6.149  42.008  1.00  0.00     0.004 C 
BRANCH   8   9
ATOM      9  C   UNL     1     -15.293  -6.074  42.572  1.00  0.00    -0.003 C 
ATOM     10  C   UNL     1     -15.438  -6.947  43.816  1.00  0.00     0.004 C 
ENDBRANCH   8   9
ENDBRANCH   7   8
ENDBRANCH   1   7
BRANCH   2  11
ATOM     11  C   UNL     1     -14.961  -5.585  37.835  1.00  0.00     0.040 C 
BRANCH  11  12
ATOM     12  C   UNL     1     -16.260  -6.365  38.094  1.00  0.00     0.005 C 
BRANCH  12  13
ATOM     13  C   UNL     1     -17.117  -5.735  39.203  1.00  0.00    -0.003 C 
ATOM     14  C   UNL     1     -17.833  -6.778  40.061  1.00  0.00     0.004 C 
ENDBRANCH  12  13
ENDBRANCH  11  12
ENDBRANCH   2  11
BRANCH   3  15
ATOM     15  O   UNL     1     -13.770  -7.284  35.894  1.00  0.00    -0.508 OA
ATOM     16  H   UNL     1     -13.627  -6.516  35.250  1.00  0.00     0.293 HD
ENDBRANCH   3  15
TORSDOF 7
ENDMDL
MODEL 3
REMARK VINA RESULT:    -5.641      1.577      3.745
REMARK INTER + INTRA:          -8.875
REMARK INTER:                  -7.862
REMARK INTRA:                  -1.013
REMARK UNBOUND:                -1.090
REMARK SMILES CCCCc1cccc(O)c1CCCC
REMARK SMILES IDX 5 1 11 2 9 3 8 4 7 5 6 6 4 7 3 8 2 9 1 10 12 11 13 12 14 13
REMARK SMILES IDX 15 14 10 15
REMARK H PARENT 10 16
REMARK Flexibility Score: inf
ROOT
ATOM      1  C   UNL     1     -13.371  -6.845  38.145  1.00  0.00    -0.041 A 
ATOM      2  C   UNL     1     -12.837  -7.000  39.461  1.00  0.00    -0.003 A 
ATOM      3  C   UNL     1     -11.768  -7.898  39.678  1.00  0.00     0.119 A 
ATOM      4  C   UNL     1     -11.247  -8.645  38.619  1.00  0.00     0.046 A 
ATOM      5  C   UNL     1     -11.762  -8.497  37.337  1.00  0.00     0.004 A 
ATOM      6  C   UNL     1     -12.805  -7.606  37.097  1.00  0.00     0.004 A 
ENDROOT
BRANCH   1   7
ATOM      7  C   UNL     1     -14.517  -5.864  37.896  1.00  0.00     0.036 C 
BRANCH   7   8
ATOM      8  C   UNL     1     -15.953  -6.372  38.123  1.00  0.00     0.004 C 
BRANCH   8   9
ATOM      9  C   UNL     1     -16.692  -5.565  39.204  1.00  0.00    -0.003 C 
ATOM     10  C   UNL     1     -17.601  -6.466  40.036  1.00  0.00     0.004 C 
ENDBRANCH   8   9
ENDBRANCH   7   8
ENDBRANCH   1   7
BRANCH   2  11
ATOM     11  C   UNL     1     -13.328  -6.167  40.633  1.00  0.00     0.040 C 
BRANCH  11  12
ATOM     12  C   UNL     1     -12.486  -4.889  40.777  1.00  0.00     0.005 C 
BRANCH  12  13
ATOM     13  C   UNL     1     -13.324  -3.676  41.213  1.00  0.00    -0.003 C 
ATOM     14  C   UNL     1     -14.038  -3.000  40.043  1.00  0.00     0.004 C 
ENDBRANCH  12  13
ENDBRANCH  11  12
ENDBRANCH   2  11
BRANCH   3  15
ATOM     15  O   UNL     1     -11.219  -8.043  40.954  1.00  0.00    -0.508 OA
ATOM     16  H   UNL     1     -10.850  -8.929  41.278  1.00  0.00     0.293 HD
ENDBRANCH   3  15
TORSDOF 7
ENDMDL
MODEL 4
REMARK VINA RESULT:    -5.378      1.696      4.384
REMARK INTER + INTRA:          -8.511
REMARK INTER:                  -7.798
REMARK INTRA:                  -0.714
REMARK UNBOUND:                -1.090
REMARK SMILES CCCCc1cccc(O)c1CCCC
REMARK SMILES IDX 5 1 11 2 9 3 8 4 7 5 6 6 4 7 3 8 2 9 1 10 12 11 13 12 14 13
REMARK SMILES IDX 15 14 10 15
REMARK H PARENT 10 16
REMARK Flexibility Score: inf
ROOT
ATOM      1  C   UNL     1     -12.668  -7.221  38.513  1.00  0.00    -0.041 A 
ATOM      2  C   UNL     1     -13.554  -6.358  39.227  1.00  0.00    -0.003 A 
ATOM      3  C   UNL     1     -14.633  -5.749  38.546  1.00  0.00     0.119 A 
ATOM      4  C   UNL     1     -14.822  -5.972  37.180  1.00  0.00     0.046 A 
ATOM      5  C   UNL     1     -13.963  -6.811  36.481  1.00  0.00     0.004 A 
ATOM      6  C   UNL     1     -12.903  -7.435  37.136  1.00  0.00     0.004 A 
ENDROOT
BRANCH   1   7
ATOM      7  C   UNL     1     -11.508  -7.898  39.243  1.00  0.00     0.036 C 
BRANCH   7   8
ATOM      8  C   UNL     1     -10.891  -9.151  38.593  1.00  0.00     0.004 C 
BRANCH   8   9
ATOM      9  C   UNL     1     -10.106 -10.004  39.604  1.00  0.00    -0.003 C 
ATOM     10  C   UNL     1     -10.168  -9.394  41.001  1.00  0.00     0.004 C 
ENDBRANCH   8   9
ENDBRANCH   7   8
ENDBRANCH   1   7
BRANCH   2  11
ATOM     11  C   UNL     1     -13.427  -6.132  40.723  1.00  0.00     0.040 C 
BRANCH  11  12
ATOM     12  C   UNL     1     -12.508  -4.935  41.012  1.00  0.00     0.005 C 
BRANCH  12  13
ATOM     13  C   UNL     1     -13.263  -3.744  41.623  1.00  0.00    -0.003 C 
ATOM     14  C   UNL     1     -13.384  -2.564  40.659  1.00  0.00     0.004 C 
ENDBRANCH  12  13
ENDBRANCH  11  12
ENDBRANCH   2  11
BRANCH   3  15
ATOM     15  O   UNL     1     -15.522  -4.922  39.235  1.00  0.00    -0.508 OA
ATOM     16  H   UNL     1     -16.170  -5.290  39.920  1.00  0.00     0.293 HD
ENDBRANCH   3  15
TORSDOF 7
ENDMDL
MODEL 5
REMARK VINA RESULT:    -5.205      1.834      4.512
REMARK INTER + INTRA:          -8.273
REMARK INTER:                  -7.134
REMARK INTRA:                  -1.139
REMARK UNBOUND:                -1.090
REMARK SMILES CCCCc1cccc(O)c1CCCC
REMARK SMILES IDX 5 1 11 2 9 3 8 4 7 5 6 6 4 7 3 8 2 9 1 10 12 11 13 12 14 13
REMARK SMILES IDX 15 14 10 15
REMARK H PARENT 10 16
REMARK Flexibility Score: inf
ROOT
ATOM      1  C   UNL     1     -12.758  -6.821  39.463  1.00  0.00    -0.041 A 
ATOM      2  C   UNL     1     -12.685  -7.244  38.101  1.00  0.00    -0.003 A 
ATOM      3  C   UNL     1     -13.751  -6.948  37.220  1.00  0.00     0.119 A 
ATOM      4  C   UNL     1     -14.877  -6.262  37.682  1.00  0.00     0.046 A 
ATOM      5  C   UNL     1     -14.952  -5.847  39.005  1.00  0.00     0.004 A 
ATOM      6  C   UNL     1     -13.906  -6.114  39.886  1.00  0.00     0.004 A 
ENDROOT
BRANCH   1   7
ATOM      7  C   UNL     1     -11.604  -7.121  40.419  1.00  0.00     0.036 C 
BRANCH   7   8
ATOM      8  C   UNL     1     -10.504  -6.052  40.567  1.00  0.00     0.004 C 
BRANCH   8   9
ATOM      9  C   UNL     1      -9.093  -6.648  40.434  1.00  0.00    -0.003 C 
ATOM     10  C   UNL     1      -8.506  -6.368  39.053  1.00  0.00     0.004 C 
ENDBRANCH   8   9
ENDBRANCH   7   8
ENDBRANCH   1   7
BRANCH   2  11
ATOM     11  C   UNL     1     -11.457  -7.939  37.538  1.00  0.00     0.040 C 
BRANCH  11  12
ATOM     12  C   UNL     1     -11.389  -9.395  38.025  1.00  0.00     0.005 C 
BRANCH  12  13
ATOM     13  C   UNL     1      -9.965  -9.821  38.416  1.00  0.00    -0.003 C 
ATOM     14  C   UNL     1      -9.865 -10.282  39.870  1.00  0.00     0.004 C 
ENDBRANCH  12  13
ENDBRANCH  11  12
ENDBRANCH   2  11
BRANCH   3  15
ATOM     15  O   UNL     1     -13.685  -7.335  35.881  1.00  0.00    -0.508 OA
ATOM     16  H   UNL     1     -12.853  -7.761  35.490  1.00  0.00     0.293 HD
ENDBRANCH   3  15
TORSDOF 7
ENDMDL
MODEL 6
REMARK VINA RESULT:    -5.189      6.257      8.090
REMARK INTER + INTRA:          -8.251
REMARK INTER:                  -6.969
REMARK INTRA:                  -1.282
REMARK UNBOUND:                -1.090
REMARK SMILES CCCCc1cccc(O)c1CCCC
REMARK SMILES IDX 5 1 11 2 9 3 8 4 7 5 6 6 4 7 3 8 2 9 1 10 12 11 13 12 14 13
REMARK SMILES IDX 15 14 10 15
REMARK H PARENT 10 16
REMARK Flexibility Score: inf
ROOT
ATOM      1  C   UNL     1     -16.804  -7.463  45.125  1.00  0.00    -0.041 A 
ATOM      2  C   UNL     1     -17.142  -8.769  44.657  1.00  0.00    -0.003 A 
ATOM      3  C   UNL     1     -17.585  -8.941  43.326  1.00  0.00     0.119 A 
ATOM      4  C   UNL     1     -17.710  -7.838  42.477  1.00  0.00     0.046 A 
ATOM      5  C   UNL     1     -17.382  -6.566  42.927  1.00  0.00     0.004 A 
ATOM      6  C   UNL     1     -16.928  -6.376  44.230  1.00  0.00     0.004 A 
ENDROOT
BRANCH   1   7
ATOM      7  C   UNL     1     -16.308  -7.269  46.558  1.00  0.00     0.036 C 
BRANCH   7   8
ATOM      8  C   UNL     1     -14.786  -7.183  46.780  1.00  0.00     0.004 C 
BRANCH   8   9
ATOM      9  C   UNL     1     -14.384  -7.571  48.212  1.00  0.00    -0.003 C 
ATOM     10  C   UNL     1     -15.592  -7.556  49.145  1.00  0.00     0.004 C 
ENDBRANCH   8   9
ENDBRANCH   7   8
ENDBRANCH   1   7
BRANCH   2  11
ATOM     11  C   UNL     1     -16.965 -10.006  45.522  1.00  0.00     0.040 C 
BRANCH  11  12
ATOM     12  C   UNL     1     -15.587 -10.640  45.282  1.00  0.00     0.005 C 
BRANCH  12  13
ATOM     13  C   UNL     1     -14.840 -10.945  46.590  1.00  0.00    -0.003 C 
ATOM     14  C   UNL     1     -15.773 -11.022  47.798  1.00  0.00     0.004 C 
ENDBRANCH  12  13
ENDBRANCH  11  12
ENDBRANCH   2  11
BRANCH   3  15
ATOM     15  O   UNL     1     -17.897 -10.214  42.847  1.00  0.00    -0.508 OA
ATOM     16  H   UNL     1     -17.400 -11.038  43.161  1.00  0.00     0.293 HD
ENDBRANCH   3  15
TORSDOF 7
ENDMDL
MODEL 7
REMARK VINA RESULT:    -5.183      2.120      5.286
REMARK INTER + INTRA:          -8.243
REMARK INTER:                  -7.332
REMARK INTRA:                  -0.911
REMARK UNBOUND:                -1.090
REMARK SMILES CCCCc1cccc(O)c1CCCC
REMARK SMILES IDX 5 1 11 2 9 3 8 4 7 5 6 6 4 7 3 8 2 9 1 10 12 11 13 12 14 13
REMARK SMILES IDX 15 14 10 15
REMARK H PARENT 10 16
REMARK Flexibility Score: inf
ROOT
ATOM      1  C   UNL     1     -11.919  -7.590  39.409  1.00  0.00    -0.041 A 
ATOM      2  C   UNL     1     -12.154  -7.996  38.060  1.00  0.00    -0.003 A 
ATOM      3  C   UNL     1     -13.200  -7.396  37.323  1.00  0.00     0.119 A 
ATOM      4  C   UNL     1     -14.012  -6.425  37.913  1.00  0.00     0.046 A 
ATOM      5  C   UNL     1     -13.787  -6.025  39.224  1.00  0.00     0.004 A 
ATOM      6  C   UNL     1     -12.752  -6.592  39.964  1.00  0.00     0.004 A 
ENDROOT
BRANCH   1   7
ATOM      7  C   UNL     1     -10.780  -8.220  40.209  1.00  0.00     0.036 C 
BRANCH   7   8
ATOM      8  C   UNL     1     -10.933  -8.281  41.741  1.00  0.00     0.004 C 
BRANCH   8   9
ATOM      9  C   UNL     1     -10.212  -9.496  42.350  1.00  0.00    -0.003 C 
ATOM     10  C   UNL     1      -9.804 -10.491  41.267  1.00  0.00     0.004 C 
ENDBRANCH   8   9
ENDBRANCH   7   8
ENDBRANCH   1   7
BRANCH   2  11
ATOM     11  C   UNL     1     -11.261  -9.003  37.355  1.00  0.00     0.040 C 
BRANCH  11  12
ATOM     12  C   UNL     1     -10.137  -8.286  36.590  1.00  0.00     0.005 C 
BRANCH  12  13
ATOM     13  C   UNL     1      -8.751  -8.880  36.884  1.00  0.00    -0.003 C 
ATOM     14  C   UNL     1      -8.819 -10.150  37.732  1.00  0.00     0.004 C 
ENDBRANCH  12  13
ENDBRANCH  11  12
ENDBRANCH   2  11
BRANCH   3  15
ATOM     15  O   UNL     1     -13.428  -7.766  35.996  1.00  0.00    -0.508 OA
ATOM     16  H   UNL     1     -12.677  -8.082  35.395  1.00  0.00     0.293 HD
ENDBRANCH   3  15
TORSDOF 7
ENDMDL
MODEL 8
REMARK VINA RESULT:    -5.121      6.962      8.768
REMARK INTER + INTRA:          -8.156
REMARK INTER:                  -6.900
REMARK INTRA:                  -1.256
REMARK UNBOUND:                -1.090
REMARK SMILES CCCCc1cccc(O)c1CCCC
REMARK SMILES IDX 5 1 11 2 9 3 8 4 7 5 6 6 4 7 3 8 2 9 1 10 12 11 13 12 14 13
REMARK SMILES IDX 15 14 10 15
REMARK H PARENT 10 16
REMARK Flexibility Score: inf
ROOT
ATOM      1  C   UNL     1     -15.973  -9.670  44.853  1.00  0.00    -0.041 A 
ATOM      2  C   UNL     1     -16.062  -8.266  45.099  1.00  0.00    -0.003 A 
ATOM      3  C   UNL     1     -17.006  -7.491  44.386  1.00  0.00     0.119 A 
ATOM      4  C   UNL     1     -17.833  -8.090  43.433  1.00  0.00     0.046 A 
ATOM      5  C   UNL     1     -17.751  -9.455  43.190  1.00  0.00     0.004 A 
ATOM      6  C   UNL     1     -16.840 -10.240  43.893  1.00  0.00     0.004 A 
ENDROOT
BRANCH   1   7
ATOM      7  C   UNL     1     -14.968 -10.519  45.631  1.00  0.00     0.036 C 
BRANCH   7   8
ATOM      8  C   UNL     1     -15.483 -11.277  46.870  1.00  0.00     0.004 C 
BRANCH   8   9
ATOM      9  C   UNL     1     -14.338 -11.746  47.782  1.00  0.00    -0.003 C 
ATOM     10  C   UNL     1     -13.041 -11.011  47.457  1.00  0.00     0.004 C 
ENDBRANCH   8   9
ENDBRANCH   7   8
ENDBRANCH   1   7
BRANCH   2  11
ATOM     11  C   UNL     1     -15.228  -7.581  46.167  1.00  0.00     0.040 C 
BRANCH  11  12
ATOM     12  C   UNL     1     -15.964  -7.591  47.517  1.00  0.00     0.005 C 
BRANCH  12  13
ATOM     13  C   UNL     1     -15.036  -7.930  48.694  1.00  0.00    -0.003 C 
ATOM     14  C   UNL     1     -15.692  -8.858  49.715  1.00  0.00     0.004 C 
ENDBRANCH  12  13
ENDBRANCH  11  12
ENDBRANCH   2  11
BRANCH   3  15
ATOM     15  O   UNL     1     -17.121  -6.122  44.632  1.00  0.00    -0.508 OA
ATOM     16  H   UNL     1     -17.236  -5.454  43.880  1.00  0.00     0.293 HD
ENDBRANCH   3  15
TORSDOF 7
ENDMDL
MODEL 9
REMARK VINA RESULT:    -4.881      7.524      9.220
REMARK INTER + INTRA:          -7.826
REMARK INTER:                  -6.551
REMARK INTRA:                  -1.275
REMARK UNBOUND:                -1.090
REMARK SMILES CCCCc1cccc(O)c1CCCC
REMARK SMILES IDX 5 1 11 2 9 3 8 4 7 5 6 6 4 7 3 8 2 9 1 10 12 11 13 12 14 13
REMARK SMILES IDX 15 14 10 15
REMARK H PARENT 10 16
REMARK Flexibility Score: inf
ROOT
ATOM      1  C   UNL     1     -16.031 -10.374  46.242  1.00  0.00    -0.041 A 
ATOM      2  C   UNL     1     -16.744  -9.153  46.438  1.00  0.00    -0.003 A 
ATOM      3  C   UNL     1     -17.404  -8.547  45.345  1.00  0.00     0.119 A 
ATOM      4  C   UNL     1     -17.345  -9.128  44.076  1.00  0.00     0.046 A 
ATOM      5  C   UNL     1     -16.654 -10.317  43.880  1.00  0.00     0.004 A 
ATOM      6  C   UNL     1     -16.010 -10.939  44.947  1.00  0.00     0.004 A 
ENDROOT
BRANCH   1   7
ATOM      7  C   UNL     1     -15.328 -11.046  47.422  1.00  0.00     0.036 C 
BRANCH   7   8
ATOM      8  C   UNL     1     -13.793 -11.165  47.363  1.00  0.00     0.004 C 
BRANCH   8   9
ATOM      9  C   UNL     1     -13.115  -9.812  47.090  1.00  0.00    -0.003 C 
ATOM     10  C   UNL     1     -12.219  -9.886  45.858  1.00  0.00     0.004 C 
ENDBRANCH   8   9
ENDBRANCH   7   8
ENDBRANCH   1   7
BRANCH   2  11
ATOM     11  C   UNL     1     -16.888  -8.515  47.810  1.00  0.00     0.040 C 
BRANCH  11  12
ATOM     12  C   UNL     1     -15.816  -7.434  48.017  1.00  0.00     0.005 C 
BRANCH  12  13
ATOM     13  C   UNL     1     -15.466  -7.225  49.499  1.00  0.00    -0.003 C 
ATOM     14  C   UNL     1     -14.795  -8.448  50.125  1.00  0.00     0.004 C 
ENDBRANCH  12  13
ENDBRANCH  11  12
ENDBRANCH   2  11
BRANCH   3  15
ATOM     15  O   UNL     1     -18.125  -7.365  45.525  1.00  0.00    -0.508 OA
ATOM     16  H   UNL     1     -18.981  -7.341  46.065  1.00  0.00     0.293 HD
ENDBRANCH   3  15
TORSDOF 7
ENDMDL
