MODEL 1
REMARK VINA RESULT:    -4.391      0.000      0.000
REMARK INTER + INTRA:          -4.520
REMARK INTER:                  -4.520
REMARK INTRA:                   0.000
REMARK UNBOUND:                 0.000
REMARK SMILES Cc1cccc(O)c1C
REMARK SMILES IDX 1 1 2 2 8 3 6 4 5 5 4 6 3 7 9 8 7 9
REMARK H PARENT 7 10
REMARK Flexibility Score: inf
ROOT
ATOM      1  C   UNL     1     176.989 177.725 182.936  1.00  0.00     0.045 C 
ATOM      2  C   UNL     1     176.870 176.444 182.152  1.00  0.00    -0.045 A 
ATOM      3  C   UNL     1     177.005 176.410 180.735  1.00  0.00    -0.006 A 
ATOM      4  C   UNL     1     176.880 175.168 180.062  1.00  0.00     0.118 A 
ATOM      5  C   UNL     1     176.627 174.000 180.787  1.00  0.00     0.046 A 
ATOM      6  C   UNL     1     176.496 174.041 182.172  1.00  0.00     0.004 A 
ATOM      7  C   UNL     1     176.615 175.251 182.851  1.00  0.00     0.004 A 
ATOM      8  C   UNL     1     177.279 177.661 179.931  1.00  0.00     0.048 C 
ENDROOT
BRANCH   4   9
ATOM      9  O   UNL     1     177.001 175.058 178.674  1.00  0.00    -0.508 OA
ATOM     10  H   UNL     1     177.729 175.516 178.140  1.00  0.00     0.293 HD
ENDBRANCH   4   9
TORSDOF 1
ENDMDL
MODEL 2
REMARK VINA RESULT:    -4.222      1.042      2.614
REMARK INTER + INTRA:          -4.345
REMARK INTER:                  -4.345
REMARK INTRA:                   0.000
REMARK UNBOUND:                 0.000
REMARK SMILES Cc1cccc(O)c1C
REMARK SMILES IDX 1 1 2 2 8 3 6 4 5 5 4 6 3 7 9 8 7 9
REMARK H PARENT 7 10
REMARK Flexibility Score: inf
ROOT
ATOM      1  C   UNL     1     177.008 177.228 182.768  1.00  0.00     0.045 C 
ATOM      2  C   UNL     1     176.878 176.673 181.374  1.00  0.00    -0.045 A 
ATOM      3  C   UNL     1     176.873 175.274 181.114  1.00  0.00    -0.006 A 
ATOM      4  C   UNL     1     176.749 174.824 179.774  1.00  0.00     0.118 A 
ATOM      5  C   UNL     1     176.632 175.747 178.732  1.00  0.00     0.046 A 
ATOM      6  C   UNL     1     176.638 177.114 178.993  1.00  0.00     0.004 A 
ATOM      7  C   UNL     1     176.760 177.576 180.302  1.00  0.00     0.004 A 
ATOM      8  C   UNL     1     176.998 174.257 182.226  1.00  0.00     0.048 C 
ENDROOT
BRANCH   4   9
ATOM      9  O   UNL     1     176.736 173.465 179.445  1.00  0.00    -0.508 OA
ATOM     10  H   UNL     1     176.802 172.724 180.130  1.00  0.00     0.293 HD
ENDBRANCH   4   9
TORSDOF 1
ENDMDL
MODEL 3
REMARK VINA RESULT:    -4.078      0.827      2.603
REMARK INTER + INTRA:          -4.197
REMARK INTER:                  -4.197
REMARK INTRA:                   0.000
REMARK UNBOUND:                 0.000
REMARK SMILES Cc1cccc(O)c1C
REMARK SMILES IDX 1 1 2 2 8 3 6 4 5 5 4 6 3 7 9 8 7 9
REMARK H PARENT 7 10
REMARK Flexibility Score: inf
ROOT
ATOM      1  C   UNL     1     175.889 175.125 183.624  1.00  0.00     0.045 C 
ATOM      2  C   UNL     1     176.313 175.744 182.317  1.00  0.00    -0.045 A 
ATOM      3  C   UNL     1     176.503 174.968 181.139  1.00  0.00    -0.006 A 
ATOM      4  C   UNL     1     176.904 175.619 179.945  1.00  0.00     0.118 A 
ATOM      5  C   UNL     1     177.106 177.001 179.933  1.00  0.00     0.046 A 
ATOM      6  C   UNL     1     176.919 177.754 181.088  1.00  0.00     0.004 A 
ATOM      7  C   UNL     1     176.526 177.133 182.272  1.00  0.00     0.004 A 
ATOM      8  C   UNL     1     176.290 173.471 181.129  1.00  0.00     0.048 C 
ENDROOT
BRANCH   4   9
ATOM      9  O   UNL     1     177.109 174.921 178.751  1.00  0.00    -0.508 OA
ATOM     10  H   UNL     1     177.275 175.373 177.862  1.00  0.00     0.293 HD
ENDBRANCH   4   9
TORSDOF 1
ENDMDL
MODEL 4
REMARK VINA RESULT:    -4.065      2.348      2.855
REMARK INTER + INTRA:          -4.183
REMARK INTER:                  -4.183
REMARK INTRA:                   0.000
REMARK UNBOUND:                 0.000
REMARK SMILES Cc1cccc(O)c1C
REMARK SMILES IDX 1 1 2 2 8 3 6 4 5 5 4 6 3 7 9 8 7 9
REMARK H PARENT 7 10
REMARK Flexibility Score: inf
ROOT
ATOM      1  C   UNL     1     172.805 176.965 181.285  1.00  0.00     0.045 C 
ATOM      2  C   UNL     1     174.306 176.956 181.415  1.00  0.00    -0.045 A 
ATOM      3  C   UNL     1     175.163 177.134 180.293  1.00  0.00    -0.006 A 
ATOM      4  C   UNL     1     176.567 177.114 180.490  1.00  0.00     0.118 A 
ATOM      5  C   UNL     1     177.093 176.922 181.771  1.00  0.00     0.046 A 
ATOM      6  C   UNL     1     176.249 176.749 182.863  1.00  0.00     0.004 A 
ATOM      7  C   UNL     1     174.867 176.765 182.690  1.00  0.00     0.004 A 
ATOM      8  C   UNL     1     174.616 177.343 178.899  1.00  0.00     0.048 C 
ENDROOT
BRANCH   4   9
ATOM      9  O   UNL     1     177.469 177.282 179.435  1.00  0.00    -0.508 OA
ATOM     10  H   UNL     1     178.469 177.169 179.533  1.00  0.00     0.293 HD
ENDBRANCH   4   9
TORSDOF 1
ENDMDL
MODEL 5
REMARK VINA RESULT:    -4.031      2.494      3.400
REMARK INTER + INTRA:          -4.149
REMARK INTER:                  -4.149
REMARK INTRA:                   0.000
REMARK UNBOUND:                 0.000
REMARK SMILES Cc1cccc(O)c1C
REMARK SMILES IDX 1 1 2 2 8 3 6 4 5 5 4 6 3 7 9 8 7 9
REMARK H PARENT 7 10
REMARK Flexibility Score: inf
ROOT
ATOM      1  C   UNL     1     176.451 176.617 183.251  1.00  0.00     0.045 C 
ATOM      2  C   UNL     1     176.016 176.879 181.832  1.00  0.00    -0.045 A 
ATOM      3  C   UNL     1     174.644 176.993 181.470  1.00  0.00    -0.006 A 
ATOM      4  C   UNL     1     174.310 177.240 180.114  1.00  0.00     0.118 A 
ATOM      5  C   UNL     1     175.318 177.367 179.155  1.00  0.00     0.046 A 
ATOM      6  C   UNL     1     176.657 177.253 179.516  1.00  0.00     0.004 A 
ATOM      7  C   UNL     1     177.006 177.011 180.842  1.00  0.00     0.004 A 
ATOM      8  C   UNL     1     173.538 176.860 182.492  1.00  0.00     0.048 C 
ENDROOT
BRANCH   4   9
ATOM      9  O   UNL     1     172.985 177.364 179.687  1.00  0.00    -0.508 OA
ATOM     10  H   UNL     1     172.610 176.880 178.881  1.00  0.00     0.293 HD
ENDBRANCH   4   9
TORSDOF 1
ENDMDL
MODEL 6
REMARK VINA RESULT:    -3.964      2.682      4.002
REMARK INTER + INTRA:          -4.080
REMARK INTER:                  -4.080
REMARK INTRA:                   0.000
REMARK UNBOUND:                 0.000
REMARK SMILES Cc1cccc(O)c1C
REMARK SMILES IDX 1 1 2 2 8 3 6 4 5 5 4 6 3 7 9 8 7 9
REMARK H PARENT 7 10
REMARK Flexibility Score: inf
ROOT
ATOM      1  C   UNL     1     173.892 176.653 179.628  1.00  0.00     0.045 C 
ATOM      2  C   UNL     1     175.090 177.022 180.464  1.00  0.00    -0.045 A 
ATOM      3  C   UNL     1     175.198 176.653 181.834  1.00  0.00    -0.006 A 
ATOM      4  C   UNL     1     176.355 177.035 182.560  1.00  0.00     0.118 A 
ATOM      5  C   UNL     1     177.369 177.763 181.931  1.00  0.00     0.046 A 
ATOM      6  C   UNL     1     177.256 178.121 180.591  1.00  0.00     0.004 A 
ATOM      7  C   UNL     1     176.127 177.755 179.861  1.00  0.00     0.004 A 
ATOM      8  C   UNL     1     174.114 175.865 182.535  1.00  0.00     0.048 C 
ENDROOT
BRANCH   4   9
ATOM      9  O   UNL     1     176.530 176.708 183.907  1.00  0.00    -0.508 OA
ATOM     10  H   UNL     1     176.386 177.363 184.664  1.00  0.00     0.293 HD
ENDBRANCH   4   9
TORSDOF 1
ENDMDL
MODEL 7
REMARK VINA RESULT:    -3.957      1.035      1.702
REMARK INTER + INTRA:          -4.072
REMARK INTER:                  -4.072
REMARK INTRA:                   0.000
REMARK UNBOUND:                 0.000
REMARK SMILES Cc1cccc(O)c1C
REMARK SMILES IDX 1 1 2 2 8 3 6 4 5 5 4 6 3 7 9 8 7 9
REMARK H PARENT 7 10
REMARK Flexibility Score: inf
ROOT
ATOM      1  C   UNL     1     176.838 178.068 180.341  1.00  0.00     0.045 C 
ATOM      2  C   UNL     1     176.800 176.623 180.765  1.00  0.00    -0.045 A 
ATOM      3  C   UNL     1     176.688 175.561 179.823  1.00  0.00    -0.006 A 
ATOM      4  C   UNL     1     176.657 174.224 180.295  1.00  0.00     0.118 A 
ATOM      5  C   UNL     1     176.735 173.962 181.665  1.00  0.00     0.046 A 
ATOM      6  C   UNL     1     176.843 175.005 182.580  1.00  0.00     0.004 A 
ATOM      7  C   UNL     1     176.875 176.325 182.136  1.00  0.00     0.004 A 
ATOM      8  C   UNL     1     176.603 175.822 178.336  1.00  0.00     0.048 C 
ENDROOT
BRANCH   4   9
ATOM      9  O   UNL     1     176.550 173.133 179.429  1.00  0.00    -0.508 OA
ATOM     10  H   UNL     1     177.289 172.457 179.288  1.00  0.00     0.293 HD
ENDBRANCH   4   9
TORSDOF 1
ENDMDL
MODEL 8
REMARK VINA RESULT:    -3.792      2.556      2.831
REMARK INTER + INTRA:          -3.903
REMARK INTER:                  -3.903
REMARK INTRA:                   0.000
REMARK UNBOUND:                 0.000
REMARK SMILES Cc1cccc(O)c1C
REMARK SMILES IDX 1 1 2 2 8 3 6 4 5 5 4 6 3 7 9 8 7 9
REMARK H PARENT 7 10
REMARK Flexibility Score: inf
ROOT
ATOM      1  C   UNL     1     177.002 176.982 182.900  1.00  0.00     0.045 C 
ATOM      2  C   UNL     1     175.731 176.995 182.090  1.00  0.00    -0.045 A 
ATOM      3  C   UNL     1     175.716 177.355 180.713  1.00  0.00    -0.006 A 
ATOM      4  C   UNL     1     174.482 177.346 180.014  1.00  0.00     0.118 A 
ATOM      5  C   UNL     1     173.304 176.987 180.675  1.00  0.00     0.046 A 
ATOM      6  C   UNL     1     173.326 176.638 182.021  1.00  0.00     0.004 A 
ATOM      7  C   UNL     1     174.528 176.641 182.725  1.00  0.00     0.004 A 
ATOM      8  C   UNL     1     176.979 177.745 179.979  1.00  0.00     0.048 C 
ENDROOT
BRANCH   4   9
ATOM      9  O   UNL     1     174.392 177.687 178.661  1.00  0.00    -0.508 OA
ATOM     10  H   UNL     1     174.553 178.621 178.309  1.00  0.00     0.293 HD
ENDBRANCH   4   9
TORSDOF 1
ENDMDL
