MODEL 1
REMARK VINA RESULT:    -6.888      0.000      0.000
REMARK INTER + INTRA:         -11.624
REMARK INTER:                 -10.512
REMARK INTRA:                  -1.112
REMARK UNBOUND:                -1.112
REMARK SMILES CC(=O)CCC=C(C)CCC=C(C)CCC=C(C)C
REMARK SMILES IDX 10 1 11 2 12 3 13 4 14 5 15 6 16 7 18 8 17 9 19 10 9 11 7 12
REMARK SMILES IDX 6 13 8 14 5 15 4 16 2 17 3 18 1 19
REMARK H PARENT
REMARK Flexibility Score: inf
ROOT
ATOM      1  C   UNL     1      -9.760  74.483  29.023  1.00  0.00     0.032 C 
ENDROOT
BRANCH   1   2
ATOM      2  C   UNL     1     -10.110  74.835  27.599  1.00  0.00    -0.028 C 
ATOM      3  C   UNL     1      -9.688  74.153  26.510  1.00  0.00    -0.077 C 
ATOM      4  C   UNL     1      -8.778  72.953  26.620  1.00  0.00     0.039 C 
BRANCH   3   5
ATOM      5  C   UNL     1     -10.123  74.619  25.135  1.00  0.00     0.034 C 
BRANCH   5   6
ATOM      6  C   UNL     1     -10.296  73.447  24.158  1.00  0.00     0.032 C 
BRANCH   6   7
ATOM      7  C   UNL     1      -9.989  73.852  22.735  1.00  0.00    -0.028 C 
ATOM      8  C   UNL     1      -7.572  73.216  22.890  1.00  0.00     0.039 C 
ATOM      9  C   UNL     1      -8.768  73.780  22.161  1.00  0.00    -0.080 C 
ATOM     10  C   UNL     1      -8.613  74.262  20.743  1.00  0.00     0.039 C 
ENDBRANCH   6   7
ENDBRANCH   5   6
ENDBRANCH   3   5
ENDBRANCH   1   2
BRANCH   1  11
ATOM     11  C   UNL     1     -11.022  74.340  29.882  1.00  0.00     0.034 C 
BRANCH  11  12
ATOM     12  C   UNL     1     -11.279  72.887  30.228  1.00  0.00    -0.077 C 
ATOM     13  C   UNL     1     -11.087  72.376  31.467  1.00  0.00    -0.028 C 
ATOM     14  C   UNL     1     -11.786  71.963  29.150  1.00  0.00     0.039 C 
BRANCH  13  15
ATOM     15  C   UNL     1     -10.530  73.131  32.651  1.00  0.00     0.035 C 
BRANCH  15  16
ATOM     16  C   UNL     1     -11.526  73.147  33.815  1.00  0.00     0.079 C 
BRANCH  16  17
ATOM     17  C   UNL     1     -10.874  72.741  35.111  1.00  0.00     0.130 C 
ATOM     18  O   UNL     1      -9.746  72.270  35.096  1.00  0.00    -0.300 OA
ATOM     19  C   UNL     1     -11.585  72.894  36.422  1.00  0.00     0.087 C 
ENDBRANCH  16  17
ENDBRANCH  15  16
ENDBRANCH  13  15
ENDBRANCH  11  12
ENDBRANCH   1  11
TORSDOF 9
ENDMDL
MODEL 2
REMARK VINA RESULT:    -6.806      3.074      9.372
REMARK INTER + INTRA:         -11.499
REMARK INTER:                 -10.304
REMARK INTRA:                  -1.195
REMARK UNBOUND:                -1.112
REMARK SMILES CC(=O)CCC=C(C)CCC=C(C)CCC=C(C)C
REMARK SMILES IDX 10 1 11 2 12 3 13 4 14 5 15 6 16 7 18 8 17 9 19 10 9 11 7 12
REMARK SMILES IDX 6 13 8 14 5 15 4 16 2 17 3 18 1 19
REMARK H PARENT
REMARK Flexibility Score: inf
ROOT
ATOM      1  C   UNL     1      -9.141  73.007  30.330  1.00  0.00     0.032 C 
ENDROOT
BRANCH   1   2
ATOM      2  C   UNL     1     -10.074  72.707  31.477  1.00  0.00    -0.028 C 
ATOM      3  C   UNL     1     -10.765  73.639  32.172  1.00  0.00    -0.077 C 
ATOM      4  C   UNL     1     -10.646  75.115  31.871  1.00  0.00     0.039 C 
BRANCH   3   5
ATOM      5  C   UNL     1     -11.672  73.194  33.302  1.00  0.00     0.034 C 
BRANCH   5   6
ATOM      6  C   UNL     1     -10.883  72.573  34.464  1.00  0.00     0.032 C 
BRANCH   6   7
ATOM      7  C   UNL     1     -11.517  72.880  35.801  1.00  0.00    -0.028 C 
ATOM      8  C   UNL     1     -10.075  71.257  37.051  1.00  0.00     0.039 C 
ATOM      9  C   UNL     1     -11.184  72.278  36.965  1.00  0.00    -0.080 C 
ATOM     10  C   UNL     1     -11.938  72.663  38.210  1.00  0.00     0.039 C 
ENDBRANCH   6   7
ENDBRANCH   5   6
ENDBRANCH   3   5
ENDBRANCH   1   2
BRANCH   1  11
ATOM     11  C   UNL     1      -9.594  72.293  29.052  1.00  0.00     0.034 C 
BRANCH  11  12
ATOM     12  C   UNL     1     -10.970  72.767  28.627  1.00  0.00    -0.077 C 
ATOM     13  C   UNL     1     -11.173  73.875  27.877  1.00  0.00    -0.028 C 
ATOM     14  C   UNL     1     -12.175  71.963  29.044  1.00  0.00     0.039 C 
BRANCH  13  15
ATOM     15  C   UNL     1     -10.097  74.833  27.419  1.00  0.00     0.035 C 
BRANCH  15  16
ATOM     16  C   UNL     1     -10.086  74.965  25.893  1.00  0.00     0.079 C 
BRANCH  16  17
ATOM     17  C   UNL     1      -9.802  73.647  25.222  1.00  0.00     0.130 C 
ATOM     18  O   UNL     1     -10.599  73.200  24.410  1.00  0.00    -0.300 OA
ATOM     19  C   UNL     1      -8.563  72.865  25.538  1.00  0.00     0.087 C 
ENDBRANCH  16  17
ENDBRANCH  15  16
ENDBRANCH  13  15
ENDBRANCH  11  12
ENDBRANCH   1  11
TORSDOF 9
ENDMDL
MODEL 3
REMARK VINA RESULT:    -6.641      1.367      2.124
REMARK INTER + INTRA:         -11.247
REMARK INTER:                 -10.348
REMARK INTRA:                  -0.898
REMARK UNBOUND:                -1.112
REMARK SMILES CC(=O)CCC=C(C)CCC=C(C)CCC=C(C)C
REMARK SMILES IDX 10 1 11 2 12 3 13 4 14 5 15 6 16 7 18 8 17 9 19 10 9 11 7 12
REMARK SMILES IDX 6 13 8 14 5 15 4 16 2 17 3 18 1 19
REMARK H PARENT
REMARK Flexibility Score: inf
ROOT
ATOM      1  C   UNL     1     -10.773  74.696  30.428  1.00  0.00     0.032 C 
ENDROOT
BRANCH   1   2
ATOM      2  C   UNL     1      -9.802  74.626  29.275  1.00  0.00    -0.028 C 
ATOM      3  C   UNL     1     -10.131  74.274  28.011  1.00  0.00    -0.077 C 
ATOM      4  C   UNL     1     -11.539  73.884  27.629  1.00  0.00     0.039 C 
BRANCH   3   5
ATOM      5  C   UNL     1      -9.050  74.250  26.949  1.00  0.00     0.034 C 
BRANCH   5   6
ATOM      6  C   UNL     1      -9.442  73.374  25.749  1.00  0.00     0.032 C 
BRANCH   6   7
ATOM      7  C   UNL     1      -9.254  74.101  24.438  1.00  0.00    -0.028 C 
ATOM      8  C   UNL     1     -11.022  72.779  23.254  1.00  0.00     0.039 C 
ATOM      9  C   UNL     1      -9.936  73.827  23.303  1.00  0.00    -0.080 C 
ATOM     10  C   UNL     1      -9.605  74.613  22.062  1.00  0.00     0.039 C 
ENDBRANCH   6   7
ENDBRANCH   5   6
ENDBRANCH   3   5
ENDBRANCH   1   2
BRANCH   1  11
ATOM     11  C   UNL     1     -10.211  73.984  31.664  1.00  0.00     0.034 C 
BRANCH  11  12
ATOM     12  C   UNL     1     -10.947  72.683  31.918  1.00  0.00    -0.077 C 
ATOM     13  C   UNL     1     -11.107  72.150  33.153  1.00  0.00    -0.028 C 
ATOM     14  C   UNL     1     -11.544  71.946  30.746  1.00  0.00     0.039 C 
BRANCH  13  15
ATOM     15  C   UNL     1     -10.529  72.713  34.431  1.00  0.00     0.035 C 
BRANCH  15  16
ATOM     16  C   UNL     1     -11.606  72.847  35.513  1.00  0.00     0.079 C 
BRANCH  16  17
ATOM     17  C   UNL     1     -11.109  72.376  36.854  1.00  0.00     0.130 C 
ATOM     18  O   UNL     1     -11.603  72.834  37.874  1.00  0.00    -0.300 OA
ATOM     19  C   UNL     1     -10.012  71.360  36.965  1.00  0.00     0.087 C 
ENDBRANCH  16  17
ENDBRANCH  15  16
ENDBRANCH  13  15
ENDBRANCH  11  12
ENDBRANCH   1  11
TORSDOF 9
ENDMDL
MODEL 4
REMARK VINA RESULT:    -6.622      1.268      1.816
REMARK INTER + INTRA:         -11.219
REMARK INTER:                 -10.092
REMARK INTRA:                  -1.127
REMARK UNBOUND:                -1.112
REMARK SMILES CC(=O)CCC=C(C)CCC=C(C)CCC=C(C)C
REMARK SMILES IDX 10 1 11 2 12 3 13 4 14 5 15 6 16 7 18 8 17 9 19 10 9 11 7 12
REMARK SMILES IDX 6 13 8 14 5 15 4 16 2 17 3 18 1 19
REMARK H PARENT
REMARK Flexibility Score: inf
ROOT
ATOM      1  C   UNL     1     -11.928  73.535  29.072  1.00  0.00     0.032 C 
ENDROOT
BRANCH   1   2
ATOM      2  C   UNL     1     -11.619  73.795  27.618  1.00  0.00    -0.028 C 
ATOM      3  C   UNL     1     -10.530  74.458  27.168  1.00  0.00    -0.077 C 
ATOM      4  C   UNL     1      -9.502  75.041  28.109  1.00  0.00     0.039 C 
BRANCH   3   5
ATOM      5  C   UNL     1     -10.344  74.643  25.675  1.00  0.00     0.034 C 
BRANCH   5   6
ATOM      6  C   UNL     1      -9.987  73.326  24.972  1.00  0.00     0.032 C 
BRANCH   6   7
ATOM      7  C   UNL     1      -8.697  73.437  24.192  1.00  0.00    -0.028 C 
ATOM      8  C   UNL     1      -9.817  74.321  22.132  1.00  0.00     0.039 C 
ATOM      9  C   UNL     1      -8.608  73.855  22.910  1.00  0.00    -0.080 C 
ATOM     10  C   UNL     1      -7.253  73.872  22.254  1.00  0.00     0.039 C 
ENDBRANCH   6   7
ENDBRANCH   5   6
ENDBRANCH   3   5
ENDBRANCH   1   2
BRANCH   1  11
ATOM     11  C   UNL     1     -11.596  72.088  29.454  1.00  0.00     0.034 C 
BRANCH  11  12
ATOM     12  C   UNL     1     -10.317  72.022  30.264  1.00  0.00    -0.077 C 
ATOM     13  C   UNL     1     -10.290  72.102  31.615  1.00  0.00    -0.028 C 
ATOM     14  C   UNL     1      -9.007  71.846  29.539  1.00  0.00     0.039 C 
BRANCH  13  15
ATOM     15  C   UNL     1     -11.490  72.338  32.504  1.00  0.00     0.035 C 
BRANCH  15  16
ATOM     16  C   UNL     1     -11.198  73.414  33.555  1.00  0.00     0.079 C 
BRANCH  16  17
ATOM     17  C   UNL     1     -11.028  72.819  34.928  1.00  0.00     0.130 C 
ATOM     18  O   UNL     1     -11.867  73.043  35.788  1.00  0.00    -0.300 OA
ATOM     19  C   UNL     1      -9.845  71.962  35.264  1.00  0.00     0.087 C 
ENDBRANCH  16  17
ENDBRANCH  15  16
ENDBRANCH  13  15
ENDBRANCH  11  12
ENDBRANCH   1  11
TORSDOF 9
ENDMDL
MODEL 5
REMARK VINA RESULT:    -6.566      2.971     10.356
REMARK INTER + INTRA:         -11.133
REMARK INTER:                 -10.187
REMARK INTRA:                  -0.946
REMARK UNBOUND:                -1.112
REMARK SMILES CC(=O)CCC=C(C)CCC=C(C)CCC=C(C)C
REMARK SMILES IDX 10 1 11 2 12 3 13 4 14 5 15 6 16 7 18 8 17 9 19 10 9 11 7 12
REMARK SMILES IDX 6 13 8 14 5 15 4 16 2 17 3 18 1 19
REMARK H PARENT
REMARK Flexibility Score: inf
ROOT
ATOM      1  C   UNL     1     -10.661  71.997  31.079  1.00  0.00     0.032 C 
ENDROOT
BRANCH   1   2
ATOM      2  C   UNL     1     -10.240  71.733  32.503  1.00  0.00    -0.028 C 
ATOM      3  C   UNL     1     -10.806  72.302  33.592  1.00  0.00    -0.077 C 
ATOM      4  C   UNL     1     -11.932  73.302  33.479  1.00  0.00     0.039 C 
BRANCH   3   5
ATOM      5  C   UNL     1     -10.283  71.941  34.968  1.00  0.00     0.034 C 
BRANCH   5   6
ATOM      6  C   UNL     1     -11.268  72.330  36.080  1.00  0.00     0.032 C 
BRANCH   6   7
ATOM      7  C   UNL     1     -11.149  71.421  37.280  1.00  0.00    -0.028 C 
ATOM      8  C   UNL     1     -12.234  73.052  38.842  1.00  0.00     0.039 C 
ATOM      9  C   UNL     1     -11.552  71.741  38.530  1.00  0.00    -0.080 C 
ATOM     10  C   UNL     1     -11.326  70.741  39.634  1.00  0.00     0.039 C 
ENDBRANCH   6   7
ENDBRANCH   5   6
ENDBRANCH   3   5
ENDBRANCH   1   2
BRANCH   1  11
ATOM     11  C   UNL     1      -9.484  72.513  30.244  1.00  0.00     0.034 C 
BRANCH  11  12
ATOM     12  C   UNL     1      -9.683  73.969  29.871  1.00  0.00    -0.077 C 
ATOM     13  C   UNL     1     -10.116  74.368  28.652  1.00  0.00    -0.028 C 
ATOM     14  C   UNL     1      -9.402  75.028  30.906  1.00  0.00     0.039 C 
BRANCH  13  15
ATOM     15  C   UNL     1     -10.389  73.458  27.476  1.00  0.00     0.035 C 
BRANCH  15  16
ATOM     16  C   UNL     1      -9.095  73.113  26.731  1.00  0.00     0.079 C 
BRANCH  16  17
ATOM     17  C   UNL     1      -9.259  73.247  25.240  1.00  0.00     0.130 C 
ATOM     18  O   UNL     1      -8.860  72.354  24.508  1.00  0.00    -0.300 OA
ATOM     19  C   UNL     1      -9.896  74.461  24.634  1.00  0.00     0.087 C 
ENDBRANCH  16  17
ENDBRANCH  15  16
ENDBRANCH  13  15
ENDBRANCH  11  12
ENDBRANCH   1  11
TORSDOF 9
ENDMDL
MODEL 6
REMARK VINA RESULT:    -6.499      1.316      2.211
REMARK INTER + INTRA:         -11.031
REMARK INTER:                  -9.751
REMARK INTRA:                  -1.279
REMARK UNBOUND:                -1.112
REMARK SMILES CC(=O)CCC=C(C)CCC=C(C)CCC=C(C)C
REMARK SMILES IDX 10 1 11 2 12 3 13 4 14 5 15 6 16 7 18 8 17 9 19 10 9 11 7 12
REMARK SMILES IDX 6 13 8 14 5 15 4 16 2 17 3 18 1 19
REMARK H PARENT
REMARK Flexibility Score: inf
ROOT
ATOM      1  C   UNL     1      -9.956  74.763  27.398  1.00  0.00     0.032 C 
ENDROOT
BRANCH   1   2
ATOM      2  C   UNL     1      -8.970  73.917  26.632  1.00  0.00    -0.028 C 
ATOM      3  C   UNL     1      -9.202  73.375  25.414  1.00  0.00    -0.077 C 
ATOM      4  C   UNL     1     -10.519  73.553  24.697  1.00  0.00     0.039 C 
BRANCH   3   5
ATOM      5  C   UNL     1      -8.116  72.547  24.757  1.00  0.00     0.034 C 
BRANCH   5   6
ATOM      6  C   UNL     1      -8.540  72.035  23.373  1.00  0.00     0.032 C 
BRANCH   6   7
ATOM      7  C   UNL     1      -7.598  72.504  22.288  1.00  0.00    -0.028 C 
ATOM      8  C   UNL     1      -9.168  74.265  21.445  1.00  0.00     0.039 C 
ATOM      9  C   UNL     1      -7.877  73.483  21.399  1.00  0.00    -0.080 C 
ATOM     10  C   UNL     1      -6.850  73.809  20.347  1.00  0.00     0.039 C 
ENDBRANCH   6   7
ENDBRANCH   5   6
ENDBRANCH   3   5
ENDBRANCH   1   2
BRANCH   1  11
ATOM     11  C   UNL     1     -10.149  74.229  28.822  1.00  0.00     0.034 C 
BRANCH  11  12
ATOM     12  C   UNL     1     -11.402  73.381  28.915  1.00  0.00    -0.077 C 
ATOM     13  C   UNL     1     -11.629  72.501  29.919  1.00  0.00    -0.028 C 
ATOM     14  C   UNL     1     -12.459  73.529  27.850  1.00  0.00     0.039 C 
BRANCH  13  15
ATOM     15  C   UNL     1     -10.663  72.177  31.036  1.00  0.00     0.035 C 
BRANCH  15  16
ATOM     16  C   UNL     1     -11.354  72.242  32.401  1.00  0.00     0.079 C 
BRANCH  16  17
ATOM     17  C   UNL     1     -11.001  73.505  33.143  1.00  0.00     0.130 C 
ATOM     18  O   UNL     1     -10.828  73.464  34.352  1.00  0.00    -0.300 OA
ATOM     19  C   UNL     1     -10.866  74.815  32.428  1.00  0.00     0.087 C 
ENDBRANCH  16  17
ENDBRANCH  15  16
ENDBRANCH  13  15
ENDBRANCH  11  12
ENDBRANCH   1  11
TORSDOF 9
ENDMDL
MODEL 7
REMARK VINA RESULT:    -6.482      3.371      8.469
REMARK INTER + INTRA:         -11.004
REMARK INTER:                  -9.479
REMARK INTRA:                  -1.525
REMARK UNBOUND:                -1.112
REMARK SMILES CC(=O)CCC=C(C)CCC=C(C)CCC=C(C)C
REMARK SMILES IDX 10 1 11 2 12 3 13 4 14 5 15 6 16 7 18 8 17 9 19 10 9 11 7 12
REMARK SMILES IDX 6 13 8 14 5 15 4 16 2 17 3 18 1 19
REMARK H PARENT
REMARK Flexibility Score: inf
ROOT
ATOM      1  C   UNL     1      -9.286  73.740  26.914  1.00  0.00     0.032 C 
ENDROOT
BRANCH   1   2
ATOM      2  C   UNL     1      -9.833  72.895  28.037  1.00  0.00    -0.028 C 
ATOM      3  C   UNL     1     -11.124  72.892  28.441  1.00  0.00    -0.077 C 
ATOM      4  C   UNL     1     -12.165  73.780  27.802  1.00  0.00     0.039 C 
BRANCH   3   5
ATOM      5  C   UNL     1     -11.536  71.986  29.584  1.00  0.00     0.034 C 
BRANCH   5   6
ATOM      6  C   UNL     1     -10.743  72.279  30.866  1.00  0.00     0.032 C 
BRANCH   6   7
ATOM      7  C   UNL     1     -11.172  73.578  31.507  1.00  0.00    -0.028 C 
ATOM      8  C   UNL     1      -9.057  74.776  30.899  1.00  0.00     0.039 C 
ATOM      9  C   UNL     1     -10.415  74.698  31.554  1.00  0.00    -0.080 C 
ATOM     10  C   UNL     1     -10.966  75.904  32.268  1.00  0.00     0.039 C 
ENDBRANCH   6   7
ENDBRANCH   5   6
ENDBRANCH   3   5
ENDBRANCH   1   2
BRANCH   1  11
ATOM     11  C   UNL     1      -8.677  72.864  25.813  1.00  0.00     0.034 C 
BRANCH  11  12
ATOM     12  C   UNL     1      -9.161  73.302  24.445  1.00  0.00    -0.077 C 
ATOM     13  C   UNL     1      -8.800  72.680  23.297  1.00  0.00    -0.028 C 
ATOM     14  C   UNL     1     -10.101  74.477  24.349  1.00  0.00     0.039 C 
BRANCH  13  15
ATOM     15  C   UNL     1      -7.826  71.530  23.192  1.00  0.00     0.035 C 
BRANCH  15  16
ATOM     16  C   UNL     1      -6.398  72.034  22.961  1.00  0.00     0.079 C 
BRANCH  16  17
ATOM     17  C   UNL     1      -5.493  71.691  24.116  1.00  0.00     0.130 C 
ATOM     18  O   UNL     1      -4.627  72.483  24.457  1.00  0.00    -0.300 OA
ATOM     19  C   UNL     1      -5.628  70.392  24.851  1.00  0.00     0.087 C 
ENDBRANCH  16  17
ENDBRANCH  15  16
ENDBRANCH  13  15
ENDBRANCH  11  12
ENDBRANCH   1  11
TORSDOF 9
ENDMDL
MODEL 8
REMARK VINA RESULT:    -6.467      3.862      6.041
REMARK INTER + INTRA:         -10.982
REMARK INTER:                  -9.666
REMARK INTRA:                  -1.317
REMARK UNBOUND:                -1.112
REMARK SMILES CC(=O)CCC=C(C)CCC=C(C)CCC=C(C)C
REMARK SMILES IDX 10 1 11 2 12 3 13 4 14 5 15 6 16 7 18 8 17 9 19 10 9 11 7 12
REMARK SMILES IDX 6 13 8 14 5 15 4 16 2 17 3 18 1 19
REMARK H PARENT
REMARK Flexibility Score: inf
ROOT
ATOM      1  C   UNL     1     -11.073  72.728  33.294  1.00  0.00     0.032 C 
ENDROOT
BRANCH   1   2
ATOM      2  C   UNL     1     -10.289  73.229  32.107  1.00  0.00    -0.028 C 
ATOM      3  C   UNL     1     -10.182  74.529  31.747  1.00  0.00    -0.077 C 
ATOM      4  C   UNL     1     -10.878  75.631  32.509  1.00  0.00     0.039 C 
BRANCH   3   5
ATOM      5  C   UNL     1      -9.355  74.890  30.529  1.00  0.00     0.034 C 
BRANCH   5   6
ATOM      6  C   UNL     1      -9.544  73.883  29.385  1.00  0.00     0.032 C 
BRANCH   6   7
ATOM      7  C   UNL     1     -10.829  74.126  28.628  1.00  0.00    -0.028 C 
ATOM      8  C   UNL     1     -11.796  71.889  29.207  1.00  0.00     0.039 C 
ATOM      9  C   UNL     1     -11.836  73.232  28.517  1.00  0.00    -0.080 C 
ATOM     10  C   UNL     1     -13.039  73.607  27.692  1.00  0.00     0.039 C 
ENDBRANCH   6   7
ENDBRANCH   5   6
ENDBRANCH   3   5
ENDBRANCH   1   2
BRANCH   1  11
ATOM     11  C   UNL     1     -10.271  71.688  34.084  1.00  0.00     0.034 C 
BRANCH  11  12
ATOM     12  C   UNL     1     -10.119  72.108  35.532  1.00  0.00    -0.077 C 
ATOM     13  C   UNL     1      -9.520  71.335  36.469  1.00  0.00    -0.028 C 
ATOM     14  C   UNL     1     -10.646  73.455  35.956  1.00  0.00     0.039 C 
BRANCH  13  15
ATOM     15  C   UNL     1      -8.989  69.938  36.245  1.00  0.00     0.035 C 
BRANCH  15  16
ATOM     16  C   UNL     1      -7.519  69.831  36.665  1.00  0.00     0.079 C 
BRANCH  16  17
ATOM     17  C   UNL     1      -6.778  68.812  35.840  1.00  0.00     0.130 C 
ATOM     18  O   UNL     1      -5.619  68.541  36.118  1.00  0.00    -0.300 OA
ATOM     19  C   UNL     1      -7.431  68.128  34.678  1.00  0.00     0.087 C 
ENDBRANCH  16  17
ENDBRANCH  15  16
ENDBRANCH  13  15
ENDBRANCH  11  12
ENDBRANCH   1  11
TORSDOF 9
ENDMDL
MODEL 9
REMARK VINA RESULT:    -6.432      1.472      2.954
REMARK INTER + INTRA:         -10.929
REMARK INTER:                  -9.668
REMARK INTRA:                  -1.260
REMARK UNBOUND:                -1.112
REMARK SMILES CC(=O)CCC=C(C)CCC=C(C)CCC=C(C)C
REMARK SMILES IDX 10 1 11 2 12 3 13 4 14 5 15 6 16 7 18 8 17 9 19 10 9 11 7 12
REMARK SMILES IDX 6 13 8 14 5 15 4 16 2 17 3 18 1 19
REMARK H PARENT
REMARK Flexibility Score: inf
ROOT
ATOM      1  C   UNL     1     -10.013  73.473  26.302  1.00  0.00     0.032 C 
ENDROOT
BRANCH   1   2
ATOM      2  C   UNL     1      -9.385  74.104  25.084  1.00  0.00    -0.028 C 
ATOM      3  C   UNL     1      -9.768  73.868  23.809  1.00  0.00    -0.077 C 
ATOM      4  C   UNL     1     -10.878  72.900  23.473  1.00  0.00     0.039 C 
BRANCH   3   5
ATOM      5  C   UNL     1      -9.048  74.578  22.680  1.00  0.00     0.034 C 
BRANCH   5   6
ATOM      6  C   UNL     1      -8.139  73.627  21.888  1.00  0.00     0.032 C 
BRANCH   6   7
ATOM      7  C   UNL     1      -6.792  73.456  22.550  1.00  0.00    -0.028 C 
ATOM      8  C   UNL     1      -7.311  71.160  23.408  1.00  0.00     0.039 C 
ATOM      9  C   UNL     1      -6.416  72.367  23.258  1.00  0.00    -0.080 C 
ATOM     10  C   UNL     1      -5.052  72.363  23.895  1.00  0.00     0.039 C 
ENDBRANCH   6   7
ENDBRANCH   5   6
ENDBRANCH   3   5
ENDBRANCH   1   2
BRANCH   1  11
ATOM     11  C   UNL     1     -10.378  74.534  27.346  1.00  0.00     0.034 C 
BRANCH  11  12
ATOM     12  C   UNL     1     -11.453  74.023  28.283  1.00  0.00    -0.077 C 
ATOM     13  C   UNL     1     -11.300  73.968  29.627  1.00  0.00    -0.028 C 
ATOM     14  C   UNL     1     -12.765  73.563  27.700  1.00  0.00     0.039 C 
BRANCH  13  15
ATOM     15  C   UNL     1     -10.040  74.327  30.382  1.00  0.00     0.035 C 
BRANCH  15  16
ATOM     16  C   UNL     1     -10.328  74.536  31.872  1.00  0.00     0.079 C 
BRANCH  16  17
ATOM     17  C   UNL     1     -10.761  73.257  32.539  1.00  0.00     0.130 C 
ATOM     18  O   UNL     1     -10.128  72.231  32.343  1.00  0.00    -0.300 OA
ATOM     19  C   UNL     1     -11.962  73.216  33.436  1.00  0.00     0.087 C 
ENDBRANCH  16  17
ENDBRANCH  15  16
ENDBRANCH  13  15
ENDBRANCH  11  12
ENDBRANCH   1  11
TORSDOF 9
ENDMDL
