MODEL 1
REMARK VINA RESULT:    -5.084      0.000      0.000
REMARK INTER + INTRA:          -6.640
REMARK INTER:                  -6.273
REMARK INTRA:                  -0.367
REMARK UNBOUND:                -0.367
REMARK SMILES O=c1c(O)c(-c2cc(O)c(O)c(O)c2)oc2cc(O)cc(O)c12
REMARK SMILES IDX 5 1 3 2 2 3 1 4 23 5 21 6 20 7 18 8 17 9 16 10 15 11 6 12
REMARK SMILES IDX 7 13 8 14 14 15 10 16 12 17 9 18 11 20 13 22 4 24 22 26
REMARK SMILES IDX 19 28
REMARK H PARENT 9 19 11 21 13 23 4 25 22 27 19 29
REMARK Flexibility Score: inf
ROOT
ATOM      1  C   UNL     1     147.376 150.986 137.145  1.00  0.00     0.180 A 
ATOM      2  C   UNL     1     148.091 151.886 136.335  1.00  0.00     0.208 A 
ATOM      3  C   UNL     1     149.494 151.895 136.399  1.00  0.00     0.238 A 
ATOM      4  O   UNL     1     150.129 152.663 135.631  1.00  0.00    -0.285 OA
ATOM      5  C   UNL     1     150.164 151.016 137.282  1.00  0.00     0.111 A 
ATOM      6  C   UNL     1     151.579 150.966 137.458  1.00  0.00     0.134 A 
ATOM      7  C   UNL     1     152.140 149.968 138.263  1.00  0.00     0.093 A 
ATOM      8  C   UNL     1     151.334 149.058 138.951  1.00  0.00     0.123 A 
ATOM      9  C   UNL     1     149.949 149.136 138.833  1.00  0.00     0.094 A 
ATOM     10  C   UNL     1     149.360 150.097 138.008  1.00  0.00     0.146 A 
ATOM     11  O   UNL     1     148.036 150.129 137.915  1.00  0.00    -0.452 OA
ENDROOT
BRANCH   1  12
ATOM     12  C   UNL     1     145.897 150.937 137.152  1.00  0.00     0.029 A 
ATOM     13  C   UNL     1     145.140 151.773 137.991  1.00  0.00     0.062 A 
ATOM     14  C   UNL     1     143.741 151.695 138.000  1.00  0.00     0.162 A 
ATOM     15  C   UNL     1     145.234 149.997 136.347  1.00  0.00     0.062 A 
ATOM     16  C   UNL     1     143.084 150.766 137.174  1.00  0.00     0.200 A 
ATOM     17  C   UNL     1     143.838 149.913 136.349  1.00  0.00     0.162 A 
BRANCH  14  18
ATOM     18  O   UNL     1     143.000 152.534 138.831  1.00  0.00    -0.504 OA
ATOM     19  H   UNL     1     143.446 153.118 139.530  1.00  0.00     0.293 HD
ENDBRANCH  14  18
BRANCH  16  20
ATOM     20  O   UNL     1     141.692 150.678 137.167  1.00  0.00    -0.502 OA
ATOM     21  H   UNL     1     141.125 151.033 137.928  1.00  0.00     0.293 HD
ENDBRANCH  16  20
BRANCH  17  22
ATOM     22  O   UNL     1     143.217 148.976 135.523  1.00  0.00    -0.504 OA
ATOM     23  H   UNL     1     142.270 149.099 135.187  1.00  0.00     0.293 HD
ENDBRANCH  17  22
ENDBRANCH   1  12
BRANCH   2  24
ATOM     24  O   UNL     1     147.409 152.730 135.452  1.00  0.00    -0.502 OA
ATOM     25  H   UNL     1     147.841 153.103 134.615  1.00  0.00     0.293 HD
ENDBRANCH   2  24
BRANCH   6  26
ATOM     26  O   UNL     1     152.468 151.884 136.891  1.00  0.00    -0.507 OA
ATOM     27  H   UNL     1     152.913 151.773 135.992  1.00  0.00     0.293 HD
ENDBRANCH   6  26
BRANCH   8  28
ATOM     28  O   UNL     1     151.900 148.077 139.763  1.00  0.00    -0.508 OA
ATOM     29  H   UNL     1     151.816 148.111 140.772  1.00  0.00     0.293 HD
ENDBRANCH   8  28
TORSDOF 7
ENDMDL
MODEL 2
REMARK VINA RESULT:    -5.073      5.504      8.283
REMARK INTER + INTRA:          -6.626
REMARK INTER:                  -6.264
REMARK INTRA:                  -0.362
REMARK UNBOUND:                -0.367
REMARK SMILES O=c1c(O)c(-c2cc(O)c(O)c(O)c2)oc2cc(O)cc(O)c12
REMARK SMILES IDX 5 1 3 2 2 3 1 4 23 5 21 6 20 7 18 8 17 9 16 10 15 11 6 12
REMARK SMILES IDX 7 13 8 14 14 15 10 16 12 17 9 18 11 20 13 22 4 24 22 26
REMARK SMILES IDX 19 28
REMARK H PARENT 9 19 11 21 13 23 4 25 22 27 19 29
REMARK Flexibility Score: inf
ROOT
ATOM      1  C   UNL     1     141.645 147.358 137.165  1.00  0.00     0.180 A 
ATOM      2  C   UNL     1     140.748 148.062 136.343  1.00  0.00     0.208 A 
ATOM      3  C   UNL     1     140.736 149.465 136.392  1.00  0.00     0.238 A 
ATOM      4  O   UNL     1     139.970 150.091 135.613  1.00  0.00    -0.285 OA
ATOM      5  C   UNL     1     141.609 150.146 137.273  1.00  0.00     0.111 A 
ATOM      6  C   UNL     1     141.655 151.564 137.434  1.00  0.00     0.134 A 
ATOM      7  C   UNL     1     142.648 152.135 138.238  1.00  0.00     0.093 A 
ATOM      8  C   UNL     1     143.555 151.338 138.939  1.00  0.00     0.123 A 
ATOM      9  C   UNL     1     143.481 149.952 138.836  1.00  0.00     0.094 A 
ATOM     10  C   UNL     1     142.525 149.352 138.012  1.00  0.00     0.146 A 
ATOM     11  O   UNL     1     142.496 148.027 137.933  1.00  0.00    -0.452 OA
ENDROOT
BRANCH   1  12
ATOM     12  C   UNL     1     141.697 145.879 137.188  1.00  0.00     0.029 A 
ATOM     13  C   UNL     1     140.826 145.128 137.996  1.00  0.00     0.062 A 
ATOM     14  C   UNL     1     140.906 143.729 138.021  1.00  0.00     0.162 A 
ATOM     15  C   UNL     1     142.673 145.211 136.432  1.00  0.00     0.062 A 
ATOM     16  C   UNL     1     141.872 143.067 137.243  1.00  0.00     0.200 A 
ATOM     17  C   UNL     1     142.760 143.815 136.450  1.00  0.00     0.162 A 
BRANCH  14  18
ATOM     18  O   UNL     1     140.033 142.993 138.821  1.00  0.00    -0.504 OA
ATOM     19  H   UNL     1     140.322 142.617 139.716  1.00  0.00     0.293 HD
ENDBRANCH  14  18
BRANCH  16  20
ATOM     20  O   UNL     1     141.964 141.675 137.254  1.00  0.00    -0.502 OA
ATOM     21  H   UNL     1     141.659 141.108 136.472  1.00  0.00     0.293 HD
ENDBRANCH  16  20
BRANCH  17  22
ATOM     22  O   UNL     1     143.735 143.189 135.674  1.00  0.00    -0.504 OA
ATOM     23  H   UNL     1     143.804 143.337 134.674  1.00  0.00     0.293 HD
ENDBRANCH  17  22
ENDBRANCH   1  12
BRANCH   2  24
ATOM     24  O   UNL     1     139.910 147.370 135.463  1.00  0.00    -0.502 OA
ATOM     25  H   UNL     1     140.269 146.777 134.724  1.00  0.00     0.293 HD
ENDBRANCH   2  24
BRANCH   6  26
ATOM     26  O   UNL     1     140.738 152.445 136.853  1.00  0.00    -0.507 OA
ATOM     27  H   UNL     1     140.680 152.645 135.866  1.00  0.00     0.293 HD
ENDBRANCH   6  26
BRANCH   8  28
ATOM     28  O   UNL     1     144.531 151.915 139.750  1.00  0.00    -0.508 OA
ATOM     29  H   UNL     1     144.852 151.461 140.598  1.00  0.00     0.293 HD
ENDBRANCH   8  28
TORSDOF 7
ENDMDL
MODEL 3
REMARK VINA RESULT:    -5.068      5.459      8.215
REMARK INTER + INTRA:          -6.620
REMARK INTER:                  -6.252
REMARK INTRA:                  -0.368
REMARK UNBOUND:                -0.367
REMARK SMILES O=c1c(O)c(-c2cc(O)c(O)c(O)c2)oc2cc(O)cc(O)c12
REMARK SMILES IDX 5 1 3 2 2 3 1 4 23 5 21 6 20 7 18 8 17 9 16 10 15 11 6 12
REMARK SMILES IDX 7 13 8 14 14 15 10 16 12 17 9 18 11 20 13 22 4 24 22 26
REMARK SMILES IDX 19 28
REMARK H PARENT 9 19 11 21 13 23 4 25 22 27 19 29
REMARK Flexibility Score: inf
ROOT
ATOM      1  C   UNL     1     150.994 145.317 137.112  1.00  0.00     0.180 A 
ATOM      2  C   UNL     1     151.900 144.613 136.300  1.00  0.00     0.208 A 
ATOM      3  C   UNL     1     151.923 143.211 136.360  1.00  0.00     0.238 A 
ATOM      4  O   UNL     1     152.697 142.585 135.590  1.00  0.00    -0.285 OA
ATOM      5  C   UNL     1     151.052 142.530 137.244  1.00  0.00     0.111 A 
ATOM      6  C   UNL     1     151.018 141.113 137.417  1.00  0.00     0.134 A 
ATOM      7  C   UNL     1     150.026 140.540 138.221  1.00  0.00     0.093 A 
ATOM      8  C   UNL     1     149.109 141.336 138.912  1.00  0.00     0.123 A 
ATOM      9  C   UNL     1     149.172 142.722 138.797  1.00  0.00     0.094 A 
ATOM     10  C   UNL     1     150.126 143.323 137.972  1.00  0.00     0.146 A 
ATOM     11  O   UNL     1     150.145 144.647 137.882  1.00  0.00    -0.452 OA
ENDROOT
BRANCH   1  12
ATOM     12  C   UNL     1     150.929 146.795 137.122  1.00  0.00     0.029 A 
ATOM     13  C   UNL     1     151.750 147.559 137.971  1.00  0.00     0.062 A 
ATOM     14  C   UNL     1     151.658 148.957 137.983  1.00  0.00     0.162 A 
ATOM     15  C   UNL     1     149.990 147.451 136.311  1.00  0.00     0.062 A 
ATOM     16  C   UNL     1     150.730 149.606 137.150  1.00  0.00     0.200 A 
ATOM     17  C   UNL     1     149.892 148.846 136.315  1.00  0.00     0.162 A 
BRANCH  14  18
ATOM     18  O   UNL     1     152.482 149.704 138.823  1.00  0.00    -0.504 OA
ATOM     19  H   UNL     1     152.201 150.614 139.170  1.00  0.00     0.293 HD
ENDBRANCH  14  18
BRANCH  16  20
ATOM     20  O   UNL     1     150.628 150.997 137.146  1.00  0.00    -0.502 OA
ATOM     21  H   UNL     1     150.061 151.499 137.819  1.00  0.00     0.293 HD
ENDBRANCH  16  20
BRANCH  17  22
ATOM     22  O   UNL     1     148.956 149.460 135.483  1.00  0.00    -0.504 OA
ATOM     23  H   UNL     1     148.471 150.307 135.752  1.00  0.00     0.293 HD
ENDBRANCH  17  22
ENDBRANCH   1  12
BRANCH   2  24
ATOM     24  O   UNL     1     152.736 145.305 135.418  1.00  0.00    -0.502 OA
ATOM     25  H   UNL     1     153.726 145.108 135.340  1.00  0.00     0.293 HD
ENDBRANCH   2  24
BRANCH   6  26
ATOM     26  O   UNL     1     151.943 140.235 136.846  1.00  0.00    -0.507 OA
ATOM     27  H   UNL     1     152.014 140.035 135.860  1.00  0.00     0.293 HD
ENDBRANCH   6  26
BRANCH   8  28
ATOM     28  O   UNL     1     148.135 140.758 139.724  1.00  0.00    -0.508 OA
ATOM     29  H   UNL     1     147.221 141.182 139.839  1.00  0.00     0.293 HD
ENDBRANCH   8  28
TORSDOF 7
ENDMDL
MODEL 4
REMARK VINA RESULT:    -5.051      8.039     11.702
REMARK INTER + INTRA:          -6.599
REMARK INTER:                  -6.245
REMARK INTRA:                  -0.354
REMARK UNBOUND:                -0.367
REMARK SMILES O=c1c(O)c(-c2cc(O)c(O)c(O)c2)oc2cc(O)cc(O)c12
REMARK SMILES IDX 5 1 3 2 2 3 1 4 23 5 21 6 20 7 18 8 17 9 16 10 15 11 6 12
REMARK SMILES IDX 7 13 8 14 14 15 10 16 12 17 9 18 11 20 13 22 4 24 22 26
REMARK SMILES IDX 19 28
REMARK H PARENT 9 19 11 21 13 23 4 25 22 27 19 29
REMARK Flexibility Score: inf
ROOT
ATOM      1  C   UNL     1     145.339 141.624 137.159  1.00  0.00     0.180 A 
ATOM      2  C   UNL     1     144.652 140.699 136.354  1.00  0.00     0.208 A 
ATOM      3  C   UNL     1     143.249 140.667 136.397  1.00  0.00     0.238 A 
ATOM      4  O   UNL     1     142.639 139.875 135.633  1.00  0.00    -0.285 OA
ATOM      5  C   UNL     1     142.551 141.549 137.256  1.00  0.00     0.111 A 
ATOM      6  C   UNL     1     141.132 141.576 137.411  1.00  0.00     0.134 A 
ATOM      7  C   UNL     1     140.542 142.578 138.190  1.00  0.00     0.093 A 
ATOM      8  C   UNL     1     141.323 143.513 138.875  1.00  0.00     0.123 A 
ATOM      9  C   UNL     1     142.711 143.458 138.778  1.00  0.00     0.094 A 
ATOM     10  C   UNL     1     143.328 142.493 137.978  1.00  0.00     0.146 A 
ATOM     11  O   UNL     1     144.654 142.482 137.906  1.00  0.00    -0.452 OA
ENDROOT
BRANCH   1  12
ATOM     12  C   UNL     1     146.817 141.699 137.187  1.00  0.00     0.029 A 
ATOM     13  C   UNL     1     147.580 140.823 137.978  1.00  0.00     0.062 A 
ATOM     14  C   UNL     1     148.978 140.925 138.009  1.00  0.00     0.162 A 
ATOM     15  C   UNL     1     147.471 142.702 136.454  1.00  0.00     0.062 A 
ATOM     16  C   UNL     1     149.626 141.918 137.254  1.00  0.00     0.200 A 
ATOM     17  C   UNL     1     148.865 142.810 136.478  1.00  0.00     0.162 A 
BRANCH  14  18
ATOM     18  O   UNL     1     149.725 140.046 138.792  1.00  0.00    -0.504 OA
ATOM     19  H   UNL     1     150.625 140.311 139.175  1.00  0.00     0.293 HD
ENDBRANCH  14  18
BRANCH  16  20
ATOM     20  O   UNL     1     151.016 142.030 137.270  1.00  0.00    -0.502 OA
ATOM     21  H   UNL     1     151.541 142.118 138.131  1.00  0.00     0.293 HD
ENDBRANCH  16  20
BRANCH  17  22
ATOM     22  O   UNL     1     149.478 143.811 135.724  1.00  0.00    -0.504 OA
ATOM     23  H   UNL     1     150.300 143.633 135.160  1.00  0.00     0.293 HD
ENDBRANCH  17  22
ENDBRANCH   1  12
BRANCH   2  24
ATOM     24  O   UNL     1     145.361 139.852 135.496  1.00  0.00    -0.502 OA
ATOM     25  H   UNL     1     145.392 139.997 134.494  1.00  0.00     0.293 HD
ENDBRANCH   2  24
BRANCH   6  26
ATOM     26  O   UNL     1     140.268 140.634 136.846  1.00  0.00    -0.507 OA
ATOM     27  H   UNL     1     140.021 139.753 137.271  1.00  0.00     0.293 HD
ENDBRANCH   6  26
BRANCH   8  28
ATOM     28  O   UNL     1     140.728 144.497 139.661  1.00  0.00    -0.508 OA
ATOM     29  H   UNL     1     141.252 145.300 139.991  1.00  0.00     0.293 HD
ENDBRANCH   8  28
TORSDOF 7
ENDMDL
MODEL 5
REMARK VINA RESULT:    -4.949      5.087      8.222
REMARK INTER + INTRA:          -6.474
REMARK INTER:                  -6.117
REMARK INTRA:                  -0.357
REMARK UNBOUND:                -0.367
REMARK SMILES O=c1c(O)c(-c2cc(O)c(O)c(O)c2)oc2cc(O)cc(O)c12
REMARK SMILES IDX 5 1 3 2 2 3 1 4 23 5 21 6 20 7 18 8 17 9 16 10 15 11 6 12
REMARK SMILES IDX 7 13 8 14 14 15 10 16 12 17 9 18 11 20 13 22 4 24 22 26
REMARK SMILES IDX 19 28
REMARK H PARENT 9 19 11 21 13 23 4 25 22 27 19 29
REMARK Flexibility Score: inf
ROOT
ATOM      1  C   UNL     1     150.235 145.361 137.172  1.00  0.00     0.180 A 
ATOM      2  C   UNL     1     148.928 145.798 136.893  1.00  0.00     0.208 A 
ATOM      3  C   UNL     1     148.602 147.148 137.100  1.00  0.00     0.238 A 
ATOM      4  O   UNL     1     147.446 147.544 136.796  1.00  0.00    -0.285 OA
ATOM      5  C   UNL     1     149.580 148.040 137.599  1.00  0.00     0.111 A 
ATOM      6  C   UNL     1     149.349 149.420 137.884  1.00  0.00     0.134 A 
ATOM      7  C   UNL     1     150.424 150.238 138.250  1.00  0.00     0.093 A 
ATOM      8  C   UNL     1     151.710 149.713 138.405  1.00  0.00     0.123 A 
ATOM      9  C   UNL     1     151.934 148.357 138.187  1.00  0.00     0.094 A 
ATOM     10  C   UNL     1     150.889 147.521 137.784  1.00  0.00     0.146 A 
ATOM     11  O   UNL     1     151.148 146.236 137.577  1.00  0.00    -0.452 OA
ENDROOT
BRANCH   1  12
ATOM     12  C   UNL     1     150.646 143.949 137.003  1.00  0.00     0.029 A 
ATOM     13  C   UNL     1     151.184 143.483 135.791  1.00  0.00     0.062 A 
ATOM     14  C   UNL     1     151.546 142.138 135.643  1.00  0.00     0.162 A 
ATOM     15  C   UNL     1     150.442 143.041 138.054  1.00  0.00     0.062 A 
ATOM     16  C   UNL     1     151.360 141.239 136.709  1.00  0.00     0.200 A 
ATOM     17  C   UNL     1     150.802 141.696 137.915  1.00  0.00     0.162 A 
BRANCH  14  18
ATOM     18  O   UNL     1     152.085 141.688 134.439  1.00  0.00    -0.504 OA
ATOM     19  H   UNL     1     151.656 140.935 133.913  1.00  0.00     0.293 HD
ENDBRANCH  14  18
BRANCH  16  20
ATOM     20  O   UNL     1     151.718 139.897 136.580  1.00  0.00    -0.502 OA
ATOM     21  H   UNL     1     152.560 139.608 136.096  1.00  0.00     0.293 HD
ENDBRANCH  16  20
BRANCH  17  22
ATOM     22  O   UNL     1     150.597 140.829 138.988  1.00  0.00    -0.504 OA
ATOM     23  H   UNL     1     151.343 140.261 139.372  1.00  0.00     0.293 HD
ENDBRANCH  17  22
ENDBRANCH   1  12
BRANCH   2  24
ATOM     24  O   UNL     1     147.983 144.904 136.380  1.00  0.00    -0.502 OA
ATOM     25  H   UNL     1     148.056 144.512 135.449  1.00  0.00     0.293 HD
ENDBRANCH   2  24
BRANCH   6  26
ATOM     26  O   UNL     1     148.089 150.023 137.850  1.00  0.00    -0.507 OA
ATOM     27  H   UNL     1     147.768 150.721 138.504  1.00  0.00     0.293 HD
ENDBRANCH   6  26
BRANCH   8  28
ATOM     28  O   UNL     1     152.771 150.532 138.785  1.00  0.00    -0.508 OA
ATOM     29  H   UNL     1     153.687 150.445 138.358  1.00  0.00     0.293 HD
ENDBRANCH   8  28
TORSDOF 7
ENDMDL
MODEL 6
REMARK VINA RESULT:    -4.944      1.600      7.259
REMARK INTER + INTRA:          -6.467
REMARK INTER:                  -6.114
REMARK INTRA:                  -0.353
REMARK UNBOUND:                -0.367
REMARK SMILES O=c1c(O)c(-c2cc(O)c(O)c(O)c2)oc2cc(O)cc(O)c12
REMARK SMILES IDX 5 1 3 2 2 3 1 4 23 5 21 6 20 7 18 8 17 9 16 10 15 11 6 12
REMARK SMILES IDX 7 13 8 14 14 15 10 16 12 17 9 18 11 20 13 22 4 24 22 26
REMARK SMILES IDX 19 28
REMARK H PARENT 9 19 11 21 13 23 4 25 22 27 19 29
REMARK Flexibility Score: inf
ROOT
ATOM      1  C   UNL     1     147.276 150.224 137.195  1.00  0.00     0.180 A 
ATOM      2  C   UNL     1     146.845 148.908 136.955  1.00  0.00     0.208 A 
ATOM      3  C   UNL     1     145.496 148.583 137.167  1.00  0.00     0.238 A 
ATOM      4  O   UNL     1     145.105 147.417 136.897  1.00  0.00    -0.285 OA
ATOM      5  C   UNL     1     144.598 149.573 137.632  1.00  0.00     0.111 A 
ATOM      6  C   UNL     1     143.218 149.345 137.920  1.00  0.00     0.134 A 
ATOM      7  C   UNL     1     142.394 150.428 138.249  1.00  0.00     0.093 A 
ATOM      8  C   UNL     1     142.913 151.719 138.367  1.00  0.00     0.123 A 
ATOM      9  C   UNL     1     144.270 151.942 138.146  1.00  0.00     0.094 A 
ATOM     10  C   UNL     1     145.111 150.889 137.779  1.00  0.00     0.146 A 
ATOM     11  O   UNL     1     146.396 151.146 137.568  1.00  0.00    -0.452 OA
ENDROOT
BRANCH   1  12
ATOM     12  C   UNL     1     148.687 150.636 137.018  1.00  0.00     0.029 A 
ATOM     13  C   UNL     1     149.146 151.175 135.803  1.00  0.00     0.062 A 
ATOM     14  C   UNL     1     150.490 151.537 135.648  1.00  0.00     0.162 A 
ATOM     15  C   UNL     1     149.601 150.432 138.063  1.00  0.00     0.062 A 
ATOM     16  C   UNL     1     151.395 151.350 136.708  1.00  0.00     0.200 A 
ATOM     17  C   UNL     1     150.945 150.792 137.917  1.00  0.00     0.162 A 
BRANCH  14  18
ATOM     18  O   UNL     1     150.933 152.077 134.441  1.00  0.00    -0.504 OA
ATOM     19  H   UNL     1     150.559 151.767 133.552  1.00  0.00     0.293 HD
ENDBRANCH  14  18
BRANCH  16  20
ATOM     20  O   UNL     1     152.736 151.709 136.572  1.00  0.00    -0.502 OA
ATOM     21  H   UNL     1     153.038 152.676 136.560  1.00  0.00     0.293 HD
ENDBRANCH  16  20
BRANCH  17  22
ATOM     22  O   UNL     1     151.819 150.586 138.985  1.00  0.00    -0.504 OA
ATOM     23  H   UNL     1     152.579 151.224 139.188  1.00  0.00     0.293 HD
ENDBRANCH  17  22
ENDBRANCH   1  12
BRANCH   2  24
ATOM     24  O   UNL     1     147.744 147.951 136.473  1.00  0.00    -0.502 OA
ATOM     25  H   UNL     1     148.466 147.543 137.055  1.00  0.00     0.293 HD
ENDBRANCH   2  24
BRANCH   6  26
ATOM     26  O   UNL     1     142.620 148.082 137.922  1.00  0.00    -0.507 OA
ATOM     27  H   UNL     1     141.773 147.846 137.427  1.00  0.00     0.293 HD
ENDBRANCH   6  26
BRANCH   8  28
ATOM     28  O   UNL     1     142.089 152.789 138.711  1.00  0.00    -0.508 OA
ATOM     29  H   UNL     1     141.585 152.808 139.590  1.00  0.00     0.293 HD
ENDBRANCH   8  28
TORSDOF 7
ENDMDL
MODEL 7
REMARK VINA RESULT:    -4.930      5.041      8.081
REMARK INTER + INTRA:          -6.450
REMARK INTER:                  -6.082
REMARK INTRA:                  -0.368
REMARK UNBOUND:                -0.367
REMARK SMILES O=c1c(O)c(-c2cc(O)c(O)c(O)c2)oc2cc(O)cc(O)c12
REMARK SMILES IDX 5 1 3 2 2 3 1 4 23 5 21 6 20 7 18 8 17 9 16 10 15 11 6 12
REMARK SMILES IDX 7 13 8 14 14 15 10 16 12 17 9 18 11 20 13 22 4 24 22 26
REMARK SMILES IDX 19 28
REMARK H PARENT 9 19 11 21 13 23 4 25 22 27 19 29
REMARK Flexibility Score: inf
ROOT
ATOM      1  C   UNL     1     150.158 145.396 137.224  1.00  0.00     0.180 A 
ATOM      2  C   UNL     1     148.857 145.856 136.957  1.00  0.00     0.208 A 
ATOM      3  C   UNL     1     148.561 147.215 137.150  1.00  0.00     0.238 A 
ATOM      4  O   UNL     1     147.410 147.631 136.856  1.00  0.00    -0.285 OA
ATOM      5  C   UNL     1     149.565 148.094 137.623  1.00  0.00     0.111 A 
ATOM      6  C   UNL     1     149.366 149.481 137.893  1.00  0.00     0.134 A 
ATOM      7  C   UNL     1     150.462 150.282 138.232  1.00  0.00     0.093 A 
ATOM      8  C   UNL     1     151.738 149.734 138.377  1.00  0.00     0.123 A 
ATOM      9  C   UNL     1     151.932 148.370 138.174  1.00  0.00     0.094 A 
ATOM     10  C   UNL     1     150.865 147.550 137.797  1.00  0.00     0.146 A 
ATOM     11  O   UNL     1     151.095 146.258 137.604  1.00  0.00    -0.452 OA
ENDROOT
BRANCH   1  12
ATOM     12  C   UNL     1     150.538 143.974 137.069  1.00  0.00     0.029 A 
ATOM     13  C   UNL     1     150.370 143.053 138.117  1.00  0.00     0.062 A 
ATOM     14  C   UNL     1     150.758 141.715 137.959  1.00  0.00     0.162 A 
ATOM     15  C   UNL     1     151.133 143.545 135.872  1.00  0.00     0.062 A 
ATOM     16  C   UNL     1     151.331 141.289 136.748  1.00  0.00     0.200 A 
ATOM     17  C   UNL     1     151.521 142.212 135.705  1.00  0.00     0.162 A 
BRANCH  14  18
ATOM     18  O   UNL     1     150.579 140.808 139.002  1.00  0.00    -0.504 OA
ATOM     19  H   UNL     1     149.975 140.000 138.906  1.00  0.00     0.293 HD
ENDBRANCH  14  18
BRANCH  16  20
ATOM     20  O   UNL     1     151.718 139.961 136.572  1.00  0.00    -0.502 OA
ATOM     21  H   UNL     1     152.600 139.605 136.920  1.00  0.00     0.293 HD
ENDBRANCH  16  20
BRANCH  17  22
ATOM     22  O   UNL     1     152.095 141.822 134.494  1.00  0.00    -0.504 OA
ATOM     23  H   UNL     1     153.098 141.758 134.370  1.00  0.00     0.293 HD
ENDBRANCH  17  22
ENDBRANCH   1  12
BRANCH   2  24
ATOM     24  O   UNL     1     147.887 144.975 136.469  1.00  0.00    -0.502 OA
ATOM     25  H   UNL     1     147.197 145.253 135.782  1.00  0.00     0.293 HD
ENDBRANCH   2  24
BRANCH   6  26
ATOM     26  O   UNL     1     148.117 150.110 137.867  1.00  0.00    -0.507 OA
ATOM     27  H   UNL     1     147.506 150.207 138.664  1.00  0.00     0.293 HD
ENDBRANCH   6  26
BRANCH   8  28
ATOM     28  O   UNL     1     152.822 150.536 138.731  1.00  0.00    -0.508 OA
ATOM     29  H   UNL     1     153.245 150.478 139.650  1.00  0.00     0.293 HD
ENDBRANCH   8  28
TORSDOF 7
ENDMDL
MODEL 8
REMARK VINA RESULT:    -4.918      7.658      8.917
REMARK INTER + INTRA:          -6.436
REMARK INTER:                  -6.067
REMARK INTRA:                  -0.368
REMARK UNBOUND:                -0.367
REMARK SMILES O=c1c(O)c(-c2cc(O)c(O)c(O)c2)oc2cc(O)cc(O)c12
REMARK SMILES IDX 5 1 3 2 2 3 1 4 23 5 21 6 20 7 18 8 17 9 16 10 15 11 6 12
REMARK SMILES IDX 7 13 8 14 14 15 10 16 12 17 9 18 11 20 13 22 4 24 22 26
REMARK SMILES IDX 19 28
REMARK H PARENT 9 19 11 21 13 23 4 25 22 27 19 29
REMARK Flexibility Score: inf
ROOT
ATOM      1  C   UNL     1     145.317 142.378 137.192  1.00  0.00     0.180 A 
ATOM      2  C   UNL     1     145.797 143.673 136.931  1.00  0.00     0.208 A 
ATOM      3  C   UNL     1     147.159 143.949 137.135  1.00  0.00     0.238 A 
ATOM      4  O   UNL     1     147.593 145.095 136.846  1.00  0.00    -0.285 OA
ATOM      5  C   UNL     1     148.020 142.932 137.612  1.00  0.00     0.111 A 
ATOM      6  C   UNL     1     149.408 143.111 137.892  1.00  0.00     0.134 A 
ATOM      7  C   UNL     1     150.191 142.002 138.236  1.00  0.00     0.093 A 
ATOM      8  C   UNL     1     149.623 140.734 138.374  1.00  0.00     0.123 A 
ATOM      9  C   UNL     1     148.258 140.560 138.161  1.00  0.00     0.094 A 
ATOM     10  C   UNL     1     147.456 141.640 137.780  1.00  0.00     0.146 A 
ATOM     11  O   UNL     1     146.162 141.429 137.576  1.00  0.00    -0.452 OA
ENDROOT
BRANCH   1  12
ATOM     12  C   UNL     1     143.891 142.019 137.026  1.00  0.00     0.029 A 
ATOM     13  C   UNL     1     142.964 142.198 138.068  1.00  0.00     0.062 A 
ATOM     14  C   UNL     1     141.622 141.830 137.899  1.00  0.00     0.162 A 
ATOM     15  C   UNL     1     143.462 141.433 135.824  1.00  0.00     0.062 A 
ATOM     16  C   UNL     1     141.197 141.266 136.684  1.00  0.00     0.200 A 
ATOM     17  C   UNL     1     142.125 141.065 135.647  1.00  0.00     0.162 A 
BRANCH  14  18
ATOM     18  O   UNL     1     140.710 142.019 138.936  1.00  0.00    -0.504 OA
ATOM     19  H   UNL     1     139.943 142.677 138.856  1.00  0.00     0.293 HD
ENDBRANCH  14  18
BRANCH  16  20
ATOM     20  O   UNL     1     139.864 140.898 136.498  1.00  0.00    -0.502 OA
ATOM     21  H   UNL     1     139.597 139.963 136.212  1.00  0.00     0.293 HD
ENDBRANCH  16  20
BRANCH  17  22
ATOM     22  O   UNL     1     141.735 140.499 134.432  1.00  0.00    -0.504 OA
ATOM     23  H   UNL     1     141.011 140.909 133.855  1.00  0.00     0.293 HD
ENDBRANCH  17  22
ENDBRANCH   1  12
BRANCH   2  24
ATOM     24  O   UNL     1     144.934 144.656 136.439  1.00  0.00    -0.502 OA
ATOM     25  H   UNL     1     143.967 144.728 136.734  1.00  0.00     0.293 HD
ENDBRANCH   2  24
BRANCH   6  26
ATOM     26  O   UNL     1     150.055 144.350 137.874  1.00  0.00    -0.507 OA
ATOM     27  H   UNL     1     150.543 144.755 138.659  1.00  0.00     0.293 HD
ENDBRANCH   6  26
BRANCH   8  28
ATOM     28  O   UNL     1     150.406 139.638 138.731  1.00  0.00    -0.508 OA
ATOM     29  H   UNL     1     151.165 139.725 139.398  1.00  0.00     0.293 HD
ENDBRANCH   8  28
TORSDOF 7
ENDMDL
MODEL 9
REMARK VINA RESULT:    -4.917      6.186      8.337
REMARK INTER + INTRA:          -6.434
REMARK INTER:                  -6.077
REMARK INTRA:                  -0.357
REMARK UNBOUND:                -0.367
REMARK SMILES O=c1c(O)c(-c2cc(O)c(O)c(O)c2)oc2cc(O)cc(O)c12
REMARK SMILES IDX 5 1 3 2 2 3 1 4 23 5 21 6 20 7 18 8 17 9 16 10 15 11 6 12
REMARK SMILES IDX 7 13 8 14 14 15 10 16 12 17 9 18 11 20 13 22 4 24 22 26
REMARK SMILES IDX 19 28
REMARK H PARENT 9 19 11 21 13 23 4 25 22 27 19 29
REMARK Flexibility Score: inf
ROOT
ATOM      1  C   UNL     1     142.248 147.047 137.132  1.00  0.00     0.180 A 
ATOM      2  C   UNL     1     143.553 146.595 136.868  1.00  0.00     0.208 A 
ATOM      3  C   UNL     1     143.863 145.243 137.086  1.00  0.00     0.238 A 
ATOM      4  O   UNL     1     145.017 144.833 136.795  1.00  0.00    -0.285 OA
ATOM      5  C   UNL     1     142.871 144.364 137.581  1.00  0.00     0.111 A 
ATOM      6  C   UNL     1     143.085 142.984 137.877  1.00  0.00     0.134 A 
ATOM      7  C   UNL     1     141.999 142.179 138.238  1.00  0.00     0.093 A 
ATOM      8  C   UNL     1     140.717 142.717 138.377  1.00  0.00     0.123 A 
ATOM      9  C   UNL     1     140.509 144.074 138.149  1.00  0.00     0.094 A 
ATOM     10  C   UNL     1     141.566 144.897 137.751  1.00  0.00     0.146 A 
ATOM     11  O   UNL     1     141.322 146.184 137.533  1.00  0.00    -0.452 OA
ENDROOT
BRANCH   1  12
ATOM     12  C   UNL     1     141.853 148.461 136.950  1.00  0.00     0.029 A 
ATOM     13  C   UNL     1     141.347 148.929 135.725  1.00  0.00     0.062 A 
ATOM     14  C   UNL     1     141.000 150.277 135.565  1.00  0.00     0.162 A 
ATOM     15  C   UNL     1     142.039 149.370 138.003  1.00  0.00     0.062 A 
ATOM     16  C   UNL     1     141.169 151.177 136.633  1.00  0.00     0.200 A 
ATOM     17  C   UNL     1     141.694 150.718 137.853  1.00  0.00     0.162 A 
BRANCH  14  18
ATOM     18  O   UNL     1     140.493 150.729 134.348  1.00  0.00    -0.504 OA
ATOM     19  H   UNL     1     139.689 151.344 134.303  1.00  0.00     0.293 HD
ENDBRANCH  14  18
BRANCH  16  20
ATOM     20  O   UNL     1     140.824 152.521 136.493  1.00  0.00    -0.502 OA
ATOM     21  H   UNL     1     140.052 152.936 137.000  1.00  0.00     0.293 HD
ENDBRANCH  16  20
BRANCH  17  22
ATOM     22  O   UNL     1     141.881 151.586 138.929  1.00  0.00    -0.504 OA
ATOM     23  H   UNL     1     141.707 152.581 138.854  1.00  0.00     0.293 HD
ENDBRANCH  17  22
ENDBRANCH   1  12
BRANCH   2  24
ATOM     24  O   UNL     1     144.511 147.476 136.358  1.00  0.00    -0.502 OA
ATOM     25  H   UNL     1     144.967 148.175 136.932  1.00  0.00     0.293 HD
ENDBRANCH   2  24
BRANCH   6  26
ATOM     26  O   UNL     1     144.340 142.367 137.858  1.00  0.00    -0.507 OA
ATOM     27  H   UNL     1     144.660 141.737 137.138  1.00  0.00     0.293 HD
ENDBRANCH   6  26
BRANCH   8  28
ATOM     28  O   UNL     1     139.644 141.911 138.752  1.00  0.00    -0.508 OA
ATOM     29  H   UNL     1     139.660 141.373 139.611  1.00  0.00     0.293 HD
ENDBRANCH   8  28
TORSDOF 7
ENDMDL
