MODEL 1
REMARK VINA RESULT:    -6.544      0.000      0.000
REMARK INTER + INTRA:          -7.997
REMARK INTER:                  -7.692
REMARK INTRA:                  -0.305
REMARK UNBOUND:                -0.305
REMARK SMILES O=c1cc(-c2ccc(O)c(O)c2)oc2cc(O)cc(O)c12
REMARK SMILES IDX 4 1 3 2 2 3 1 4 21 5 19 6 18 7 16 8 15 9 14 10 13 11 5 12
REMARK SMILES IDX 6 13 7 14 8 15 12 16 10 17 9 18 11 20 20 22 17 24
REMARK H PARENT 9 19 11 21 20 23 17 25
REMARK Flexibility Score: inf
ROOT
ATOM      1  C   UNL     1     -59.733  22.225 -30.427  1.00  0.00     0.138 A 
ATOM      2  C   UNL     1     -58.539  22.852 -30.806  1.00  0.00     0.100 A 
ATOM      3  C   UNL     1     -58.377  24.221 -30.585  1.00  0.00     0.197 A 
ATOM      4  O   UNL     1     -57.316  24.765 -30.987  1.00  0.00    -0.289 OA
ATOM      5  C   UNL     1     -59.405  24.958 -29.949  1.00  0.00     0.107 A 
ATOM      6  C   UNL     1     -59.339  26.351 -29.642  1.00  0.00     0.134 A 
ATOM      7  C   UNL     1     -60.460  26.992 -29.099  1.00  0.00     0.093 A 
ATOM      8  C   UNL     1     -61.622  26.282 -28.799  1.00  0.00     0.123 A 
ATOM      9  C   UNL     1     -61.680  24.911 -29.049  1.00  0.00     0.094 A 
ATOM     10  C   UNL     1     -60.592  24.248 -29.622  1.00  0.00     0.146 A 
ATOM     11  O   UNL     1     -60.696  22.945 -29.860  1.00  0.00    -0.456 OA
ENDROOT
BRANCH   1  12
ATOM     12  C   UNL     1     -59.957  20.772 -30.634  1.00  0.00     0.021 A 
ATOM     13  C   UNL     1     -59.396  20.084 -31.727  1.00  0.00     0.016 A 
ATOM     14  C   UNL     1     -59.632  18.719 -31.903  1.00  0.00     0.051 A 
ATOM     15  C   UNL     1     -60.438  18.017 -30.996  1.00  0.00     0.157 A 
ATOM     16  C   UNL     1     -60.775  20.063 -29.736  1.00  0.00     0.062 A 
ATOM     17  C   UNL     1     -61.012  18.695 -29.908  1.00  0.00     0.158 A 
BRANCH  15  18
ATOM     18  O   UNL     1     -60.669  16.654 -31.173  1.00  0.00    -0.504 OA
ATOM     19  H   UNL     1     -61.447  16.315 -31.726  1.00  0.00     0.293 HD
ENDBRANCH  15  18
BRANCH  17  20
ATOM     20  O   UNL     1     -61.822  18.027 -28.990  1.00  0.00    -0.504 OA
ATOM     21  H   UNL     1     -62.069  17.051 -29.100  1.00  0.00     0.293 HD
ENDBRANCH  17  20
ENDBRANCH   1  12
BRANCH   6  22
ATOM     22  O   UNL     1     -58.200  27.140 -29.827  1.00  0.00    -0.507 OA
ATOM     23  H   UNL     1     -57.405  26.888 -30.395  1.00  0.00     0.293 HD
ENDBRANCH   6  22
BRANCH   8  24
ATOM     24  O   UNL     1     -62.711  26.951 -28.246  1.00  0.00    -0.508 OA
ATOM     25  H   UNL     1     -63.146  27.735 -28.718  1.00  0.00     0.293 HD
ENDBRANCH   8  24
TORSDOF 5
ENDMDL
MODEL 2
REMARK VINA RESULT:    -6.149      1.977      2.827
REMARK INTER + INTRA:          -7.532
REMARK INTER:                  -7.269
REMARK INTRA:                  -0.263
REMARK UNBOUND:                -0.305
REMARK SMILES O=c1cc(-c2ccc(O)c(O)c2)oc2cc(O)cc(O)c12
REMARK SMILES IDX 4 1 3 2 2 3 1 4 21 5 19 6 18 7 16 8 15 9 14 10 13 11 5 12
REMARK SMILES IDX 6 13 7 14 8 15 12 16 10 17 9 18 11 20 20 22 17 24
REMARK H PARENT 9 19 11 21 20 23 17 25
REMARK Flexibility Score: inf
ROOT
ATOM      1  C   UNL     1     -60.498  20.313 -30.075  1.00  0.00     0.138 A 
ATOM      2  C   UNL     1     -59.331  20.984 -29.686  1.00  0.00     0.100 A 
ATOM      3  C   UNL     1     -59.275  22.376 -29.767  1.00  0.00     0.197 A 
ATOM      4  O   UNL     1     -58.194  22.944 -29.463  1.00  0.00    -0.289 OA
ATOM      5  C   UNL     1     -60.408  23.102 -30.206  1.00  0.00     0.107 A 
ATOM      6  C   UNL     1     -60.479  24.525 -30.297  1.00  0.00     0.134 A 
ATOM      7  C   UNL     1     -61.622  25.126 -30.840  1.00  0.00     0.093 A 
ATOM      8  C   UNL     1     -62.717  24.361 -31.241  1.00  0.00     0.123 A 
ATOM      9  C   UNL     1     -62.678  22.973 -31.111  1.00  0.00     0.094 A 
ATOM     10  C   UNL     1     -61.540  22.341 -30.605  1.00  0.00     0.146 A 
ATOM     11  O   UNL     1     -61.537  21.015 -30.514  1.00  0.00    -0.456 OA
ENDROOT
BRANCH   1  12
ATOM     12  C   UNL     1     -60.614  18.834 -30.007  1.00  0.00     0.021 A 
ATOM     13  C   UNL     1     -61.158  18.185 -28.883  1.00  0.00     0.016 A 
ATOM     14  C   UNL     1     -61.245  16.791 -28.842  1.00  0.00     0.051 A 
ATOM     15  C   UNL     1     -60.783  16.021 -29.918  1.00  0.00     0.157 A 
ATOM     16  C   UNL     1     -60.140  18.054 -31.077  1.00  0.00     0.062 A 
ATOM     17  C   UNL     1     -60.227  16.657 -31.040  1.00  0.00     0.158 A 
BRANCH  15  18
ATOM     18  O   UNL     1     -60.874  14.631 -29.874  1.00  0.00    -0.504 OA
ATOM     19  H   UNL     1     -60.581  14.105 -29.060  1.00  0.00     0.293 HD
ENDBRANCH  15  18
BRANCH  17  20
ATOM     20  O   UNL     1     -59.755  15.920 -32.125  1.00  0.00    -0.504 OA
ATOM     21  H   UNL     1     -59.883  14.918 -32.191  1.00  0.00     0.293 HD
ENDBRANCH  17  20
ENDBRANCH   1  12
BRANCH   6  22
ATOM     22  O   UNL     1     -59.474  25.390 -29.852  1.00  0.00    -0.507 OA
ATOM     23  H   UNL     1     -58.544  25.107 -29.584  1.00  0.00     0.293 HD
ENDBRANCH   6  22
BRANCH   8  24
ATOM     24  O   UNL     1     -63.842  24.995 -31.763  1.00  0.00    -0.508 OA
ATOM     25  H   UNL     1     -63.844  25.385 -32.698  1.00  0.00     0.293 HD
ENDBRANCH   8  24
TORSDOF 5
ENDMDL
MODEL 3
REMARK VINA RESULT:    -6.052      2.208      3.664
REMARK INTER + INTRA:          -7.419
REMARK INTER:                  -7.156
REMARK INTRA:                  -0.262
REMARK UNBOUND:                -0.305
REMARK SMILES O=c1cc(-c2ccc(O)c(O)c2)oc2cc(O)cc(O)c12
REMARK SMILES IDX 4 1 3 2 2 3 1 4 21 5 19 6 18 7 16 8 15 9 14 10 13 11 5 12
REMARK SMILES IDX 6 13 7 14 8 15 12 16 10 17 9 18 11 20 20 22 17 24
REMARK H PARENT 9 19 11 21 20 23 17 25
REMARK Flexibility Score: inf
ROOT
ATOM      1  C   UNL     1     -61.856  20.521 -30.519  1.00  0.00     0.138 A 
ATOM      2  C   UNL     1     -62.986  20.880 -31.265  1.00  0.00     0.100 A 
ATOM      3  C   UNL     1     -63.260  22.229 -31.499  1.00  0.00     0.197 A 
ATOM      4  O   UNL     1     -64.312  22.520 -32.125  1.00  0.00    -0.289 OA
ATOM      5  C   UNL     1     -62.376  23.221 -31.011  1.00  0.00     0.107 A 
ATOM      6  C   UNL     1     -62.535  24.625 -31.217  1.00  0.00     0.134 A 
ATOM      7  C   UNL     1     -61.648  25.518 -30.602  1.00  0.00     0.093 A 
ATOM      8  C   UNL     1     -60.577  25.057 -29.838  1.00  0.00     0.123 A 
ATOM      9  C   UNL     1     -60.383  23.686 -29.671  1.00  0.00     0.094 A 
ATOM     10  C   UNL     1     -61.270  22.771 -30.243  1.00  0.00     0.146 A 
ATOM     11  O   UNL     1     -61.059  21.473 -30.045  1.00  0.00    -0.456 OA
ENDROOT
BRANCH   1  12
ATOM     12  C   UNL     1     -61.515  19.103 -30.243  1.00  0.00     0.021 A 
ATOM     13  C   UNL     1     -61.859  18.481 -29.029  1.00  0.00     0.016 A 
ATOM     14  C   UNL     1     -61.516  17.147 -28.792  1.00  0.00     0.051 A 
ATOM     15  C   UNL     1     -60.816  16.414 -29.760  1.00  0.00     0.157 A 
ATOM     16  C   UNL     1     -60.801  18.364 -31.204  1.00  0.00     0.062 A 
ATOM     17  C   UNL     1     -60.457  17.028 -30.971  1.00  0.00     0.158 A 
BRANCH  15  18
ATOM     18  O   UNL     1     -60.478  15.083 -29.522  1.00  0.00    -0.504 OA
ATOM     19  H   UNL     1     -60.892  14.557 -28.761  1.00  0.00     0.293 HD
ENDBRANCH  15  18
BRANCH  17  20
ATOM     20  O   UNL     1     -59.757  16.327 -31.954  1.00  0.00    -0.504 OA
ATOM     21  H   UNL     1     -59.188  16.796 -32.647  1.00  0.00     0.293 HD
ENDBRANCH  17  20
ENDBRANCH   1  12
BRANCH   6  22
ATOM     22  O   UNL     1     -63.525  25.192 -32.027  1.00  0.00    -0.507 OA
ATOM     23  H   UNL     1     -63.352  25.760 -32.841  1.00  0.00     0.293 HD
ENDBRANCH   6  22
BRANCH   8  24
ATOM     24  O   UNL     1     -59.706  25.974 -29.253  1.00  0.00    -0.508 OA
ATOM     25  H   UNL     1     -59.539  25.983 -28.254  1.00  0.00     0.293 HD
ENDBRANCH   8  24
TORSDOF 5
ENDMDL
MODEL 4
REMARK VINA RESULT:    -5.998      7.372     10.754
REMARK INTER + INTRA:          -7.355
REMARK INTER:                  -7.073
REMARK INTRA:                  -0.282
REMARK UNBOUND:                -0.305
REMARK SMILES O=c1cc(-c2ccc(O)c(O)c2)oc2cc(O)cc(O)c12
REMARK SMILES IDX 4 1 3 2 2 3 1 4 21 5 19 6 18 7 16 8 15 9 14 10 13 11 5 12
REMARK SMILES IDX 6 13 7 14 8 15 12 16 10 17 9 18 11 20 20 22 17 24
REMARK H PARENT 9 19 11 21 20 23 17 25
REMARK Flexibility Score: inf
ROOT
ATOM      1  C   UNL     1     -59.431  30.430 -24.896  1.00  0.00     0.138 A 
ATOM      2  C   UNL     1     -60.448  30.423 -23.931  1.00  0.00     0.100 A 
ATOM      3  C   UNL     1     -60.123  30.579 -22.583  1.00  0.00     0.197 A 
ATOM      4  O   UNL     1     -61.053  30.513 -21.738  1.00  0.00    -0.289 OA
ATOM      5  C   UNL     1     -58.774  30.777 -22.202  1.00  0.00     0.107 A 
ATOM      6  C   UNL     1     -58.328  30.981 -20.861  1.00  0.00     0.134 A 
ATOM      7  C   UNL     1     -56.955  31.068 -20.597  1.00  0.00     0.093 A 
ATOM      8  C   UNL     1     -56.018  31.017 -21.627  1.00  0.00     0.123 A 
ATOM      9  C   UNL     1     -56.445  30.868 -22.947  1.00  0.00     0.094 A 
ATOM     10  C   UNL     1     -57.805  30.744 -23.240  1.00  0.00     0.146 A 
ATOM     11  O   UNL     1     -58.169  30.586 -24.509  1.00  0.00    -0.456 OA
ENDROOT
BRANCH   1  12
ATOM     12  C   UNL     1     -59.720  30.273 -26.343  1.00  0.00     0.021 A 
ATOM     13  C   UNL     1     -60.617  31.122 -27.016  1.00  0.00     0.016 A 
ATOM     14  C   UNL     1     -60.878  30.944 -28.377  1.00  0.00     0.051 A 
ATOM     15  C   UNL     1     -60.253  29.911 -29.088  1.00  0.00     0.157 A 
ATOM     16  C   UNL     1     -59.107  29.229 -27.061  1.00  0.00     0.062 A 
ATOM     17  C   UNL     1     -59.364  29.049 -28.424  1.00  0.00     0.158 A 
BRANCH  15  18
ATOM     18  O   UNL     1     -60.514  29.738 -30.446  1.00  0.00    -0.504 OA
ATOM     19  H   UNL     1     -59.823  29.346 -31.075  1.00  0.00     0.293 HD
ENDBRANCH  15  18
BRANCH  17  20
ATOM     20  O   UNL     1     -58.729  28.009 -29.102  1.00  0.00    -0.504 OA
ATOM     21  H   UNL     1     -58.950  27.779 -30.063  1.00  0.00     0.293 HD
ENDBRANCH  17  20
ENDBRANCH   1  12
BRANCH   6  22
ATOM     22  O   UNL     1     -59.183  31.125 -19.764  1.00  0.00    -0.507 OA
ATOM     23  H   UNL     1     -60.056  31.631 -19.772  1.00  0.00     0.293 HD
ENDBRANCH   6  22
BRANCH   8  24
ATOM     24  O   UNL     1     -54.661  31.122 -21.327  1.00  0.00    -0.508 OA
ATOM     25  H   UNL     1     -54.042  30.322 -21.387  1.00  0.00     0.293 HD
ENDBRANCH   8  24
TORSDOF 5
ENDMDL
MODEL 5
REMARK VINA RESULT:    -5.856      2.172      6.555
REMARK INTER + INTRA:          -7.188
REMARK INTER:                  -6.924
REMARK INTRA:                  -0.263
REMARK UNBOUND:                -0.305
REMARK SMILES O=c1cc(-c2ccc(O)c(O)c2)oc2cc(O)cc(O)c12
REMARK SMILES IDX 4 1 3 2 2 3 1 4 21 5 19 6 18 7 16 8 15 9 14 10 13 11 5 12
REMARK SMILES IDX 6 13 7 14 8 15 12 16 10 17 9 18 11 20 20 22 17 24
REMARK H PARENT 9 19 11 21 20 23 17 25
REMARK Flexibility Score: inf
ROOT
ATOM      1  C   UNL     1     -59.816  22.255 -30.538  1.00  0.00     0.138 A 
ATOM      2  C   UNL     1     -59.463  21.248 -29.630  1.00  0.00     0.100 A 
ATOM      3  C   UNL     1     -60.352  20.201 -29.378  1.00  0.00     0.197 A 
ATOM      4  O   UNL     1     -60.028  19.344 -28.516  1.00  0.00    -0.289 OA
ATOM      5  C   UNL     1     -61.586  20.145 -30.069  1.00  0.00     0.107 A 
ATOM      6  C   UNL     1     -62.557  19.108 -29.919  1.00  0.00     0.134 A 
ATOM      7  C   UNL     1     -63.786  19.212 -30.583  1.00  0.00     0.093 A 
ATOM      8  C   UNL     1     -64.057  20.283 -31.434  1.00  0.00     0.123 A 
ATOM      9  C   UNL     1     -63.097  21.276 -31.626  1.00  0.00     0.094 A 
ATOM     10  C   UNL     1     -61.875  21.219 -30.952  1.00  0.00     0.146 A 
ATOM     11  O   UNL     1     -60.995  22.196 -31.150  1.00  0.00    -0.456 OA
ENDROOT
BRANCH   1  12
ATOM     12  C   UNL     1     -58.909  23.389 -30.846  1.00  0.00     0.021 A 
ATOM     13  C   UNL     1     -57.941  23.308 -31.864  1.00  0.00     0.016 A 
ATOM     14  C   UNL     1     -57.094  24.387 -32.125  1.00  0.00     0.051 A 
ATOM     15  C   UNL     1     -57.191  25.563 -31.369  1.00  0.00     0.157 A 
ATOM     16  C   UNL     1     -58.992  24.567 -30.082  1.00  0.00     0.062 A 
ATOM     17  C   UNL     1     -58.145  25.651 -30.342  1.00  0.00     0.158 A 
BRANCH  15  18
ATOM     18  O   UNL     1     -56.346  26.639 -31.633  1.00  0.00    -0.504 OA
ATOM     19  H   UNL     1     -55.717  27.006 -30.929  1.00  0.00     0.293 HD
ENDBRANCH  15  18
BRANCH  17  20
ATOM     20  O   UNL     1     -58.266  26.805 -29.568  1.00  0.00    -0.504 OA
ATOM     21  H   UNL     1     -57.459  27.329 -29.254  1.00  0.00     0.293 HD
ENDBRANCH  17  20
ENDBRANCH   1  12
BRANCH   6  22
ATOM     22  O   UNL     1     -62.358  17.954 -29.155  1.00  0.00    -0.507 OA
ATOM     23  H   UNL     1     -61.459  17.560 -28.923  1.00  0.00     0.293 HD
ENDBRANCH   6  22
BRANCH   8  24
ATOM     24  O   UNL     1     -65.285  20.345 -32.089  1.00  0.00    -0.508 OA
ATOM     25  H   UNL     1     -65.574  19.625 -32.741  1.00  0.00     0.293 HD
ENDBRANCH   8  24
TORSDOF 5
ENDMDL
MODEL 6
REMARK VINA RESULT:    -5.780      2.317      7.709
REMARK INTER + INTRA:          -7.098
REMARK INTER:                  -6.805
REMARK INTRA:                  -0.293
REMARK UNBOUND:                -0.305
REMARK SMILES O=c1cc(-c2ccc(O)c(O)c2)oc2cc(O)cc(O)c12
REMARK SMILES IDX 4 1 3 2 2 3 1 4 21 5 19 6 18 7 16 8 15 9 14 10 13 11 5 12
REMARK SMILES IDX 6 13 7 14 8 15 12 16 10 17 9 18 11 20 20 22 17 24
REMARK H PARENT 9 19 11 21 20 23 17 25
REMARK Flexibility Score: inf
ROOT
ATOM      1  C   UNL     1     -60.781  25.643 -29.935  1.00  0.00     0.138 A 
ATOM      2  C   UNL     1     -61.995  25.144 -30.426  1.00  0.00     0.100 A 
ATOM      3  C   UNL     1     -62.094  23.799 -30.785  1.00  0.00     0.197 A 
ATOM      4  O   UNL     1     -63.181  23.395 -31.274  1.00  0.00    -0.289 OA
ATOM      5  C   UNL     1     -60.981  22.941 -30.618  1.00  0.00     0.107 A 
ATOM      6  C   UNL     1     -60.975  21.545 -30.919  1.00  0.00     0.134 A 
ATOM      7  C   UNL     1     -59.783  20.820 -30.805  1.00  0.00     0.093 A 
ATOM      8  C   UNL     1     -58.612  21.424 -30.348  1.00  0.00     0.123 A 
ATOM      9  C   UNL     1     -58.618  22.775 -30.004  1.00  0.00     0.094 A 
ATOM     10  C   UNL     1     -59.782  23.535 -30.139  1.00  0.00     0.146 A 
ATOM     11  O   UNL     1     -59.740  24.824 -29.818  1.00  0.00    -0.456 OA
ENDROOT
BRANCH   1  12
ATOM     12  C   UNL     1     -60.619  27.063 -29.534  1.00  0.00     0.021 A 
ATOM     13  C   UNL     1     -59.515  27.499 -28.779  1.00  0.00     0.016 A 
ATOM     14  C   UNL     1     -59.395  28.840 -28.408  1.00  0.00     0.051 A 
ATOM     15  C   UNL     1     -60.378  29.769 -28.776  1.00  0.00     0.157 A 
ATOM     16  C   UNL     1     -61.610  27.998 -29.888  1.00  0.00     0.062 A 
ATOM     17  C   UNL     1     -61.491  29.342 -29.519  1.00  0.00     0.158 A 
BRANCH  15  18
ATOM     18  O   UNL     1     -60.254  31.106 -28.405  1.00  0.00    -0.504 OA
ATOM     19  H   UNL     1     -60.876  31.818 -28.767  1.00  0.00     0.293 HD
ENDBRANCH  15  18
BRANCH  17  20
ATOM     20  O   UNL     1     -62.490  30.239 -29.898  1.00  0.00    -0.504 OA
ATOM     21  H   UNL     1     -63.308  29.946 -30.418  1.00  0.00     0.293 HD
ENDBRANCH  17  20
ENDBRANCH   1  12
BRANCH   6  22
ATOM     22  O   UNL     1     -62.108  20.823 -31.308  1.00  0.00    -0.507 OA
ATOM     23  H   UNL     1     -63.060  21.138 -31.203  1.00  0.00     0.293 HD
ENDBRANCH   6  22
BRANCH   8  24
ATOM     24  O   UNL     1     -57.448  20.666 -30.234  1.00  0.00    -0.508 OA
ATOM     25  H   UNL     1     -56.550  21.099 -30.056  1.00  0.00     0.293 HD
ENDBRANCH   8  24
TORSDOF 5
ENDMDL
MODEL 7
REMARK VINA RESULT:    -5.741      1.949      2.222
REMARK INTER + INTRA:          -7.053
REMARK INTER:                  -6.786
REMARK INTRA:                  -0.266
REMARK UNBOUND:                -0.305
REMARK SMILES O=c1cc(-c2ccc(O)c(O)c2)oc2cc(O)cc(O)c12
REMARK SMILES IDX 4 1 3 2 2 3 1 4 21 5 19 6 18 7 16 8 15 9 14 10 13 11 5 12
REMARK SMILES IDX 6 13 7 14 8 15 12 16 10 17 9 18 11 20 20 22 17 24
REMARK H PARENT 9 19 11 21 20 23 17 25
REMARK Flexibility Score: inf
ROOT
ATOM      1  C   UNL     1     -61.248  23.051 -30.610  1.00  0.00     0.138 A 
ATOM      2  C   UNL     1     -59.881  23.059 -30.919  1.00  0.00     0.100 A 
ATOM      3  C   UNL     1     -59.119  24.198 -30.654  1.00  0.00     0.197 A 
ATOM      4  O   UNL     1     -57.907  24.192 -30.994  1.00  0.00    -0.289 OA
ATOM      5  C   UNL     1     -59.723  25.322 -30.043  1.00  0.00     0.107 A 
ATOM      6  C   UNL     1     -59.038  26.526 -29.694  1.00  0.00     0.134 A 
ATOM      7  C   UNL     1     -59.764  27.609 -29.183  1.00  0.00     0.093 A 
ATOM      8  C   UNL     1     -61.136  27.514 -28.954  1.00  0.00     0.123 A 
ATOM      9  C   UNL     1     -61.807  26.326 -29.244  1.00  0.00     0.094 A 
ATOM     10  C   UNL     1     -61.118  25.239 -29.787  1.00  0.00     0.146 A 
ATOM     11  O   UNL     1     -61.798  24.131 -30.066  1.00  0.00    -0.456 OA
ENDROOT
BRANCH   1  12
ATOM     12  C   UNL     1     -62.105  21.866 -30.867  1.00  0.00     0.021 A 
ATOM     13  C   UNL     1     -63.187  21.915 -31.765  1.00  0.00     0.016 A 
ATOM     14  C   UNL     1     -63.982  20.787 -31.980  1.00  0.00     0.051 A 
ATOM     15  C   UNL     1     -63.717  19.593 -31.296  1.00  0.00     0.157 A 
ATOM     16  C   UNL     1     -61.853  20.668 -30.174  1.00  0.00     0.062 A 
ATOM     17  C   UNL     1     -62.647  19.536 -30.388  1.00  0.00     0.158 A 
BRANCH  15  18
ATOM     18  O   UNL     1     -64.512  18.470 -31.514  1.00  0.00    -0.504 OA
ATOM     19  H   UNL     1     -64.231  17.550 -31.196  1.00  0.00     0.293 HD
ENDBRANCH  15  18
BRANCH  17  20
ATOM     20  O   UNL     1     -62.359  18.364 -29.688  1.00  0.00    -0.504 OA
ATOM     21  H   UNL     1     -63.079  17.699 -29.433  1.00  0.00     0.293 HD
ENDBRANCH  17  20
ENDBRANCH   1  12
BRANCH   6  22
ATOM     22  O   UNL     1     -57.656  26.702 -29.809  1.00  0.00    -0.507 OA
ATOM     23  H   UNL     1     -57.052  27.044 -29.077  1.00  0.00     0.293 HD
ENDBRANCH   6  22
BRANCH   8  24
ATOM     24  O   UNL     1     -61.822  28.608 -28.430  1.00  0.00    -0.508 OA
ATOM     25  H   UNL     1     -62.383  28.528 -27.590  1.00  0.00     0.293 HD
ENDBRANCH   8  24
TORSDOF 5
ENDMDL
MODEL 8
REMARK VINA RESULT:    -5.633      1.934      2.934
REMARK INTER + INTRA:          -6.926
REMARK INTER:                  -6.663
REMARK INTRA:                  -0.263
REMARK UNBOUND:                -0.305
REMARK SMILES O=c1cc(-c2ccc(O)c(O)c2)oc2cc(O)cc(O)c12
REMARK SMILES IDX 4 1 3 2 2 3 1 4 21 5 19 6 18 7 16 8 15 9 14 10 13 11 5 12
REMARK SMILES IDX 6 13 7 14 8 15 12 16 10 17 9 18 11 20 20 22 17 24
REMARK H PARENT 9 19 11 21 20 23 17 25
REMARK Flexibility Score: inf
ROOT
ATOM      1  C   UNL     1     -61.541  21.243 -30.714  1.00  0.00     0.138 A 
ATOM      2  C   UNL     1     -62.671  21.650 -31.435  1.00  0.00     0.100 A 
ATOM      3  C   UNL     1     -62.990  23.007 -31.515  1.00  0.00     0.197 A 
ATOM      4  O   UNL     1     -64.041  23.334 -32.124  1.00  0.00    -0.289 OA
ATOM      5  C   UNL     1     -62.150  23.964 -30.896  1.00  0.00     0.107 A 
ATOM      6  C   UNL     1     -62.356  25.376 -30.939  1.00  0.00     0.134 A 
ATOM      7  C   UNL     1     -61.511  26.219 -30.205  1.00  0.00     0.093 A 
ATOM      8  C   UNL     1     -60.436  25.708 -29.479  1.00  0.00     0.123 A 
ATOM      9  C   UNL     1     -60.196  24.334 -29.470  1.00  0.00     0.094 A 
ATOM     10  C   UNL     1     -61.041  23.463 -30.164  1.00  0.00     0.146 A 
ATOM     11  O   UNL     1     -60.787  22.159 -30.115  1.00  0.00    -0.456 OA
ENDROOT
BRANCH   1  12
ATOM     12  C   UNL     1     -61.154  19.815 -30.599  1.00  0.00     0.021 A 
ATOM     13  C   UNL     1     -60.292  19.204 -31.529  1.00  0.00     0.016 A 
ATOM     14  C   UNL     1     -59.952  17.855 -31.402  1.00  0.00     0.051 A 
ATOM     15  C   UNL     1     -60.474  17.089 -30.350  1.00  0.00     0.157 A 
ATOM     16  C   UNL     1     -61.684  19.036 -29.554  1.00  0.00     0.062 A 
ATOM     17  C   UNL     1     -61.345  17.685 -29.423  1.00  0.00     0.158 A 
BRANCH  15  18
ATOM     18  O   UNL     1     -60.131  15.745 -30.226  1.00  0.00    -0.504 OA
ATOM     19  H   UNL     1     -60.108  15.126 -31.028  1.00  0.00     0.293 HD
ENDBRANCH  15  18
BRANCH  17  20
ATOM     20  O   UNL     1     -61.884  16.950 -28.368  1.00  0.00    -0.504 OA
ATOM     21  H   UNL     1     -62.502  16.162 -28.521  1.00  0.00     0.293 HD
ENDBRANCH  17  20
ENDBRANCH   1  12
BRANCH   6  22
ATOM     22  O   UNL     1     -63.352  26.000 -31.697  1.00  0.00    -0.507 OA
ATOM     23  H   UNL     1     -63.972  25.531 -32.339  1.00  0.00     0.293 HD
ENDBRANCH   6  22
BRANCH   8  24
ATOM     24  O   UNL     1     -59.609  26.578 -28.773  1.00  0.00    -0.508 OA
ATOM     25  H   UNL     1     -59.566  26.564 -27.761  1.00  0.00     0.293 HD
ENDBRANCH   8  24
TORSDOF 5
ENDMDL
MODEL 9
REMARK VINA RESULT:    -5.549      2.087      6.968
REMARK INTER + INTRA:          -6.827
REMARK INTER:                  -6.511
REMARK INTRA:                  -0.316
REMARK UNBOUND:                -0.305
REMARK SMILES O=c1cc(-c2ccc(O)c(O)c2)oc2cc(O)cc(O)c12
REMARK SMILES IDX 4 1 3 2 2 3 1 4 21 5 19 6 18 7 16 8 15 9 14 10 13 11 5 12
REMARK SMILES IDX 6 13 7 14 8 15 12 16 10 17 9 18 11 20 20 22 17 24
REMARK H PARENT 9 19 11 21 20 23 17 25
REMARK Flexibility Score: inf
ROOT
ATOM      1  C   UNL     1     -60.437  24.263 -29.977  1.00  0.00     0.138 A 
ATOM      2  C   UNL     1     -59.299  23.453 -29.863  1.00  0.00     0.100 A 
ATOM      3  C   UNL     1     -59.389  22.090 -30.148  1.00  0.00     0.197 A 
ATOM      4  O   UNL     1     -58.362  21.381 -29.983  1.00  0.00    -0.289 OA
ATOM      5  C   UNL     1     -60.619  21.542 -30.582  1.00  0.00     0.107 A 
ATOM      6  C   UNL     1     -60.822  20.172 -30.933  1.00  0.00     0.134 A 
ATOM      7  C   UNL     1     -62.110  19.726 -31.255  1.00  0.00     0.093 A 
ATOM      8  C   UNL     1     -63.189  20.608 -31.296  1.00  0.00     0.123 A 
ATOM      9  C   UNL     1     -62.994  21.957 -31.003  1.00  0.00     0.094 A 
ATOM     10  C   UNL     1     -61.728  22.427 -30.645  1.00  0.00     0.146 A 
ATOM     11  O   UNL     1     -61.588  23.718 -30.356  1.00  0.00    -0.456 OA
ENDROOT
BRANCH   1  12
ATOM     12  C   UNL     1     -60.397  25.719 -29.691  1.00  0.00     0.021 A 
ATOM     13  C   UNL     1     -59.184  26.402 -29.491  1.00  0.00     0.016 A 
ATOM     14  C   UNL     1     -59.177  27.771 -29.213  1.00  0.00     0.051 A 
ATOM     15  C   UNL     1     -60.382  28.481 -29.121  1.00  0.00     0.157 A 
ATOM     16  C   UNL     1     -61.603  26.435 -29.584  1.00  0.00     0.062 A 
ATOM     17  C   UNL     1     -61.601  27.807 -29.307  1.00  0.00     0.158 A 
BRANCH  15  18
ATOM     18  O   UNL     1     -60.372  29.846 -28.846  1.00  0.00    -0.504 OA
ATOM     19  H   UNL     1     -59.573  30.295 -28.413  1.00  0.00     0.293 HD
ENDBRANCH  15  18
BRANCH  17  20
ATOM     20  O   UNL     1     -62.817  28.483 -29.218  1.00  0.00    -0.504 OA
ATOM     21  H   UNL     1     -63.699  27.994 -29.125  1.00  0.00     0.293 HD
ENDBRANCH  17  20
ENDBRANCH   1  12
BRANCH   6  22
ATOM     22  O   UNL     1     -59.799  19.221 -31.002  1.00  0.00    -0.507 OA
ATOM     23  H   UNL     1     -58.927  19.271 -30.499  1.00  0.00     0.293 HD
ENDBRANCH   6  22
BRANCH   8  24
ATOM     24  O   UNL     1     -64.453  20.130 -31.635  1.00  0.00    -0.508 OA
ATOM     25  H   UNL     1     -64.588  19.492 -32.411  1.00  0.00     0.293 HD
ENDBRANCH   8  24
TORSDOF 5
ENDMDL
