MODEL 1
REMARK VINA RESULT:    -4.113      0.000      0.000
REMARK INTER + INTRA:          -4.492
REMARK INTER:                  -4.473
REMARK INTRA:                  -0.019
REMARK UNBOUND:                -0.019
REMARK SMILES OCc1ccccc1
REMARK SMILES IDX 2 1 3 2 6 3 5 4 7 5 4 6 8 7 1 8
REMARK H PARENT 1 9
REMARK Flexibility Score: inf
ROOT
ATOM      1  C   UNL     1     -29.412   4.060  67.258  1.00  0.00     0.191 C 
ENDROOT
BRANCH   1   2
ATOM      2  C   UNL     1     -30.750   3.642  67.797  1.00  0.00    -0.023 A 
ATOM      3  C   UNL     1     -33.276   2.939  68.797  1.00  0.00     0.000 A 
ATOM      4  C   UNL     1     -32.255   3.310  69.677  1.00  0.00     0.000 A 
ATOM      5  C   UNL     1     -33.042   2.928  67.419  1.00  0.00     0.000 A 
ATOM      6  C   UNL     1     -30.996   3.666  69.179  1.00  0.00     0.006 A 
ATOM      7  C   UNL     1     -31.787   3.284  66.918  1.00  0.00     0.006 A 
ENDBRANCH   1   2
BRANCH   1   8
ATOM      8  O   UNL     1     -29.576   4.588  65.972  1.00  0.00    -0.392 OA
ATOM      9  H   UNL     1     -30.320   5.241  66.036  1.00  0.00     0.211 HD
ENDBRANCH   1   8
TORSDOF 2
ENDMDL
MODEL 2
REMARK VINA RESULT:    -4.084     13.285     13.893
REMARK INTER + INTRA:          -4.461
REMARK INTER:                  -4.446
REMARK INTRA:                  -0.014
REMARK UNBOUND:                -0.019
REMARK SMILES OCc1ccccc1
REMARK SMILES IDX 2 1 3 2 6 3 5 4 7 5 4 6 8 7 1 8
REMARK H PARENT 1 9
REMARK Flexibility Score: inf
ROOT
ATOM      1  C   UNL     1     -30.607  -8.724  75.888  1.00  0.00     0.191 C 
ENDROOT
BRANCH   1   2
ATOM      2  C   UNL     1     -31.756  -8.372  74.988  1.00  0.00    -0.023 A 
ATOM      3  C   UNL     1     -33.868  -7.641  73.293  1.00  0.00     0.000 A 
ATOM      4  C   UNL     1     -33.950  -7.379  74.664  1.00  0.00     0.000 A 
ATOM      5  C   UNL     1     -32.731  -8.258  72.765  1.00  0.00     0.000 A 
ATOM      6  C   UNL     1     -32.895  -7.738  75.509  1.00  0.00     0.006 A 
ATOM      7  C   UNL     1     -31.674  -8.617  73.607  1.00  0.00     0.006 A 
ENDBRANCH   1   2
BRANCH   1   8
ATOM      8  O   UNL     1     -31.095  -9.364  77.033  1.00  0.00    -0.392 OA
ATOM      9  H   UNL     1     -30.298  -9.657  77.546  1.00  0.00     0.211 HD
ENDBRANCH   1   8
TORSDOF 2
ENDMDL
MODEL 3
REMARK VINA RESULT:    -4.078     17.910     18.651
REMARK INTER + INTRA:          -4.455
REMARK INTER:                  -4.439
REMARK INTRA:                  -0.016
REMARK UNBOUND:                -0.019
REMARK SMILES OCc1ccccc1
REMARK SMILES IDX 2 1 3 2 6 3 5 4 7 5 4 6 8 7 1 8
REMARK H PARENT 1 9
REMARK Flexibility Score: inf
ROOT
ATOM      1  C   UNL     1     -20.019  -4.481  78.041  1.00  0.00     0.191 C 
ENDROOT
BRANCH   1   2
ATOM      2  C   UNL     1     -19.742  -5.945  77.857  1.00  0.00    -0.023 A 
ATOM      3  C   UNL     1     -19.253  -8.676  77.435  1.00  0.00     0.000 A 
ATOM      4  C   UNL     1     -20.488  -8.257  77.938  1.00  0.00     0.000 A 
ATOM      5  C   UNL     1     -18.265  -7.735  77.133  1.00  0.00     0.000 A 
ATOM      6  C   UNL     1     -20.735  -6.895  78.144  1.00  0.00     0.006 A 
ATOM      7  C   UNL     1     -18.510  -6.373  77.335  1.00  0.00     0.006 A 
ENDBRANCH   1   2
BRANCH   1   8
ATOM      8  O   UNL     1     -18.859  -3.845  78.498  1.00  0.00    -0.392 OA
ATOM      9  H   UNL     1     -18.441  -3.429  77.700  1.00  0.00     0.211 HD
ENDBRANCH   1   8
TORSDOF 2
ENDMDL
MODEL 4
REMARK VINA RESULT:    -4.077      6.720      7.793
REMARK INTER + INTRA:          -4.453
REMARK INTER:                  -4.438
REMARK INTRA:                  -0.016
REMARK UNBOUND:                -0.019
REMARK SMILES OCc1ccccc1
REMARK SMILES IDX 2 1 3 2 6 3 5 4 7 5 4 6 8 7 1 8
REMARK H PARENT 1 9
REMARK Flexibility Score: inf
ROOT
ATOM      1  C   UNL     1     -28.620   1.468  75.816  1.00  0.00     0.191 C 
ENDROOT
BRANCH   1   2
ATOM      2  C   UNL     1     -28.813   2.718  75.006  1.00  0.00    -0.023 A 
ATOM      3  C   UNL     1     -29.129   5.021  73.434  1.00  0.00     0.000 A 
ATOM      4  C   UNL     1     -28.059   4.928  74.330  1.00  0.00     0.000 A 
ATOM      5  C   UNL     1     -30.035   3.963  73.314  1.00  0.00     0.000 A 
ATOM      6  C   UNL     1     -27.898   3.777  75.110  1.00  0.00     0.006 A 
ATOM      7  C   UNL     1     -29.875   2.812  74.091  1.00  0.00     0.006 A 
ENDBRANCH   1   2
BRANCH   1   8
ATOM      8  O   UNL     1     -29.864   1.013  76.267  1.00  0.00    -0.392 OA
ATOM      9  H   UNL     1     -29.791   0.946  77.254  1.00  0.00     0.211 HD
ENDBRANCH   1   8
TORSDOF 2
ENDMDL
MODEL 5
REMARK VINA RESULT:    -4.076     11.945     11.998
REMARK INTER + INTRA:          -4.452
REMARK INTER:                  -4.437
REMARK INTRA:                  -0.016
REMARK UNBOUND:                -0.019
REMARK SMILES OCc1ccccc1
REMARK SMILES IDX 2 1 3 2 6 3 5 4 7 5 4 6 8 7 1 8
REMARK H PARENT 1 9
REMARK Flexibility Score: inf
ROOT
ATOM      1  C   UNL     1     -27.816  -6.278  67.501  1.00  0.00     0.191 C 
ENDROOT
BRANCH   1   2
ATOM      2  C   UNL     1     -28.294  -7.495  68.239  1.00  0.00    -0.023 A 
ATOM      3  C   UNL     1     -29.158  -9.737  69.688  1.00  0.00     0.000 A 
ATOM      4  C   UNL     1     -27.890  -9.732  69.100  1.00  0.00     0.000 A 
ATOM      5  C   UNL     1     -29.992  -8.622  69.563  1.00  0.00     0.000 A 
ATOM      6  C   UNL     1     -27.456  -8.612  68.382  1.00  0.00     0.006 A 
ATOM      7  C   UNL     1     -29.561  -7.501  68.848  1.00  0.00     0.006 A 
ENDBRANCH   1   2
BRANCH   1   8
ATOM      8  O   UNL     1     -28.875  -5.739  66.761  1.00  0.00    -0.392 OA
ATOM      9  H   UNL     1     -29.656  -5.722  67.372  1.00  0.00     0.211 HD
ENDBRANCH   1   8
TORSDOF 2
ENDMDL
MODEL 6
REMARK VINA RESULT:    -4.067      2.412      3.580
REMARK INTER + INTRA:          -4.443
REMARK INTER:                  -4.423
REMARK INTRA:                  -0.019
REMARK UNBOUND:                -0.019
REMARK SMILES OCc1ccccc1
REMARK SMILES IDX 2 1 3 2 6 3 5 4 7 5 4 6 8 7 1 8
REMARK H PARENT 1 9
REMARK Flexibility Score: inf
ROOT
ATOM      1  C   UNL     1     -32.804   3.032  68.898  1.00  0.00     0.191 C 
ENDROOT
BRANCH   1   2
ATOM      2  C   UNL     1     -31.602   3.926  68.804  1.00  0.00    -0.023 A 
ATOM      3  C   UNL     1     -29.311   5.541  68.667  1.00  0.00     0.000 A 
ATOM      4  C   UNL     1     -30.194   5.672  69.742  1.00  0.00     0.000 A 
ATOM      5  C   UNL     1     -29.562   4.599  67.665  1.00  0.00     0.000 A 
ATOM      6  C   UNL     1     -31.334   4.863  69.814  1.00  0.00     0.006 A 
ATOM      7  C   UNL     1     -30.699   3.789  67.735  1.00  0.00     0.006 A 
ENDBRANCH   1   2
BRANCH   1   8
ATOM      8  O   UNL     1     -33.213   2.947  70.234  1.00  0.00    -0.392 OA
ATOM      9  H   UNL     1     -33.209   1.981  70.463  1.00  0.00     0.211 HD
ENDBRANCH   1   8
TORSDOF 2
ENDMDL
MODEL 7
REMARK VINA RESULT:    -4.049     12.804     13.848
REMARK INTER + INTRA:          -4.422
REMARK INTER:                  -4.405
REMARK INTRA:                  -0.018
REMARK UNBOUND:                -0.019
REMARK SMILES OCc1ccccc1
REMARK SMILES IDX 2 1 3 2 6 3 5 4 7 5 4 6 8 7 1 8
REMARK H PARENT 1 9
REMARK Flexibility Score: inf
ROOT
ATOM      1  C   UNL     1     -18.748  -0.497  67.373  1.00  0.00     0.191 C 
ENDROOT
BRANCH   1   2
ATOM      2  C   UNL     1     -18.354   0.896  67.771  1.00  0.00    -0.023 A 
ATOM      3  C   UNL     1     -17.663   3.492  68.583  1.00  0.00     0.000 A 
ATOM      4  C   UNL     1     -18.791   3.288  67.783  1.00  0.00     0.000 A 
ATOM      5  C   UNL     1     -16.886   2.403  68.987  1.00  0.00     0.000 A 
ATOM      6  C   UNL     1     -19.140   1.993  67.382  1.00  0.00     0.006 A 
ATOM      7  C   UNL     1     -17.232   1.109  68.590  1.00  0.00     0.006 A 
ENDBRANCH   1   2
BRANCH   1   8
ATOM      8  O   UNL     1     -17.602  -1.296  67.292  1.00  0.00    -0.392 OA
ATOM      9  H   UNL     1     -16.831  -0.688  67.440  1.00  0.00     0.211 HD
ENDBRANCH   1   8
TORSDOF 2
ENDMDL
MODEL 8
REMARK VINA RESULT:    -4.033      6.690      7.885
REMARK INTER + INTRA:          -4.405
REMARK INTER:                  -4.387
REMARK INTRA:                  -0.019
REMARK UNBOUND:                -0.019
REMARK SMILES OCc1ccccc1
REMARK SMILES IDX 2 1 3 2 6 3 5 4 7 5 4 6 8 7 1 8
REMARK H PARENT 1 9
REMARK Flexibility Score: inf
ROOT
ATOM      1  C   UNL     1     -28.444   1.731  75.949  1.00  0.00     0.191 C 
ENDROOT
BRANCH   1   2
ATOM      2  C   UNL     1     -28.698   2.866  75.000  1.00  0.00    -0.023 A 
ATOM      3  C   UNL     1     -29.218   5.023  73.282  1.00  0.00     0.000 A 
ATOM      4  C   UNL     1     -30.055   3.903  73.270  1.00  0.00     0.000 A 
ATOM      5  C   UNL     1     -28.128   5.073  74.156  1.00  0.00     0.000 A 
ATOM      6  C   UNL     1     -29.799   2.829  74.131  1.00  0.00     0.006 A 
ATOM      7  C   UNL     1     -27.871   4.002  75.017  1.00  0.00     0.006 A 
ENDBRANCH   1   2
BRANCH   1   8
ATOM      8  O   UNL     1     -29.653   1.084  76.231  1.00  0.00    -0.392 OA
ATOM      9  H   UNL     1     -29.930   0.639  75.389  1.00  0.00     0.211 HD
ENDBRANCH   1   8
TORSDOF 2
ENDMDL
MODEL 9
REMARK VINA RESULT:    -3.977     20.008     20.727
REMARK INTER + INTRA:          -4.345
REMARK INTER:                  -4.332
REMARK INTRA:                  -0.013
REMARK UNBOUND:                -0.019
REMARK SMILES OCc1ccccc1
REMARK SMILES IDX 2 1 3 2 6 3 5 4 7 5 4 6 8 7 1 8
REMARK H PARENT 1 9
REMARK Flexibility Score: inf
ROOT
ATOM      1  C   UNL     1     -18.014 -10.723  70.961  1.00  0.00     0.191 C 
ENDROOT
BRANCH   1   2
ATOM      2  C   UNL     1     -17.087 -10.102  71.964  1.00  0.00    -0.023 A 
ATOM      3  C   UNL     1     -15.307  -9.008  73.838  1.00  0.00     0.000 A 
ATOM      4  C   UNL     1     -16.411  -9.747  74.272  1.00  0.00     0.000 A 
ATOM      5  C   UNL     1     -15.084  -8.822  72.471  1.00  0.00     0.000 A 
ATOM      6  C   UNL     1     -17.296 -10.298  73.339  1.00  0.00     0.006 A 
ATOM      7  C   UNL     1     -15.965  -9.372  71.535  1.00  0.00     0.006 A 
ENDBRANCH   1   2
BRANCH   1   8
ATOM      8  O   UNL     1     -17.290 -11.598  70.142  1.00  0.00    -0.392 OA
ATOM      9  H   UNL     1     -16.439 -11.135  69.930  1.00  0.00     0.211 HD
ENDBRANCH   1   8
TORSDOF 2
ENDMDL
