MODEL 1
REMARK VINA RESULT:    -3.867      0.000      0.000
REMARK INTER + INTRA:          -4.566
REMARK INTER:                  -4.432
REMARK INTRA:                  -0.134
REMARK UNBOUND:                -0.134
REMARK SMILES O=C([O-])C=Cc1ccc(O)cc1
REMARK SMILES IDX 6 1 7 2 12 3 8 4 11 5 9 6 5 7 4 8 2 9 1 10 3 11 10 12
REMARK H PARENT 10 13
REMARK Flexibility Score: inf
ROOT
ATOM      1  C   UNL     1      27.957  27.910  26.907  1.00  0.00    -0.025 A 
ATOM      2  C   UNL     1      27.603  28.249  25.591  1.00  0.00     0.012 A 
ATOM      3  C   UNL     1      28.689  28.839  27.676  1.00  0.00     0.012 A 
ATOM      4  C   UNL     1      27.992  29.476  25.042  1.00  0.00     0.047 A 
ATOM      5  C   UNL     1      29.075  30.065  27.124  1.00  0.00     0.047 A 
ATOM      6  C   UNL     1      28.732  30.385  25.808  1.00  0.00     0.115 A 
ENDROOT
BRANCH   1   7
ATOM      7  C   UNL     1      27.512  26.601  27.448  1.00  0.00     0.010 C 
ATOM      8  C   UNL     1      26.432  26.444  28.225  1.00  0.00     0.025 C 
BRANCH   8   9
ATOM      9  C   UNL     1      26.035  25.128  28.749  1.00  0.00     0.064 C 
ATOM     10  O   UNL     1      25.242  24.408  28.087  1.00  0.00    -0.545 OA
ATOM     11  O   UNL     1      26.525  24.662  29.963  1.00  0.00    -0.545 OA
ENDBRANCH   8   9
ENDBRANCH   1   7
BRANCH   6  12
ATOM     12  O   UNL     1      29.124  31.610  25.273  1.00  0.00    -0.508 OA
ATOM     13  H   UNL     1      29.750  32.231  25.773  1.00  0.00     0.293 HD
ENDBRANCH   6  12
TORSDOF 3
ENDMDL
MODEL 2
REMARK VINA RESULT:    -3.681      1.675      5.796
REMARK INTER + INTRA:          -4.353
REMARK INTER:                  -4.217
REMARK INTRA:                  -0.136
REMARK UNBOUND:                -0.134
REMARK SMILES O=C([O-])C=Cc1ccc(O)cc1
REMARK SMILES IDX 6 1 7 2 12 3 8 4 11 5 9 6 5 7 4 8 2 9 1 10 3 11 10 12
REMARK H PARENT 10 13
REMARK Flexibility Score: inf
ROOT
ATOM      1  C   UNL     1      27.817  27.203  28.386  1.00  0.00    -0.025 A 
ATOM      2  C   UNL     1      28.948  26.415  28.652  1.00  0.00     0.012 A 
ATOM      3  C   UNL     1      26.595  26.873  29.010  1.00  0.00     0.012 A 
ATOM      4  C   UNL     1      28.860  25.306  29.499  1.00  0.00     0.047 A 
ATOM      5  C   UNL     1      26.512  25.764  29.858  1.00  0.00     0.047 A 
ATOM      6  C   UNL     1      27.640  24.977  30.102  1.00  0.00     0.115 A 
ENDROOT
BRANCH   1   7
ATOM      7  C   UNL     1      27.963  28.376  27.487  1.00  0.00     0.010 C 
ATOM      8  C   UNL     1      27.806  28.320  26.158  1.00  0.00     0.025 C 
BRANCH   8   9
ATOM      9  C   UNL     1      27.973  29.507  25.305  1.00  0.00     0.064 C 
ATOM     10  O   UNL     1      28.747  30.431  25.669  1.00  0.00    -0.545 OA
ATOM     11  O   UNL     1      27.291  29.626  24.099  1.00  0.00    -0.545 OA
ENDBRANCH   8   9
ENDBRANCH   1   7
BRANCH   6  12
ATOM     12  O   UNL     1      27.540  23.875  30.949  1.00  0.00    -0.508 OA
ATOM     13  H   UNL     1      27.028  23.043  30.679  1.00  0.00     0.293 HD
ENDBRANCH   6  12
TORSDOF 3
ENDMDL
MODEL 3
REMARK VINA RESULT:    -3.582     14.809     15.287
REMARK INTER + INTRA:          -4.240
REMARK INTER:                  -4.088
REMARK INTRA:                  -0.151
REMARK UNBOUND:                -0.134
REMARK SMILES O=C([O-])C=Cc1ccc(O)cc1
REMARK SMILES IDX 6 1 7 2 12 3 8 4 11 5 9 6 5 7 4 8 2 9 1 10 3 11 10 12
REMARK H PARENT 10 13
REMARK Flexibility Score: inf
ROOT
ATOM      1  C   UNL     1      27.915  41.060  21.345  1.00  0.00    -0.025 A 
ATOM      2  C   UNL     1      26.650  40.942  20.746  1.00  0.00     0.012 A 
ATOM      3  C   UNL     1      29.044  40.575  20.652  1.00  0.00     0.012 A 
ATOM      4  C   UNL     1      26.508  40.331  19.496  1.00  0.00     0.047 A 
ATOM      5  C   UNL     1      28.898  39.966  19.402  1.00  0.00     0.047 A 
ATOM      6  C   UNL     1      27.633  39.839  18.823  1.00  0.00     0.115 A 
ENDROOT
BRANCH   1   7
ATOM      7  C   UNL     1      28.015  41.726  22.668  1.00  0.00     0.010 C 
ATOM      8  C   UNL     1      27.138  42.636  23.113  1.00  0.00     0.025 C 
BRANCH   8   9
ATOM      9  C   UNL     1      27.285  43.279  24.428  1.00  0.00     0.064 C 
ATOM     10  O   UNL     1      28.409  43.287  24.994  1.00  0.00    -0.545 OA
ATOM     11  O   UNL     1      26.202  43.884  25.056  1.00  0.00    -0.545 OA
ENDBRANCH   8   9
ENDBRANCH   1   7
BRANCH   6  12
ATOM     12  O   UNL     1      27.504  39.229  17.576  1.00  0.00    -0.508 OA
ATOM     13  H   UNL     1      27.267  38.247  17.489  1.00  0.00     0.293 HD
ENDBRANCH   6  12
TORSDOF 3
ENDMDL
MODEL 4
REMARK VINA RESULT:    -3.314     14.322     15.327
REMARK INTER + INTRA:          -3.933
REMARK INTER:                  -3.786
REMARK INTRA:                  -0.146
REMARK UNBOUND:                -0.134
REMARK SMILES O=C([O-])C=Cc1ccc(O)cc1
REMARK SMILES IDX 6 1 7 2 12 3 8 4 11 5 9 6 5 7 4 8 2 9 1 10 3 11 10 12
REMARK H PARENT 10 13
REMARK Flexibility Score: inf
ROOT
ATOM      1  C   UNL     1      27.711  42.112  21.926  1.00  0.00    -0.025 A 
ATOM      2  C   UNL     1      28.233  41.450  23.049  1.00  0.00     0.012 A 
ATOM      3  C   UNL     1      27.236  43.433  22.076  1.00  0.00     0.012 A 
ATOM      4  C   UNL     1      28.260  42.077  24.298  1.00  0.00     0.047 A 
ATOM      5  C   UNL     1      27.266  44.057  23.327  1.00  0.00     0.047 A 
ATOM      6  C   UNL     1      27.773  43.382  24.440  1.00  0.00     0.115 A 
ENDROOT
BRANCH   1   7
ATOM      7  C   UNL     1      27.714  41.408  20.619  1.00  0.00     0.010 C 
ATOM      8  C   UNL     1      27.600  40.080  20.488  1.00  0.00     0.025 C 
BRANCH   8   9
ATOM      9  C   UNL     1      27.621  39.423  19.172  1.00  0.00     0.064 C 
ATOM     10  O   UNL     1      26.541  39.240  18.551  1.00  0.00    -0.545 OA
ATOM     11  O   UNL     1      28.815  39.003  18.598  1.00  0.00    -0.545 OA
ENDBRANCH   8   9
ENDBRANCH   1   7
BRANCH   6  12
ATOM     12  O   UNL     1      27.795  44.018  25.680  1.00  0.00    -0.508 OA
ATOM     13  H   UNL     1      27.361  43.601  26.496  1.00  0.00     0.293 HD
ENDBRANCH   6  12
TORSDOF 3
ENDMDL
MODEL 5
REMARK VINA RESULT:    -3.018      7.941      9.647
REMARK INTER + INTRA:          -3.593
REMARK INTER:                  -3.456
REMARK INTRA:                  -0.137
REMARK UNBOUND:                -0.134
REMARK SMILES O=C([O-])C=Cc1ccc(O)cc1
REMARK SMILES IDX 6 1 7 2 12 3 8 4 11 5 9 6 5 7 4 8 2 9 1 10 3 11 10 12
REMARK H PARENT 10 13
REMARK Flexibility Score: inf
ROOT
ATOM      1  C   UNL     1      19.775  24.636  24.258  1.00  0.00    -0.025 A 
ATOM      2  C   UNL     1      20.417  24.994  23.061  1.00  0.00     0.012 A 
ATOM      3  C   UNL     1      18.488  24.062  24.193  1.00  0.00     0.012 A 
ATOM      4  C   UNL     1      19.783  24.810  21.829  1.00  0.00     0.047 A 
ATOM      5  C   UNL     1      17.857  23.878  22.959  1.00  0.00     0.047 A 
ATOM      6  C   UNL     1      18.499  24.253  21.776  1.00  0.00     0.115 A 
ENDROOT
BRANCH   1   7
ATOM      7  C   UNL     1      20.494  24.842  25.540  1.00  0.00     0.010 C 
ATOM      8  C   UNL     1      20.259  25.867  26.370  1.00  0.00     0.025 C 
BRANCH   8   9
ATOM      9  C   UNL     1      21.006  26.037  27.626  1.00  0.00     0.064 C 
ATOM     10  O   UNL     1      22.083  25.409  27.799  1.00  0.00    -0.545 OA
ATOM     11  O   UNL     1      20.544  26.885  28.626  1.00  0.00    -0.545 OA
ENDBRANCH   8   9
ENDBRANCH   1   7
BRANCH   6  12
ATOM     12  O   UNL     1      17.857  24.064  20.554  1.00  0.00    -0.508 OA
ATOM     13  H   UNL     1      17.351  24.816  20.099  1.00  0.00     0.293 HD
ENDBRANCH   6  12
TORSDOF 3
ENDMDL
MODEL 6
REMARK VINA RESULT:    -2.938      3.371      4.690
REMARK INTER + INTRA:          -3.502
REMARK INTER:                  -3.360
REMARK INTRA:                  -0.141
REMARK UNBOUND:                -0.134
REMARK SMILES O=C([O-])C=Cc1ccc(O)cc1
REMARK SMILES IDX 6 1 7 2 12 3 8 4 11 5 9 6 5 7 4 8 2 9 1 10 3 11 10 12
REMARK H PARENT 10 13
REMARK Flexibility Score: inf
ROOT
ATOM      1  C   UNL     1      26.717  26.658  27.692  1.00  0.00    -0.025 A 
ATOM      2  C   UNL     1      26.129  25.383  27.669  1.00  0.00     0.012 A 
ATOM      3  C   UNL     1      27.650  26.995  26.689  1.00  0.00     0.012 A 
ATOM      4  C   UNL     1      26.480  24.454  26.685  1.00  0.00     0.047 A 
ATOM      5  C   UNL     1      27.998  26.063  25.706  1.00  0.00     0.047 A 
ATOM      6  C   UNL     1      27.418  24.792  25.702  1.00  0.00     0.115 A 
ENDROOT
BRANCH   1   7
ATOM      7  C   UNL     1      26.304  27.613  28.751  1.00  0.00     0.010 C 
ATOM      8  C   UNL     1      25.090  28.175  28.815  1.00  0.00     0.025 C 
BRANCH   8   9
ATOM      9  C   UNL     1      24.728  29.127  29.877  1.00  0.00     0.064 C 
ATOM     10  O   UNL     1      25.520  29.317  30.837  1.00  0.00    -0.545 OA
ATOM     11  O   UNL     1      23.526  29.824  29.837  1.00  0.00    -0.545 OA
ENDBRANCH   8   9
ENDBRANCH   1   7
BRANCH   6  12
ATOM     12  O   UNL     1      27.776  23.875  24.716  1.00  0.00    -0.508 OA
ATOM     13  H   UNL     1      28.087  22.939  24.951  1.00  0.00     0.293 HD
ENDBRANCH   6  12
TORSDOF 3
ENDMDL
MODEL 7
REMARK VINA RESULT:    -2.860     13.900     15.106
REMARK INTER + INTRA:          -3.412
REMARK INTER:                  -3.277
REMARK INTRA:                  -0.135
REMARK UNBOUND:                -0.134
REMARK SMILES O=C([O-])C=Cc1ccc(O)cc1
REMARK SMILES IDX 6 1 7 2 12 3 8 4 11 5 9 6 5 7 4 8 2 9 1 10 3 11 10 12
REMARK H PARENT 10 13
REMARK Flexibility Score: inf
ROOT
ATOM      1  C   UNL     1      27.620  40.814  20.793  1.00  0.00    -0.025 A 
ATOM      2  C   UNL     1      28.335  40.945  21.994  1.00  0.00     0.012 A 
ATOM      3  C   UNL     1      26.699  41.821  20.436  1.00  0.00     0.012 A 
ATOM      4  C   UNL     1      28.119  42.041  22.836  1.00  0.00     0.047 A 
ATOM      5  C   UNL     1      26.487  42.916  21.280  1.00  0.00     0.047 A 
ATOM      6  C   UNL     1      27.191  43.027  22.481  1.00  0.00     0.115 A 
ENDROOT
BRANCH   1   7
ATOM      7  C   UNL     1      27.893  39.638  19.928  1.00  0.00     0.010 C 
ATOM      8  C   UNL     1      28.778  39.642  18.922  1.00  0.00     0.025 C 
BRANCH   8   9
ATOM      9  C   UNL     1      29.006  38.456  18.083  1.00  0.00     0.064 C 
ATOM     10  O   UNL     1      29.099  38.587  16.834  1.00  0.00    -0.545 OA
ATOM     11  O   UNL     1      29.125  37.190  18.645  1.00  0.00    -0.545 OA
ENDBRANCH   8   9
ENDBRANCH   1   7
BRANCH   6  12
ATOM     12  O   UNL     1      26.967  44.124  23.311  1.00  0.00    -0.508 OA
ATOM     13  H   UNL     1      26.169  44.735  23.179  1.00  0.00     0.293 HD
ENDBRANCH   6  12
TORSDOF 3
ENDMDL
MODEL 8
REMARK VINA RESULT:    -2.777      3.592      4.991
REMARK INTER + INTRA:          -3.316
REMARK INTER:                  -3.163
REMARK INTRA:                  -0.153
REMARK UNBOUND:                -0.134
REMARK SMILES O=C([O-])C=Cc1ccc(O)cc1
REMARK SMILES IDX 6 1 7 2 12 3 8 4 11 5 9 6 5 7 4 8 2 9 1 10 3 11 10 12
REMARK H PARENT 10 13
REMARK Flexibility Score: inf
ROOT
ATOM      1  C   UNL     1      25.081  26.495  28.390  1.00  0.00    -0.025 A 
ATOM      2  C   UNL     1      25.435  25.187  28.022  1.00  0.00     0.012 A 
ATOM      3  C   UNL     1      26.105  27.413  28.708  1.00  0.00     0.012 A 
ATOM      4  C   UNL     1      26.777  24.792  27.996  1.00  0.00     0.047 A 
ATOM      5  C   UNL     1      27.445  27.014  28.680  1.00  0.00     0.047 A 
ATOM      6  C   UNL     1      27.784  25.705  28.328  1.00  0.00     0.115 A 
ENDROOT
BRANCH   1   7
ATOM      7  C   UNL     1      23.645  26.869  28.391  1.00  0.00     0.010 C 
ATOM      8  C   UNL     1      22.661  26.052  27.991  1.00  0.00     0.025 C 
BRANCH   8   9
ATOM      9  C   UNL     1      21.251  26.471  27.999  1.00  0.00     0.064 C 
ATOM     10  O   UNL     1      20.821  27.189  28.939  1.00  0.00    -0.545 OA
ATOM     11  O   UNL     1      20.384  26.089  26.982  1.00  0.00    -0.545 OA
ENDBRANCH   8   9
ENDBRANCH   1   7
BRANCH   6  12
ATOM     12  O   UNL     1      29.124  25.324  28.306  1.00  0.00    -0.508 OA
ATOM     13  H   UNL     1      29.783  25.740  27.657  1.00  0.00     0.293 HD
ENDBRANCH   6  12
TORSDOF 3
ENDMDL
MODEL 9
REMARK VINA RESULT:    -2.613      3.399      4.336
REMARK INTER + INTRA:          -3.129
REMARK INTER:                  -2.980
REMARK INTRA:                  -0.149
REMARK UNBOUND:                -0.134
REMARK SMILES O=C([O-])C=Cc1ccc(O)cc1
REMARK SMILES IDX 6 1 7 2 12 3 8 4 11 5 9 6 5 7 4 8 2 9 1 10 3 11 10 12
REMARK H PARENT 10 13
REMARK Flexibility Score: inf
ROOT
ATOM      1  C   UNL     1      26.497  27.638  28.522  1.00  0.00    -0.025 A 
ATOM      2  C   UNL     1      25.165  27.380  28.159  1.00  0.00     0.012 A 
ATOM      3  C   UNL     1      26.758  28.637  29.484  1.00  0.00     0.012 A 
ATOM      4  C   UNL     1      24.117  28.117  28.721  1.00  0.00     0.047 A 
ATOM      5  C   UNL     1      25.708  29.371  30.044  1.00  0.00     0.047 A 
ATOM      6  C   UNL     1      24.388  29.116  29.664  1.00  0.00     0.115 A 
ENDROOT
BRANCH   1   7
ATOM      7  C   UNL     1      27.573  26.822  27.905  1.00  0.00     0.010 C 
ATOM      8  C   UNL     1      27.374  25.611  27.368  1.00  0.00     0.025 C 
BRANCH   8   9
ATOM      9  C   UNL     1      28.474  24.832  26.779  1.00  0.00     0.064 C 
ATOM     10  O   UNL     1      29.038  23.937  27.461  1.00  0.00    -0.545 OA
ATOM     11  O   UNL     1      28.901  25.066  25.476  1.00  0.00    -0.545 OA
ENDBRANCH   8   9
ENDBRANCH   1   7
BRANCH   6  12
ATOM     12  O   UNL     1      23.353  29.857  30.231  1.00  0.00    -0.508 OA
ATOM     13  H   UNL     1      22.963  29.616  31.135  1.00  0.00     0.293 HD
ENDBRANCH   6  12
TORSDOF 3
ENDMDL
