MODEL 1
REMARK VINA RESULT:    -7.442      0.000      0.000
REMARK INTER + INTRA:          -7.406
REMARK INTER:                  -8.094
REMARK INTRA:                   0.688
REMARK UNBOUND:                 0.688
REMARK SMILES C[C@H]1[C@@H](C)CC[C@]2(C(=O)[O-])CC[C@]3(C)C(=CC[C@@H]4[C@]5(C)CC[C@H](O)C(C)(C)[C@@H]5CC[C@@]43C)[C@@H]12
REMARK SMILES IDX 7 1 6 2 11 3 33 4 5 5 12 6 15 7 2 8 3 9 13 10 16 11 1 12
REMARK SMILES IDX 4 13 14 14 31 15 17 16 18 17 30 18 32 19 19 20 29 21 28 22
REMARK SMILES IDX 21 23 20 24 25 25 22 26 23 27 26 28 27 29 8 30 9 31 10 32
REMARK SMILES IDX 24 33
REMARK H PARENT 24 34
REMARK Flexibility Score: inf
ROOT
ATOM      1  C   UNL     1     -11.705 -22.775   9.728  1.00  0.00     0.017 C 
ATOM      2  C   UNL     1     -11.046 -23.869   8.803  1.00  0.00     0.014 C 
ATOM      3  C   UNL     1     -10.901 -22.660  11.041  1.00  0.00     0.014 C 
ATOM      4  C   UNL     1     -13.157 -23.184  10.128  1.00  0.00     0.030 C 
ATOM      5  C   UNL     1     -11.885 -25.123   8.556  1.00  0.00     0.004 C 
ATOM      6  C   UNL     1     -11.453 -21.551  11.957  1.00  0.00     0.013 C 
ATOM      7  C   UNL     1     -13.783 -22.155  11.113  1.00  0.00    -0.063 C 
ATOM      8  C   UNL     1     -13.997 -23.611   8.864  1.00  0.00    -0.003 C 
ATOM      9  C   UNL     1     -13.334 -24.819   8.093  1.00  0.00    -0.011 C 
ATOM     10  C   UNL     1     -12.977 -21.690  12.349  1.00  0.00    -0.006 C 
ATOM     11  C   UNL     1     -15.118 -21.983  11.144  1.00  0.00    -0.027 C 
ATOM     12  C   UNL     1     -14.376 -22.424   7.950  1.00  0.00     0.008 C 
ATOM     13  C   UNL     1     -13.392 -24.723   6.554  1.00  0.00     0.008 C 
ATOM     14  C   UNL     1     -13.099 -22.885  13.368  1.00  0.00     0.017 C 
ATOM     15  C   UNL     1     -13.546 -20.314  13.033  1.00  0.00    -0.020 C 
ATOM     16  C   UNL     1     -15.678 -20.726  11.655  1.00  0.00     0.032 C 
ATOM     17  C   UNL     1     -15.137 -20.281  13.022  1.00  0.00     0.006 C 
ATOM     18  C   UNL     1     -13.039 -19.033  12.282  1.00  0.00     0.008 C 
ATOM     19  C   UNL     1     -12.995 -20.225  14.499  1.00  0.00     0.012 C 
ATOM     20  C   UNL     1     -15.827 -18.902  13.486  1.00  0.00    -0.025 C 
ATOM     21  C   UNL     1     -13.606 -17.694  12.753  1.00  0.00     0.005 C 
ATOM     22  C   UNL     1     -15.164 -17.599  12.818  1.00  0.00     0.003 C 
ATOM     23  C   UNL     1     -17.391 -18.912  13.275  1.00  0.00     0.010 C 
ATOM     24  C   UNL     1     -15.655 -18.771  15.037  1.00  0.00     0.012 C 
ATOM     25  C   UNL     1     -15.846 -16.888  11.566  1.00  0.00    -0.006 C 
ATOM     26  C   UNL     1     -17.887 -18.396  11.917  1.00  0.00     0.033 C 
ATOM     27  C   UNL     1     -17.391 -16.959  11.675  1.00  0.00     0.120 C 
ATOM     28  C   UNL     1     -15.487 -15.362  11.581  1.00  0.00     0.014 C 
ATOM     29  C   UNL     1     -15.390 -17.405  10.179  1.00  0.00     0.014 C 
ENDROOT
BRANCH   1  30
ATOM     30  C   UNL     1     -11.653 -21.408   9.003  1.00  0.00     0.048 C 
ATOM     31  O   UNL     1     -10.737 -21.154   8.153  1.00  0.00    -0.550 OA
ATOM     32  O   UNL     1     -12.570 -20.401   9.276  1.00  0.00    -0.550 OA
ENDBRANCH   1  30
BRANCH  27  33
ATOM     33  O   UNL     1     -17.987 -16.456  10.508  1.00  0.00    -0.393 OA
ATOM     34  H   UNL     1     -17.531 -15.605  10.282  1.00  0.00     0.210 HD
ENDBRANCH  27  33
TORSDOF 2
ENDMDL
MODEL 2
REMARK VINA RESULT:    -7.073      2.206      7.295
REMARK INTER + INTRA:          -7.005
REMARK INTER:                  -7.695
REMARK INTRA:                   0.691
REMARK UNBOUND:                 0.688
REMARK SMILES C[C@H]1[C@@H](C)CC[C@]2(C(=O)[O-])CC[C@]3(C)C(=CC[C@@H]4[C@]5(C)CC[C@H](O)C(C)(C)[C@@H]5CC[C@@]43C)[C@@H]12
REMARK SMILES IDX 7 1 6 2 11 3 33 4 5 5 12 6 15 7 2 8 3 9 13 10 16 11 1 12
REMARK SMILES IDX 4 13 14 14 31 15 17 16 18 17 30 18 32 19 19 20 29 21 28 22
REMARK SMILES IDX 21 23 20 24 25 25 22 26 23 27 26 28 27 29 8 30 9 31 10 32
REMARK SMILES IDX 24 33
REMARK H PARENT 24 34
REMARK Flexibility Score: inf
ROOT
ATOM      1  C   UNL     1     -14.373 -15.232  12.965  1.00  0.00     0.017 C 
ATOM      2  C   UNL     1     -14.108 -13.713  13.299  1.00  0.00     0.014 C 
ATOM      3  C   UNL     1     -15.814 -15.605  13.378  1.00  0.00     0.014 C 
ATOM      4  C   UNL     1     -13.420 -16.158  13.783  1.00  0.00     0.030 C 
ATOM      5  C   UNL     1     -13.071 -13.446  14.390  1.00  0.00     0.004 C 
ATOM      6  C   UNL     1     -16.159 -17.060  13.007  1.00  0.00     0.013 C 
ATOM      7  C   UNL     1     -13.734 -17.660  13.528  1.00  0.00    -0.063 C 
ATOM      8  C   UNL     1     -11.922 -15.680  13.664  1.00  0.00    -0.003 C 
ATOM      9  C   UNL     1     -11.731 -14.197  14.171  1.00  0.00    -0.011 C 
ATOM     10  C   UNL     1     -15.197 -18.161  13.607  1.00  0.00    -0.006 C 
ATOM     11  C   UNL     1     -12.757 -18.579  13.648  1.00  0.00    -0.027 C 
ATOM     12  C   UNL     1     -11.303 -15.945  12.273  1.00  0.00     0.008 C 
ATOM     13  C   UNL     1     -10.770 -13.335  13.326  1.00  0.00     0.008 C 
ATOM     14  C   UNL     1     -15.492 -18.261  15.151  1.00  0.00     0.017 C 
ATOM     15  C   UNL     1     -15.438 -19.617  12.896  1.00  0.00    -0.020 C 
ATOM     16  C   UNL     1     -12.879 -19.865  12.948  1.00  0.00     0.032 C 
ATOM     17  C   UNL     1     -14.213 -20.597  13.161  1.00  0.00     0.006 C 
ATOM     18  C   UNL     1     -15.619 -19.489  11.343  1.00  0.00     0.008 C 
ATOM     19  C   UNL     1     -16.771 -20.226  13.457  1.00  0.00     0.012 C 
ATOM     20  C   UNL     1     -14.228 -21.994  12.359  1.00  0.00    -0.025 C 
ATOM     21  C   UNL     1     -15.726 -20.795  10.556  1.00  0.00     0.005 C 
ATOM     22  C   UNL     1     -14.583 -21.833  10.800  1.00  0.00     0.003 C 
ATOM     23  C   UNL     1     -12.894 -22.813  12.554  1.00  0.00     0.010 C 
ATOM     24  C   UNL     1     -15.329 -22.907  12.997  1.00  0.00     0.012 C 
ATOM     25  C   UNL     1     -13.433 -21.837   9.698  1.00  0.00    -0.006 C 
ATOM     26  C   UNL     1     -11.785 -22.540  11.527  1.00  0.00     0.033 C 
ATOM     27  C   UNL     1     -12.296 -22.810  10.101  1.00  0.00     0.120 C 
ATOM     28  C   UNL     1     -14.012 -22.392   8.351  1.00  0.00     0.014 C 
ATOM     29  C   UNL     1     -12.841 -20.448   9.350  1.00  0.00     0.014 C 
ENDROOT
BRANCH   1  30
ATOM     30  C   UNL     1     -14.235 -15.440  11.438  1.00  0.00     0.048 C 
ATOM     31  O   UNL     1     -14.491 -14.493  10.623  1.00  0.00    -0.550 OA
ATOM     32  O   UNL     1     -13.869 -16.666  10.897  1.00  0.00    -0.550 OA
ENDBRANCH   1  30
BRANCH  27  33
ATOM     33  O   UNL     1     -11.224 -22.709   9.200  1.00  0.00    -0.393 OA
ATOM     34  H   UNL     1     -10.410 -22.500   9.726  1.00  0.00     0.210 HD
ENDBRANCH  27  33
TORSDOF 2
ENDMDL
MODEL 3
REMARK VINA RESULT:    -6.893      3.604      7.846
REMARK INTER + INTRA:          -6.809
REMARK INTER:                  -7.499
REMARK INTRA:                   0.689
REMARK UNBOUND:                 0.688
REMARK SMILES C[C@H]1[C@@H](C)CC[C@]2(C(=O)[O-])CC[C@]3(C)C(=CC[C@@H]4[C@]5(C)CC[C@H](O)C(C)(C)[C@@H]5CC[C@@]43C)[C@@H]12
REMARK SMILES IDX 7 1 6 2 11 3 33 4 5 5 12 6 15 7 2 8 3 9 13 10 16 11 1 12
REMARK SMILES IDX 4 13 14 14 31 15 17 16 18 17 30 18 32 19 19 20 29 21 28 22
REMARK SMILES IDX 21 23 20 24 25 25 22 26 23 27 26 28 27 29 8 30 9 31 10 32
REMARK SMILES IDX 24 33
REMARK H PARENT 24 34
REMARK Flexibility Score: inf
ROOT
ATOM      1  C   UNL     1     -14.010 -13.843  10.148  1.00  0.00     0.017 C 
ATOM      2  C   UNL     1     -13.665 -12.443   9.510  1.00  0.00     0.014 C 
ATOM      3  C   UNL     1     -15.123 -14.525   9.324  1.00  0.00     0.014 C 
ATOM      4  C   UNL     1     -14.566 -13.674  11.597  1.00  0.00     0.030 C 
ATOM      5  C   UNL     1     -14.015 -11.222  10.360  1.00  0.00     0.004 C 
ATOM      6  C   UNL     1     -15.452 -15.933   9.855  1.00  0.00     0.013 C 
ATOM      7  C   UNL     1     -14.993 -15.042  12.202  1.00  0.00    -0.063 C 
ATOM      8  C   UNL     1     -13.637 -12.736  12.458  1.00  0.00    -0.003 C 
ATOM      9  C   UNL     1     -13.480 -11.303  11.814  1.00  0.00    -0.011 C 
ATOM     10  C   UNL     1     -15.881 -16.003  11.374  1.00  0.00    -0.006 C 
ATOM     11  C   UNL     1     -14.958 -15.226  13.535  1.00  0.00    -0.027 C 
ATOM     12  C   UNL     1     -12.291 -13.393  12.844  1.00  0.00     0.008 C 
ATOM     13  C   UNL     1     -12.062 -10.701  11.894  1.00  0.00     0.008 C 
ATOM     14  C   UNL     1     -17.329 -15.391  11.488  1.00  0.00     0.017 C 
ATOM     15  C   UNL     1     -15.883 -17.546  11.925  1.00  0.00    -0.020 C 
ATOM     16  C   UNL     1     -14.858 -16.586  14.080  1.00  0.00     0.032 C 
ATOM     17  C   UNL     1     -15.876 -17.589  13.515  1.00  0.00     0.006 C 
ATOM     18  C   UNL     1     -14.632 -18.349  11.421  1.00  0.00     0.008 C 
ATOM     19  C   UNL     1     -17.148 -18.275  11.352  1.00  0.00     0.012 C 
ATOM     20  C   UNL     1     -15.681 -19.038  14.191  1.00  0.00    -0.025 C 
ATOM     21  C   UNL     1     -14.460 -19.764  11.974  1.00  0.00     0.005 C 
ATOM     22  C   UNL     1     -14.492 -19.896  13.531  1.00  0.00     0.003 C 
ATOM     23  C   UNL     1     -15.513 -18.954  15.757  1.00  0.00     0.010 C 
ATOM     24  C   UNL     1     -17.007 -19.848  13.995  1.00  0.00     0.012 C 
ATOM     25  C   UNL     1     -13.063 -19.980  14.227  1.00  0.00    -0.006 C 
ATOM     26  C   UNL     1     -14.073 -18.813  16.271  1.00  0.00     0.033 C 
ATOM     27  C   UNL     1     -13.208 -19.983  15.771  1.00  0.00     0.120 C 
ATOM     28  C   UNL     1     -12.389 -21.347  13.859  1.00  0.00     0.014 C 
ATOM     29  C   UNL     1     -12.048 -18.891  13.795  1.00  0.00     0.014 C 
ENDROOT
BRANCH   1  30
ATOM     30  C   UNL     1     -12.749 -14.740  10.100  1.00  0.00     0.048 C 
ATOM     31  O   UNL     1     -11.878 -14.593   9.180  1.00  0.00    -0.550 OA
ATOM     32  O   UNL     1     -12.538 -15.756  11.024  1.00  0.00    -0.550 OA
ENDBRANCH   1  30
BRANCH  27  33
ATOM     33  O   UNL     1     -11.946 -19.918  16.381  1.00  0.00    -0.393 OA
ATOM     34  H   UNL     1     -12.038 -19.367  17.200  1.00  0.00     0.210 HD
ENDBRANCH  27  33
TORSDOF 2
ENDMDL
MODEL 4
REMARK VINA RESULT:    -6.889      3.661      6.991
REMARK INTER + INTRA:          -6.805
REMARK INTER:                  -7.494
REMARK INTRA:                   0.689
REMARK UNBOUND:                 0.688
REMARK SMILES C[C@H]1[C@@H](C)CC[C@]2(C(=O)[O-])CC[C@]3(C)C(=CC[C@@H]4[C@]5(C)CC[C@H](O)C(C)(C)[C@@H]5CC[C@@]43C)[C@@H]12
REMARK SMILES IDX 7 1 6 2 11 3 33 4 5 5 12 6 15 7 2 8 3 9 13 10 16 11 1 12
REMARK SMILES IDX 4 13 14 14 31 15 17 16 18 17 30 18 32 19 19 20 29 21 28 22
REMARK SMILES IDX 21 23 20 24 25 25 22 26 23 27 26 28 27 29 8 30 9 31 10 32
REMARK SMILES IDX 24 33
REMARK H PARENT 24 34
REMARK Flexibility Score: inf
ROOT
ATOM      1  C   UNL     1     -16.142 -18.654  12.760  1.00  0.00     0.017 C 
ATOM      2  C   UNL     1     -17.016 -19.962  12.649  1.00  0.00     0.014 C 
ATOM      3  C   UNL     1     -17.030 -17.419  12.496  1.00  0.00     0.014 C 
ATOM      4  C   UNL     1     -15.020 -18.638  11.675  1.00  0.00     0.030 C 
ATOM      5  C   UNL     1     -16.673 -20.891  11.484  1.00  0.00     0.004 C 
ATOM      6  C   UNL     1     -16.248 -16.102  12.665  1.00  0.00     0.013 C 
ATOM      7  C   UNL     1     -14.210 -17.311  11.719  1.00  0.00    -0.063 C 
ATOM      8  C   UNL     1     -14.222 -19.997  11.662  1.00  0.00    -0.003 C 
ATOM      9  C   UNL     1     -15.163 -21.235  11.387  1.00  0.00    -0.011 C 
ATOM     10  C   UNL     1     -14.959 -15.957  11.763  1.00  0.00    -0.006 C 
ATOM     11  C   UNL     1     -12.926 -17.295  11.313  1.00  0.00    -0.027 C 
ATOM     12  C   UNL     1     -13.301 -20.180  12.890  1.00  0.00     0.008 C 
ATOM     13  C   UNL     1     -14.849 -22.494  12.220  1.00  0.00     0.008 C 
ATOM     14  C   UNL     1     -15.439 -15.728  10.280  1.00  0.00     0.017 C 
ATOM     15  C   UNL     1     -14.028 -14.699  12.248  1.00  0.00    -0.020 C 
ATOM     16  C   UNL     1     -12.022 -16.245  11.799  1.00  0.00     0.032 C 
ATOM     17  C   UNL     1     -12.556 -14.811  11.657  1.00  0.00     0.006 C 
ATOM     18  C   UNL     1     -13.909 -14.627  13.812  1.00  0.00     0.008 C 
ATOM     19  C   UNL     1     -14.716 -13.367  11.786  1.00  0.00     0.012 C 
ATOM     20  C   UNL     1     -11.480 -13.747  12.209  1.00  0.00    -0.025 C 
ATOM     21  C   UNL     1     -12.963 -13.568  14.377  1.00  0.00     0.005 C 
ATOM     22  C   UNL     1     -11.507 -13.582  13.807  1.00  0.00     0.003 C 
ATOM     23  C   UNL     1     -10.019 -14.049  11.697  1.00  0.00     0.010 C 
ATOM     24  C   UNL     1     -11.817 -12.349  11.588  1.00  0.00     0.012 C 
ATOM     25  C   UNL     1     -10.435 -14.322  14.723  1.00  0.00    -0.006 C 
ATOM     26  C   UNL     1      -9.172 -14.968  12.590  1.00  0.00     0.033 C 
ATOM     27  C   UNL     1      -9.060 -14.384  14.009  1.00  0.00     0.120 C 
ATOM     28  C   UNL     1     -10.202 -13.483  16.026  1.00  0.00     0.014 C 
ATOM     29  C   UNL     1     -10.840 -15.736  15.210  1.00  0.00     0.014 C 
ENDROOT
BRANCH   1  30
ATOM     30  C   UNL     1     -15.577 -18.549  14.198  1.00  0.00     0.048 C 
ATOM     31  O   UNL     1     -16.211 -19.047  15.187  1.00  0.00    -0.550 OA
ATOM     32  O   UNL     1     -14.390 -17.881  14.470  1.00  0.00    -0.550 OA
ENDBRANCH   1  30
BRANCH  27  33
ATOM     33  O   UNL     1      -8.156 -15.155  14.755  1.00  0.00    -0.393 OA
ATOM     34  H   UNL     1      -7.418 -15.421  14.149  1.00  0.00     0.210 HD
ENDBRANCH  27  33
TORSDOF 2
ENDMDL
MODEL 5
REMARK VINA RESULT:    -6.727     12.538     15.728
REMARK INTER + INTRA:          -6.629
REMARK INTER:                  -7.321
REMARK INTRA:                   0.692
REMARK UNBOUND:                 0.688
REMARK SMILES C[C@H]1[C@@H](C)CC[C@]2(C(=O)[O-])CC[C@]3(C)C(=CC[C@@H]4[C@]5(C)CC[C@H](O)C(C)(C)[C@@H]5CC[C@@]43C)[C@@H]12
REMARK SMILES IDX 7 1 6 2 11 3 33 4 5 5 12 6 15 7 2 8 3 9 13 10 16 11 1 12
REMARK SMILES IDX 4 13 14 14 31 15 17 16 18 17 30 18 32 19 19 20 29 21 28 22
REMARK SMILES IDX 21 23 20 24 25 25 22 26 23 27 26 28 27 29 8 30 9 31 10 32
REMARK SMILES IDX 24 33
REMARK H PARENT 24 34
REMARK Flexibility Score: inf
ROOT
ATOM      1  C   UNL     1     -16.604  -8.935   4.067  1.00  0.00     0.017 C 
ATOM      2  C   UNL     1     -16.585  -8.097   5.403  1.00  0.00     0.014 C 
ATOM      3  C   UNL     1     -15.427  -8.497   3.169  1.00  0.00     0.014 C 
ATOM      4  C   UNL     1     -17.910  -8.664   3.256  1.00  0.00     0.030 C 
ATOM      5  C   UNL     1     -17.761  -7.140   5.602  1.00  0.00     0.004 C 
ATOM      6  C   UNL     1     -15.347  -9.334   1.878  1.00  0.00     0.013 C 
ATOM      7  C   UNL     1     -17.897  -9.417   1.896  1.00  0.00    -0.063 C 
ATOM      8  C   UNL     1     -19.186  -8.801   4.171  1.00  0.00    -0.003 C 
ATOM      9  C   UNL     1     -19.146  -7.807   5.398  1.00  0.00    -0.011 C 
ATOM     10  C   UNL     1     -16.649  -9.330   0.983  1.00  0.00    -0.006 C 
ATOM     11  C   UNL     1     -19.058  -9.786   1.322  1.00  0.00    -0.027 C 
ATOM     12  C   UNL     1     -19.503 -10.262   4.566  1.00  0.00     0.008 C 
ATOM     13  C   UNL     1     -19.657  -8.392   6.731  1.00  0.00     0.008 C 
ATOM     14  C   UNL     1     -16.758  -7.911   0.308  1.00  0.00     0.017 C 
ATOM     15  C   UNL     1     -16.587 -10.493  -0.169  1.00  0.00    -0.020 C 
ATOM     16  C   UNL     1     -19.073 -10.892   0.356  1.00  0.00     0.032 C 
ATOM     17  C   UNL     1     -18.031 -10.787  -0.768  1.00  0.00     0.006 C 
ATOM     18  C   UNL     1     -16.021 -11.844   0.393  1.00  0.00     0.008 C 
ATOM     19  C   UNL     1     -15.600 -10.023  -1.294  1.00  0.00     0.012 C 
ATOM     20  C   UNL     1     -18.148 -12.043  -1.770  1.00  0.00    -0.025 C 
ATOM     21  C   UNL     1     -16.033 -13.040  -0.560  1.00  0.00     0.005 C 
ATOM     22  C   UNL     1     -17.408 -13.363  -1.229  1.00  0.00     0.003 C 
ATOM     23  C   UNL     1     -19.641 -12.356  -2.170  1.00  0.00     0.010 C 
ATOM     24  C   UNL     1     -17.468 -11.648  -3.125  1.00  0.00     0.012 C 
ATOM     25  C   UNL     1     -18.234 -14.534  -0.535  1.00  0.00    -0.006 C 
ATOM     26  C   UNL     1     -20.384 -13.348  -1.264  1.00  0.00     0.033 C 
ATOM     27  C   UNL     1     -19.627 -14.686  -1.199  1.00  0.00     0.120 C 
ATOM     28  C   UNL     1     -17.497 -15.897  -0.773  1.00  0.00     0.014 C 
ATOM     29  C   UNL     1     -18.393 -14.415   1.002  1.00  0.00     0.014 C 
ENDROOT
BRANCH   1  30
ATOM     30  C   UNL     1     -16.422 -10.433   4.413  1.00  0.00     0.048 C 
ATOM     31  O   UNL     1     -15.800 -10.789   5.468  1.00  0.00    -0.550 OA
ATOM     32  O   UNL     1     -16.888 -11.438   3.576  1.00  0.00    -0.550 OA
ENDBRANCH   1  30
BRANCH  27  33
ATOM     33  O   UNL     1     -20.403 -15.622  -0.499  1.00  0.00    -0.393 OA
ATOM     34  H   UNL     1     -19.859 -16.444  -0.394  1.00  0.00     0.210 HD
ENDBRANCH  27  33
TORSDOF 2
ENDMDL
MODEL 6
REMARK VINA RESULT:    -6.708      2.202      3.725
REMARK INTER + INTRA:          -6.608
REMARK INTER:                  -7.299
REMARK INTRA:                   0.691
REMARK UNBOUND:                 0.688
REMARK SMILES C[C@H]1[C@@H](C)CC[C@]2(C(=O)[O-])CC[C@]3(C)C(=CC[C@@H]4[C@]5(C)CC[C@H](O)C(C)(C)[C@@H]5CC[C@@]43C)[C@@H]12
REMARK SMILES IDX 7 1 6 2 11 3 33 4 5 5 12 6 15 7 2 8 3 9 13 10 16 11 1 12
REMARK SMILES IDX 4 13 14 14 31 15 17 16 18 17 30 18 32 19 19 20 29 21 28 22
REMARK SMILES IDX 21 23 20 24 25 25 22 26 23 27 26 28 27 29 8 30 9 31 10 32
REMARK SMILES IDX 24 33
REMARK H PARENT 24 34
REMARK Flexibility Score: inf
ROOT
ATOM      1  C   UNL     1     -12.589 -21.985  11.800  1.00  0.00     0.017 C 
ATOM      2  C   UNL     1     -11.730 -23.276  11.514  1.00  0.00     0.014 C 
ATOM      3  C   UNL     1     -13.874 -22.379  12.561  1.00  0.00     0.014 C 
ATOM      4  C   UNL     1     -13.048 -21.313  10.468  1.00  0.00     0.030 C 
ATOM      5  C   UNL     1     -11.591 -23.668  10.043  1.00  0.00     0.004 C 
ATOM      6  C   UNL     1     -14.720 -21.148  12.936  1.00  0.00     0.013 C 
ATOM      7  C   UNL     1     -13.970 -20.090  10.739  1.00  0.00    -0.063 C 
ATOM      8  C   UNL     1     -11.835 -21.126   9.478  1.00  0.00    -0.003 C 
ATOM      9  C   UNL     1     -11.137 -22.499   9.129  1.00  0.00    -0.011 C 
ATOM     10  C   UNL     1     -15.154 -20.227  11.727  1.00  0.00    -0.006 C 
ATOM     11  C   UNL     1     -14.017 -19.076   9.854  1.00  0.00    -0.027 C 
ATOM     12  C   UNL     1     -10.847 -20.023   9.920  1.00  0.00     0.008 C 
ATOM     13  C   UNL     1      -9.597 -22.449   9.053  1.00  0.00     0.008 C 
ATOM     14  C   UNL     1     -16.257 -21.001  10.911  1.00  0.00     0.017 C 
ATOM     15  C   UNL     1     -15.750 -18.794  12.251  1.00  0.00    -0.020 C 
ATOM     16  C   UNL     1     -14.449 -17.744  10.296  1.00  0.00     0.032 C 
ATOM     17  C   UNL     1     -15.770 -17.717  11.081  1.00  0.00     0.006 C 
ATOM     18  C   UNL     1     -14.899 -18.201  13.429  1.00  0.00     0.008 C 
ATOM     19  C   UNL     1     -17.194 -19.035  12.814  1.00  0.00     0.012 C 
ATOM     20  C   UNL     1     -16.150 -16.209  11.502  1.00  0.00    -0.025 C 
ATOM     21  C   UNL     1     -15.287 -16.805  13.917  1.00  0.00     0.005 C 
ATOM     22  C   UNL     1     -15.377 -15.700  12.816  1.00  0.00     0.003 C 
ATOM     23  C   UNL     1     -15.973 -15.189  10.312  1.00  0.00     0.010 C 
ATOM     24  C   UNL     1     -17.684 -16.164  11.815  1.00  0.00     0.012 C 
ATOM     25  C   UNL     1     -14.093 -14.765  12.696  1.00  0.00    -0.006 C 
ATOM     26  C   UNL     1     -14.592 -14.528  10.195  1.00  0.00     0.033 C 
ATOM     27  C   UNL     1     -14.239 -13.791  11.499  1.00  0.00     0.120 C 
ATOM     28  C   UNL     1     -13.992 -13.860  13.973  1.00  0.00     0.014 C 
ATOM     29  C   UNL     1     -12.736 -15.508  12.610  1.00  0.00     0.014 C 
ENDROOT
BRANCH   1  30
ATOM     30  C   UNL     1     -11.769 -21.024  12.695  1.00  0.00     0.048 C 
ATOM     31  O   UNL     1     -10.875 -21.473  13.487  1.00  0.00    -0.550 OA
ATOM     32  O   UNL     1     -11.997 -19.654  12.699  1.00  0.00    -0.550 OA
ENDBRANCH   1  30
BRANCH  27  33
ATOM     33  O   UNL     1     -13.052 -13.065  11.312  1.00  0.00    -0.393 OA
ATOM     34  H   UNL     1     -13.286 -12.223  10.845  1.00  0.00     0.210 HD
ENDBRANCH  27  33
TORSDOF 2
ENDMDL
MODEL 7
REMARK VINA RESULT:    -6.687      7.720     11.852
REMARK INTER + INTRA:          -6.585
REMARK INTER:                  -7.277
REMARK INTRA:                   0.692
REMARK UNBOUND:                 0.688
REMARK SMILES C[C@H]1[C@@H](C)CC[C@]2(C(=O)[O-])CC[C@]3(C)C(=CC[C@@H]4[C@]5(C)CC[C@H](O)C(C)(C)[C@@H]5CC[C@@]43C)[C@@H]12
REMARK SMILES IDX 7 1 6 2 11 3 33 4 5 5 12 6 15 7 2 8 3 9 13 10 16 11 1 12
REMARK SMILES IDX 4 13 14 14 31 15 17 16 18 17 30 18 32 19 19 20 29 21 28 22
REMARK SMILES IDX 21 23 20 24 25 25 22 26 23 27 26 28 27 29 8 30 9 31 10 32
REMARK SMILES IDX 24 33
REMARK H PARENT 24 34
REMARK Flexibility Score: inf
ROOT
ATOM      1  C   UNL     1     -11.266 -12.357  12.102  1.00  0.00     0.017 C 
ATOM      2  C   UNL     1     -11.106 -13.770  12.783  1.00  0.00     0.014 C 
ATOM      3  C   UNL     1      -9.916 -11.608  12.148  1.00  0.00     0.014 C 
ATOM      4  C   UNL     1     -12.293 -11.475  12.878  1.00  0.00     0.030 C 
ATOM      5  C   UNL     1     -11.886 -13.971  14.082  1.00  0.00     0.004 C 
ATOM      6  C   UNL     1      -9.989 -10.248  11.428  1.00  0.00     0.013 C 
ATOM      7  C   UNL     1     -12.391 -10.049  12.266  1.00  0.00    -0.063 C 
ATOM      8  C   UNL     1     -13.632 -12.264  13.147  1.00  0.00    -0.003 C 
ATOM      9  C   UNL     1     -13.385 -13.586  13.973  1.00  0.00    -0.011 C 
ATOM     10  C   UNL     1     -11.097  -9.255  11.961  1.00  0.00    -0.006 C 
ATOM     11  C   UNL     1     -13.535  -9.348  12.379  1.00  0.00    -0.027 C 
ATOM     12  C   UNL     1     -14.483 -12.477  11.874  1.00  0.00     0.008 C 
ATOM     13  C   UNL     1     -14.216 -14.805  13.521  1.00  0.00     0.008 C 
ATOM     14  C   UNL     1     -10.624  -8.725  13.367  1.00  0.00     0.017 C 
ATOM     15  C   UNL     1     -11.317  -7.997  10.935  1.00  0.00    -0.020 C 
ATOM     16  C   UNL     1     -13.827  -8.274  11.421  1.00  0.00     0.032 C 
ATOM     17  C   UNL     1     -12.694  -7.255  11.221  1.00  0.00     0.006 C 
ATOM     18  C   UNL     1     -11.327  -8.459   9.435  1.00  0.00     0.008 C 
ATOM     19  C   UNL     1     -10.107  -7.011  11.095  1.00  0.00     0.012 C 
ATOM     20  C   UNL     1     -13.130  -6.121  10.163  1.00  0.00    -0.025 C 
ATOM     21  C   UNL     1     -11.650  -7.389   8.392  1.00  0.00     0.005 C 
ATOM     22  C   UNL     1     -12.966  -6.580   8.631  1.00  0.00     0.003 C 
ATOM     23  C   UNL     1     -14.582  -5.571  10.435  1.00  0.00     0.010 C 
ATOM     24  C   UNL     1     -12.206  -4.875  10.379  1.00  0.00     0.012 C 
ATOM     25  C   UNL     1     -14.223  -7.079   7.790  1.00  0.00    -0.006 C 
ATOM     26  C   UNL     1     -15.724  -6.305   9.717  1.00  0.00     0.033 C 
ATOM     27  C   UNL     1     -15.496  -6.291   8.195  1.00  0.00     0.120 C 
ATOM     28  C   UNL     1     -13.988  -6.761   6.273  1.00  0.00     0.014 C 
ATOM     29  C   UNL     1     -14.503  -8.602   7.853  1.00  0.00     0.014 C 
ENDROOT
BRANCH   1  30
ATOM     30  C   UNL     1     -11.661 -12.558  10.618  1.00  0.00     0.048 C 
ATOM     31  O   UNL     1     -11.306 -13.607   9.984  1.00  0.00    -0.550 OA
ATOM     32  O   UNL     1     -12.376 -11.597   9.915  1.00  0.00    -0.550 OA
ENDBRANCH   1  30
BRANCH  27  33
ATOM     33  O   UNL     1     -16.625  -6.825   7.554  1.00  0.00    -0.393 OA
ATOM     34  H   UNL     1     -16.651  -6.455   6.635  1.00  0.00     0.210 HD
ENDBRANCH  27  33
TORSDOF 2
ENDMDL
MODEL 8
REMARK VINA RESULT:    -6.645      1.449      2.098
REMARK INTER + INTRA:          -6.539
REMARK INTER:                  -7.230
REMARK INTRA:                   0.691
REMARK UNBOUND:                 0.688
REMARK SMILES C[C@H]1[C@@H](C)CC[C@]2(C(=O)[O-])CC[C@]3(C)C(=CC[C@@H]4[C@]5(C)CC[C@H](O)C(C)(C)[C@@H]5CC[C@@]43C)[C@@H]12
REMARK SMILES IDX 7 1 6 2 11 3 33 4 5 5 12 6 15 7 2 8 3 9 13 10 16 11 1 12
REMARK SMILES IDX 4 13 14 14 31 15 17 16 18 17 30 18 32 19 19 20 29 21 28 22
REMARK SMILES IDX 21 23 20 24 25 25 22 26 23 27 26 28 27 29 8 30 9 31 10 32
REMARK SMILES IDX 24 33
REMARK H PARENT 24 34
REMARK Flexibility Score: inf
ROOT
ATOM      1  C   UNL     1     -10.045 -21.357  10.808  1.00  0.00     0.017 C 
ATOM      2  C   UNL     1      -9.017 -22.205   9.964  1.00  0.00     0.014 C 
ATOM      3  C   UNL     1      -9.303 -20.653  11.965  1.00  0.00     0.014 C 
ATOM      4  C   UNL     1     -11.124 -22.276  11.462  1.00  0.00     0.030 C 
ATOM      5  C   UNL     1      -9.206 -23.721  10.019  1.00  0.00     0.004 C 
ATOM      6  C   UNL     1     -10.242 -19.747  12.783  1.00  0.00     0.013 C 
ATOM      7  C   UNL     1     -12.088 -21.459  12.368  1.00  0.00    -0.063 C 
ATOM      8  C   UNL     1     -11.752 -23.259  10.402  1.00  0.00    -0.003 C 
ATOM      9  C   UNL     1     -10.660 -24.177   9.725  1.00  0.00    -0.011 C 
ATOM     10  C   UNL     1     -11.509 -20.461  13.401  1.00  0.00    -0.006 C 
ATOM     11  C   UNL     1     -13.350 -21.886  12.562  1.00  0.00    -0.027 C 
ATOM     12  C   UNL     1     -12.685 -22.556   9.391  1.00  0.00     0.008 C 
ATOM     13  C   UNL     1     -10.848 -24.411   8.212  1.00  0.00     0.008 C 
ATOM     14  C   UNL     1     -11.010 -21.372  14.586  1.00  0.00     0.017 C 
ATOM     15  C   UNL     1     -12.600 -19.372  13.955  1.00  0.00    -0.020 C 
ATOM     16  C   UNL     1     -14.389 -20.929  12.962  1.00  0.00     0.032 C 
ATOM     17  C   UNL     1     -14.027 -20.041  14.163  1.00  0.00     0.006 C 
ATOM     18  C   UNL     1     -12.778 -18.167  12.965  1.00  0.00     0.008 C 
ATOM     19  C   UNL     1     -12.061 -18.773  15.302  1.00  0.00     0.012 C 
ATOM     20  C   UNL     1     -15.241 -19.043  14.518  1.00  0.00    -0.025 C 
ATOM     21  C   UNL     1     -13.864 -17.148  13.316  1.00  0.00     0.005 C 
ATOM     22  C   UNL     1     -15.287 -17.736  13.585  1.00  0.00     0.003 C 
ATOM     23  C   UNL     1     -16.638 -19.777  14.532  1.00  0.00     0.010 C 
ATOM     24  C   UNL     1     -15.053 -18.558  15.995  1.00  0.00     0.012 C 
ATOM     25  C   UNL     1     -16.293 -17.647  12.354  1.00  0.00    -0.006 C 
ATOM     26  C   UNL     1     -17.397 -19.799  13.198  1.00  0.00     0.033 C 
ATOM     27  C   UNL     1     -17.626 -18.366  12.687  1.00  0.00     0.120 C 
ATOM     28  C   UNL     1     -16.669 -16.146  12.101  1.00  0.00     0.014 C 
ATOM     29  C   UNL     1     -15.737 -18.166  11.003  1.00  0.00     0.014 C 
ENDROOT
BRANCH   1  30
ATOM     30  C   UNL     1     -10.666 -20.271   9.896  1.00  0.00     0.048 C 
ATOM     31  O   UNL     1     -10.028 -19.823   8.887  1.00  0.00    -0.550 OA
ATOM     32  O   UNL     1     -11.913 -19.720  10.161  1.00  0.00    -0.550 OA
ENDBRANCH   1  30
BRANCH  27  33
ATOM     33  O   UNL     1     -18.455 -18.406  11.555  1.00  0.00    -0.393 OA
ATOM     34  H   UNL     1     -18.376 -19.311  11.158  1.00  0.00     0.210 HD
ENDBRANCH  27  33
TORSDOF 2
ENDMDL
MODEL 9
REMARK VINA RESULT:    -6.576      4.204      6.574
REMARK INTER + INTRA:          -6.465
REMARK INTER:                  -7.154
REMARK INTRA:                   0.690
REMARK UNBOUND:                 0.688
REMARK SMILES C[C@H]1[C@@H](C)CC[C@]2(C(=O)[O-])CC[C@]3(C)C(=CC[C@@H]4[C@]5(C)CC[C@H](O)C(C)(C)[C@@H]5CC[C@@]43C)[C@@H]12
REMARK SMILES IDX 7 1 6 2 11 3 33 4 5 5 12 6 15 7 2 8 3 9 13 10 16 11 1 12
REMARK SMILES IDX 4 13 14 14 31 15 17 16 18 17 30 18 32 19 19 20 29 21 28 22
REMARK SMILES IDX 21 23 20 24 25 25 22 26 23 27 26 28 27 29 8 30 9 31 10 32
REMARK SMILES IDX 24 33
REMARK H PARENT 24 34
REMARK Flexibility Score: inf
ROOT
ATOM      1  C   UNL     1     -13.541 -20.037  12.013  1.00  0.00     0.017 C 
ATOM      2  C   UNL     1     -14.863 -20.704  11.472  1.00  0.00     0.014 C 
ATOM      3  C   UNL     1     -12.321 -20.858  11.542  1.00  0.00     0.014 C 
ATOM      4  C   UNL     1     -13.509 -20.044  13.573  1.00  0.00     0.030 C 
ATOM      5  C   UNL     1     -15.790 -21.297  12.535  1.00  0.00     0.004 C 
ATOM      6  C   UNL     1     -10.992 -20.212  11.976  1.00  0.00     0.013 C 
ATOM      7  C   UNL     1     -12.169 -19.469  14.114  1.00  0.00    -0.063 C 
ATOM      8  C   UNL     1     -14.856 -19.484  14.173  1.00  0.00    -0.003 C 
ATOM      9  C   UNL     1     -16.109 -20.318  13.696  1.00  0.00    -0.011 C 
ATOM     10  C   UNL     1     -10.827 -19.973  13.530  1.00  0.00    -0.006 C 
ATOM     11  C   UNL     1     -12.134 -18.874  15.322  1.00  0.00    -0.027 C 
ATOM     12  C   UNL     1     -15.021 -17.958  13.990  1.00  0.00     0.008 C 
ATOM     13  C   UNL     1     -17.361 -19.483  13.359  1.00  0.00     0.008 C 
ATOM     14  C   UNL     1     -10.610 -21.379  14.207  1.00  0.00     0.017 C 
ATOM     15  C   UNL     1      -9.554 -18.994  13.853  1.00  0.00    -0.020 C 
ATOM     16  C   UNL     1     -11.068 -17.911  15.627  1.00  0.00     0.032 C 
ATOM     17  C   UNL     1      -9.643 -18.402  15.327  1.00  0.00     0.006 C 
ATOM     18  C   UNL     1      -9.476 -17.785  12.857  1.00  0.00     0.008 C 
ATOM     19  C   UNL     1      -8.234 -19.821  13.663  1.00  0.00     0.012 C 
ATOM     20  C   UNL     1      -8.561 -17.272  15.711  1.00  0.00    -0.025 C 
ATOM     21  C   UNL     1      -8.401 -16.735  13.138  1.00  0.00     0.005 C 
ATOM     22  C   UNL     1      -8.392 -16.139  14.583  1.00  0.00     0.003 C 
ATOM     23  C   UNL     1      -8.840 -16.627  17.122  1.00  0.00     0.010 C 
ATOM     24  C   UNL     1      -7.170 -17.971  15.882  1.00  0.00     0.012 C 
ATOM     25  C   UNL     1      -9.113 -14.727  14.731  1.00  0.00    -0.006 C 
ATOM     26  C   UNL     1      -9.744 -15.385  17.125  1.00  0.00     0.033 C 
ATOM     27  C   UNL     1      -9.154 -14.290  16.218  1.00  0.00     0.120 C 
ATOM     28  C   UNL     1      -8.268 -13.635  13.989  1.00  0.00     0.014 C 
ATOM     29  C   UNL     1     -10.532 -14.637  14.116  1.00  0.00     0.014 C 
ENDROOT
BRANCH   1  30
ATOM     30  C   UNL     1     -13.424 -18.610  11.425  1.00  0.00     0.048 C 
ATOM     31  O   UNL     1     -13.971 -18.315  10.311  1.00  0.00    -0.550 OA
ATOM     32  O   UNL     1     -12.693 -17.614  12.062  1.00  0.00    -0.550 OA
ENDBRANCH   1  30
BRANCH  27  33
ATOM     33  O   UNL     1      -9.909 -13.116  16.362  1.00  0.00    -0.393 OA
ATOM     34  H   UNL     1      -9.348 -12.456  16.843  1.00  0.00     0.210 HD
ENDBRANCH  27  33
TORSDOF 2
ENDMDL
