MODEL 1
REMARK VINA RESULT:     7.919      0.000      0.000
REMARK INTER + INTRA:          14.084
REMARK INTER:                  14.864
REMARK INTRA:                  -0.780
REMARK UNBOUND:                -0.780
REMARK SMILES O=C([O-])CCCCCCCCCCCCCCC(=O)[O-]
REMARK SMILES IDX 10 1 9 2 8 3 7 4 6 5 5 6 4 7 2 8 1 9 3 10 11 11 12 12 13 13
REMARK SMILES IDX 14 14 15 15 16 16 17 17 18 18 19 19 20 20
REMARK H PARENT
REMARK Flexibility Score: inf
ROOT
ATOM      1  C   UNL     1      59.124  -3.453  -1.723  1.00  0.00     0.000 C 
ENDROOT
BRANCH   1   2
ATOM      2  C   UNL     1      58.347  -4.168  -2.841  1.00  0.00     0.000 C 
BRANCH   2   3
ATOM      3  C   UNL     1      59.020  -4.020  -4.217  1.00  0.00     0.000 C 
BRANCH   3   4
ATOM      4  C   UNL     1      58.025  -4.227  -5.379  1.00  0.00     0.000 C 
BRANCH   4   5
ATOM      5  C   UNL     1      58.502  -3.632  -6.717  1.00  0.00     0.000 C 
BRANCH   5   6
ATOM      6  C   UNL     1      58.768  -2.114  -6.694  1.00  0.00     0.006 C 
BRANCH   6   7
ATOM      7  C   UNL     1      57.515  -1.257  -6.450  1.00  0.00     0.053 C 
BRANCH   7   8
ATOM      8  C   UNL     1      57.859   0.179  -6.203  1.00  0.00     0.041 C 
ATOM      9  O   UNL     1      57.508   1.066  -7.025  1.00  0.00    -0.550 OA
ATOM     10  O   UNL     1      58.598   0.535  -5.081  1.00  0.00    -0.550 OA
ENDBRANCH   7   8
ENDBRANCH   6   7
ENDBRANCH   5   6
ENDBRANCH   4   5
ENDBRANCH   3   4
ENDBRANCH   2   3
ENDBRANCH   1   2
BRANCH   1  11
ATOM     11  C   UNL     1      58.769  -3.992  -0.326  1.00  0.00     0.000 C 
BRANCH  11  12
ATOM     12  C   UNL     1      58.919  -5.519  -0.226  1.00  0.00     0.000 C 
BRANCH  12  13
ATOM     13  C   UNL     1      57.585  -6.224   0.079  1.00  0.00     0.000 C 
BRANCH  13  14
ATOM     14  C   UNL     1      57.651  -7.088   1.349  1.00  0.00     0.000 C 
BRANCH  14  15
ATOM     15  C   UNL     1      59.015  -7.010   2.051  1.00  0.00     0.000 C 
BRANCH  15  16
ATOM     16  C   UNL     1      58.856  -6.554   3.509  1.00  0.00     0.006 C 
BRANCH  16  17
ATOM     17  C   UNL     1      57.573  -7.099   4.152  1.00  0.00     0.053 C 
BRANCH  17  18
ATOM     18  C   UNL     1      57.478  -6.728   5.601  1.00  0.00     0.041 C 
ATOM     19  O   UNL     1      58.501  -6.345   6.226  1.00  0.00    -0.550 OA
ATOM     20  O   UNL     1      56.251  -6.774   6.250  1.00  0.00    -0.550 OA
ENDBRANCH  17  18
ENDBRANCH  16  17
ENDBRANCH  15  16
ENDBRANCH  14  15
ENDBRANCH  13  14
ENDBRANCH  12  13
ENDBRANCH  11  12
ENDBRANCH   1  11
TORSDOF 15
ENDMDL
MODEL 2
REMARK VINA RESULT:     8.962      4.009      9.296
REMARK INTER + INTRA:          16.041
REMARK INTER:                  16.610
REMARK INTRA:                  -0.569
REMARK UNBOUND:                -0.780
REMARK SMILES O=C([O-])CCCCCCCCCCCCCCC(=O)[O-]
REMARK SMILES IDX 10 1 9 2 8 3 7 4 6 5 5 6 4 7 2 8 1 9 3 10 11 11 12 12 13 13
REMARK SMILES IDX 14 14 15 15 16 16 17 17 18 18 19 19 20 20
REMARK H PARENT
REMARK Flexibility Score: inf
ROOT
ATOM      1  C   UNL     1      53.092  -1.592  -0.962  1.00  0.00     0.000 C 
ENDROOT
BRANCH   1   2
ATOM      2  C   UNL     1      54.247  -1.788   0.035  1.00  0.00     0.000 C 
BRANCH   2   3
ATOM      3  C   UNL     1      54.277  -3.205   0.634  1.00  0.00     0.000 C 
BRANCH   3   4
ATOM      4  C   UNL     1      55.716  -3.740   0.798  1.00  0.00     0.000 C 
BRANCH   4   5
ATOM      5  C   UNL     1      55.790  -5.260   1.034  1.00  0.00     0.000 C 
BRANCH   5   6
ATOM      6  C   UNL     1      56.961  -5.723   1.922  1.00  0.00     0.006 C 
BRANCH   6   7
ATOM      7  C   UNL     1      58.013  -6.572   1.188  1.00  0.00     0.053 C 
BRANCH   7   8
ATOM      8  C   UNL     1      58.763  -5.774   0.167  1.00  0.00     0.041 C 
ATOM      9  O   UNL     1      59.108  -6.302  -0.922  1.00  0.00    -0.550 OA
ATOM     10  O   UNL     1      59.111  -4.455   0.433  1.00  0.00    -0.550 OA
ENDBRANCH   7   8
ENDBRANCH   6   7
ENDBRANCH   5   6
ENDBRANCH   4   5
ENDBRANCH   3   4
ENDBRANCH   2   3
ENDBRANCH   1   2
BRANCH   1  11
ATOM     11  C   UNL     1      53.507  -0.747  -2.179  1.00  0.00     0.000 C 
BRANCH  11  12
ATOM     12  C   UNL     1      52.741  -1.132  -3.455  1.00  0.00     0.000 C 
BRANCH  12  13
ATOM     13  C   UNL     1      53.678  -1.449  -4.633  1.00  0.00     0.000 C 
BRANCH  13  14
ATOM     14  C   UNL     1      55.053  -0.776  -4.493  1.00  0.00     0.000 C 
BRANCH  14  15
ATOM     15  C   UNL     1      56.163  -1.529  -5.242  1.00  0.00     0.000 C 
BRANCH  15  16
ATOM     16  C   UNL     1      57.017  -0.561  -6.074  1.00  0.00     0.006 C 
BRANCH  16  17
ATOM     17  C   UNL     1      58.505  -0.934  -6.054  1.00  0.00     0.053 C 
BRANCH  17  18
ATOM     18  C   UNL     1      58.704  -2.414  -5.921  1.00  0.00     0.041 C 
ATOM     19  O   UNL     1      58.779  -3.138  -6.947  1.00  0.00    -0.550 OA
ATOM     20  O   UNL     1      58.840  -2.986  -4.662  1.00  0.00    -0.550 OA
ENDBRANCH  17  18
ENDBRANCH  16  17
ENDBRANCH  15  16
ENDBRANCH  14  15
ENDBRANCH  13  14
ENDBRANCH  12  13
ENDBRANCH  11  12
ENDBRANCH   1  11
TORSDOF 15
ENDMDL
MODEL 3
REMARK VINA RESULT:     9.408      4.004      4.855
REMARK INTER + INTRA:          16.878
REMARK INTER:                  16.845
REMARK INTRA:                   0.033
REMARK UNBOUND:                -0.780
REMARK SMILES O=C([O-])CCCCCCCCCCCCCCC(=O)[O-]
REMARK SMILES IDX 10 1 9 2 8 3 7 4 6 5 5 6 4 7 2 8 1 9 3 10 11 11 12 12 13 13
REMARK SMILES IDX 14 14 15 15 16 16 17 17 18 18 19 19 20 20
REMARK H PARENT
REMARK Flexibility Score: inf
ROOT
ATOM      1  C   UNL     1      52.575  -1.150  -2.404  1.00  0.00     0.000 C 
ENDROOT
BRANCH   1   2
ATOM      2  C   UNL     1      53.096  -0.530  -3.712  1.00  0.00     0.000 C 
BRANCH   2   3
ATOM      3  C   UNL     1      54.026  -1.478  -4.487  1.00  0.00     0.000 C 
BRANCH   3   4
ATOM      4  C   UNL     1      55.507  -1.055  -4.388  1.00  0.00     0.000 C 
BRANCH   4   5
ATOM      5  C   UNL     1      56.331  -1.380  -5.649  1.00  0.00     0.000 C 
BRANCH   5   6
ATOM      6  C   UNL     1      57.483  -0.399  -5.941  1.00  0.00     0.006 C 
BRANCH   6   7
ATOM      7  C   UNL     1      58.785  -1.074  -6.404  1.00  0.00     0.053 C 
BRANCH   7   8
ATOM      8  C   UNL     1      58.840  -2.516  -6.006  1.00  0.00     0.041 C 
ATOM      9  O   UNL     1      58.854  -3.417  -6.885  1.00  0.00    -0.550 OA
ATOM     10  O   UNL     1      58.841  -2.867  -4.661  1.00  0.00    -0.550 OA
ENDBRANCH   7   8
ENDBRANCH   6   7
ENDBRANCH   5   6
ENDBRANCH   4   5
ENDBRANCH   3   4
ENDBRANCH   2   3
ENDBRANCH   1   2
BRANCH   1  11
ATOM     11  C   UNL     1      53.618  -1.095  -1.275  1.00  0.00     0.000 C 
BRANCH  11  12
ATOM     12  C   UNL     1      53.421  -2.208  -0.232  1.00  0.00     0.000 C 
BRANCH  12  13
ATOM     13  C   UNL     1      54.714  -2.536   0.534  1.00  0.00     0.000 C 
BRANCH  13  14
ATOM     14  C   UNL     1      54.809  -4.021   0.924  1.00  0.00     0.000 C 
BRANCH  14  15
ATOM     15  C   UNL     1      56.207  -4.611   0.680  1.00  0.00     0.000 C 
BRANCH  15  16
ATOM     16  C   UNL     1      56.443  -5.844   1.564  1.00  0.00     0.006 C 
BRANCH  16  17
ATOM     17  C   UNL     1      57.899  -6.325   1.514  1.00  0.00     0.053 C 
BRANCH  17  18
ATOM     18  C   UNL     1      58.663  -5.665   0.406  1.00  0.00     0.041 C 
ATOM     19  O   UNL     1      58.987  -4.452   0.495  1.00  0.00    -0.550 OA
ATOM     20  O   UNL     1      59.046  -6.400  -0.708  1.00  0.00    -0.550 OA
ENDBRANCH  17  18
ENDBRANCH  16  17
ENDBRANCH  15  16
ENDBRANCH  14  15
ENDBRANCH  13  14
ENDBRANCH  12  13
ENDBRANCH  11  12
ENDBRANCH   1  11
TORSDOF 15
ENDMDL
MODEL 4
REMARK VINA RESULT:    10.173      4.109      9.285
REMARK INTER + INTRA:          18.314
REMARK INTER:                  19.281
REMARK INTRA:                  -0.967
REMARK UNBOUND:                -0.780
REMARK SMILES O=C([O-])CCCCCCCCCCCCCCC(=O)[O-]
REMARK SMILES IDX 10 1 9 2 8 3 7 4 6 5 5 6 4 7 2 8 1 9 3 10 11 11 12 12 13 13
REMARK SMILES IDX 14 14 15 15 16 16 17 17 18 18 19 19 20 20
REMARK H PARENT
REMARK Flexibility Score: inf
ROOT
ATOM      1  C   UNL     1      54.236  -1.671   0.345  1.00  0.00     0.000 C 
ENDROOT
BRANCH   1   2
ATOM      2  C   UNL     1      54.159  -3.164   0.707  1.00  0.00     0.000 C 
BRANCH   2   3
ATOM      3  C   UNL     1      55.532  -3.855   0.664  1.00  0.00     0.000 C 
BRANCH   3   4
ATOM      4  C   UNL     1      55.563  -5.148   1.506  1.00  0.00     0.000 C 
BRANCH   4   5
ATOM      5  C   UNL     1      56.424  -6.268   0.891  1.00  0.00     0.000 C 
BRANCH   5   6
ATOM      6  C   UNL     1      57.721  -6.586   1.661  1.00  0.00     0.006 C 
BRANCH   6   7
ATOM      7  C   UNL     1      58.971  -6.701   0.773  1.00  0.00     0.053 C 
BRANCH   7   8
ATOM      8  C   UNL     1      59.077  -5.561  -0.193  1.00  0.00     0.041 C 
ATOM      9  O   UNL     1      59.095  -4.374   0.226  1.00  0.00    -0.550 OA
ATOM     10  O   UNL     1      59.121  -5.809  -1.560  1.00  0.00    -0.550 OA
ENDBRANCH   7   8
ENDBRANCH   6   7
ENDBRANCH   5   6
ENDBRANCH   4   5
ENDBRANCH   3   4
ENDBRANCH   2   3
ENDBRANCH   1   2
BRANCH   1  11
ATOM     11  C   UNL     1      54.143  -1.431  -1.171  1.00  0.00     0.000 C 
BRANCH  11  12
ATOM     12  C   UNL     1      52.703  -1.172  -1.642  1.00  0.00     0.000 C 
BRANCH  12  13
ATOM     13  C   UNL     1      52.640  -0.638  -3.084  1.00  0.00     0.000 C 
BRANCH  13  14
ATOM     14  C   UNL     1      52.632  -1.763  -4.132  1.00  0.00     0.000 C 
BRANCH  14  15
ATOM     15  C   UNL     1      53.427  -1.404  -5.396  1.00  0.00     0.000 C 
BRANCH  15  16
ATOM     16  C   UNL     1      54.751  -0.715  -5.034  1.00  0.00     0.006 C 
BRANCH  16  17
ATOM     17  C   UNL     1      55.926  -1.701  -4.990  1.00  0.00     0.053 C 
BRANCH  17  18
ATOM     18  C   UNL     1      57.148  -1.138  -5.651  1.00  0.00     0.041 C 
ATOM     19  O   UNL     1      57.035  -0.318  -6.599  1.00  0.00    -0.550 OA
ATOM     20  O   UNL     1      58.410  -1.495  -5.195  1.00  0.00    -0.550 OA
ENDBRANCH  17  18
ENDBRANCH  16  17
ENDBRANCH  15  16
ENDBRANCH  14  15
ENDBRANCH  13  14
ENDBRANCH  12  13
ENDBRANCH  11  12
ENDBRANCH   1  11
TORSDOF 15
ENDMDL
MODEL 5
REMARK VINA RESULT:    10.522      4.237      4.961
REMARK INTER + INTRA:          18.969
REMARK INTER:                  19.777
REMARK INTRA:                  -0.808
REMARK UNBOUND:                -0.780
REMARK SMILES O=C([O-])CCCCCCCCCCCCCCC(=O)[O-]
REMARK SMILES IDX 10 1 9 2 8 3 7 4 6 5 5 6 4 7 2 8 1 9 3 10 11 11 12 12 13 13
REMARK SMILES IDX 14 14 15 15 16 16 17 17 18 18 19 19 20 20
REMARK H PARENT
REMARK Flexibility Score: inf
ROOT
ATOM      1  C   UNL     1      52.881  -0.760  -1.080  1.00  0.00     0.000 C 
ENDROOT
BRANCH   1   2
ATOM      2  C   UNL     1      52.313  -1.423  -2.346  1.00  0.00     0.000 C 
BRANCH   2   3
ATOM      3  C   UNL     1      52.840  -0.778  -3.639  1.00  0.00     0.000 C 
BRANCH   3   4
ATOM      4  C   UNL     1      53.309  -1.830  -4.667  1.00  0.00     0.000 C 
BRANCH   4   5
ATOM      5  C   UNL     1      54.492  -1.363  -5.537  1.00  0.00     0.000 C 
BRANCH   5   6
ATOM      6  C   UNL     1      55.863  -1.382  -4.833  1.00  0.00     0.006 C 
BRANCH   6   7
ATOM      7  C   UNL     1      56.957  -0.583  -5.559  1.00  0.00     0.053 C 
BRANCH   7   8
ATOM      8  C   UNL     1      58.121  -1.445  -5.939  1.00  0.00     0.041 C 
ATOM      9  O   UNL     1      59.010  -1.005  -6.714  1.00  0.00    -0.550 OA
ATOM     10  O   UNL     1      58.206  -2.749  -5.464  1.00  0.00    -0.550 OA
ENDBRANCH   7   8
ENDBRANCH   6   7
ENDBRANCH   5   6
ENDBRANCH   4   5
ENDBRANCH   3   4
ENDBRANCH   2   3
ENDBRANCH   1   2
BRANCH   1  11
ATOM     11  C   UNL     1      54.176  -1.435  -0.596  1.00  0.00     0.000 C 
BRANCH  11  12
ATOM     12  C   UNL     1      53.980  -2.222   0.711  1.00  0.00     0.000 C 
BRANCH  12  13
ATOM     13  C   UNL     1      54.247  -3.728   0.540  1.00  0.00     0.000 C 
BRANCH  13  14
ATOM     14  C   UNL     1      55.690  -4.117   0.903  1.00  0.00     0.000 C 
BRANCH  14  15
ATOM     15  C   UNL     1      55.805  -5.562   1.410  1.00  0.00     0.000 C 
BRANCH  15  16
ATOM     16  C   UNL     1      57.244  -5.877   1.846  1.00  0.00     0.006 C 
BRANCH  16  17
ATOM     17  C   UNL     1      58.029  -6.628   0.764  1.00  0.00     0.053 C 
BRANCH  17  18
ATOM     18  C   UNL     1      58.771  -5.687  -0.137  1.00  0.00     0.041 C 
ATOM     19  O   UNL     1      59.049  -6.026  -1.317  1.00  0.00    -0.550 OA
ATOM     20  O   UNL     1      59.125  -4.423   0.319  1.00  0.00    -0.550 OA
ENDBRANCH  17  18
ENDBRANCH  16  17
ENDBRANCH  15  16
ENDBRANCH  14  15
ENDBRANCH  13  14
ENDBRANCH  12  13
ENDBRANCH  11  12
ENDBRANCH   1  11
TORSDOF 15
ENDMDL
MODEL 6
REMARK VINA RESULT:    10.803      3.850      9.999
REMARK INTER + INTRA:          19.496
REMARK INTER:                  20.088
REMARK INTRA:                  -0.592
REMARK UNBOUND:                -0.780
REMARK SMILES O=C([O-])CCCCCCCCCCCCCCC(=O)[O-]
REMARK SMILES IDX 10 1 9 2 8 3 7 4 6 5 5 6 4 7 2 8 1 9 3 10 11 11 12 12 13 13
REMARK SMILES IDX 14 14 15 15 16 16 17 17 18 18 19 19 20 20
REMARK H PARENT
REMARK Flexibility Score: inf
ROOT
ATOM      1  C   UNL     1      53.579  -0.822  -1.813  1.00  0.00     0.000 C 
ENDROOT
BRANCH   1   2
ATOM      2  C   UNL     1      53.188  -1.847  -0.736  1.00  0.00     0.000 C 
BRANCH   2   3
ATOM      3  C   UNL     1      54.282  -2.030   0.331  1.00  0.00     0.000 C 
BRANCH   3   4
ATOM      4  C   UNL     1      54.226  -3.423   0.993  1.00  0.00     0.000 C 
BRANCH   4   5
ATOM      5  C   UNL     1      55.544  -4.214   0.886  1.00  0.00     0.000 C 
BRANCH   5   6
ATOM      6  C   UNL     1      55.405  -5.736   1.085  1.00  0.00     0.006 C 
BRANCH   6   7
ATOM      7  C   UNL     1      56.680  -6.534   0.763  1.00  0.00     0.053 C 
BRANCH   7   8
ATOM      8  C   UNL     1      57.900  -5.905   1.362  1.00  0.00     0.041 C 
ATOM      9  O   UNL     1      58.177  -6.087   2.576  1.00  0.00    -0.550 OA
ATOM     10  O   UNL     1      58.713  -5.088   0.585  1.00  0.00    -0.550 OA
ENDBRANCH   7   8
ENDBRANCH   6   7
ENDBRANCH   5   6
ENDBRANCH   4   5
ENDBRANCH   3   4
ENDBRANCH   2   3
ENDBRANCH   1   2
BRANCH   1  11
ATOM     11  C   UNL     1      52.493  -0.665  -2.892  1.00  0.00     0.000 C 
BRANCH  11  12
ATOM     12  C   UNL     1      52.469  -1.841  -3.882  1.00  0.00     0.000 C 
BRANCH  12  13
ATOM     13  C   UNL     1      52.836  -1.415  -5.315  1.00  0.00     0.000 C 
BRANCH  13  14
ATOM     14  C   UNL     1      54.291  -1.754  -5.678  1.00  0.00     0.000 C 
BRANCH  14  15
ATOM     15  C   UNL     1      55.311  -0.951  -4.855  1.00  0.00     0.000 C 
BRANCH  15  16
ATOM     16  C   UNL     1      56.743  -1.419  -5.150  1.00  0.00     0.006 C 
BRANCH  16  17
ATOM     17  C   UNL     1      57.241  -0.939  -6.519  1.00  0.00     0.053 C 
BRANCH  17  18
ATOM     18  C   UNL     1      57.686   0.492  -6.477  1.00  0.00     0.041 C 
ATOM     19  O   UNL     1      58.750   0.808  -5.882  1.00  0.00    -0.550 OA
ATOM     20  O   UNL     1      56.941   1.470  -7.124  1.00  0.00    -0.550 OA
ENDBRANCH  17  18
ENDBRANCH  16  17
ENDBRANCH  15  16
ENDBRANCH  14  15
ENDBRANCH  13  14
ENDBRANCH  12  13
ENDBRANCH  11  12
ENDBRANCH   1  11
TORSDOF 15
ENDMDL
