MODEL 1
REMARK VINA RESULT:    -7.000      0.000      0.000
REMARK INTER + INTRA:         -13.488
REMARK INTER:                 -11.501
REMARK INTRA:                  -1.987
REMARK UNBOUND:                -1.987
REMARK SMILES C[C@H]1O[C@H](OC[C@@H]2O[C@H](Oc3c(-c4ccc(O)c(O)c4)oc4cc(O)cc(O)c4c3=O)[C@H](O)[C@H](O)[C@H]2O)[C@H](O)[C@H](O)[C@H]1O
REMARK SMILES IDX 7 1 36 2 34 3 32 4 9 5 8 6 6 7 5 8 4 9 1 10 2 11 42 12 3 13
REMARK SMILES IDX 40 14 38 15 43 16 41 18 39 20 37 22 35 24 10 26 11 27 12 28
REMARK SMILES IDX 30 29 21 30 29 31 31 32 22 33 27 34 23 35 26 36 24 37 13 38
REMARK SMILES IDX 20 39 14 40 18 41 15 42 16 43 19 44 17 46 28 48 25 50 33 52
REMARK H PARENT 43 17 41 19 39 21 37 23 35 25 19 45 17 47 28 49 25 51 33 53
REMARK Flexibility Score: inf
ROOT
ATOM      1  C   UNL     1       9.533  31.358  19.947  1.00  0.00     0.180 C 
ATOM      2  C   UNL     1       9.303  32.465  18.893  1.00  0.00     0.177 C 
ATOM      3  C   UNL     1      10.632  32.837  18.230  1.00  0.00     0.180 C 
ATOM      4  C   UNL     1      11.498  31.604  17.875  1.00  0.00     0.214 C 
ATOM      5  C   UNL     1      11.280  30.299  18.724  1.00  0.00     0.339 C 
ATOM      6  O   UNL     1       9.984  30.178  19.294  1.00  0.00    -0.332 OA
ENDROOT
BRANCH   1   7
ATOM      7  C   UNL     1      10.457  31.771  21.137  1.00  0.00     0.198 C 
BRANCH   7   8
ATOM      8  O   UNL     1       9.846  31.521  22.392  1.00  0.00    -0.347 OA
BRANCH   8   9
ATOM      9  C   UNL     1       8.819  32.467  22.692  1.00  0.00     0.281 C 
ATOM     10  C   UNL     1       6.792  30.276  24.911  1.00  0.00     0.041 C 
ATOM     11  C   UNL     1       7.921  31.235  24.481  1.00  0.00     0.150 C 
ATOM     12  C   UNL     1       8.101  32.387  25.495  1.00  0.00     0.174 C 
ATOM     13  O   UNL     1       7.670  31.788  23.195  1.00  0.00    -0.344 OA
ATOM     14  C   UNL     1       9.370  33.154  25.113  1.00  0.00     0.179 C 
ATOM     15  C   UNL     1       9.318  33.608  23.642  1.00  0.00     0.202 C 
BRANCH  12  16
ATOM     16  O   UNL     1       6.971  33.238  25.454  1.00  0.00    -0.388 OA
ATOM     17  H   UNL     1       6.305  32.904  26.117  1.00  0.00     0.211 HD
ENDBRANCH  12  16
BRANCH  14  18
ATOM     18  O   UNL     1      10.511  32.361  25.344  1.00  0.00    -0.387 OA
ATOM     19  H   UNL     1      10.316  31.805  26.141  1.00  0.00     0.211 HD
ENDBRANCH  14  18
BRANCH  15  20
ATOM     20  O   UNL     1      10.604  34.029  23.258  1.00  0.00    -0.385 OA
ATOM     21  H   UNL     1      11.264  33.510  23.790  1.00  0.00     0.211 HD
ENDBRANCH  15  20
ENDBRANCH   8   9
ENDBRANCH   7   8
ENDBRANCH   1   7
BRANCH   2  22
ATOM     22  O   UNL     1       8.397  32.063  17.875  1.00  0.00    -0.387 OA
ATOM     23  H   UNL     1       7.492  31.896  18.255  1.00  0.00     0.211 HD
ENDBRANCH   2  22
BRANCH   3  24
ATOM     24  O   UNL     1      11.345  33.747  19.041  1.00  0.00    -0.387 OA
ATOM     25  H   UNL     1      11.103  33.590  19.992  1.00  0.00     0.211 HD
ENDBRANCH   3  24
BRANCH   5  26
ATOM     26  O   UNL     1      12.254  30.066  19.735  1.00  0.00    -0.454 OA
BRANCH  26  27
ATOM     27  C   UNL     1      13.215  29.906  20.746  1.00  0.00     0.214 A 
ATOM     28  C   UNL     1      13.388  28.655  21.386  1.00  0.00     0.180 A 
ATOM     29  C   UNL     1      14.023  30.992  21.139  1.00  0.00     0.239 A 
ATOM     30  O   UNL     1      14.280  28.527  22.372  1.00  0.00    -0.452 OA
ATOM     31  C   UNL     1      14.938  30.832  22.218  1.00  0.00     0.111 A 
ATOM     32  O   UNL     1      13.954  32.068  20.489  1.00  0.00    -0.285 OA
ATOM     33  C   UNL     1      15.036  29.538  22.814  1.00  0.00     0.146 A 
ATOM     34  C   UNL     1      15.808  31.853  22.691  1.00  0.00     0.134 A 
ATOM     35  C   UNL     1      15.971  29.279  23.831  1.00  0.00     0.094 A 
ATOM     36  C   UNL     1      16.771  31.550  23.672  1.00  0.00     0.093 A 
ATOM     37  C   UNL     1      16.837  30.278  24.250  1.00  0.00     0.123 A 
BRANCH  28  38
ATOM     38  C   UNL     1      12.601  27.451  21.002  1.00  0.00     0.025 A 
ATOM     39  C   UNL     1      12.452  27.067  19.663  1.00  0.00     0.062 A 
ATOM     40  C   UNL     1      11.880  26.757  21.992  1.00  0.00     0.016 A 
ATOM     41  C   UNL     1      11.645  25.984  19.313  1.00  0.00     0.158 A 
ATOM     42  C   UNL     1      11.089  25.664  21.641  1.00  0.00     0.051 A 
ATOM     43  C   UNL     1      10.969  25.280  20.302  1.00  0.00     0.157 A 
BRANCH  41  44
ATOM     44  O   UNL     1      11.479  25.623  17.965  1.00  0.00    -0.504 OA
ATOM     45  H   UNL     1      11.737  26.261  17.215  1.00  0.00     0.293 HD
ENDBRANCH  41  44
BRANCH  43  46
ATOM     46  O   UNL     1      10.165  24.188  19.943  1.00  0.00    -0.504 OA
ATOM     47  H   UNL     1      10.578  23.347  19.560  1.00  0.00     0.293 HD
ENDBRANCH  43  46
ENDBRANCH  28  38
BRANCH  34  48
ATOM     48  O   UNL     1      15.733  33.185  22.285  1.00  0.00    -0.507 OA
ATOM     49  H   UNL     1      16.290  33.942  22.635  1.00  0.00     0.293 HD
ENDBRANCH  34  48
BRANCH  37  50
ATOM     50  O   UNL     1      17.767  29.994  25.248  1.00  0.00    -0.508 OA
ATOM     51  H   UNL     1      18.727  29.772  25.041  1.00  0.00     0.293 HD
ENDBRANCH  37  50
ENDBRANCH  26  27
ENDBRANCH   5  26
BRANCH   4  52
ATOM     52  O   UNL     1      12.852  31.987  17.902  1.00  0.00    -0.384 OA
ATOM     53  H   UNL     1      13.230  31.845  16.993  1.00  0.00     0.211 HD
ENDBRANCH   4  52
TORSDOF 16
ENDMDL
MODEL 2
REMARK VINA RESULT:    -6.901      1.127      1.523
REMARK INTER + INTRA:         -13.326
REMARK INTER:                 -11.198
REMARK INTRA:                  -2.129
REMARK UNBOUND:                -1.987
REMARK SMILES C[C@H]1O[C@H](OC[C@@H]2O[C@H](Oc3c(-c4ccc(O)c(O)c4)oc4cc(O)cc(O)c4c3=O)[C@H](O)[C@H](O)[C@H]2O)[C@H](O)[C@H](O)[C@H]1O
REMARK SMILES IDX 7 1 36 2 34 3 32 4 9 5 8 6 6 7 5 8 4 9 1 10 2 11 42 12 3 13
REMARK SMILES IDX 40 14 38 15 43 16 41 18 39 20 37 22 35 24 10 26 11 27 12 28
REMARK SMILES IDX 30 29 21 30 29 31 31 32 22 33 27 34 23 35 26 36 24 37 13 38
REMARK SMILES IDX 20 39 14 40 18 41 15 42 16 43 19 44 17 46 28 48 25 50 33 52
REMARK H PARENT 43 17 41 19 39 21 37 23 35 25 19 45 17 47 28 49 25 51 33 53
REMARK Flexibility Score: inf
ROOT
ATOM      1  C   UNL     1       9.327  30.490  19.959  1.00  0.00     0.180 C 
ATOM      2  C   UNL     1       8.900  31.558  18.926  1.00  0.00     0.177 C 
ATOM      3  C   UNL     1      10.139  32.160  18.258  1.00  0.00     0.180 C 
ATOM      4  C   UNL     1      11.198  31.098  17.875  1.00  0.00     0.214 C 
ATOM      5  C   UNL     1      11.213  29.762  18.703  1.00  0.00     0.339 C 
ATOM      6  O   UNL     1       9.964  29.413  19.283  1.00  0.00    -0.332 OA
ENDROOT
BRANCH   1   7
ATOM      7  C   UNL     1      10.180  31.036  21.148  1.00  0.00     0.198 C 
BRANCH   7   8
ATOM      8  O   UNL     1       9.367  31.480  22.222  1.00  0.00    -0.347 OA
BRANCH   8   9
ATOM      9  C   UNL     1       9.248  32.902  22.258  1.00  0.00     0.281 C 
ATOM     10  C   UNL     1       7.224  33.127  25.371  1.00  0.00     0.041 C 
ATOM     11  C   UNL     1       8.472  32.987  24.475  1.00  0.00     0.150 C 
ATOM     12  C   UNL     1       9.612  33.920  24.944  1.00  0.00     0.174 C 
ATOM     13  O   UNL     1       8.170  33.274  23.116  1.00  0.00    -0.344 OA
ATOM     14  C   UNL     1      10.870  33.560  24.149  1.00  0.00     0.179 C 
ATOM     15  C   UNL     1      10.597  33.605  22.634  1.00  0.00     0.202 C 
BRANCH  12  16
ATOM     16  O   UNL     1       9.246  35.268  24.716  1.00  0.00    -0.388 OA
ATOM     17  H   UNL     1       8.572  35.529  25.403  1.00  0.00     0.211 HD
ENDBRANCH  12  16
BRANCH  14  18
ATOM     18  O   UNL     1      11.341  32.287  24.527  1.00  0.00    -0.387 OA
ATOM     19  H   UNL     1      11.804  32.401  25.395  1.00  0.00     0.211 HD
ENDBRANCH  14  18
BRANCH  15  20
ATOM     20  O   UNL     1      11.668  32.982  21.967  1.00  0.00    -0.385 OA
ATOM     21  H   UNL     1      12.501  33.199  22.464  1.00  0.00     0.211 HD
ENDBRANCH  15  20
ENDBRANCH   8   9
ENDBRANCH   7   8
ENDBRANCH   1   7
BRANCH   2  22
ATOM     22  O   UNL     1       8.064  31.023  17.909  1.00  0.00    -0.387 OA
ATOM     23  H   UNL     1       8.584  30.857  17.077  1.00  0.00     0.211 HD
ENDBRANCH   2  22
BRANCH   3  24
ATOM     24  O   UNL     1      10.696  33.165  19.078  1.00  0.00    -0.387 OA
ATOM     25  H   UNL     1      11.666  32.987  19.193  1.00  0.00     0.211 HD
ENDBRANCH   3  24
BRANCH   5  26
ATOM     26  O   UNL     1      12.225  29.682  19.703  1.00  0.00    -0.454 OA
BRANCH  26  27
ATOM     27  C   UNL     1      13.180  29.642  20.730  1.00  0.00     0.214 A 
ATOM     28  C   UNL     1      13.369  28.466  21.495  1.00  0.00     0.180 A 
ATOM     29  C   UNL     1      13.966  30.777  21.018  1.00  0.00     0.239 A 
ATOM     30  O   UNL     1      14.255  28.455  22.494  1.00  0.00    -0.452 OA
ATOM     31  C   UNL     1      14.874  30.744  22.113  1.00  0.00     0.111 A 
ATOM     32  O   UNL     1      13.882  31.781  20.261  1.00  0.00    -0.285 OA
ATOM     33  C   UNL     1      14.989  29.519  22.838  1.00  0.00     0.146 A 
ATOM     34  C   UNL     1      15.721  31.824  22.486  1.00  0.00     0.134 A 
ATOM     35  C   UNL     1      15.920  29.381  23.882  1.00  0.00     0.094 A 
ATOM     36  C   UNL     1      16.682  31.639  23.498  1.00  0.00     0.093 A 
ATOM     37  C   UNL     1      16.765  30.434  24.203  1.00  0.00     0.123 A 
BRANCH  28  38
ATOM     38  C   UNL     1      12.607  27.216  21.230  1.00  0.00     0.025 A 
ATOM     39  C   UNL     1      11.617  26.757  22.110  1.00  0.00     0.062 A 
ATOM     40  C   UNL     1      12.976  26.404  20.141  1.00  0.00     0.016 A 
ATOM     41  C   UNL     1      10.968  25.542  21.889  1.00  0.00     0.158 A 
ATOM     42  C   UNL     1      12.313  25.199  19.913  1.00  0.00     0.051 A 
ATOM     43  C   UNL     1      11.313  24.767  20.789  1.00  0.00     0.157 A 
BRANCH  41  44
ATOM     44  O   UNL     1       9.997  25.076  22.792  1.00  0.00    -0.504 OA
ATOM     45  H   UNL     1       9.415  25.725  23.318  1.00  0.00     0.293 HD
ENDBRANCH  41  44
BRANCH  43  46
ATOM     46  O   UNL     1      10.651  23.549  20.569  1.00  0.00    -0.504 OA
ATOM     47  H   UNL     1       9.988  23.452  19.811  1.00  0.00     0.293 HD
ENDBRANCH  43  46
ENDBRANCH  28  38
BRANCH  34  48
ATOM     48  O   UNL     1      15.626  33.107  21.947  1.00  0.00    -0.507 OA
ATOM     49  H   UNL     1      16.359  33.608  21.482  1.00  0.00     0.293 HD
ENDBRANCH  34  48
BRANCH  37  50
ATOM     50  O   UNL     1      17.692  30.269  25.230  1.00  0.00    -0.508 OA
ATOM     51  H   UNL     1      17.869  30.985  25.916  1.00  0.00     0.293 HD
ENDBRANCH  37  50
ENDBRANCH  26  27
ENDBRANCH   5  26
BRANCH   4  52
ATOM     52  O   UNL     1      12.467  31.705  17.897  1.00  0.00    -0.384 OA
ATOM     53  H   UNL     1      13.119  31.042  18.252  1.00  0.00     0.211 HD
ENDBRANCH   4  52
TORSDOF 16
ENDMDL
MODEL 3
REMARK VINA RESULT:    -6.165      2.129      4.983
REMARK INTER + INTRA:         -12.117
REMARK INTER:                 -11.502
REMARK INTRA:                  -0.615
REMARK UNBOUND:                -1.987
REMARK SMILES C[C@H]1O[C@H](OC[C@@H]2O[C@H](Oc3c(-c4ccc(O)c(O)c4)oc4cc(O)cc(O)c4c3=O)[C@H](O)[C@H](O)[C@H]2O)[C@H](O)[C@H](O)[C@H]1O
REMARK SMILES IDX 7 1 36 2 34 3 32 4 9 5 8 6 6 7 5 8 4 9 1 10 2 11 42 12 3 13
REMARK SMILES IDX 40 14 38 15 43 16 41 18 39 20 37 22 35 24 10 26 11 27 12 28
REMARK SMILES IDX 30 29 21 30 29 31 31 32 22 33 27 34 23 35 26 36 24 37 13 38
REMARK SMILES IDX 20 39 14 40 18 41 15 42 16 43 19 44 17 46 28 48 25 50 33 52
REMARK H PARENT 43 17 41 19 39 21 37 23 35 25 19 45 17 47 28 49 25 51 33 53
REMARK Flexibility Score: inf
ROOT
ATOM      1  C   UNL     1       8.613  32.954  20.178  1.00  0.00     0.180 C 
ATOM      2  C   UNL     1       9.397  34.282  20.060  1.00  0.00     0.177 C 
ATOM      3  C   UNL     1      10.897  33.993  19.962  1.00  0.00     0.180 C 
ATOM      4  C   UNL     1      11.227  32.817  19.012  1.00  0.00     0.214 C 
ATOM      5  C   UNL     1      10.112  31.731  18.792  1.00  0.00     0.339 C 
ATOM      6  O   UNL     1       8.785  32.202  18.984  1.00  0.00    -0.332 OA
ENDROOT
BRANCH   1   7
ATOM      7  C   UNL     1       8.931  32.121  21.461  1.00  0.00     0.198 C 
BRANCH   7   8
ATOM      8  O   UNL     1       9.253  32.951  22.564  1.00  0.00    -0.347 OA
BRANCH   8   9
ATOM      9  C   UNL     1       8.109  33.264  23.358  1.00  0.00     0.281 C 
ATOM     10  C   UNL     1       7.012  29.769  24.003  1.00  0.00     0.041 C 
ATOM     11  C   UNL     1       7.815  31.076  24.165  1.00  0.00     0.150 C 
ATOM     12  C   UNL     1       7.905  31.503  25.647  1.00  0.00     0.174 C 
ATOM     13  O   UNL     1       7.237  32.136  23.413  1.00  0.00    -0.344 OA
ATOM     14  C   UNL     1       8.892  32.670  25.740  1.00  0.00     0.179 C 
ATOM     15  C   UNL     1       8.497  33.805  24.776  1.00  0.00     0.202 C 
BRANCH  12  16
ATOM     16  O   UNL     1       6.625  31.895  26.108  1.00  0.00    -0.388 OA
ATOM     17  H   UNL     1       5.956  31.239  25.766  1.00  0.00     0.211 HD
ENDBRANCH  12  16
BRANCH  14  18
ATOM     18  O   UNL     1      10.202  32.227  25.469  1.00  0.00    -0.387 OA
ATOM     19  H   UNL     1      10.372  31.458  26.069  1.00  0.00     0.211 HD
ENDBRANCH  14  18
BRANCH  15  20
ATOM     20  O   UNL     1       9.576  34.701  24.673  1.00  0.00    -0.385 OA
ATOM     21  H   UNL     1       9.481  35.374  25.398  1.00  0.00     0.211 HD
ENDBRANCH  15  20
ENDBRANCH   8   9
ENDBRANCH   7   8
ENDBRANCH   1   7
BRANCH   2  22
ATOM     22  O   UNL     1       9.015  35.036  18.917  1.00  0.00    -0.387 OA
ATOM     23  H   UNL     1       8.209  34.639  18.488  1.00  0.00     0.211 HD
ENDBRANCH   2  22
BRANCH   3  24
ATOM     24  O   UNL     1      11.439  33.780  21.249  1.00  0.00    -0.387 OA
ATOM     25  H   UNL     1      12.025  32.978  21.223  1.00  0.00     0.211 HD
ENDBRANCH   3  24
BRANCH   5  26
ATOM     26  O   UNL     1      10.286  30.526  19.531  1.00  0.00    -0.454 OA
BRANCH  26  27
ATOM     27  C   UNL     1      10.392  29.322  20.243  1.00  0.00     0.214 A 
ATOM     28  C   UNL     1      11.655  28.724  20.468  1.00  0.00     0.180 A 
ATOM     29  C   UNL     1       9.237  28.687  20.746  1.00  0.00     0.239 A 
ATOM     30  O   UNL     1      11.737  27.559  21.116  1.00  0.00    -0.452 OA
ATOM     31  C   UNL     1       9.356  27.428  21.398  1.00  0.00     0.111 A 
ATOM     32  O   UNL     1       8.129  29.278  20.651  1.00  0.00    -0.285 OA
ATOM     33  C   UNL     1      10.669  26.893  21.568  1.00  0.00     0.146 A 
ATOM     34  C   UNL     1       8.263  26.705  21.951  1.00  0.00     0.134 A 
ATOM     35  C   UNL     1      10.876  25.694  22.271  1.00  0.00     0.094 A 
ATOM     36  C   UNL     1       8.506  25.536  22.697  1.00  0.00     0.093 A 
ATOM     37  C   UNL     1       9.801  25.025  22.837  1.00  0.00     0.123 A 
BRANCH  28  38
ATOM     38  C   UNL     1      12.923  29.350  20.004  1.00  0.00     0.025 A 
ATOM     39  C   UNL     1      13.712  30.133  20.858  1.00  0.00     0.062 A 
ATOM     40  C   UNL     1      13.273  29.266  18.643  1.00  0.00     0.016 A 
ATOM     41  C   UNL     1      14.856  30.779  20.387  1.00  0.00     0.158 A 
ATOM     42  C   UNL     1      14.426  29.899  18.180  1.00  0.00     0.051 A 
ATOM     43  C   UNL     1      15.214  30.657  19.050  1.00  0.00     0.157 A 
BRANCH  41  44
ATOM     44  O   UNL     1      15.625  31.585  21.243  1.00  0.00    -0.504 OA
ATOM     45  H   UNL     1      15.598  31.454  22.252  1.00  0.00     0.293 HD
ENDBRANCH  41  44
BRANCH  43  46
ATOM     46  O   UNL     1      16.369  31.305  18.584  1.00  0.00    -0.504 OA
ATOM     47  H   UNL     1      17.237  30.797  18.477  1.00  0.00     0.293 HD
ENDBRANCH  43  46
ENDBRANCH  28  38
BRANCH  34  48
ATOM     48  O   UNL     1       6.926  27.047  21.752  1.00  0.00    -0.507 OA
ATOM     49  H   UNL     1       6.145  26.716  22.287  1.00  0.00     0.293 HD
ENDBRANCH  34  48
BRANCH  37  50
ATOM     50  O   UNL     1      10.032  23.847  23.544  1.00  0.00    -0.508 OA
ATOM     51  H   UNL     1      10.615  23.816  24.364  1.00  0.00     0.293 HD
ENDBRANCH  37  50
ENDBRANCH  26  27
ENDBRANCH   5  26
BRANCH   4  52
ATOM     52  O   UNL     1      12.422  32.213  19.447  1.00  0.00    -0.384 OA
ATOM     53  H   UNL     1      12.768  32.738  20.218  1.00  0.00     0.211 HD
ENDBRANCH   4  52
TORSDOF 16
ENDMDL
MODEL 4
REMARK VINA RESULT:    -5.813      1.965      5.360
REMARK INTER + INTRA:         -11.538
REMARK INTER:                 -10.436
REMARK INTRA:                  -1.102
REMARK UNBOUND:                -1.987
REMARK SMILES C[C@H]1O[C@H](OC[C@@H]2O[C@H](Oc3c(-c4ccc(O)c(O)c4)oc4cc(O)cc(O)c4c3=O)[C@H](O)[C@H](O)[C@H]2O)[C@H](O)[C@H](O)[C@H]1O
REMARK SMILES IDX 7 1 36 2 34 3 32 4 9 5 8 6 6 7 5 8 4 9 1 10 2 11 42 12 3 13
REMARK SMILES IDX 40 14 38 15 43 16 41 18 39 20 37 22 35 24 10 26 11 27 12 28
REMARK SMILES IDX 30 29 21 30 29 31 31 32 22 33 27 34 23 35 26 36 24 37 13 38
REMARK SMILES IDX 20 39 14 40 18 41 15 42 16 43 19 44 17 46 28 48 25 50 33 52
REMARK H PARENT 43 17 41 19 39 21 37 23 35 25 19 45 17 47 28 49 25 51 33 53
REMARK Flexibility Score: inf
ROOT
ATOM      1  C   UNL     1       8.322  32.829  20.065  1.00  0.00     0.180 C 
ATOM      2  C   UNL     1       8.912  34.243  20.278  1.00  0.00     0.177 C 
ATOM      3  C   UNL     1      10.440  34.169  20.314  1.00  0.00     0.180 C 
ATOM      4  C   UNL     1      11.028  33.246  19.218  1.00  0.00     0.214 C 
ATOM      5  C   UNL     1      10.110  32.091  18.677  1.00  0.00     0.339 C 
ATOM      6  O   UNL     1       8.717  32.346  18.787  1.00  0.00    -0.332 OA
ENDROOT
BRANCH   1   7
ATOM      7  C   UNL     1       8.633  31.813  21.209  1.00  0.00     0.198 C 
BRANCH   7   8
ATOM      8  O   UNL     1       8.532  32.413  22.490  1.00  0.00    -0.347 OA
BRANCH   8   9
ATOM      9  C   UNL     1       9.053  31.574  23.522  1.00  0.00     0.281 C 
ATOM     10  C   UNL     1      11.153  34.143  25.203  1.00  0.00     0.041 C 
ATOM     11  C   UNL     1       9.889  33.345  24.823  1.00  0.00     0.150 C 
ATOM     12  C   UNL     1       9.077  32.941  26.074  1.00  0.00     0.174 C 
ATOM     13  O   UNL     1      10.218  32.173  24.088  1.00  0.00    -0.344 OA
ATOM     14  C   UNL     1       7.745  32.355  25.601  1.00  0.00     0.179 C 
ATOM     15  C   UNL     1       7.972  31.209  24.596  1.00  0.00     0.202 C 
BRANCH  12  16
ATOM     16  O   UNL     1       9.804  31.986  26.825  1.00  0.00    -0.388 OA
ATOM     17  H   UNL     1      10.518  32.465  27.331  1.00  0.00     0.211 HD
ENDBRANCH  12  16
BRANCH  14  18
ATOM     18  O   UNL     1       6.942  33.361  25.027  1.00  0.00    -0.387 OA
ATOM     19  H   UNL     1       6.570  32.986  24.189  1.00  0.00     0.211 HD
ENDBRANCH  14  18
BRANCH  15  20
ATOM     20  O   UNL     1       6.748  30.915  23.968  1.00  0.00    -0.385 OA
ATOM     21  H   UNL     1       6.496  29.985  24.217  1.00  0.00     0.211 HD
ENDBRANCH  15  20
ENDBRANCH   8   9
ENDBRANCH   7   8
ENDBRANCH   1   7
BRANCH   2  22
ATOM     22  O   UNL     1       8.535  35.147  19.248  1.00  0.00    -0.387 OA
ATOM     23  H   UNL     1       9.338  35.479  18.761  1.00  0.00     0.211 HD
ENDBRANCH   2  22
BRANCH   3  24
ATOM     24  O   UNL     1      10.881  33.783  21.598  1.00  0.00    -0.387 OA
ATOM     25  H   UNL     1      10.673  32.822  21.736  1.00  0.00     0.211 HD
ENDBRANCH   3  24
BRANCH   5  26
ATOM     26  O   UNL     1      10.386  30.799  19.208  1.00  0.00    -0.454 OA
BRANCH  26  27
ATOM     27  C   UNL     1      10.591  29.510  19.723  1.00  0.00     0.214 A 
ATOM     28  C   UNL     1      11.807  29.172  20.363  1.00  0.00     0.180 A 
ATOM     29  C   UNL     1       9.585  28.528  19.608  1.00  0.00     0.239 A 
ATOM     30  O   UNL     1      12.002  27.931  20.815  1.00  0.00    -0.452 OA
ATOM     31  C   UNL     1       9.839  27.205  20.065  1.00  0.00     0.111 A 
ATOM     32  O   UNL     1       8.460  28.862  19.148  1.00  0.00    -0.285 OA
ATOM     33  C   UNL     1      11.100  26.952  20.686  1.00  0.00     0.146 A 
ATOM     34  C   UNL     1       8.896  26.141  20.009  1.00  0.00     0.134 A 
ATOM     35  C   UNL     1      11.396  25.692  21.234  1.00  0.00     0.094 A 
ATOM     36  C   UNL     1       9.200  24.908  20.615  1.00  0.00     0.093 A 
ATOM     37  C   UNL     1      10.447  24.680  21.205  1.00  0.00     0.123 A 
BRANCH  28  38
ATOM     38  C   UNL     1      12.902  30.161  20.558  1.00  0.00     0.025 A 
ATOM     39  C   UNL     1      13.972  30.261  19.658  1.00  0.00     0.062 A 
ATOM     40  C   UNL     1      12.937  30.924  21.741  1.00  0.00     0.016 A 
ATOM     41  C   UNL     1      15.031  31.137  19.897  1.00  0.00     0.158 A 
ATOM     42  C   UNL     1      13.988  31.811  21.968  1.00  0.00     0.051 A 
ATOM     43  C   UNL     1      15.036  31.914  21.048  1.00  0.00     0.157 A 
BRANCH  41  44
ATOM     44  O   UNL     1      16.114  31.210  19.003  1.00  0.00    -0.504 OA
ATOM     45  H   UNL     1      16.891  30.555  19.066  1.00  0.00     0.293 HD
ENDBRANCH  41  44
BRANCH  43  46
ATOM     46  O   UNL     1      16.102  32.797  21.279  1.00  0.00    -0.504 OA
ATOM     47  H   UNL     1      16.100  33.725  20.875  1.00  0.00     0.293 HD
ENDBRANCH  43  46
ENDBRANCH  28  38
BRANCH  34  48
ATOM     48  O   UNL     1       7.683  26.215  19.325  1.00  0.00    -0.507 OA
ATOM     49  H   UNL     1       6.856  25.685  19.528  1.00  0.00     0.293 HD
ENDBRANCH  34  48
BRANCH  37  50
ATOM     50  O   UNL     1      10.757  23.445  21.769  1.00  0.00    -0.508 OA
ATOM     51  H   UNL     1      10.050  22.765  22.000  1.00  0.00     0.293 HD
ENDBRANCH  37  50
ENDBRANCH  26  27
ENDBRANCH   5  26
BRANCH   4  52
ATOM     52  O   UNL     1      12.251  32.725  19.682  1.00  0.00    -0.384 OA
ATOM     53  H   UNL     1      12.495  33.210  20.516  1.00  0.00     0.211 HD
ENDBRANCH   4  52
TORSDOF 16
ENDMDL
MODEL 5
REMARK VINA RESULT:    -5.612      1.357      2.127
REMARK INTER + INTRA:         -11.209
REMARK INTER:                  -8.712
REMARK INTRA:                  -2.497
REMARK UNBOUND:                -1.987
REMARK SMILES C[C@H]1O[C@H](OC[C@@H]2O[C@H](Oc3c(-c4ccc(O)c(O)c4)oc4cc(O)cc(O)c4c3=O)[C@H](O)[C@H](O)[C@H]2O)[C@H](O)[C@H](O)[C@H]1O
REMARK SMILES IDX 7 1 36 2 34 3 32 4 9 5 8 6 6 7 5 8 4 9 1 10 2 11 42 12 3 13
REMARK SMILES IDX 40 14 38 15 43 16 41 18 39 20 37 22 35 24 10 26 11 27 12 28
REMARK SMILES IDX 30 29 21 30 29 31 31 32 22 33 27 34 23 35 26 36 24 37 13 38
REMARK SMILES IDX 20 39 14 40 18 41 15 42 16 43 19 44 17 46 28 48 25 50 33 52
REMARK H PARENT 43 17 41 19 39 21 37 23 35 25 19 45 17 47 28 49 25 51 33 53
REMARK Flexibility Score: inf
ROOT
ATOM      1  C   UNL     1       8.255  31.615  19.737  1.00  0.00     0.180 C 
ATOM      2  C   UNL     1       7.835  32.906  18.996  1.00  0.00     0.177 C 
ATOM      3  C   UNL     1       9.079  33.650  18.503  1.00  0.00     0.180 C 
ATOM      4  C   UNL     1      10.138  32.711  17.875  1.00  0.00     0.214 C 
ATOM      5  C   UNL     1      10.147  31.212  18.349  1.00  0.00     0.339 C 
ATOM      6  O   UNL     1       8.894  30.736  18.819  1.00  0.00    -0.332 OA
ENDROOT
BRANCH   1   7
ATOM      7  C   UNL     1       9.103  31.849  21.028  1.00  0.00     0.198 C 
BRANCH   7   8
ATOM      8  O   UNL     1       8.304  31.813  22.198  1.00  0.00    -0.347 OA
BRANCH   8   9
ATOM      9  C   UNL     1       8.989  31.222  23.303  1.00  0.00     0.281 C 
ATOM     10  C   UNL     1      11.878  33.563  23.374  1.00  0.00     0.041 C 
ATOM     11  C   UNL     1      10.453  33.032  23.629  1.00  0.00     0.150 C 
ATOM     12  C   UNL     1      10.026  33.241  25.099  1.00  0.00     0.174 C 
ATOM     13  O   UNL     1      10.350  31.650  23.311  1.00  0.00    -0.344 OA
ATOM     14  C   UNL     1       8.539  32.895  25.211  1.00  0.00     0.179 C 
ATOM     15  C   UNL     1       8.260  31.481  24.665  1.00  0.00     0.202 C 
BRANCH  12  16
ATOM     16  O   UNL     1      10.798  32.406  25.942  1.00  0.00    -0.388 OA
ATOM     17  H   UNL     1      11.476  31.937  25.381  1.00  0.00     0.211 HD
ENDBRANCH  12  16
BRANCH  14  18
ATOM     18  O   UNL     1       7.760  33.849  24.526  1.00  0.00    -0.387 OA
ATOM     19  H   UNL     1       8.145  33.932  23.617  1.00  0.00     0.211 HD
ENDBRANCH  14  18
BRANCH  15  20
ATOM     20  O   UNL     1       6.870  31.329  24.506  1.00  0.00    -0.385 OA
ATOM     21  H   UNL     1       6.715  30.840  23.655  1.00  0.00     0.211 HD
ENDBRANCH  15  20
ENDBRANCH   8   9
ENDBRANCH   7   8
ENDBRANCH   1   7
BRANCH   2  22
ATOM     22  O   UNL     1       7.004  32.640  17.875  1.00  0.00    -0.387 OA
ATOM     23  H   UNL     1       6.435  33.429  17.664  1.00  0.00     0.211 HD
ENDBRANCH   2  22
BRANCH   3  24
ATOM     24  O   UNL     1       9.634  34.421  19.548  1.00  0.00    -0.387 OA
ATOM     25  H   UNL     1       9.610  33.891  20.388  1.00  0.00     0.211 HD
ENDBRANCH   3  24
BRANCH   5  26
ATOM     26  O   UNL     1      11.153  30.886  19.303  1.00  0.00    -0.454 OA
BRANCH  26  27
ATOM     27  C   UNL     1      12.177  30.625  20.226  1.00  0.00     0.214 A 
ATOM     28  C   UNL     1      12.287  29.355  20.842  1.00  0.00     0.180 A 
ATOM     29  C   UNL     1      13.113  31.626  20.554  1.00  0.00     0.239 A 
ATOM     30  O   UNL     1      13.245  29.132  21.746  1.00  0.00    -0.452 OA
ATOM     31  C   UNL     1      14.098  31.368  21.549  1.00  0.00     0.111 A 
ATOM     32  O   UNL     1      13.089  32.713  19.918  1.00  0.00    -0.285 OA
ATOM     33  C   UNL     1      14.126  30.063  22.127  1.00  0.00     0.146 A 
ATOM     34  C   UNL     1      15.096  32.299  21.951  1.00  0.00     0.134 A 
ATOM     35  C   UNL     1      15.116  29.705  23.058  1.00  0.00     0.094 A 
ATOM     36  C   UNL     1      16.107  31.895  22.843  1.00  0.00     0.093 A 
ATOM     37  C   UNL     1      16.104  30.615  23.407  1.00  0.00     0.123 A 
BRANCH  28  38
ATOM     38  C   UNL     1      11.363  28.234  20.520  1.00  0.00     0.025 A 
ATOM     39  C   UNL     1      11.737  27.197  19.654  1.00  0.00     0.062 A 
ATOM     40  C   UNL     1      10.036  28.281  20.990  1.00  0.00     0.016 A 
ATOM     41  C   UNL     1      10.831  26.197  19.299  1.00  0.00     0.158 A 
ATOM     42  C   UNL     1       9.139  27.270  20.647  1.00  0.00     0.051 A 
ATOM     43  C   UNL     1       9.536  26.231  19.800  1.00  0.00     0.157 A 
BRANCH  41  44
ATOM     44  O   UNL     1      11.206  25.177  18.408  1.00  0.00    -0.504 OA
ATOM     45  H   UNL     1      11.724  24.362  18.731  1.00  0.00     0.293 HD
ENDBRANCH  41  44
BRANCH  43  46
ATOM     46  O   UNL     1       8.632  25.218  19.444  1.00  0.00    -0.504 OA
ATOM     47  H   UNL     1       7.822  25.426  18.874  1.00  0.00     0.293 HD
ENDBRANCH  43  46
ENDBRANCH  28  38
BRANCH  34  48
ATOM     48  O   UNL     1      15.111  33.638  21.561  1.00  0.00    -0.507 OA
ATOM     49  H   UNL     1      15.890  34.264  21.627  1.00  0.00     0.293 HD
ENDBRANCH  34  48
BRANCH  37  50
ATOM     50  O   UNL     1      17.086  30.233  24.319  1.00  0.00    -0.508 OA
ATOM     51  H   UNL     1      17.132  29.302  24.701  1.00  0.00     0.293 HD
ENDBRANCH  37  50
ENDBRANCH  26  27
ENDBRANCH   5  26
BRANCH   4  52
ATOM     52  O   UNL     1      11.408  33.290  18.052  1.00  0.00    -0.384 OA
ATOM     53  H   UNL     1      11.859  32.820  18.804  1.00  0.00     0.211 HD
ENDBRANCH   4  52
TORSDOF 16
ENDMDL
MODEL 6
REMARK VINA RESULT:    -5.483      2.770      4.899
REMARK INTER + INTRA:         -10.996
REMARK INTER:                  -8.310
REMARK INTRA:                  -2.687
REMARK UNBOUND:                -1.987
REMARK SMILES C[C@H]1O[C@H](OC[C@@H]2O[C@H](Oc3c(-c4ccc(O)c(O)c4)oc4cc(O)cc(O)c4c3=O)[C@H](O)[C@H](O)[C@H]2O)[C@H](O)[C@H](O)[C@H]1O
REMARK SMILES IDX 7 1 36 2 34 3 32 4 9 5 8 6 6 7 5 8 4 9 1 10 2 11 42 12 3 13
REMARK SMILES IDX 40 14 38 15 43 16 41 18 39 20 37 22 35 24 10 26 11 27 12 28
REMARK SMILES IDX 30 29 21 30 29 31 31 32 22 33 27 34 23 35 26 36 24 37 13 38
REMARK SMILES IDX 20 39 14 40 18 41 15 42 16 43 19 44 17 46 28 48 25 50 33 52
REMARK H PARENT 43 17 41 19 39 21 37 23 35 25 19 45 17 47 28 49 25 51 33 53
REMARK Flexibility Score: inf
ROOT
ATOM      1  C   UNL     1       7.984  28.762  21.946  1.00  0.00     0.180 C 
ATOM      2  C   UNL     1       6.439  28.779  22.008  1.00  0.00     0.177 C 
ATOM      3  C   UNL     1       5.885  29.701  20.919  1.00  0.00     0.180 C 
ATOM      4  C   UNL     1       6.599  29.525  19.556  1.00  0.00     0.214 C 
ATOM      5  C   UNL     1       8.076  28.987  19.578  1.00  0.00     0.339 C 
ATOM      6  O   UNL     1       8.396  28.190  20.711  1.00  0.00    -0.332 OA
ENDROOT
BRANCH   1   7
ATOM      7  C   UNL     1       8.664  30.140  22.223  1.00  0.00     0.198 C 
BRANCH   7   8
ATOM      8  O   UNL     1       8.038  30.834  23.288  1.00  0.00    -0.347 OA
BRANCH   8   9
ATOM      9  C   UNL     1       8.976  31.284  24.267  1.00  0.00     0.281 C 
ATOM     10  C   UNL     1      10.698  33.807  22.145  1.00  0.00     0.041 C 
ATOM     11  C   UNL     1       9.621  33.200  23.067  1.00  0.00     0.150 C 
ATOM     12  C   UNL     1       9.249  34.166  24.215  1.00  0.00     0.174 C 
ATOM     13  O   UNL     1      10.053  31.965  23.625  1.00  0.00    -0.344 OA
ATOM     14  C   UNL     1       8.033  33.585  24.941  1.00  0.00     0.179 C 
ATOM     15  C   UNL     1       8.299  32.137  25.393  1.00  0.00     0.202 C 
BRANCH  12  16
ATOM     16  O   UNL     1      10.345  34.296  25.101  1.00  0.00    -0.388 OA
ATOM     17  H   UNL     1      10.286  33.566  25.779  1.00  0.00     0.211 HD
ENDBRANCH  12  16
BRANCH  14  18
ATOM     18  O   UNL     1       6.894  33.641  24.112  1.00  0.00    -0.387 OA
ATOM     19  H   UNL     1       6.929  34.510  23.639  1.00  0.00     0.211 HD
ENDBRANCH  14  18
BRANCH  15  20
ATOM     20  O   UNL     1       7.077  31.554  25.773  1.00  0.00    -0.385 OA
ATOM     21  H   UNL     1       6.865  30.840  25.115  1.00  0.00     0.211 HD
ENDBRANCH  15  20
ENDBRANCH   8   9
ENDBRANCH   7   8
ENDBRANCH   1   7
BRANCH   2  22
ATOM     22  O   UNL     1       5.876  27.488  21.826  1.00  0.00    -0.387 OA
ATOM     23  H   UNL     1       6.491  26.784  22.167  1.00  0.00     0.211 HD
ENDBRANCH   2  22
BRANCH   3  24
ATOM     24  O   UNL     1       5.926  31.045  21.348  1.00  0.00    -0.387 OA
ATOM     25  H   UNL     1       5.011  31.428  21.297  1.00  0.00     0.211 HD
ENDBRANCH   3  24
BRANCH   5  26
ATOM     26  O   UNL     1       9.084  29.979  19.412  1.00  0.00    -0.454 OA
BRANCH  26  27
ATOM     27  C   UNL     1      10.085  30.935  19.181  1.00  0.00     0.214 A 
ATOM     28  C   UNL     1      11.452  30.565  19.187  1.00  0.00     0.180 A 
ATOM     29  C   UNL     1       9.744  32.281  18.940  1.00  0.00     0.239 A 
ATOM     30  O   UNL     1      12.396  31.492  19.003  1.00  0.00    -0.452 OA
ATOM     31  C   UNL     1      10.774  33.250  18.785  1.00  0.00     0.111 A 
ATOM     32  O   UNL     1       8.528  32.587  18.815  1.00  0.00    -0.285 OA
ATOM     33  C   UNL     1      12.125  32.789  18.820  1.00  0.00     0.146 A 
ATOM     34  C   UNL     1      10.546  34.631  18.528  1.00  0.00     0.134 A 
ATOM     35  C   UNL     1      13.197  33.671  18.596  1.00  0.00     0.094 A 
ATOM     36  C   UNL     1      11.636  35.479  18.254  1.00  0.00     0.093 A 
ATOM     37  C   UNL     1      12.951  35.005  18.308  1.00  0.00     0.123 A 
BRANCH  28  38
ATOM     38  C   UNL     1      11.892  29.159  19.396  1.00  0.00     0.025 A 
ATOM     39  C   UNL     1      11.535  28.137  18.506  1.00  0.00     0.062 A 
ATOM     40  C   UNL     1      12.572  28.820  20.581  1.00  0.00     0.016 A 
ATOM     41  C   UNL     1      11.887  26.810  18.758  1.00  0.00     0.158 A 
ATOM     42  C   UNL     1      12.938  27.496  20.821  1.00  0.00     0.051 A 
ATOM     43  C   UNL     1      12.593  26.492  19.912  1.00  0.00     0.157 A 
BRANCH  41  44
ATOM     44  O   UNL     1      11.500  25.788  17.875  1.00  0.00    -0.504 OA
ATOM     45  H   UNL     1      10.704  25.906  17.251  1.00  0.00     0.293 HD
ENDBRANCH  41  44
BRANCH  43  46
ATOM     46  O   UNL     1      12.950  25.157  20.156  1.00  0.00    -0.504 OA
ATOM     47  H   UNL     1      13.169  24.534  19.390  1.00  0.00     0.293 HD
ENDBRANCH  43  46
ENDBRANCH  28  38
BRANCH  34  48
ATOM     48  O   UNL     1       9.290  35.234  18.590  1.00  0.00    -0.507 OA
ATOM     49  H   UNL     1       9.065  36.082  19.076  1.00  0.00     0.293 HD
ENDBRANCH  34  48
BRANCH  37  50
ATOM     50  O   UNL     1      14.028  35.857  18.073  1.00  0.00    -0.508 OA
ATOM     51  H   UNL     1      14.065  36.793  18.444  1.00  0.00     0.293 HD
ENDBRANCH  37  50
ENDBRANCH  26  27
ENDBRANCH   5  26
BRANCH   4  52
ATOM     52  O   UNL     1       6.531  30.745  18.856  1.00  0.00    -0.384 OA
ATOM     53  H   UNL     1       7.340  30.815  18.282  1.00  0.00     0.211 HD
ENDBRANCH   4  52
TORSDOF 16
ENDMDL
MODEL 7
REMARK VINA RESULT:    -5.418      2.206      7.399
REMARK INTER + INTRA:         -10.889
REMARK INTER:                  -9.409
REMARK INTRA:                  -1.480
REMARK UNBOUND:                -1.987
REMARK SMILES C[C@H]1O[C@H](OC[C@@H]2O[C@H](Oc3c(-c4ccc(O)c(O)c4)oc4cc(O)cc(O)c4c3=O)[C@H](O)[C@H](O)[C@H]2O)[C@H](O)[C@H](O)[C@H]1O
REMARK SMILES IDX 7 1 36 2 34 3 32 4 9 5 8 6 6 7 5 8 4 9 1 10 2 11 42 12 3 13
REMARK SMILES IDX 40 14 38 15 43 16 41 18 39 20 37 22 35 24 10 26 11 27 12 28
REMARK SMILES IDX 30 29 21 30 29 31 31 32 22 33 27 34 23 35 26 36 24 37 13 38
REMARK SMILES IDX 20 39 14 40 18 41 15 42 16 43 19 44 17 46 28 48 25 50 33 52
REMARK H PARENT 43 17 41 19 39 21 37 23 35 25 19 45 17 47 28 49 25 51 33 53
REMARK Flexibility Score: inf
ROOT
ATOM      1  C   UNL     1      11.790  27.201  20.075  1.00  0.00     0.180 C 
ATOM      2  C   UNL     1      11.223  26.525  18.805  1.00  0.00     0.177 C 
ATOM      3  C   UNL     1      10.239  27.468  18.109  1.00  0.00     0.180 C 
ATOM      4  C   UNL     1      10.745  28.930  18.042  1.00  0.00     0.214 C 
ATOM      5  C   UNL     1      11.769  29.391  19.143  1.00  0.00     0.339 C 
ATOM      6  O   UNL     1      12.550  28.342  19.697  1.00  0.00    -0.332 OA
ENDROOT
BRANCH   1   7
ATOM      7  C   UNL     1      10.727  27.528  21.171  1.00  0.00     0.198 C 
BRANCH   7   8
ATOM      8  O   UNL     1      10.457  26.407  21.996  1.00  0.00    -0.347 OA
BRANCH   8   9
ATOM      9  C   UNL     1       9.388  25.607  21.488  1.00  0.00     0.281 C 
ATOM     10  C   UNL     1      11.343  22.486  20.966  1.00  0.00     0.041 C 
ATOM     11  C   UNL     1      10.535  23.567  21.712  1.00  0.00     0.150 C 
ATOM     12  C   UNL     1       9.447  22.940  22.612  1.00  0.00     0.174 C 
ATOM     13  O   UNL     1       9.918  24.472  20.805  1.00  0.00    -0.344 OA
ATOM     14  C   UNL     1       8.849  24.055  23.473  1.00  0.00     0.179 C 
ATOM     15  C   UNL     1       8.352  25.222  22.598  1.00  0.00     0.202 C 
BRANCH  12  16
ATOM     16  O   UNL     1       8.448  22.343  21.806  1.00  0.00    -0.388 OA
ATOM     17  H   UNL     1       7.630  22.220  22.362  1.00  0.00     0.211 HD
ENDBRANCH  12  16
BRANCH  14  18
ATOM     18  O   UNL     1       9.796  24.512  24.411  1.00  0.00    -0.387 OA
ATOM     19  H   UNL     1       9.358  24.476  25.299  1.00  0.00     0.211 HD
ENDBRANCH  14  18
BRANCH  15  20
ATOM     20  O   UNL     1       8.100  26.329  23.429  1.00  0.00    -0.385 OA
ATOM     21  H   UNL     1       8.833  26.985  23.290  1.00  0.00     0.211 HD
ENDBRANCH  15  20
ENDBRANCH   8   9
ENDBRANCH   7   8
ENDBRANCH   1   7
BRANCH   2  22
ATOM     22  O   UNL     1      12.241  26.180  17.875  1.00  0.00    -0.387 OA
ATOM     23  H   UNL     1      11.847  25.774  17.056  1.00  0.00     0.211 HD
ENDBRANCH   2  22
BRANCH   3  24
ATOM     24  O   UNL     1       8.971  27.393  18.724  1.00  0.00    -0.387 OA
ATOM     25  H   UNL     1       8.716  26.439  18.823  1.00  0.00     0.211 HD
ENDBRANCH   3  24
BRANCH   5  26
ATOM     26  O   UNL     1      11.210  30.161  20.203  1.00  0.00    -0.454 OA
BRANCH  26  27
ATOM     27  C   UNL     1      10.595  30.903  21.223  1.00  0.00     0.214 A 
ATOM     28  C   UNL     1      11.240  32.032  21.783  1.00  0.00     0.180 A 
ATOM     29  C   UNL     1       9.324  30.534  21.706  1.00  0.00     0.239 A 
ATOM     30  O   UNL     1      10.660  32.707  22.779  1.00  0.00    -0.452 OA
ATOM     31  C   UNL     1       8.750  31.251  22.793  1.00  0.00     0.111 A 
ATOM     32  O   UNL     1       8.699  29.606  21.127  1.00  0.00    -0.285 OA
ATOM     33  C   UNL     1       9.478  32.367  23.306  1.00  0.00     0.146 A 
ATOM     34  C   UNL     1       7.472  30.973  23.353  1.00  0.00     0.134 A 
ATOM     35  C   UNL     1       8.943  33.174  24.325  1.00  0.00     0.094 A 
ATOM     36  C   UNL     1       6.939  31.830  24.335  1.00  0.00     0.093 A 
ATOM     37  C   UNL     1       7.678  32.909  24.830  1.00  0.00     0.123 A 
BRANCH  28  38
ATOM     38  C   UNL     1      12.565  32.509  21.302  1.00  0.00     0.025 A 
ATOM     39  C   UNL     1      13.758  32.124  21.929  1.00  0.00     0.062 A 
ATOM     40  C   UNL     1      12.618  33.473  20.278  1.00  0.00     0.016 A 
ATOM     41  C   UNL     1      14.986  32.643  21.518  1.00  0.00     0.158 A 
ATOM     42  C   UNL     1      13.849  33.976  19.857  1.00  0.00     0.051 A 
ATOM     43  C   UNL     1      15.031  33.564  20.479  1.00  0.00     0.157 A 
BRANCH  41  44
ATOM     44  O   UNL     1      16.174  32.272  22.171  1.00  0.00    -0.504 OA
ATOM     45  H   UNL     1      16.576  31.346  22.043  1.00  0.00     0.293 HD
ENDBRANCH  41  44
BRANCH  43  46
ATOM     46  O   UNL     1      16.269  34.077  20.065  1.00  0.00    -0.504 OA
ATOM     47  H   UNL     1      16.852  33.561  19.418  1.00  0.00     0.293 HD
ENDBRANCH  43  46
ENDBRANCH  28  38
BRANCH  34  48
ATOM     48  O   UNL     1       6.714  29.846  23.035  1.00  0.00    -0.507 OA
ATOM     49  H   UNL     1       5.722  29.752  23.141  1.00  0.00     0.293 HD
ENDBRANCH  34  48
BRANCH  37  50
ATOM     50  O   UNL     1       7.162  33.732  25.828  1.00  0.00    -0.508 OA
ATOM     51  H   UNL     1       7.374  34.715  25.879  1.00  0.00     0.293 HD
ENDBRANCH  37  50
ENDBRANCH  26  27
ENDBRANCH   5  26
BRANCH   4  52
ATOM     52  O   UNL     1       9.629  29.788  18.018  1.00  0.00    -0.384 OA
ATOM     53  H   UNL     1       9.890  30.643  18.454  1.00  0.00     0.211 HD
ENDBRANCH   4  52
TORSDOF 16
ENDMDL
MODEL 8
REMARK VINA RESULT:    -5.399      2.538      7.067
REMARK INTER + INTRA:         -10.859
REMARK INTER:                  -9.702
REMARK INTRA:                  -1.157
REMARK UNBOUND:                -1.987
REMARK SMILES C[C@H]1O[C@H](OC[C@@H]2O[C@H](Oc3c(-c4ccc(O)c(O)c4)oc4cc(O)cc(O)c4c3=O)[C@H](O)[C@H](O)[C@H]2O)[C@H](O)[C@H](O)[C@H]1O
REMARK SMILES IDX 7 1 36 2 34 3 32 4 9 5 8 6 6 7 5 8 4 9 1 10 2 11 42 12 3 13
REMARK SMILES IDX 40 14 38 15 43 16 41 18 39 20 37 22 35 24 10 26 11 27 12 28
REMARK SMILES IDX 30 29 21 30 29 31 31 32 22 33 27 34 23 35 26 36 24 37 13 38
REMARK SMILES IDX 20 39 14 40 18 41 15 42 16 43 19 44 17 46 28 48 25 50 33 52
REMARK H PARENT 43 17 41 19 39 21 37 23 35 25 19 45 17 47 28 49 25 51 33 53
REMARK Flexibility Score: inf
ROOT
ATOM      1  C   UNL     1       8.178  28.098  19.764  1.00  0.00     0.180 C 
ATOM      2  C   UNL     1       7.211  27.340  20.703  1.00  0.00     0.177 C 
ATOM      3  C   UNL     1       7.218  27.988  22.089  1.00  0.00     0.180 C 
ATOM      4  C   UNL     1       7.184  29.534  22.035  1.00  0.00     0.214 C 
ATOM      5  C   UNL     1       7.757  30.226  20.745  1.00  0.00     0.339 C 
ATOM      6  O   UNL     1       7.701  29.424  19.573  1.00  0.00    -0.332 OA
ENDROOT
BRANCH   1   7
ATOM      7  C   UNL     1       9.677  28.060  20.201  1.00  0.00     0.198 C 
BRANCH   7   8
ATOM      8  O   UNL     1      10.305  26.845  19.829  1.00  0.00    -0.347 OA
BRANCH   8   9
ATOM      9  C   UNL     1      10.830  26.140  20.954  1.00  0.00     0.281 C 
ATOM     10  C   UNL     1       8.080  23.656  21.280  1.00  0.00     0.041 C 
ATOM     11  C   UNL     1       9.373  24.307  20.746  1.00  0.00     0.150 C 
ATOM     12  C   UNL     1      10.521  23.279  20.640  1.00  0.00     0.174 C 
ATOM     13  O   UNL     1       9.792  25.383  21.576  1.00  0.00    -0.344 OA
ATOM     14  C   UNL     1      11.684  23.948  19.903  1.00  0.00     0.179 C 
ATOM     15  C   UNL     1      12.080  25.272  20.584  1.00  0.00     0.202 C 
BRANCH  12  16
ATOM     16  O   UNL     1      10.919  22.874  21.937  1.00  0.00    -0.388 OA
ATOM     17  H   UNL     1      11.097  21.893  21.917  1.00  0.00     0.211 HD
ENDBRANCH  12  16
BRANCH  14  18
ATOM     18  O   UNL     1      11.347  24.171  18.553  1.00  0.00    -0.387 OA
ATOM     19  H   UNL     1      10.523  23.650  18.376  1.00  0.00     0.211 HD
ENDBRANCH  14  18
BRANCH  15  20
ATOM     20  O   UNL     1      12.926  25.987  19.716  1.00  0.00    -0.385 OA
ATOM     21  H   UNL     1      12.801  26.955  19.903  1.00  0.00     0.211 HD
ENDBRANCH  15  20
ENDBRANCH   8   9
ENDBRANCH   7   8
ENDBRANCH   1   7
BRANCH   2  22
ATOM     22  O   UNL     1       5.875  27.341  20.218  1.00  0.00    -0.387 OA
ATOM     23  H   UNL     1       5.253  26.971  20.902  1.00  0.00     0.211 HD
ENDBRANCH   2  22
BRANCH   3  24
ATOM     24  O   UNL     1       8.321  27.526  22.840  1.00  0.00    -0.387 OA
ATOM     25  H   UNL     1       9.121  27.495  22.252  1.00  0.00     0.211 HD
ENDBRANCH   3  24
BRANCH   5  26
ATOM     26  O   UNL     1       9.071  30.758  20.877  1.00  0.00    -0.454 OA
BRANCH  26  27
ATOM     27  C   UNL     1      10.354  31.323  20.951  1.00  0.00     0.214 A 
ATOM     28  C   UNL     1      10.703  32.186  22.017  1.00  0.00     0.180 A 
ATOM     29  C   UNL     1      11.316  31.039  19.960  1.00  0.00     0.239 A 
ATOM     30  O   UNL     1      11.915  32.746  22.054  1.00  0.00    -0.452 OA
ATOM     31  C   UNL     1      12.585  31.681  20.009  1.00  0.00     0.111 A 
ATOM     32  O   UNL     1      11.046  30.178  19.080  1.00  0.00    -0.285 OA
ATOM     33  C   UNL     1      12.845  32.547  21.113  1.00  0.00     0.146 A 
ATOM     34  C   UNL     1      13.632  31.462  19.071  1.00  0.00     0.134 A 
ATOM     35  C   UNL     1      14.101  33.157  21.275  1.00  0.00     0.094 A 
ATOM     36  C   UNL     1      14.896  32.042  19.289  1.00  0.00     0.093 A 
ATOM     37  C   UNL     1      15.121  32.898  20.371  1.00  0.00     0.123 A 
BRANCH  28  38
ATOM     38  C   UNL     1       9.757  32.505  23.121  1.00  0.00     0.025 A 
ATOM     39  C   UNL     1      10.042  32.171  24.452  1.00  0.00     0.062 A 
ATOM     40  C   UNL     1       8.491  33.036  22.810  1.00  0.00     0.016 A 
ATOM     41  C   UNL     1       9.111  32.404  25.465  1.00  0.00     0.158 A 
ATOM     42  C   UNL     1       7.570  33.284  23.828  1.00  0.00     0.051 A 
ATOM     43  C   UNL     1       7.879  32.964  25.153  1.00  0.00     0.157 A 
BRANCH  41  44
ATOM     44  O   UNL     1       9.393  32.039  26.793  1.00  0.00    -0.504 OA
ATOM     45  H   UNL     1      10.268  32.310  27.237  1.00  0.00     0.293 HD
ENDBRANCH  41  44
BRANCH  43  46
ATOM     46  O   UNL     1       6.950  33.202  26.177  1.00  0.00    -0.504 OA
ATOM     47  H   UNL     1       5.964  33.025  26.032  1.00  0.00     0.293 HD
ENDBRANCH  43  46
ENDBRANCH  28  38
BRANCH  34  48
ATOM     48  O   UNL     1      13.475  30.742  17.886  1.00  0.00    -0.507 OA
ATOM     49  H   UNL     1      13.921  29.874  17.658  1.00  0.00     0.293 HD
ENDBRANCH  34  48
BRANCH  37  50
ATOM     50  O   UNL     1      16.363  33.500  20.561  1.00  0.00    -0.508 OA
ATOM     51  H   UNL     1      16.459  34.479  20.779  1.00  0.00     0.293 HD
ENDBRANCH  37  50
ENDBRANCH  26  27
ENDBRANCH   5  26
BRANCH   4  52
ATOM     52  O   UNL     1       7.822  30.035  23.186  1.00  0.00    -0.384 OA
ATOM     53  H   UNL     1       8.477  30.727  22.898  1.00  0.00     0.211 HD
ENDBRANCH   4  52
TORSDOF 16
ENDMDL
MODEL 9
REMARK VINA RESULT:    -5.114      2.509      6.355
REMARK INTER + INTRA:         -10.389
REMARK INTER:                  -7.858
REMARK INTRA:                  -2.531
REMARK UNBOUND:                -1.987
REMARK SMILES C[C@H]1O[C@H](OC[C@@H]2O[C@H](Oc3c(-c4ccc(O)c(O)c4)oc4cc(O)cc(O)c4c3=O)[C@H](O)[C@H](O)[C@H]2O)[C@H](O)[C@H](O)[C@H]1O
REMARK SMILES IDX 7 1 36 2 34 3 32 4 9 5 8 6 6 7 5 8 4 9 1 10 2 11 42 12 3 13
REMARK SMILES IDX 40 14 38 15 43 16 41 18 39 20 37 22 35 24 10 26 11 27 12 28
REMARK SMILES IDX 30 29 21 30 29 31 31 32 22 33 27 34 23 35 26 36 24 37 13 38
REMARK SMILES IDX 20 39 14 40 18 41 15 42 16 43 19 44 17 46 28 48 25 50 33 52
REMARK H PARENT 43 17 41 19 39 21 37 23 35 25 19 45 17 47 28 49 25 51 33 53
REMARK Flexibility Score: inf
ROOT
ATOM      1  C   UNL     1      12.371  32.873  21.563  1.00  0.00     0.180 C 
ATOM      2  C   UNL     1      13.877  32.732  21.241  1.00  0.00     0.177 C 
ATOM      3  C   UNL     1      14.106  31.507  20.351  1.00  0.00     0.180 C 
ATOM      4  C   UNL     1      13.061  31.379  19.217  1.00  0.00     0.214 C 
ATOM      5  C   UNL     1      11.652  32.036  19.454  1.00  0.00     0.339 C 
ATOM      6  O   UNL     1      11.658  33.130  20.360  1.00  0.00    -0.332 OA
ENDROOT
BRANCH   1   7
ATOM      7  C   UNL     1      11.763  31.685  22.375  1.00  0.00     0.198 C 
BRANCH   7   8
ATOM      8  O   UNL     1      11.296  32.100  23.648  1.00  0.00    -0.347 OA
BRANCH   8   9
ATOM      9  C   UNL     1      10.269  33.087  23.551  1.00  0.00     0.281 C 
ATOM     10  C   UNL     1       7.368  30.762  23.644  1.00  0.00     0.041 C 
ATOM     11  C   UNL     1       8.528  31.633  24.167  1.00  0.00     0.150 C 
ATOM     12  C   UNL     1       8.082  32.511  25.359  1.00  0.00     0.174 C 
ATOM     13  O   UNL     1       9.047  32.474  23.144  1.00  0.00    -0.344 OA
ATOM     14  C   UNL     1       9.332  33.168  25.950  1.00  0.00     0.179 C 
ATOM     15  C   UNL     1      10.122  33.926  24.866  1.00  0.00     0.202 C 
BRANCH  12  16
ATOM     16  O   UNL     1       7.166  33.492  24.911  1.00  0.00    -0.388 OA
ATOM     17  H   UNL     1       7.499  33.858  24.045  1.00  0.00     0.211 HD
ENDBRANCH  12  16
BRANCH  14  18
ATOM     18  O   UNL     1      10.149  32.201  26.569  1.00  0.00    -0.387 OA
ATOM     19  H   UNL     1      11.079  32.392  26.288  1.00  0.00     0.211 HD
ENDBRANCH  14  18
BRANCH  15  20
ATOM     20  O   UNL     1      11.392  34.246  25.379  1.00  0.00    -0.385 OA
ATOM     21  H   UNL     1      11.276  34.513  26.330  1.00  0.00     0.211 HD
ENDBRANCH  15  20
ENDBRANCH   8   9
ENDBRANCH   7   8
ENDBRANCH   1   7
BRANCH   2  22
ATOM     22  O   UNL     1      14.396  33.872  20.569  1.00  0.00    -0.387 OA
ATOM     23  H   UNL     1      15.294  34.111  20.925  1.00  0.00     0.211 HD
ENDBRANCH   2  22
BRANCH   3  24
ATOM     24  O   UNL     1      14.156  30.335  21.136  1.00  0.00    -0.387 OA
ATOM     25  H   UNL     1      14.118  29.544  20.537  1.00  0.00     0.211 HD
ENDBRANCH   3  24
BRANCH   5  26
ATOM     26  O   UNL     1      10.619  31.131  19.828  1.00  0.00    -0.454 OA
BRANCH  26  27
ATOM     27  C   UNL     1       9.650  30.192  20.214  1.00  0.00     0.214 A 
ATOM     28  C   UNL     1       8.271  30.468  20.051  1.00  0.00     0.180 A 
ATOM     29  C   UNL     1      10.037  28.956  20.772  1.00  0.00     0.239 A 
ATOM     30  O   UNL     1       7.359  29.580  20.457  1.00  0.00    -0.452 OA
ATOM     31  C   UNL     1       9.041  28.048  21.228  1.00  0.00     0.111 A 
ATOM     32  O   UNL     1      11.261  28.661  20.805  1.00  0.00    -0.285 OA
ATOM     33  C   UNL     1       7.674  28.417  21.036  1.00  0.00     0.146 A 
ATOM     34  C   UNL     1       9.315  26.773  21.796  1.00  0.00     0.134 A 
ATOM     35  C   UNL     1       6.632  27.541  21.388  1.00  0.00     0.094 A 
ATOM     36  C   UNL     1       8.253  25.896  22.087  1.00  0.00     0.093 A 
ATOM     37  C   UNL     1       6.923  26.286  21.903  1.00  0.00     0.123 A 
BRANCH  28  38
ATOM     38  C   UNL     1       7.782  31.732  19.436  1.00  0.00     0.025 A 
ATOM     39  C   UNL     1       8.407  32.961  19.687  1.00  0.00     0.062 A 
ATOM     40  C   UNL     1       6.589  31.717  18.690  1.00  0.00     0.016 A 
ATOM     41  C   UNL     1       7.889  34.148  19.167  1.00  0.00     0.158 A 
ATOM     42  C   UNL     1       6.084  32.903  18.158  1.00  0.00     0.051 A 
ATOM     43  C   UNL     1       6.732  34.117  18.400  1.00  0.00     0.157 A 
BRANCH  41  44
ATOM     44  O   UNL     1       8.506  35.380  19.448  1.00  0.00    -0.504 OA
ATOM     45  H   UNL     1       9.327  35.686  18.929  1.00  0.00     0.293 HD
ENDBRANCH  41  44
BRANCH  43  46
ATOM     46  O   UNL     1       6.221  35.314  17.875  1.00  0.00    -0.504 OA
ATOM     47  H   UNL     1       5.507  35.300  17.158  1.00  0.00     0.293 HD
ENDBRANCH  43  46
ENDBRANCH  28  38
BRANCH  34  48
ATOM     48  O   UNL     1      10.593  26.341  22.151  1.00  0.00    -0.507 OA
ATOM     49  H   UNL     1      11.431  26.891  22.129  1.00  0.00     0.293 HD
ENDBRANCH  34  48
BRANCH  37  50
ATOM     50  O   UNL     1       5.875  25.428  22.229  1.00  0.00    -0.508 OA
ATOM     51  H   UNL     1       5.414  24.856  21.541  1.00  0.00     0.293 HD
ENDBRANCH  37  50
ENDBRANCH  26  27
ENDBRANCH   5  26
BRANCH   4  52
ATOM     52  O   UNL     1      12.919  30.016  18.893  1.00  0.00    -0.384 OA
ATOM     53  H   UNL     1      13.572  29.802  18.173  1.00  0.00     0.211 HD
ENDBRANCH   4  52
TORSDOF 16
ENDMDL
