MODEL 1
REMARK VINA RESULT:     1.016      0.000      0.000
REMARK INTER + INTRA:           4.209
REMARK INTER:                   1.669
REMARK INTRA:                   2.540
REMARK UNBOUND:                 2.540
REMARK SMILES COc1ccc([C@H]2CC(=O)c3c(O)cc(O[C@H]4O[C@H](CO[C@@H]5O[C@H](C)[C@H](O)[C@H](O)[C@@H]5O)[C@@H](O)[C@H](O)[C@@H]4O)cc3O2)cc1O
REMARK SMILES IDX 19 1 32 2 34 3 36 4 17 5 18 6 20 7 21 8 22 9 25 10 24 11
REMARK SMILES IDX 26 12 23 13 28 14 30 15 27 16 29 18 31 20 33 22 35 24 16 26
REMARK SMILES IDX 15 27 14 28 38 29 12 30 39 31 11 32 40 33 9 34 7 35 10 36
REMARK SMILES IDX 8 37 13 38 6 40 41 41 5 42 42 43 4 44 3 45 43 46 2 48 1 49
REMARK SMILES IDX 37 50
REMARK H PARENT 27 17 29 19 31 21 33 23 35 25 13 39 43 47 37 51
REMARK Flexibility Score: inf
ROOT
ATOM      1  C   UNL     1     -16.678  47.028  -7.076  1.00  0.00     0.180 C 
ATOM      2  C   UNL     1     -17.871  47.840  -6.522  1.00  0.00     0.177 C 
ATOM      3  C   UNL     1     -18.211  47.303  -5.125  1.00  0.00     0.180 C 
ATOM      4  C   UNL     1     -16.949  47.241  -4.234  1.00  0.00     0.214 C 
ATOM      5  C   UNL     1     -15.766  46.578  -4.972  1.00  0.00     0.339 C 
ATOM      6  O   UNL     1     -15.543  47.181  -6.236  1.00  0.00    -0.332 OA
ENDROOT
BRANCH   1   7
ATOM      7  C   UNL     1     -16.308  47.430  -8.501  1.00  0.00     0.198 C 
BRANCH   7   8
ATOM      8  O   UNL     1     -14.912  47.645  -8.632  1.00  0.00    -0.347 OA
BRANCH   8   9
ATOM      9  C   UNL     1     -14.584  48.879  -9.262  1.00  0.00     0.281 C 
ATOM     10  C   UNL     1     -14.638  52.218  -8.085  1.00  0.00     0.041 C 
ATOM     11  C   UNL     1     -13.876  51.137  -8.868  1.00  0.00     0.150 C 
ATOM     12  C   UNL     1     -14.010  51.272 -10.420  1.00  0.00     0.174 C 
ATOM     13  O   UNL     1     -14.237  49.875  -8.311  1.00  0.00    -0.344 OA
ATOM     14  C   UNL     1     -15.311  50.657 -10.973  1.00  0.00     0.179 C 
ATOM     15  C   UNL     1     -15.707  49.344 -10.237  1.00  0.00     0.202 C 
BRANCH  12  16
ATOM     16  O   UNL     1     -13.891  52.611 -10.836  1.00  0.00    -0.388 OA
ATOM     17  H   UNL     1     -14.698  53.089 -10.504  1.00  0.00     0.211 HD
ENDBRANCH  12  16
BRANCH  14  18
ATOM     18  O   UNL     1     -16.370  51.591 -11.033  1.00  0.00    -0.387 OA
ATOM     19  H   UNL     1     -17.202  51.119 -10.785  1.00  0.00     0.211 HD
ENDBRANCH  14  18
BRANCH  15  20
ATOM     20  O   UNL     1     -16.951  49.472  -9.595  1.00  0.00    -0.385 OA
ATOM     21  H   UNL     1     -17.644  49.106 -10.199  1.00  0.00     0.211 HD
ENDBRANCH  15  20
ENDBRANCH   8   9
ENDBRANCH   7   8
ENDBRANCH   1   7
BRANCH   2  22
ATOM     22  O   UNL     1     -18.993  47.681  -7.356  1.00  0.00    -0.387 OA
ATOM     23  H   UNL     1     -19.794  47.594  -6.767  1.00  0.00     0.211 HD
ENDBRANCH   2  22
BRANCH   3  24
ATOM     24  O   UNL     1     -19.194  48.112  -4.525  1.00  0.00    -0.387 OA
ATOM     25  H   UNL     1     -18.793  48.487  -3.697  1.00  0.00     0.211 HD
ENDBRANCH   3  24
BRANCH   5  26
ATOM     26  O   UNL     1     -15.975  45.170  -5.117  1.00  0.00    -0.462 OA
BRANCH  26  27
ATOM     27  C   UNL     1     -16.357  44.600  -6.330  1.00  0.00     0.130 A 
ATOM     28  C   UNL     1     -15.518  44.700  -7.447  1.00  0.00     0.093 A 
ATOM     29  C   UNL     1     -17.596  43.967  -6.456  1.00  0.00     0.094 A 
ATOM     30  C   UNL     1     -15.897  44.143  -8.678  1.00  0.00     0.133 A 
ATOM     31  C   UNL     1     -18.008  43.460  -7.690  1.00  0.00     0.138 A 
ATOM     32  C   UNL     1     -17.152  43.510  -8.804  1.00  0.00     0.102 A 
ATOM     33  O   UNL     1     -19.289  42.913  -7.804  1.00  0.00    -0.484 OA
ATOM     34  C   UNL     1     -17.629  42.915 -10.078  1.00  0.00     0.174 C 
ATOM     35  C   UNL     1     -19.945  42.714  -9.060  1.00  0.00     0.211 C 
ATOM     36  O   UNL     1     -16.920  42.952 -11.117  1.00  0.00    -0.294 OA
ATOM     37  C   UNL     1     -18.959  42.213 -10.134  1.00  0.00     0.131 C 
BRANCH  30  38
ATOM     38  O   UNL     1     -15.035  44.234  -9.774  1.00  0.00    -0.507 OA
ATOM     39  H   UNL     1     -14.709  45.123 -10.128  1.00  0.00     0.293 HD
ENDBRANCH  30  38
BRANCH  35  40
ATOM     40  C   UNL     1     -20.703  43.971  -9.465  1.00  0.00    -0.003 A 
ATOM     41  C   UNL     1     -20.887  45.051  -8.580  1.00  0.00     0.057 A 
ATOM     42  C   UNL     1     -21.296  44.039 -10.738  1.00  0.00     0.011 A 
ATOM     43  C   UNL     1     -21.610  46.184  -8.968  1.00  0.00     0.158 A 
ATOM     44  C   UNL     1     -22.027  45.162 -11.124  1.00  0.00     0.051 A 
ATOM     45  C   UNL     1     -22.182  46.251 -10.248  1.00  0.00     0.160 A 
BRANCH  43  46
ATOM     46  O   UNL     1     -21.748  47.234  -8.064  1.00  0.00    -0.504 OA
ATOM     47  H   UNL     1     -22.061  47.089  -7.114  1.00  0.00     0.293 HD
ENDBRANCH  43  46
BRANCH  45  48
ATOM     48  O   UNL     1     -22.898  47.405 -10.607  1.00  0.00    -0.493 OA
ATOM     49  C   UNL     1     -24.236  47.399 -11.097  1.00  0.00     0.278 C 
ENDBRANCH  45  48
ENDBRANCH  35  40
ENDBRANCH  26  27
ENDBRANCH   5  26
BRANCH   4  50
ATOM     50  O   UNL     1     -16.598  48.517  -3.757  1.00  0.00    -0.384 OA
ATOM     51  H   UNL     1     -16.596  48.488  -2.762  1.00  0.00     0.211 HD
ENDBRANCH   4  50
TORSDOF 15
ENDMDL
MODEL 2
REMARK VINA RESULT:     3.555      1.682      7.413
REMARK INTER + INTRA:           8.381
REMARK INTER:                   7.431
REMARK INTRA:                   0.950
REMARK UNBOUND:                 2.540
REMARK SMILES COc1ccc([C@H]2CC(=O)c3c(O)cc(O[C@H]4O[C@H](CO[C@@H]5O[C@H](C)[C@H](O)[C@H](O)[C@@H]5O)[C@@H](O)[C@H](O)[C@@H]4O)cc3O2)cc1O
REMARK SMILES IDX 19 1 32 2 34 3 36 4 17 5 18 6 20 7 21 8 22 9 25 10 24 11
REMARK SMILES IDX 26 12 23 13 28 14 30 15 27 16 29 18 31 20 33 22 35 24 16 26
REMARK SMILES IDX 15 27 14 28 38 29 12 30 39 31 11 32 40 33 9 34 7 35 10 36
REMARK SMILES IDX 8 37 13 38 6 40 41 41 5 42 42 43 4 44 3 45 43 46 2 48 1 49
REMARK SMILES IDX 37 50
REMARK H PARENT 27 17 29 19 31 21 33 23 35 25 13 39 43 47 37 51
REMARK Flexibility Score: inf
ROOT
ATOM      1  C   UNL     1     -18.514  42.561  -9.991  1.00  0.00     0.180 C 
ATOM      2  C   UNL     1     -17.723  43.680 -10.707  1.00  0.00     0.177 C 
ATOM      3  C   UNL     1     -16.715  44.268  -9.710  1.00  0.00     0.180 C 
ATOM      4  C   UNL     1     -15.878  43.152  -9.045  1.00  0.00     0.214 C 
ATOM      5  C   UNL     1     -16.771  41.998  -8.540  1.00  0.00     0.339 C 
ATOM      6  O   UNL     1     -17.636  41.530  -9.562  1.00  0.00    -0.332 OA
ENDROOT
BRANCH   1   7
ATOM      7  C   UNL     1     -19.605  41.960 -10.873  1.00  0.00     0.198 C 
BRANCH   7   8
ATOM      8  O   UNL     1     -20.656  42.884 -11.099  1.00  0.00    -0.347 OA
BRANCH   8   9
ATOM      9  C   UNL     1     -20.639  43.994 -10.208  1.00  0.00     0.281 C 
ATOM     10  C   UNL     1     -22.398  44.633  -7.201  1.00  0.00     0.041 C 
ATOM     11  C   UNL     1     -21.054  44.679  -7.946  1.00  0.00     0.150 C 
ATOM     12  C   UNL     1     -20.683  46.100  -8.487  1.00  0.00     0.174 C 
ATOM     13  O   UNL     1     -21.062  43.623  -8.903  1.00  0.00    -0.344 OA
ATOM     14  C   UNL     1     -21.361  46.434  -9.830  1.00  0.00     0.179 C 
ATOM     15  C   UNL     1     -21.441  45.202 -10.778  1.00  0.00     0.202 C 
BRANCH  12  16
ATOM     16  O   UNL     1     -20.960  47.103  -7.540  1.00  0.00    -0.388 OA
ATOM     17  H   UNL     1     -21.713  46.772  -6.980  1.00  0.00     0.211 HD
ENDBRANCH  12  16
BRANCH  14  18
ATOM     18  O   UNL     1     -22.608  47.077  -9.663  1.00  0.00    -0.387 OA
ATOM     19  H   UNL     1     -23.315  46.432  -9.907  1.00  0.00     0.211 HD
ENDBRANCH  14  18
BRANCH  15  20
ATOM     20  O   UNL     1     -22.774  44.867 -11.070  1.00  0.00    -0.385 OA
ATOM     21  H   UNL     1     -22.769  44.029 -11.595  1.00  0.00     0.211 HD
ENDBRANCH  15  20
ENDBRANCH   8   9
ENDBRANCH   7   8
ENDBRANCH   1   7
BRANCH   2  22
ATOM     22  O   UNL     1     -18.597  44.700 -11.125  1.00  0.00    -0.387 OA
ATOM     23  H   UNL     1     -18.131  45.220 -11.838  1.00  0.00     0.211 HD
ENDBRANCH   2  22
BRANCH   3  24
ATOM     24  O   UNL     1     -15.873  45.187 -10.363  1.00  0.00    -0.387 OA
ATOM     25  H   UNL     1     -14.939  44.913 -10.168  1.00  0.00     0.211 HD
ENDBRANCH   3  24
BRANCH   5  26
ATOM     26  O   UNL     1     -17.522  42.395  -7.389  1.00  0.00    -0.462 OA
BRANCH  26  27
ATOM     27  C   UNL     1     -17.272  43.590  -6.718  1.00  0.00     0.130 A 
ATOM     28  C   UNL     1     -18.339  44.361  -6.238  1.00  0.00     0.093 A 
ATOM     29  C   UNL     1     -15.964  44.053  -6.560  1.00  0.00     0.094 A 
ATOM     30  C   UNL     1     -18.102  45.575  -5.574  1.00  0.00     0.133 A 
ATOM     31  C   UNL     1     -15.720  45.286  -5.952  1.00  0.00     0.138 A 
ATOM     32  C   UNL     1     -16.779  46.043  -5.422  1.00  0.00     0.102 A 
ATOM     33  O   UNL     1     -14.408  45.762  -5.889  1.00  0.00    -0.484 OA
ATOM     34  C   UNL     1     -16.452  47.325  -4.747  1.00  0.00     0.174 C 
ATOM     35  C   UNL     1     -14.085  47.134  -5.640  1.00  0.00     0.211 C 
ATOM     36  O   UNL     1     -17.359  48.060  -4.277  1.00  0.00    -0.294 OA
ATOM     37  C   UNL     1     -15.017  47.745  -4.576  1.00  0.00     0.131 C 
BRANCH  30  38
ATOM     38  O   UNL     1     -19.178  46.317  -5.083  1.00  0.00    -0.507 OA
ATOM     39  H   UNL     1     -19.254  46.572  -4.107  1.00  0.00     0.293 HD
ENDBRANCH  30  38
BRANCH  35  40
ATOM     40  C   UNL     1     -14.054  47.914  -6.948  1.00  0.00    -0.003 A 
ATOM     41  C   UNL     1     -14.017  47.273  -8.201  1.00  0.00     0.057 A 
ATOM     42  C   UNL     1     -13.997  49.318  -6.911  1.00  0.00     0.011 A 
ATOM     43  C   UNL     1     -13.963  48.013  -9.386  1.00  0.00     0.158 A 
ATOM     44  C   UNL     1     -13.931  50.059  -8.091  1.00  0.00     0.051 A 
ATOM     45  C   UNL     1     -13.925  49.415  -9.341  1.00  0.00     0.160 A 
BRANCH  43  46
ATOM     46  O   UNL     1     -13.947  47.334 -10.601  1.00  0.00    -0.504 OA
ATOM     47  H   UNL     1     -13.688  46.359 -10.670  1.00  0.00     0.293 HD
ENDBRANCH  43  46
BRANCH  45  48
ATOM     48  O   UNL     1     -13.875  50.128 -10.550  1.00  0.00    -0.493 OA
ATOM     49  C   UNL     1     -14.892  51.021 -10.997  1.00  0.00     0.278 C 
ENDBRANCH  45  48
ENDBRANCH  35  40
ENDBRANCH  26  27
ENDBRANCH   5  26
BRANCH   4  50
ATOM     50  O   UNL     1     -14.879  42.677  -9.914  1.00  0.00    -0.384 OA
ATOM     51  H   UNL     1     -14.610  43.424 -10.516  1.00  0.00     0.211 HD
ENDBRANCH   4  50
TORSDOF 15
ENDMDL
