MODEL 1
REMARK VINA RESULT:    -4.134      0.000      0.000
REMARK INTER + INTRA:          -4.393
REMARK INTER:                  -4.376
REMARK INTRA:                  -0.017
REMARK UNBOUND:                -0.017
REMARK SMILES O=C([O-])c1cccnc1
REMARK SMILES IDX 4 1 5 2 9 3 6 4 8 5 7 6 2 7 1 8 3 9
REMARK H PARENT
REMARK Flexibility Score: inf
ROOT
ATOM      1  C   UNL     1      31.579  13.266  14.862  1.00  0.00     0.016 A 
ATOM      2  C   UNL     1      32.899  12.961  15.228  1.00  0.00     0.013 A 
ATOM      3  C   UNL     1      31.257  14.605  14.573  1.00  0.00     0.120 A 
ATOM      4  C   UNL     1      33.859  13.973  15.299  1.00  0.00     0.021 A 
ATOM      5  N   UNL     1      32.210  15.571  14.650  1.00  0.00    -0.264 NA
ATOM      6  C   UNL     1      33.492  15.286  15.003  1.00  0.00     0.111 A 
ENDROOT
BRANCH   1   7
ATOM      7  C   UNL     1      30.553  12.202  14.783  1.00  0.00     0.073 C 
ATOM      8  O   UNL     1      30.123  11.650  15.831  1.00  0.00    -0.545 OA
ATOM      9  O   UNL     1      30.051  11.798  13.552  1.00  0.00    -0.545 OA
ENDBRANCH   1   7
TORSDOF 1
ENDMDL
MODEL 2
REMARK VINA RESULT:    -4.079      7.987      9.052
REMARK INTER + INTRA:          -4.335
REMARK INTER:                  -4.314
REMARK INTRA:                  -0.021
REMARK UNBOUND:                -0.017
REMARK SMILES O=C([O-])c1cccnc1
REMARK SMILES IDX 4 1 5 2 9 3 6 4 8 5 7 6 2 7 1 8 3 9
REMARK H PARENT
REMARK Flexibility Score: inf
ROOT
ATOM      1  C   UNL     1      37.886  18.077  10.697  1.00  0.00     0.016 A 
ATOM      2  C   UNL     1      38.247  18.274  12.039  1.00  0.00     0.013 A 
ATOM      3  C   UNL     1      36.520  18.087  10.363  1.00  0.00     0.120 A 
ATOM      4  C   UNL     1      37.262  18.475  13.008  1.00  0.00     0.021 A 
ATOM      5  N   UNL     1      35.581  18.284  11.326  1.00  0.00    -0.264 NA
ATOM      6  C   UNL     1      35.919  18.476  12.628  1.00  0.00     0.111 A 
ENDROOT
BRANCH   1   7
ATOM      7  C   UNL     1      38.922  17.863   9.662  1.00  0.00     0.073 C 
ATOM      8  O   UNL     1      38.714  17.073   8.702  1.00  0.00    -0.545 OA
ATOM      9  O   UNL     1      40.138  18.531   9.735  1.00  0.00    -0.545 OA
ENDBRANCH   1   7
TORSDOF 1
ENDMDL
MODEL 3
REMARK VINA RESULT:    -4.040      6.749      7.561
REMARK INTER + INTRA:          -4.293
REMARK INTER:                  -4.277
REMARK INTRA:                  -0.016
REMARK UNBOUND:                -0.017
REMARK SMILES O=C([O-])c1cccnc1
REMARK SMILES IDX 4 1 5 2 9 3 6 4 8 5 7 6 2 7 1 8 3 9
REMARK H PARENT
REMARK Flexibility Score: inf
ROOT
ATOM      1  C   UNL     1      35.763  18.492  11.740  1.00  0.00     0.016 A 
ATOM      2  C   UNL     1      36.646  18.506  12.831  1.00  0.00     0.013 A 
ATOM      3  C   UNL     1      36.291  18.274  10.455  1.00  0.00     0.120 A 
ATOM      4  C   UNL     1      38.013  18.306  12.629  1.00  0.00     0.021 A 
ATOM      5  N   UNL     1      37.626  18.082  10.286  1.00  0.00    -0.264 NA
ATOM      6  C   UNL     1      38.490  18.094  11.335  1.00  0.00     0.111 A 
ENDROOT
BRANCH   1   7
ATOM      7  C   UNL     1      34.312  18.703  11.942  1.00  0.00     0.073 C 
ATOM      8  O   UNL     1      33.573  17.752  12.313  1.00  0.00    -0.545 OA
ATOM      9  O   UNL     1      33.746  19.954  11.726  1.00  0.00    -0.545 OA
ENDBRANCH   1   7
TORSDOF 1
ENDMDL
MODEL 4
REMARK VINA RESULT:    -4.023      2.666      3.594
REMARK INTER + INTRA:          -4.275
REMARK INTER:                  -4.257
REMARK INTRA:                  -0.018
REMARK UNBOUND:                -0.017
REMARK SMILES O=C([O-])c1cccnc1
REMARK SMILES IDX 4 1 5 2 9 3 6 4 8 5 7 6 2 7 1 8 3 9
REMARK H PARENT
REMARK Flexibility Score: inf
ROOT
ATOM      1  C   UNL     1      32.245  13.682  15.097  1.00  0.00     0.016 A 
ATOM      2  C   UNL     1      32.104  12.285  15.103  1.00  0.00     0.013 A 
ATOM      3  C   UNL     1      31.264  14.451  14.446  1.00  0.00     0.120 A 
ATOM      4  C   UNL     1      31.009  11.688  14.475  1.00  0.00     0.021 A 
ATOM      5  N   UNL     1      30.208  13.845  13.842  1.00  0.00    -0.264 NA
ATOM      6  C   UNL     1      30.060  12.494  13.842  1.00  0.00     0.111 A 
ENDROOT
BRANCH   1   7
ATOM      7  C   UNL     1      33.402  14.325  15.759  1.00  0.00     0.073 C 
ATOM      8  O   UNL     1      34.574  14.107  15.353  1.00  0.00    -0.545 OA
ATOM      9  O   UNL     1      33.209  15.179  16.839  1.00  0.00    -0.545 OA
ENDBRANCH   1   7
TORSDOF 1
ENDMDL
MODEL 5
REMARK VINA RESULT:    -3.985      8.255      8.999
REMARK INTER + INTRA:          -4.235
REMARK INTER:                  -4.215
REMARK INTRA:                  -0.021
REMARK UNBOUND:                -0.017
REMARK SMILES O=C([O-])c1cccnc1
REMARK SMILES IDX 4 1 5 2 9 3 6 4 8 5 7 6 2 7 1 8 3 9
REMARK H PARENT
REMARK Flexibility Score: inf
ROOT
ATOM      1  C   UNL     1      37.547  18.079  10.332  1.00  0.00     0.016 A 
ATOM      2  C   UNL     1      36.203  18.251  10.699  1.00  0.00     0.013 A 
ATOM      3  C   UNL     1      38.528  18.142  11.337  1.00  0.00     0.120 A 
ATOM      4  C   UNL     1      35.864  18.478  12.035  1.00  0.00     0.021 A 
ATOM      5  N   UNL     1      38.172  18.365  12.630  1.00  0.00    -0.264 NA
ATOM      6  C   UNL     1      36.874  18.532  12.997  1.00  0.00     0.111 A 
ENDROOT
BRANCH   1   7
ATOM      7  C   UNL     1      37.917  17.838   8.920  1.00  0.00     0.073 C 
ATOM      8  O   UNL     1      38.855  17.048   8.629  1.00  0.00    -0.545 OA
ATOM      9  O   UNL     1      37.233  18.480   7.894  1.00  0.00    -0.545 OA
ENDBRANCH   1   7
TORSDOF 1
ENDMDL
MODEL 6
REMARK VINA RESULT:    -3.936      6.904      8.025
REMARK INTER + INTRA:          -4.183
REMARK INTER:                  -4.167
REMARK INTRA:                  -0.016
REMARK UNBOUND:                -0.017
REMARK SMILES O=C([O-])c1cccnc1
REMARK SMILES IDX 4 1 5 2 9 3 6 4 8 5 7 6 2 7 1 8 3 9
REMARK H PARENT
REMARK Flexibility Score: inf
ROOT
ATOM      1  C   UNL     1      35.223  18.978  11.488  1.00  0.00     0.016 A 
ATOM      2  C   UNL     1      34.320  19.982  11.871  1.00  0.00     0.013 A 
ATOM      3  C   UNL     1      35.557  18.862  10.127  1.00  0.00     0.120 A 
ATOM      4  C   UNL     1      33.775  20.838  10.912  1.00  0.00     0.021 A 
ATOM      5  N   UNL     1      35.012  19.708   9.213  1.00  0.00    -0.264 NA
ATOM      6  C   UNL     1      34.137  20.684   9.573  1.00  0.00     0.111 A 
ENDROOT
BRANCH   1   7
ATOM      7  C   UNL     1      35.807  18.065  12.496  1.00  0.00     0.073 C 
ATOM      8  O   UNL     1      35.348  16.901  12.646  1.00  0.00    -0.545 OA
ATOM      9  O   UNL     1      36.869  18.480  13.290  1.00  0.00    -0.545 OA
ENDBRANCH   1   7
TORSDOF 1
ENDMDL
MODEL 7
REMARK VINA RESULT:    -3.894      6.052      7.148
REMARK INTER + INTRA:          -4.139
REMARK INTER:                  -4.121
REMARK INTRA:                  -0.017
REMARK UNBOUND:                -0.017
REMARK SMILES O=C([O-])c1cccnc1
REMARK SMILES IDX 4 1 5 2 9 3 6 4 8 5 7 6 2 7 1 8 3 9
REMARK H PARENT
REMARK Flexibility Score: inf
ROOT
ATOM      1  C   UNL     1      35.322  18.131  12.396  1.00  0.00     0.016 A 
ATOM      2  C   UNL     1      34.760  19.255  11.770  1.00  0.00     0.013 A 
ATOM      3  C   UNL     1      34.456  17.154  12.918  1.00  0.00     0.120 A 
ATOM      4  C   UNL     1      33.374  19.385  11.675  1.00  0.00     0.021 A 
ATOM      5  N   UNL     1      33.109  17.305  12.813  1.00  0.00    -0.264 NA
ATOM      6  C   UNL     1      32.555  18.389  12.208  1.00  0.00     0.111 A 
ENDROOT
BRANCH   1   7
ATOM      7  C   UNL     1      36.791  17.983  12.502  1.00  0.00     0.073 C 
ATOM      8  O   UNL     1      37.464  18.778  13.211  1.00  0.00    -0.545 OA
ATOM      9  O   UNL     1      37.446  16.964  11.822  1.00  0.00    -0.545 OA
ENDBRANCH   1   7
TORSDOF 1
ENDMDL
MODEL 8
REMARK VINA RESULT:    -3.843      2.072      2.558
REMARK INTER + INTRA:          -4.085
REMARK INTER:                  -4.063
REMARK INTRA:                  -0.022
REMARK UNBOUND:                -0.017
REMARK SMILES O=C([O-])c1cccnc1
REMARK SMILES IDX 4 1 5 2 9 3 6 4 8 5 7 6 2 7 1 8 3 9
REMARK H PARENT
REMARK Flexibility Score: inf
ROOT
ATOM      1  C   UNL     1      29.675  12.247  15.497  1.00  0.00     0.016 A 
ATOM      2  C   UNL     1      30.724  11.788  14.684  1.00  0.00     0.013 A 
ATOM      3  C   UNL     1      29.972  13.179  16.508  1.00  0.00     0.120 A 
ATOM      4  C   UNL     1      32.024  12.256  14.886  1.00  0.00     0.021 A 
ATOM      5  N   UNL     1      31.246  13.618  16.684  1.00  0.00    -0.264 NA
ATOM      6  C   UNL     1      32.268  13.181  15.902  1.00  0.00     0.111 A 
ENDROOT
BRANCH   1   7
ATOM      7  C   UNL     1      28.294  11.759  15.292  1.00  0.00     0.073 C 
ATOM      8  O   UNL     1      27.481  11.717  16.254  1.00  0.00    -0.545 OA
ATOM      9  O   UNL     1      27.875  11.338  14.036  1.00  0.00    -0.545 OA
ENDBRANCH   1   7
TORSDOF 1
ENDMDL
MODEL 9
REMARK VINA RESULT:    -3.803      8.025      9.023
REMARK INTER + INTRA:          -4.042
REMARK INTER:                  -4.026
REMARK INTRA:                  -0.016
REMARK UNBOUND:                -0.017
REMARK SMILES O=C([O-])c1cccnc1
REMARK SMILES IDX 4 1 5 2 9 3 6 4 8 5 7 6 2 7 1 8 3 9
REMARK H PARENT
REMARK Flexibility Score: inf
ROOT
ATOM      1  C   UNL     1      37.379  17.922  10.349  1.00  0.00     0.016 A 
ATOM      2  C   UNL     1      38.394  17.936   9.379  1.00  0.00     0.013 A 
ATOM      3  C   UNL     1      36.111  18.417   9.996  1.00  0.00     0.120 A 
ATOM      4  C   UNL     1      38.136  18.432   8.100  1.00  0.00     0.021 A 
ATOM      5  N   UNL     1      35.886  18.896   8.744  1.00  0.00    -0.264 NA
ATOM      6  C   UNL     1      36.861  18.913   7.798  1.00  0.00     0.111 A 
ENDROOT
BRANCH   1   7
ATOM      7  C   UNL     1      37.642  17.398  11.707  1.00  0.00     0.073 C 
ATOM      8  O   UNL     1      37.213  16.264  12.050  1.00  0.00    -0.545 OA
ATOM      9  O   UNL     1      38.367  18.151  12.624  1.00  0.00    -0.545 OA
ENDBRANCH   1   7
TORSDOF 1
ENDMDL
