MODEL 1
REMARK VINA RESULT:    -3.994      0.000      0.000
REMARK INTER + INTRA:          -4.733
REMARK INTER:                  -4.694
REMARK INTRA:                  -0.039
REMARK UNBOUND:                -0.039
REMARK SMILES CCCCC(=O)[O-]
REMARK SMILES IDX 4 1 5 2 6 3 7 4 3 5 2 6 1 7
REMARK H PARENT
REMARK Flexibility Score: inf
ROOT
ATOM      1  C   UNL     1      19.176  26.010  36.236  1.00  0.00     0.053 C 
ENDROOT
BRANCH   1   2
ATOM      2  C   UNL     1      19.493  24.833  35.365  1.00  0.00     0.041 C 
ATOM      3  O   UNL     1      18.647  23.913  35.210  1.00  0.00    -0.550 OA
ATOM      4  O   UNL     1      20.736  24.736  34.752  1.00  0.00    -0.550 OA
ENDBRANCH   1   2
BRANCH   1   5
ATOM      5  C   UNL     1      17.662  26.211  36.392  1.00  0.00     0.006 C 
BRANCH   5   6
ATOM      6  C   UNL     1      17.311  27.633  36.857  1.00  0.00    -0.003 C 
ATOM      7  C   UNL     1      18.571  28.451  37.125  1.00  0.00     0.004 C 
ENDBRANCH   5   6
ENDBRANCH   1   5
TORSDOF 3
ENDMDL
MODEL 2
REMARK VINA RESULT:    -3.338      6.982      8.157
REMARK INTER + INTRA:          -3.962
REMARK INTER:                  -3.891
REMARK INTRA:                  -0.071
REMARK UNBOUND:                -0.039
REMARK SMILES CCCCC(=O)[O-]
REMARK SMILES IDX 4 1 5 2 6 3 7 4 3 5 2 6 1 7
REMARK H PARENT
REMARK Flexibility Score: inf
ROOT
ATOM      1  C   UNL     1      22.467  33.161  35.244  1.00  0.00     0.053 C 
ENDROOT
BRANCH   1   2
ATOM      2  C   UNL     1      21.528  32.277  36.006  1.00  0.00     0.041 C 
ATOM      3  O   UNL     1      21.570  31.028  35.853  1.00  0.00    -0.550 OA
ATOM      4  O   UNL     1      20.586  32.835  36.861  1.00  0.00    -0.550 OA
ENDBRANCH   1   2
BRANCH   1   5
ATOM      5  C   UNL     1      21.715  34.208  34.412  1.00  0.00     0.006 C 
BRANCH   5   6
ATOM      6  C   UNL     1      21.136  33.616  33.118  1.00  0.00    -0.003 C 
ATOM      7  C   UNL     1      20.333  34.659  32.347  1.00  0.00     0.004 C 
ENDBRANCH   5   6
ENDBRANCH   1   5
TORSDOF 3
ENDMDL
MODEL 3
REMARK VINA RESULT:    -3.265     15.802     16.854
REMARK INTER + INTRA:          -3.876
REMARK INTER:                  -3.776
REMARK INTRA:                  -0.100
REMARK UNBOUND:                -0.039
REMARK SMILES CCCCC(=O)[O-]
REMARK SMILES IDX 4 1 5 2 6 3 7 4 3 5 2 6 1 7
REMARK H PARENT
REMARK Flexibility Score: inf
ROOT
ATOM      1  C   UNL     1      22.436  22.683  19.756  1.00  0.00     0.053 C 
ENDROOT
BRANCH   1   2
ATOM      2  C   UNL     1      21.854  22.018  20.966  1.00  0.00     0.041 C 
ATOM      3  O   UNL     1      20.745  22.399  21.426  1.00  0.00    -0.550 OA
ATOM      4  O   UNL     1      22.551  21.000  21.605  1.00  0.00    -0.550 OA
ENDBRANCH   1   2
BRANCH   1   5
ATOM      5  C   UNL     1      21.520  22.544  18.533  1.00  0.00     0.006 C 
BRANCH   5   6
ATOM      6  C   UNL     1      21.241  23.897  17.861  1.00  0.00    -0.003 C 
ATOM      7  C   UNL     1      20.804  24.940  18.885  1.00  0.00     0.004 C 
ENDBRANCH   5   6
ENDBRANCH   1   5
TORSDOF 3
ENDMDL
MODEL 4
REMARK VINA RESULT:    -3.223     15.852     16.867
REMARK INTER + INTRA:          -3.827
REMARK INTER:                  -3.688
REMARK INTRA:                  -0.139
REMARK UNBOUND:                -0.039
REMARK SMILES CCCCC(=O)[O-]
REMARK SMILES IDX 4 1 5 2 6 3 7 4 3 5 2 6 1 7
REMARK H PARENT
REMARK Flexibility Score: inf
ROOT
ATOM      1  C   UNL     1      22.325  22.464  19.415  1.00  0.00     0.053 C 
ENDROOT
BRANCH   1   2
ATOM      2  C   UNL     1      21.573  22.243  20.691  1.00  0.00     0.041 C 
ATOM      3  O   UNL     1      21.988  22.751  21.767  1.00  0.00    -0.550 OA
ATOM      4  O   UNL     1      20.433  21.450  20.699  1.00  0.00    -0.550 OA
ENDBRANCH   1   2
BRANCH   1   5
ATOM      5  C   UNL     1      21.438  23.089  18.330  1.00  0.00     0.006 C 
BRANCH   5   6
ATOM      6  C   UNL     1      20.910  24.473  18.739  1.00  0.00    -0.003 C 
ATOM      7  C   UNL     1      19.386  24.522  18.668  1.00  0.00     0.004 C 
ENDBRANCH   5   6
ENDBRANCH   1   5
TORSDOF 3
ENDMDL
MODEL 5
REMARK VINA RESULT:    -3.213     15.920     17.070
REMARK INTER + INTRA:          -3.816
REMARK INTER:                  -3.720
REMARK INTRA:                  -0.096
REMARK UNBOUND:                -0.039
REMARK SMILES CCCCC(=O)[O-]
REMARK SMILES IDX 4 1 5 2 6 3 7 4 3 5 2 6 1 7
REMARK H PARENT
REMARK Flexibility Score: inf
ROOT
ATOM      1  C   UNL     1      21.232  24.281  18.653  1.00  0.00     0.053 C 
ENDROOT
BRANCH   1   2
ATOM      2  C   UNL     1      19.931  24.580  19.332  1.00  0.00     0.041 C 
ATOM      3  O   UNL     1      18.841  24.341  18.747  1.00  0.00    -0.550 OA
ATOM      4  O   UNL     1      19.921  25.154  20.597  1.00  0.00    -0.550 OA
ENDBRANCH   1   2
BRANCH   1   5
ATOM      5  C   UNL     1      21.575  22.786  18.710  1.00  0.00     0.006 C 
BRANCH   5   6
ATOM      6  C   UNL     1      22.522  22.452  19.872  1.00  0.00    -0.003 C 
ATOM      7  C   UNL     1      21.754  21.886  21.062  1.00  0.00     0.004 C 
ENDBRANCH   5   6
ENDBRANCH   1   5
TORSDOF 3
ENDMDL
MODEL 6
REMARK VINA RESULT:    -3.200     15.255     16.366
REMARK INTER + INTRA:          -3.800
REMARK INTER:                  -3.689
REMARK INTRA:                  -0.111
REMARK UNBOUND:                -0.039
REMARK SMILES CCCCC(=O)[O-]
REMARK SMILES IDX 4 1 5 2 6 3 7 4 3 5 2 6 1 7
REMARK H PARENT
REMARK Flexibility Score: inf
ROOT
ATOM      1  C   UNL     1      19.959  24.940  20.549  1.00  0.00     0.053 C 
ENDROOT
BRANCH   1   2
ATOM      2  C   UNL     1      20.031  23.760  21.469  1.00  0.00     0.041 C 
ATOM      3  O   UNL     1      19.097  23.533  22.282  1.00  0.00    -0.550 OA
ATOM      4  O   UNL     1      21.145  22.931  21.452  1.00  0.00    -0.550 OA
ENDBRANCH   1   2
BRANCH   1   5
ATOM      5  C   UNL     1      19.693  24.516  19.098  1.00  0.00     0.006 C 
BRANCH   5   6
ATOM      6  C   UNL     1      20.970  24.534  18.245  1.00  0.00    -0.003 C 
ATOM      7  C   UNL     1      21.359  23.125  17.808  1.00  0.00     0.004 C 
ENDBRANCH   5   6
ENDBRANCH   1   5
TORSDOF 3
ENDMDL
MODEL 7
REMARK VINA RESULT:    -3.118     19.908     21.509
REMARK INTER + INTRA:          -3.704
REMARK INTER:                  -3.684
REMARK INTRA:                  -0.020
REMARK UNBOUND:                -0.039
REMARK SMILES CCCCC(=O)[O-]
REMARK SMILES IDX 4 1 5 2 6 3 7 4 3 5 2 6 1 7
REMARK H PARENT
REMARK Flexibility Score: inf
ROOT
ATOM      1  C   UNL     1      30.719  16.001  22.400  1.00  0.00     0.053 C 
ENDROOT
BRANCH   1   2
ATOM      2  C   UNL     1      30.401  15.356  23.714  1.00  0.00     0.041 C 
ATOM      3  O   UNL     1      29.245  14.908  23.936  1.00  0.00    -0.550 OA
ATOM      4  O   UNL     1      31.371  15.279  24.705  1.00  0.00    -0.550 OA
ENDBRANCH   1   2
BRANCH   1   5
ATOM      5  C   UNL     1      32.149  15.685  21.941  1.00  0.00     0.006 C 
BRANCH   5   6
ATOM      6  C   UNL     1      32.196  15.194  20.486  1.00  0.00    -0.003 C 
ATOM      7  C   UNL     1      33.136  16.055  19.646  1.00  0.00     0.004 C 
ENDBRANCH   5   6
ENDBRANCH   1   5
TORSDOF 3
ENDMDL
MODEL 8
REMARK VINA RESULT:    -3.037     15.267     16.474
REMARK INTER + INTRA:          -3.608
REMARK INTER:                  -3.502
REMARK INTRA:                  -0.106
REMARK UNBOUND:                -0.039
REMARK SMILES CCCCC(=O)[O-]
REMARK SMILES IDX 4 1 5 2 6 3 7 4 3 5 2 6 1 7
REMARK H PARENT
REMARK Flexibility Score: inf
ROOT
ATOM      1  C   UNL     1      21.343  22.144  20.885  1.00  0.00     0.053 C 
ENDROOT
BRANCH   1   2
ATOM      2  C   UNL     1      20.238  23.041  21.351  1.00  0.00     0.041 C 
ATOM      3  O   UNL     1      19.043  22.786  21.043  1.00  0.00    -0.550 OA
ATOM      4  O   UNL     1      20.528  24.176  22.097  1.00  0.00    -0.550 OA
ENDBRANCH   1   2
BRANCH   1   5
ATOM      5  C   UNL     1      22.182  22.800  19.780  1.00  0.00     0.006 C 
BRANCH   5   6
ATOM      6  C   UNL     1      21.479  22.755  18.414  1.00  0.00    -0.003 C 
ATOM      7  C   UNL     1      21.081  24.154  17.955  1.00  0.00     0.004 C 
ENDBRANCH   5   6
ENDBRANCH   1   5
TORSDOF 3
ENDMDL
MODEL 9
REMARK VINA RESULT:    -3.037      7.704      8.518
REMARK INTER + INTRA:          -3.608
REMARK INTER:                  -3.530
REMARK INTRA:                  -0.078
REMARK UNBOUND:                -0.039
REMARK SMILES CCCCC(=O)[O-]
REMARK SMILES IDX 4 1 5 2 6 3 7 4 3 5 2 6 1 7
REMARK H PARENT
REMARK Flexibility Score: inf
ROOT
ATOM      1  C   UNL     1      21.738  33.980  34.532  1.00  0.00     0.053 C 
ENDROOT
BRANCH   1   2
ATOM      2  C   UNL     1      20.698  34.280  33.497  1.00  0.00     0.041 C 
ATOM      3  O   UNL     1      20.949  34.098  32.276  1.00  0.00    -0.550 OA
ATOM      4  O   UNL     1      19.464  34.793  33.877  1.00  0.00    -0.550 OA
ENDBRANCH   1   2
BRANCH   1   5
ATOM      5  C   UNL     1      21.875  32.473  34.783  1.00  0.00     0.006 C 
BRANCH   5   6
ATOM      6  C   UNL     1      21.727  32.116  36.270  1.00  0.00    -0.003 C 
ATOM      7  C   UNL     1      20.367  32.552  36.808  1.00  0.00     0.004 C 
ENDBRANCH   5   6
ENDBRANCH   1   5
TORSDOF 3
ENDMDL
