MODEL 1
REMARK VINA RESULT:    -2.623      0.000      0.000
REMARK INTER + INTRA:          -5.992
REMARK INTER:                  -5.690
REMARK INTRA:                  -0.302
REMARK UNBOUND:                -0.302
REMARK SMILES CCCCCCCCCCCCCCCCCCCCCC(=O)[O-]
REMARK SMILES IDX 12 1 11 2 10 3 9 4 8 5 7 6 6 7 5 8 4 9 3 10 2 11 1 12 13 13
REMARK SMILES IDX 14 14 15 15 16 16 17 17 18 18 19 19 20 20 21 21 22 22 23 23
REMARK SMILES IDX 24 24
REMARK H PARENT
REMARK Flexibility Score: inf
ROOT
ATOM      1  C   UNL     1     -15.862 -10.494   3.205  1.00  0.00     0.000 C 
ENDROOT
BRANCH   1   2
ATOM      2  C   UNL     1     -16.763 -11.697   2.895  1.00  0.00     0.000 C 
BRANCH   2   3
ATOM      3  C   UNL     1     -16.433 -12.295   1.519  1.00  0.00     0.000 C 
BRANCH   3   4
ATOM      4  C   UNL     1     -17.677 -12.461   0.633  1.00  0.00    -0.000 C 
BRANCH   4   5
ATOM      5  C   UNL     1     -18.948 -12.761   1.446  1.00  0.00    -0.000 C 
BRANCH   5   6
ATOM      6  C   UNL     1     -20.180 -13.021   0.560  1.00  0.00    -0.000 C 
BRANCH   6   7
ATOM      7  C   UNL     1     -21.491 -12.385   1.056  1.00  0.00    -0.000 C 
BRANCH   7   8
ATOM      8  C   UNL     1     -21.597 -12.352   2.589  1.00  0.00    -0.000 C 
BRANCH   8   9
ATOM      9  C   UNL     1     -23.025 -12.631   3.087  1.00  0.00    -0.000 C 
BRANCH   9  10
ATOM     10  C   UNL     1     -23.532 -11.556   4.061  1.00  0.00    -0.000 C 
BRANCH  10  11
ATOM     11  C   UNL     1     -24.915 -11.043   3.641  1.00  0.00    -0.003 C 
ATOM     12  C   UNL     1     -25.007 -10.886   2.126  1.00  0.00     0.004 C 
ENDBRANCH  10  11
ENDBRANCH   9  10
ENDBRANCH   8   9
ENDBRANCH   7   8
ENDBRANCH   6   7
ENDBRANCH   5   6
ENDBRANCH   4   5
ENDBRANCH   3   4
ENDBRANCH   2   3
ENDBRANCH   1   2
BRANCH   1  13
ATOM     13  C   UNL     1     -14.959 -10.162   2.007  1.00  0.00     0.000 C 
BRANCH  13  14
ATOM     14  C   UNL     1     -13.669 -10.997   1.982  1.00  0.00     0.000 C 
BRANCH  14  15
ATOM     15  C   UNL     1     -13.356 -11.564   0.587  1.00  0.00     0.000 C 
BRANCH  15  16
ATOM     16  C   UNL     1     -12.200 -12.577   0.613  1.00  0.00     0.000 C 
BRANCH  16  17
ATOM     17  C   UNL     1     -11.159 -12.258   1.701  1.00  0.00     0.000 C 
BRANCH  17  18
ATOM     18  C   UNL     1     -11.399 -13.039   3.007  1.00  0.00     0.000 C 
BRANCH  18  19
ATOM     19  C   UNL     1     -12.079 -12.232   4.128  1.00  0.00     0.000 C 
BRANCH  19  20
ATOM     20  C   UNL     1     -13.055 -13.077   4.967  1.00  0.00     0.006 C 
BRANCH  20  21
ATOM     21  C   UNL     1     -13.582 -12.311   6.187  1.00  0.00     0.053 C 
BRANCH  21  22
ATOM     22  C   UNL     1     -12.655 -12.428   7.358  1.00  0.00     0.041 C 
ATOM     23  O   UNL     1     -12.989 -11.964   8.480  1.00  0.00    -0.550 OA
ATOM     24  O   UNL     1     -11.438 -13.084   7.220  1.00  0.00    -0.550 OA
ENDBRANCH  21  22
ENDBRANCH  20  21
ENDBRANCH  19  20
ENDBRANCH  18  19
ENDBRANCH  17  18
ENDBRANCH  16  17
ENDBRANCH  15  16
ENDBRANCH  14  15
ENDBRANCH  13  14
ENDBRANCH   1  13
TORSDOF 20
ENDMDL
MODEL 2
REMARK VINA RESULT:    -2.418      4.262     11.056
REMARK INTER + INTRA:          -5.547
REMARK INTER:                  -4.508
REMARK INTRA:                  -1.040
REMARK UNBOUND:                -0.302
REMARK SMILES CCCCCCCCCCCCCCCCCCCCCC(=O)[O-]
REMARK SMILES IDX 12 1 11 2 10 3 9 4 8 5 7 6 6 7 5 8 4 9 3 10 2 11 1 12 13 13
REMARK SMILES IDX 14 14 15 15 16 16 17 17 18 18 19 19 20 20 21 21 22 22 23 23
REMARK SMILES IDX 24 24
REMARK H PARENT
REMARK Flexibility Score: inf
ROOT
ATOM      1  C   UNL     1     -15.132 -11.060   2.995  1.00  0.00     0.000 C 
ENDROOT
BRANCH   1   2
ATOM      2  C   UNL     1     -13.969 -11.988   2.625  1.00  0.00     0.000 C 
BRANCH   2   3
ATOM      3  C   UNL     1     -12.656 -11.512   3.266  1.00  0.00     0.000 C 
BRANCH   3   4
ATOM      4  C   UNL     1     -11.514 -12.527   3.096  1.00  0.00    -0.000 C 
BRANCH   4   5
ATOM      5  C   UNL     1     -11.430 -13.091   1.667  1.00  0.00    -0.000 C 
BRANCH   5   6
ATOM      6  C   UNL     1     -11.154 -12.005   0.610  1.00  0.00    -0.000 C 
BRANCH   6   7
ATOM      7  C   UNL     1      -9.807 -12.132  -0.125  1.00  0.00    -0.000 C 
BRANCH   7   8
ATOM      8  C   UNL     1      -8.777 -12.963   0.656  1.00  0.00    -0.000 C 
BRANCH   8   9
ATOM      9  C   UNL     1      -7.445 -13.108  -0.097  1.00  0.00    -0.000 C 
BRANCH   9  10
ATOM     10  C   UNL     1      -6.224 -12.968   0.825  1.00  0.00    -0.000 C 
BRANCH  10  11
ATOM     11  C   UNL     1      -5.980 -11.499   1.192  1.00  0.00    -0.003 C 
ATOM     12  C   UNL     1      -5.912 -10.623  -0.055  1.00  0.00     0.004 C 
ENDBRANCH  10  11
ENDBRANCH   9  10
ENDBRANCH   8   9
ENDBRANCH   7   8
ENDBRANCH   6   7
ENDBRANCH   5   6
ENDBRANCH   4   5
ENDBRANCH   3   4
ENDBRANCH   2   3
ENDBRANCH   1   2
BRANCH   1  13
ATOM     13  C   UNL     1     -16.424 -11.487   2.280  1.00  0.00     0.000 C 
BRANCH  13  14
ATOM     14  C   UNL     1     -17.299 -12.417   3.136  1.00  0.00     0.000 C 
BRANCH  14  15
ATOM     15  C   UNL     1     -18.580 -12.860   2.409  1.00  0.00     0.000 C 
BRANCH  15  16
ATOM     16  C   UNL     1     -18.635 -12.355   0.958  1.00  0.00     0.000 C 
BRANCH  16  17
ATOM     17  C   UNL     1     -19.821 -12.941   0.172  1.00  0.00     0.000 C 
BRANCH  17  18
ATOM     18  C   UNL     1     -21.116 -13.008   1.003  1.00  0.00     0.000 C 
BRANCH  18  19
ATOM     19  C   UNL     1     -22.412 -13.095   0.176  1.00  0.00     0.000 C 
BRANCH  19  20
ATOM     20  C   UNL     1     -23.554 -12.246   0.762  1.00  0.00     0.006 C 
BRANCH  20  21
ATOM     21  C   UNL     1     -23.803 -12.552   2.244  1.00  0.00     0.053 C 
BRANCH  21  22
ATOM     22  C   UNL     1     -23.944 -11.299   3.052  1.00  0.00     0.041 C 
ATOM     23  O   UNL     1     -23.982 -11.356   4.310  1.00  0.00    -0.550 OA
ATOM     24  O   UNL     1     -23.993 -10.064   2.419  1.00  0.00    -0.550 OA
ENDBRANCH  21  22
ENDBRANCH  20  21
ENDBRANCH  19  20
ENDBRANCH  18  19
ENDBRANCH  17  18
ENDBRANCH  16  17
ENDBRANCH  15  16
ENDBRANCH  14  15
ENDBRANCH  13  14
ENDBRANCH   1  13
TORSDOF 20
ENDMDL
MODEL 3
REMARK VINA RESULT:    -2.346      1.336      3.419
REMARK INTER + INTRA:          -5.392
REMARK INTER:                  -3.436
REMARK INTRA:                  -1.955
REMARK UNBOUND:                -0.302
REMARK SMILES CCCCCCCCCCCCCCCCCCCCCC(=O)[O-]
REMARK SMILES IDX 12 1 11 2 10 3 9 4 8 5 7 6 6 7 5 8 4 9 3 10 2 11 1 12 13 13
REMARK SMILES IDX 14 14 15 15 16 16 17 17 18 18 19 19 20 20 21 21 22 22 23 23
REMARK SMILES IDX 24 24
REMARK H PARENT
REMARK Flexibility Score: inf
ROOT
ATOM      1  C   UNL     1     -19.319 -13.125   1.743  1.00  0.00     0.000 C 
ENDROOT
BRANCH   1   2
ATOM      2  C   UNL     1     -20.737 -12.638   1.416  1.00  0.00     0.000 C 
BRANCH   2   3
ATOM      3  C   UNL     1     -20.700 -11.373   0.543  1.00  0.00     0.000 C 
BRANCH   3   4
ATOM      4  C   UNL     1     -22.052 -11.077  -0.125  1.00  0.00    -0.000 C 
BRANCH   4   5
ATOM      5  C   UNL     1     -23.146 -12.080   0.282  1.00  0.00    -0.000 C 
BRANCH   5   6
ATOM      6  C   UNL     1     -24.522 -11.418   0.480  1.00  0.00    -0.000 C 
BRANCH   6   7
ATOM      7  C   UNL     1     -25.696 -12.392   0.683  1.00  0.00    -0.000 C 
BRANCH   7   8
ATOM      8  C   UNL     1     -25.859 -12.836   2.145  1.00  0.00    -0.000 C 
BRANCH   8   9
ATOM      9  C   UNL     1     -25.810 -11.654   3.128  1.00  0.00    -0.000 C 
BRANCH   9  10
ATOM     10  C   UNL     1     -24.847 -11.897   4.299  1.00  0.00    -0.000 C 
BRANCH  10  11
ATOM     11  C   UNL     1     -23.431 -12.194   3.792  1.00  0.00    -0.003 C 
ATOM     12  C   UNL     1     -22.427 -11.182   4.335  1.00  0.00     0.004 C 
ENDBRANCH  10  11
ENDBRANCH   9  10
ENDBRANCH   8   9
ENDBRANCH   7   8
ENDBRANCH   6   7
ENDBRANCH   5   6
ENDBRANCH   4   5
ENDBRANCH   3   4
ENDBRANCH   2   3
ENDBRANCH   1   2
BRANCH   1  13
ATOM     13  C   UNL     1     -18.987 -12.891   3.226  1.00  0.00     0.000 C 
BRANCH  13  14
ATOM     14  C   UNL     1     -17.532 -12.451   3.448  1.00  0.00     0.000 C 
BRANCH  14  15
ATOM     15  C   UNL     1     -16.813 -12.093   2.136  1.00  0.00     0.000 C 
BRANCH  15  16
ATOM     16  C   UNL     1     -15.674 -13.072   1.807  1.00  0.00     0.000 C 
BRANCH  16  17
ATOM     17  C   UNL     1     -14.319 -12.363   1.625  1.00  0.00     0.000 C 
BRANCH  17  18
ATOM     18  C   UNL     1     -13.864 -11.610   2.889  1.00  0.00     0.000 C 
BRANCH  18  19
ATOM     19  C   UNL     1     -12.416 -11.896   3.327  1.00  0.00     0.000 C 
BRANCH  19  20
ATOM     20  C   UNL     1     -12.299 -13.124   4.247  1.00  0.00     0.006 C 
BRANCH  20  21
ATOM     21  C   UNL     1     -13.215 -13.019   5.473  1.00  0.00     0.053 C 
BRANCH  21  22
ATOM     22  C   UNL     1     -12.461 -12.582   6.691  1.00  0.00     0.041 C 
ATOM     23  O   UNL     1     -13.074 -12.350   7.767  1.00  0.00    -0.550 OA
ATOM     24  O   UNL     1     -11.078 -12.469   6.651  1.00  0.00    -0.550 OA
ENDBRANCH  21  22
ENDBRANCH  20  21
ENDBRANCH  19  20
ENDBRANCH  18  19
ENDBRANCH  17  18
ENDBRANCH  16  17
ENDBRANCH  15  16
ENDBRANCH  14  15
ENDBRANCH  13  14
ENDBRANCH   1  13
TORSDOF 20
ENDMDL
MODEL 4
REMARK VINA RESULT:    -2.071     15.916     18.651
REMARK INTER + INTRA:          -4.795
REMARK INTER:                  -2.773
REMARK INTRA:                  -2.022
REMARK UNBOUND:                -0.302
REMARK SMILES CCCCCCCCCCCCCCCCCCCCCC(=O)[O-]
REMARK SMILES IDX 12 1 11 2 10 3 9 4 8 5 7 6 6 7 5 8 4 9 3 10 2 11 1 12 13 13
REMARK SMILES IDX 14 14 15 15 16 16 17 17 18 18 19 19 20 20 21 21 22 22 23 23
REMARK SMILES IDX 24 24
REMARK H PARENT
REMARK Flexibility Score: inf
ROOT
ATOM      1  C   UNL     1     -19.847   2.067   0.960  1.00  0.00     0.000 C 
ENDROOT
BRANCH   1   2
ATOM      2  C   UNL     1     -18.455   1.922   0.332  1.00  0.00     0.000 C 
BRANCH   2   3
ATOM      3  C   UNL     1     -17.628   3.204   0.516  1.00  0.00     0.000 C 
BRANCH   3   4
ATOM      4  C   UNL     1     -18.494   4.474   0.489  1.00  0.00    -0.000 C 
BRANCH   4   5
ATOM      5  C   UNL     1     -17.689   5.746   0.805  1.00  0.00    -0.000 C 
BRANCH   5   6
ATOM      6  C   UNL     1     -18.513   7.035   0.628  1.00  0.00    -0.000 C 
BRANCH   6   7
ATOM      7  C   UNL     1     -19.854   6.861  -0.108  1.00  0.00    -0.000 C 
BRANCH   7   8
ATOM      8  C   UNL     1     -21.012   6.502   0.837  1.00  0.00    -0.000 C 
BRANCH   8   9
ATOM      9  C   UNL     1     -22.117   5.695   0.134  1.00  0.00    -0.000 C 
BRANCH   9  10
ATOM     10  C   UNL     1     -23.388   6.522  -0.112  1.00  0.00    -0.000 C 
BRANCH  10  11
ATOM     11  C   UNL     1     -24.639   5.637  -0.048  1.00  0.00    -0.003 C 
ATOM     12  C   UNL     1     -25.836   6.413   0.493  1.00  0.00     0.004 C 
ENDBRANCH  10  11
ENDBRANCH   9  10
ENDBRANCH   8   9
ENDBRANCH   7   8
ENDBRANCH   6   7
ENDBRANCH   5   6
ENDBRANCH   4   5
ENDBRANCH   3   4
ENDBRANCH   2   3
ENDBRANCH   1   2
BRANCH   1  13
ATOM     13  C   UNL     1     -20.925   2.221  -0.125  1.00  0.00     0.000 C 
BRANCH  13  14
ATOM     14  C   UNL     1     -22.042   1.172  -0.007  1.00  0.00     0.000 C 
BRANCH  14  15
ATOM     15  C   UNL     1     -23.445   1.803   0.052  1.00  0.00     0.000 C 
BRANCH  15  16
ATOM     16  C   UNL     1     -24.542   0.764   0.337  1.00  0.00     0.000 C 
BRANCH  16  17
ATOM     17  C   UNL     1     -25.505   1.212   1.451  1.00  0.00     0.000 C 
BRANCH  17  18
ATOM     18  C   UNL     1     -25.502   2.737   1.667  1.00  0.00     0.000 C 
BRANCH  18  19
ATOM     19  C   UNL     1     -25.930   3.192   3.074  1.00  0.00     0.000 C 
BRANCH  19  20
ATOM     20  C   UNL     1     -24.737   3.567   3.972  1.00  0.00     0.006 C 
BRANCH  20  21
ATOM     21  C   UNL     1     -23.852   4.648   3.339  1.00  0.00     0.053 C 
BRANCH  21  22
ATOM     22  C   UNL     1     -24.311   6.025   3.709  1.00  0.00     0.041 C 
ATOM     23  O   UNL     1     -23.470   6.945   3.895  1.00  0.00    -0.550 OA
ATOM     24  O   UNL     1     -25.667   6.305   3.811  1.00  0.00    -0.550 OA
ENDBRANCH  21  22
ENDBRANCH  20  21
ENDBRANCH  19  20
ENDBRANCH  18  19
ENDBRANCH  17  18
ENDBRANCH  16  17
ENDBRANCH  15  16
ENDBRANCH  14  15
ENDBRANCH  13  14
ENDBRANCH   1  13
TORSDOF 20
ENDMDL
MODEL 5
REMARK VINA RESULT:    -1.987      4.388     10.593
REMARK INTER + INTRA:          -4.612
REMARK INTER:                  -4.310
REMARK INTRA:                  -0.302
REMARK UNBOUND:                -0.302
REMARK SMILES CCCCCCCCCCCCCCCCCCCCCC(=O)[O-]
REMARK SMILES IDX 12 1 11 2 10 3 9 4 8 5 7 6 6 7 5 8 4 9 3 10 2 11 1 12 13 13
REMARK SMILES IDX 14 14 15 15 16 16 17 17 18 18 19 19 20 20 21 21 22 22 23 23
REMARK SMILES IDX 24 24
REMARK H PARENT
REMARK Flexibility Score: inf
ROOT
ATOM      1  C   UNL     1     -15.792 -10.750   3.620  1.00  0.00     0.000 C 
ENDROOT
BRANCH   1   2
ATOM      2  C   UNL     1     -14.479 -11.539   3.535  1.00  0.00     0.000 C 
BRANCH   2   3
ATOM      3  C   UNL     1     -13.349 -10.671   2.958  1.00  0.00     0.000 C 
BRANCH   3   4
ATOM      4  C   UNL     1     -12.029 -11.445   2.806  1.00  0.00    -0.000 C 
BRANCH   4   5
ATOM      5  C   UNL     1     -12.248 -12.926   2.455  1.00  0.00    -0.000 C 
BRANCH   5   6
ATOM      6  C   UNL     1     -13.217 -13.125   1.274  1.00  0.00    -0.000 C 
BRANCH   6   7
ATOM      7  C   UNL     1     -12.632 -12.809  -0.114  1.00  0.00    -0.000 C 
BRANCH   7   8
ATOM      8  C   UNL     1     -11.316 -12.017  -0.043  1.00  0.00    -0.000 C 
BRANCH   8   9
ATOM      9  C   UNL     1     -10.078 -12.926  -0.097  1.00  0.00    -0.000 C 
BRANCH   9  10
ATOM     10  C   UNL     1      -8.833 -12.269   0.519  1.00  0.00    -0.000 C 
BRANCH  10  11
ATOM     11  C   UNL     1      -7.551 -12.812  -0.124  1.00  0.00    -0.003 C 
ATOM     12  C   UNL     1      -6.372 -11.875   0.123  1.00  0.00     0.004 C 
ENDBRANCH  10  11
ENDBRANCH   9  10
ENDBRANCH   8   9
ENDBRANCH   7   8
ENDBRANCH   6   7
ENDBRANCH   5   6
ENDBRANCH   4   5
ENDBRANCH   3   4
ENDBRANCH   2   3
ENDBRANCH   1   2
BRANCH   1  13
ATOM     13  C   UNL     1     -16.717 -11.096   2.443  1.00  0.00     0.000 C 
BRANCH  13  14
ATOM     14  C   UNL     1     -17.006 -12.602   2.336  1.00  0.00     0.000 C 
BRANCH  14  15
ATOM     15  C   UNL     1     -18.102 -13.067   3.311  1.00  0.00     0.000 C 
BRANCH  15  16
ATOM     16  C   UNL     1     -19.516 -12.856   2.745  1.00  0.00     0.000 C 
BRANCH  16  17
ATOM     17  C   UNL     1     -20.610 -12.999   3.818  1.00  0.00     0.000 C 
BRANCH  17  18
ATOM     18  C   UNL     1     -22.005 -12.588   3.309  1.00  0.00     0.000 C 
BRANCH  18  19
ATOM     19  C   UNL     1     -22.072 -12.246   1.810  1.00  0.00     0.000 C 
BRANCH  19  20
ATOM     20  C   UNL     1     -23.503 -12.296   1.247  1.00  0.00     0.006 C 
BRANCH  20  21
ATOM     21  C   UNL     1     -23.884 -11.003   0.515  1.00  0.00     0.053 C 
BRANCH  21  22
ATOM     22  C   UNL     1     -24.452  -9.982   1.452  1.00  0.00     0.041 C 
ATOM     23  O   UNL     1     -24.984  -8.933   1.001  1.00  0.00    -0.550 OA
ATOM     24  O   UNL     1     -24.430 -10.206   2.822  1.00  0.00    -0.550 OA
ENDBRANCH  21  22
ENDBRANCH  20  21
ENDBRANCH  19  20
ENDBRANCH  18  19
ENDBRANCH  17  18
ENDBRANCH  16  17
ENDBRANCH  15  16
ENDBRANCH  14  15
ENDBRANCH  13  14
ENDBRANCH   1  13
TORSDOF 20
ENDMDL
MODEL 6
REMARK VINA RESULT:    -1.908     11.299     14.469
REMARK INTER + INTRA:          -4.442
REMARK INTER:                  -3.866
REMARK INTRA:                  -0.576
REMARK UNBOUND:                -0.302
REMARK SMILES CCCCCCCCCCCCCCCCCCCCCC(=O)[O-]
REMARK SMILES IDX 12 1 11 2 10 3 9 4 8 5 7 6 6 7 5 8 4 9 3 10 2 11 1 12 13 13
REMARK SMILES IDX 14 14 15 15 16 16 17 17 18 18 19 19 20 20 21 21 22 22 23 23
REMARK SMILES IDX 24 24
REMARK H PARENT
REMARK Flexibility Score: inf
ROOT
ATOM      1  C   UNL     1     -22.676  -0.754   1.393  1.00  0.00     0.000 C 
ENDROOT
BRANCH   1   2
ATOM      2  C   UNL     1     -21.832   0.145   2.305  1.00  0.00     0.000 C 
BRANCH   2   3
ATOM      3  C   UNL     1     -20.938   1.086   1.481  1.00  0.00     0.000 C 
BRANCH   3   4
ATOM      4  C   UNL     1     -21.460   1.293   0.050  1.00  0.00    -0.000 C 
BRANCH   4   5
ATOM      5  C   UNL     1     -22.802   2.044   0.012  1.00  0.00    -0.000 C 
BRANCH   5   6
ATOM      6  C   UNL     1     -22.855   3.227   0.996  1.00  0.00    -0.000 C 
BRANCH   6   7
ATOM      7  C   UNL     1     -24.253   3.559   1.549  1.00  0.00    -0.000 C 
BRANCH   7   8
ATOM      8  C   UNL     1     -24.614   2.734   2.794  1.00  0.00    -0.000 C 
BRANCH   8   9
ATOM      9  C   UNL     1     -25.582   3.475   3.732  1.00  0.00    -0.000 C 
BRANCH   9  10
ATOM     10  C   UNL     1     -25.327   4.989   3.769  1.00  0.00    -0.000 C 
BRANCH  10  11
ATOM     11  C   UNL     1     -23.859   5.290   4.096  1.00  0.00    -0.003 C 
ATOM     12  C   UNL     1     -23.507   6.738   3.765  1.00  0.00     0.004 C 
ENDBRANCH  10  11
ENDBRANCH   9  10
ENDBRANCH   8   9
ENDBRANCH   7   8
ENDBRANCH   6   7
ENDBRANCH   5   6
ENDBRANCH   4   5
ENDBRANCH   3   4
ENDBRANCH   2   3
ENDBRANCH   1   2
BRANCH   1  13
ATOM     13  C   UNL     1     -21.851  -1.947   0.884  1.00  0.00     0.000 C 
BRANCH  13  14
ATOM     14  C   UNL     1     -22.708  -2.998   0.161  1.00  0.00     0.000 C 
BRANCH  14  15
ATOM     15  C   UNL     1     -22.428  -4.430   0.649  1.00  0.00     0.000 C 
BRANCH  15  16
ATOM     16  C   UNL     1     -23.288  -5.476  -0.080  1.00  0.00     0.000 C 
BRANCH  16  17
ATOM     17  C   UNL     1     -24.795  -5.265   0.149  1.00  0.00     0.000 C 
BRANCH  17  18
ATOM     18  C   UNL     1     -25.625  -6.533  -0.125  1.00  0.00     0.000 C 
BRANCH  18  19
ATOM     19  C   UNL     1     -24.930  -7.855   0.248  1.00  0.00     0.000 C 
BRANCH  19  20
ATOM     20  C   UNL     1     -25.698  -8.657   1.314  1.00  0.00     0.006 C 
BRANCH  20  21
ATOM     21  C   UNL     1     -25.776 -10.150   0.972  1.00  0.00     0.053 C 
BRANCH  21  22
ATOM     22  C   UNL     1     -24.547 -10.884   1.412  1.00  0.00     0.041 C 
ATOM     23  O   UNL     1     -24.297 -11.023   2.639  1.00  0.00    -0.550 OA
ATOM     24  O   UNL     1     -23.697 -11.448   0.470  1.00  0.00    -0.550 OA
ENDBRANCH  21  22
ENDBRANCH  20  21
ENDBRANCH  19  20
ENDBRANCH  18  19
ENDBRANCH  17  18
ENDBRANCH  16  17
ENDBRANCH  15  16
ENDBRANCH  14  15
ENDBRANCH  13  14
ENDBRANCH   1  13
TORSDOF 20
ENDMDL
MODEL 7
REMARK VINA RESULT:    -1.710     12.622     15.894
REMARK INTER + INTRA:          -4.012
REMARK INTER:                  -2.907
REMARK INTRA:                  -1.105
REMARK UNBOUND:                -0.302
REMARK SMILES CCCCCCCCCCCCCCCCCCCCCC(=O)[O-]
REMARK SMILES IDX 12 1 11 2 10 3 9 4 8 5 7 6 6 7 5 8 4 9 3 10 2 11 1 12 13 13
REMARK SMILES IDX 14 14 15 15 16 16 17 17 18 18 19 19 20 20 21 21 22 22 23 23
REMARK SMILES IDX 24 24
REMARK H PARENT
REMARK Flexibility Score: inf
ROOT
ATOM      1  C   UNL     1     -22.534  -0.439   2.196  1.00  0.00     0.000 C 
ENDROOT
BRANCH   1   2
ATOM      2  C   UNL     1     -21.436  -1.061   1.325  1.00  0.00     0.000 C 
BRANCH   2   3
ATOM      3  C   UNL     1     -21.948  -1.338  -0.097  1.00  0.00     0.000 C 
BRANCH   3   4
ATOM      4  C   UNL     1     -23.169  -2.271  -0.114  1.00  0.00    -0.000 C 
BRANCH   4   5
ATOM      5  C   UNL     1     -22.791  -3.747   0.100  1.00  0.00    -0.000 C 
BRANCH   5   6
ATOM      6  C   UNL     1     -23.973  -4.707  -0.124  1.00  0.00    -0.000 C 
BRANCH   6   7
ATOM      7  C   UNL     1     -23.728  -6.163   0.313  1.00  0.00    -0.000 C 
BRANCH   7   8
ATOM      8  C   UNL     1     -24.880  -7.105  -0.073  1.00  0.00    -0.000 C 
BRANCH   8   9
ATOM      9  C   UNL     1     -25.090  -8.229   0.954  1.00  0.00    -0.000 C 
BRANCH   9  10
ATOM     10  C   UNL     1     -24.901  -9.628   0.348  1.00  0.00    -0.000 C 
BRANCH  10  11
ATOM     11  C   UNL     1     -24.286 -10.591   1.371  1.00  0.00    -0.003 C 
ATOM     12  C   UNL     1     -23.040 -11.269   0.809  1.00  0.00     0.004 C 
ENDBRANCH  10  11
ENDBRANCH   9  10
ENDBRANCH   8   9
ENDBRANCH   7   8
ENDBRANCH   6   7
ENDBRANCH   5   6
ENDBRANCH   4   5
ENDBRANCH   3   4
ENDBRANCH   2   3
ENDBRANCH   1   2
BRANCH   1  13
ATOM     13  C   UNL     1     -22.484   1.096   2.129  1.00  0.00     0.000 C 
BRANCH  13  14
ATOM     14  C   UNL     1     -23.418   1.676   1.055  1.00  0.00     0.000 C 
BRANCH  14  15
ATOM     15  C   UNL     1     -24.904   1.569   1.439  1.00  0.00     0.000 C 
BRANCH  15  16
ATOM     16  C   UNL     1     -25.482   2.910   1.918  1.00  0.00     0.000 C 
BRANCH  16  17
ATOM     17  C   UNL     1     -25.921   3.815   0.753  1.00  0.00     0.000 C 
BRANCH  17  18
ATOM     18  C   UNL     1     -24.741   4.545   0.085  1.00  0.00     0.000 C 
BRANCH  18  19
ATOM     19  C   UNL     1     -24.042   5.593   0.971  1.00  0.00     0.000 C 
BRANCH  19  20
ATOM     20  C   UNL     1     -25.033   6.518   1.700  1.00  0.00     0.006 C 
BRANCH  20  21
ATOM     21  C   UNL     1     -24.516   6.948   3.079  1.00  0.00     0.053 C 
BRANCH  21  22
ATOM     22  C   UNL     1     -24.884   5.958   4.142  1.00  0.00     0.041 C 
ATOM     23  O   UNL     1     -24.128   4.982   4.388  1.00  0.00    -0.550 OA
ATOM     24  O   UNL     1     -26.043   6.134   4.887  1.00  0.00    -0.550 OA
ENDBRANCH  21  22
ENDBRANCH  20  21
ENDBRANCH  19  20
ENDBRANCH  18  19
ENDBRANCH  17  18
ENDBRANCH  16  17
ENDBRANCH  15  16
ENDBRANCH  14  15
ENDBRANCH  13  14
ENDBRANCH   1  13
TORSDOF 20
ENDMDL
