MODEL 1
REMARK VINA RESULT:    -3.644      0.000      0.000
REMARK INTER + INTRA:          -4.309
REMARK INTER:                  -4.283
REMARK INTRA:                  -0.026
REMARK UNBOUND:                -0.026
REMARK SMILES O=C([O-])CCC(=O)[O-]
REMARK SMILES IDX 4 1 2 2 1 3 3 4 5 5 6 6 7 7 8 8
REMARK H PARENT
REMARK Flexibility Score: inf
ROOT
ATOM      1  C   UNL     1      -8.399  -4.777 -15.082  1.00  0.00     0.059 C 
ENDROOT
BRANCH   1   2
ATOM      2  C   UNL     1      -9.442  -3.833 -15.591  1.00  0.00     0.042 C 
ATOM      3  O   UNL     1     -10.169  -4.156 -16.567  1.00  0.00    -0.550 OA
ATOM      4  O   UNL     1      -9.578  -2.574 -15.019  1.00  0.00    -0.550 OA
ENDBRANCH   1   2
BRANCH   1   5
ATOM      5  C   UNL     1      -9.046  -5.903 -14.272  1.00  0.00     0.059 C 
BRANCH   5   6
ATOM      6  C   UNL     1      -8.011  -6.640 -13.482  1.00  0.00     0.042 C 
ATOM      7  O   UNL     1      -7.875  -6.416 -12.251  1.00  0.00    -0.550 OA
ATOM      8  O   UNL     1      -7.230  -7.611 -14.096  1.00  0.00    -0.550 OA
ENDBRANCH   5   6
ENDBRANCH   1   5
TORSDOF 3
ENDMDL
MODEL 2
REMARK VINA RESULT:    -3.640      0.117      4.144
REMARK INTER + INTRA:          -4.305
REMARK INTER:                  -4.278
REMARK INTRA:                  -0.026
REMARK UNBOUND:                -0.026
REMARK SMILES O=C([O-])CCC(=O)[O-]
REMARK SMILES IDX 4 1 2 2 1 3 3 4 5 5 6 6 7 7 8 8
REMARK H PARENT
REMARK Flexibility Score: inf
ROOT
ATOM      1  C   UNL     1      -9.042  -5.860 -14.229  1.00  0.00     0.059 C 
ENDROOT
BRANCH   1   2
ATOM      2  C   UNL     1      -8.005  -6.622 -13.466  1.00  0.00     0.042 C 
ATOM      3  O   UNL     1      -7.297  -7.485 -14.047  1.00  0.00    -0.550 OA
ATOM      4  O   UNL     1      -7.854  -6.413 -12.100  1.00  0.00    -0.550 OA
ENDBRANCH   1   2
BRANCH   1   5
ATOM      5  C   UNL     1      -8.384  -4.813 -15.129  1.00  0.00     0.059 C 
BRANCH   5   6
ATOM      6  C   UNL     1      -9.401  -3.835 -15.626  1.00  0.00     0.042 C 
ATOM      7  O   UNL     1      -9.526  -2.712 -15.071  1.00  0.00    -0.550 OA
ATOM      8  O   UNL     1     -10.178  -4.145 -16.736  1.00  0.00    -0.550 OA
ENDBRANCH   5   6
ENDBRANCH   1   5
TORSDOF 3
ENDMDL
MODEL 3
REMARK VINA RESULT:    -3.639      0.081      1.147
REMARK INTER + INTRA:          -4.303
REMARK INTER:                  -4.277
REMARK INTRA:                  -0.026
REMARK UNBOUND:                -0.026
REMARK SMILES O=C([O-])CCC(=O)[O-]
REMARK SMILES IDX 4 1 2 2 1 3 3 4 5 5 6 6 7 7 8 8
REMARK H PARENT
REMARK Flexibility Score: inf
ROOT
ATOM      1  C   UNL     1      -8.378  -4.767 -15.096  1.00  0.00     0.059 C 
ENDROOT
BRANCH   1   2
ATOM      2  C   UNL     1      -9.388  -3.790 -15.611  1.00  0.00     0.042 C 
ATOM      3  O   UNL     1      -9.536  -2.674 -15.048  1.00  0.00    -0.550 OA
ATOM      4  O   UNL     1     -10.202  -4.132 -16.685  1.00  0.00    -0.550 OA
ENDBRANCH   1   2
BRANCH   1   5
ATOM      5  C   UNL     1      -9.054  -5.822 -14.218  1.00  0.00     0.059 C 
BRANCH   5   6
ATOM      6  C   UNL     1      -8.030  -6.595 -13.448  1.00  0.00     0.042 C 
ATOM      7  O   UNL     1      -7.885  -6.400 -12.213  1.00  0.00    -0.550 OA
ATOM      8  O   UNL     1      -7.269  -7.567 -14.086  1.00  0.00    -0.550 OA
ENDBRANCH   5   6
ENDBRANCH   1   5
TORSDOF 3
ENDMDL
MODEL 4
REMARK VINA RESULT:    -3.414      2.325      2.968
REMARK INTER + INTRA:          -4.039
REMARK INTER:                  -3.949
REMARK INTRA:                  -0.090
REMARK UNBOUND:                -0.026
REMARK SMILES O=C([O-])CCC(=O)[O-]
REMARK SMILES IDX 4 1 2 2 1 3 3 4 5 5 6 6 7 7 8 8
REMARK H PARENT
REMARK Flexibility Score: inf
ROOT
ATOM      1  C   UNL     1      -7.828  -6.464 -14.242  1.00  0.00     0.059 C 
ENDROOT
BRANCH   1   2
ATOM      2  C   UNL     1      -7.314  -5.371 -15.125  1.00  0.00     0.042 C 
ATOM      3  O   UNL     1      -6.116  -5.378 -15.511  1.00  0.00    -0.550 OA
ATOM      4  O   UNL     1      -8.146  -4.317 -15.483  1.00  0.00    -0.550 OA
ENDBRANCH   1   2
BRANCH   1   5
ATOM      5  C   UNL     1      -9.248  -6.146 -13.768  1.00  0.00     0.059 C 
BRANCH   5   6
ATOM      6  C   UNL     1     -10.253  -6.897 -14.584  1.00  0.00     0.042 C 
ATOM      7  O   UNL     1     -11.223  -6.291 -15.109  1.00  0.00    -0.550 OA
ATOM      8  O   UNL     1     -10.090  -8.259 -14.806  1.00  0.00    -0.550 OA
ENDBRANCH   5   6
ENDBRANCH   1   5
TORSDOF 3
ENDMDL
MODEL 5
REMARK VINA RESULT:    -3.387      2.308      3.353
REMARK INTER + INTRA:          -4.007
REMARK INTER:                  -3.919
REMARK INTRA:                  -0.088
REMARK UNBOUND:                -0.026
REMARK SMILES O=C([O-])CCC(=O)[O-]
REMARK SMILES IDX 4 1 2 2 1 3 3 4 5 5 6 6 7 7 8 8
REMARK H PARENT
REMARK Flexibility Score: inf
ROOT
ATOM      1  C   UNL     1      -9.313  -6.069 -13.835  1.00  0.00     0.059 C 
ENDROOT
BRANCH   1   2
ATOM      2  C   UNL     1     -10.326  -6.825 -14.634  1.00  0.00     0.042 C 
ATOM      3  O   UNL     1     -11.322  -6.229 -15.123  1.00  0.00    -0.550 OA
ATOM      4  O   UNL     1     -10.198  -8.200 -14.798  1.00  0.00    -0.550 OA
ENDBRANCH   1   2
BRANCH   1   5
ATOM      5  C   UNL     1      -7.897  -6.409 -14.306  1.00  0.00     0.059 C 
BRANCH   5   6
ATOM      6  C   UNL     1      -7.327  -5.282 -15.108  1.00  0.00     0.042 C 
ATOM      7  O   UNL     1      -6.121  -5.306 -15.468  1.00  0.00    -0.550 OA
ATOM      8  O   UNL     1      -8.142  -4.226 -15.500  1.00  0.00    -0.550 OA
ENDBRANCH   5   6
ENDBRANCH   1   5
TORSDOF 3
ENDMDL
MODEL 6
REMARK VINA RESULT:    -3.325      1.694      4.267
REMARK INTER + INTRA:          -3.935
REMARK INTER:                  -3.859
REMARK INTRA:                  -0.076
REMARK UNBOUND:                -0.026
REMARK SMILES O=C([O-])CCC(=O)[O-]
REMARK SMILES IDX 4 1 2 2 1 3 3 4 5 5 6 6 7 7 8 8
REMARK H PARENT
REMARK Flexibility Score: inf
ROOT
ATOM      1  C   UNL     1      -7.638  -6.748 -13.929  1.00  0.00     0.059 C 
ENDROOT
BRANCH   1   2
ATOM      2  C   UNL     1      -7.690  -8.195 -14.305  1.00  0.00     0.042 C 
ATOM      3  O   UNL     1      -6.629  -8.868 -14.385  1.00  0.00    -0.550 OA
ATOM      4  O   UNL     1      -8.907  -8.790 -14.615  1.00  0.00    -0.550 OA
ENDBRANCH   1   2
BRANCH   1   5
ATOM      5  C   UNL     1      -9.029  -6.119 -14.031  1.00  0.00     0.059 C 
BRANCH   5   6
ATOM      6  C   UNL     1      -9.045  -5.051 -15.080  1.00  0.00     0.042 C 
ATOM      7  O   UNL     1     -10.139  -4.598 -15.506  1.00  0.00    -0.550 OA
ATOM      8  O   UNL     1      -7.849  -4.521 -15.551  1.00  0.00    -0.550 OA
ENDBRANCH   5   6
ENDBRANCH   1   5
TORSDOF 3
ENDMDL
MODEL 7
REMARK VINA RESULT:    -3.216      1.907      2.188
REMARK INTER + INTRA:          -3.806
REMARK INTER:                  -3.720
REMARK INTRA:                  -0.086
REMARK UNBOUND:                -0.026
REMARK SMILES O=C([O-])CCC(=O)[O-]
REMARK SMILES IDX 4 1 2 2 1 3 3 4 5 5 6 6 7 7 8 8
REMARK H PARENT
REMARK Flexibility Score: inf
ROOT
ATOM      1  C   UNL     1      -8.904  -6.304 -13.623  1.00  0.00     0.059 C 
ENDROOT
BRANCH   1   2
ATOM      2  C   UNL     1      -9.496  -5.422 -14.675  1.00  0.00     0.042 C 
ATOM      3  O   UNL     1     -10.649  -5.655 -15.123  1.00  0.00    -0.550 OA
ATOM      4  O   UNL     1      -8.754  -4.370 -15.199  1.00  0.00    -0.550 OA
ENDBRANCH   1   2
BRANCH   1   5
ATOM      5  C   UNL     1      -7.525  -6.804 -14.057  1.00  0.00     0.059 C 
BRANCH   5   6
ATOM      6  C   UNL     1      -7.575  -8.263 -14.383  1.00  0.00     0.042 C 
ATOM      7  O   UNL     1      -8.674  -8.816 -14.650  1.00  0.00    -0.550 OA
ATOM      8  O   UNL     1      -6.401  -9.004 -14.439  1.00  0.00    -0.550 OA
ENDBRANCH   5   6
ENDBRANCH   1   5
TORSDOF 3
ENDMDL
MODEL 8
REMARK VINA RESULT:    -3.139      2.237      3.993
REMARK INTER + INTRA:          -3.716
REMARK INTER:                  -3.656
REMARK INTRA:                  -0.060
REMARK UNBOUND:                -0.026
REMARK SMILES O=C([O-])CCC(=O)[O-]
REMARK SMILES IDX 4 1 2 2 1 3 3 4 5 5 6 6 7 7 8 8
REMARK H PARENT
REMARK Flexibility Score: inf
ROOT
ATOM      1  C   UNL     1      -8.381  -6.489 -13.514  1.00  0.00     0.059 C 
ENDROOT
BRANCH   1   2
ATOM      2  C   UNL     1      -7.201  -6.917 -14.328  1.00  0.00     0.042 C 
ATOM      3  O   UNL     1      -6.589  -6.083 -15.045  1.00  0.00    -0.550 OA
ATOM      4  O   UNL     1      -6.807  -8.250 -14.333  1.00  0.00    -0.550 OA
ENDBRANCH   1   2
BRANCH   1   5
ATOM      5  C   UNL     1      -9.354  -5.675 -14.369  1.00  0.00     0.059 C 
BRANCH   5   6
ATOM      6  C   UNL     1     -10.512  -6.522 -14.794  1.00  0.00     0.042 C 
ATOM      7  O   UNL     1     -10.429  -7.777 -14.749  1.00  0.00    -0.550 OA
ATOM      8  O   UNL     1     -11.701  -5.924 -15.195  1.00  0.00    -0.550 OA
ENDBRANCH   5   6
ENDBRANCH   1   5
TORSDOF 3
ENDMDL
MODEL 9
REMARK VINA RESULT:    -3.135      2.468      4.744
REMARK INTER + INTRA:          -3.711
REMARK INTER:                  -3.678
REMARK INTRA:                  -0.033
REMARK UNBOUND:                -0.026
REMARK SMILES O=C([O-])CCC(=O)[O-]
REMARK SMILES IDX 4 1 2 2 1 3 3 4 5 5 6 6 7 7 8 8
REMARK H PARENT
REMARK Flexibility Score: inf
ROOT
ATOM      1  C   UNL     1      -7.205  -8.344 -14.266  1.00  0.00     0.059 C 
ENDROOT
BRANCH   1   2
ATOM      2  C   UNL     1      -5.823  -8.730 -14.688  1.00  0.00     0.042 C 
ATOM      3  O   UNL     1      -5.163  -7.982 -15.456  1.00  0.00    -0.550 OA
ATOM      4  O   UNL     1      -5.282  -9.941 -14.274  1.00  0.00    -0.550 OA
ENDBRANCH   1   2
BRANCH   1   5
ATOM      5  C   UNL     1      -7.373  -6.824 -14.307  1.00  0.00     0.059 C 
BRANCH   5   6
ATOM      6  C   UNL     1      -8.607  -6.414 -13.567  1.00  0.00     0.042 C 
ATOM      7  O   UNL     1      -8.555  -6.167 -12.334  1.00  0.00    -0.550 OA
ATOM      8  O   UNL     1      -9.807  -6.255 -14.250  1.00  0.00    -0.550 OA
ENDBRANCH   5   6
ENDBRANCH   1   5
TORSDOF 3
ENDMDL
