MODEL 1
REMARK VINA RESULT:    -3.972      0.000      0.000
REMARK INTER + INTRA:          -7.817
REMARK INTER:                  -6.295
REMARK INTRA:                  -1.522
REMARK UNBOUND:                -1.522
REMARK SMILES CCCCCCCCCCCC(=O)[O-]
REMARK SMILES IDX 7 1 8 2 9 3 10 4 11 5 12 6 13 7 14 8 6 9 5 10 4 11 3 12 2 13
REMARK SMILES IDX 1 14
REMARK H PARENT
REMARK Flexibility Score: inf
ROOT
ATOM      1  C   UNL     1      44.351  63.747  12.274  1.00  0.00     0.000 C 
ENDROOT
BRANCH   1   2
ATOM      2  C   UNL     1      42.817  63.677  12.178  1.00  0.00     0.000 C 
BRANCH   2   3
ATOM      3  C   UNL     1      42.320  63.536  10.730  1.00  0.00     0.000 C 
BRANCH   3   4
ATOM      4  C   UNL     1      41.196  62.495  10.590  1.00  0.00     0.006 C 
BRANCH   4   5
ATOM      5  C   UNL     1      40.571  62.132  11.945  1.00  0.00     0.053 C 
BRANCH   5   6
ATOM      6  C   UNL     1      39.099  62.401  11.970  1.00  0.00     0.041 C 
ATOM      7  O   UNL     1      38.280  61.446  12.024  1.00  0.00    -0.550 OA
ATOM      8  O   UNL     1      38.629  63.710  11.965  1.00  0.00    -0.550 OA
ENDBRANCH   5   6
ENDBRANCH   4   5
ENDBRANCH   3   4
ENDBRANCH   2   3
ENDBRANCH   1   2
BRANCH   1   9
ATOM      9  C   UNL     1      44.935  62.675  13.206  1.00  0.00     0.000 C 
BRANCH   9  10
ATOM     10  C   UNL     1      43.938  61.543  13.502  1.00  0.00    -0.000 C 
BRANCH  10  11
ATOM     11  C   UNL     1      44.362  60.242  12.803  1.00  0.00    -0.000 C 
BRANCH  11  12
ATOM     12  C   UNL     1      43.945  60.194  11.322  1.00  0.00    -0.000 C 
BRANCH  12  13
ATOM     13  C   UNL     1      45.064  60.541  10.324  1.00  0.00    -0.003 C 
ATOM     14  C   UNL     1      44.544  60.807   8.912  1.00  0.00     0.004 C 
ENDBRANCH  12  13
ENDBRANCH  11  12
ENDBRANCH  10  11
ENDBRANCH   9  10
ENDBRANCH   1   9
TORSDOF 10
ENDMDL
MODEL 2
REMARK VINA RESULT:    -3.873      2.179      3.002
REMARK INTER + INTRA:          -7.659
REMARK INTER:                  -6.385
REMARK INTRA:                  -1.274
REMARK UNBOUND:                -1.522
REMARK SMILES CCCCCCCCCCCC(=O)[O-]
REMARK SMILES IDX 7 1 8 2 9 3 10 4 11 5 12 6 13 7 14 8 6 9 5 10 4 11 3 12 2 13
REMARK SMILES IDX 1 14
REMARK H PARENT
REMARK Flexibility Score: inf
ROOT
ATOM      1  C   UNL     1      45.027  62.505  13.232  1.00  0.00     0.000 C 
ENDROOT
BRANCH   1   2
ATOM      2  C   UNL     1      44.309  63.586  12.404  1.00  0.00     0.000 C 
BRANCH   2   3
ATOM      3  C   UNL     1      42.778  63.465  12.475  1.00  0.00     0.000 C 
BRANCH   3   4
ATOM      4  C   UNL     1      42.105  63.675  11.108  1.00  0.00     0.006 C 
BRANCH   4   5
ATOM      5  C   UNL     1      42.843  64.713  10.253  1.00  0.00     0.053 C 
BRANCH   5   6
ATOM      6  C   UNL     1      42.065  65.081   9.027  1.00  0.00     0.041 C 
ATOM      7  O   UNL     1      40.817  64.925   8.998  1.00  0.00    -0.550 OA
ATOM      8  O   UNL     1      42.716  65.626   7.926  1.00  0.00    -0.550 OA
ENDBRANCH   5   6
ENDBRANCH   4   5
ENDBRANCH   3   4
ENDBRANCH   2   3
ENDBRANCH   1   2
BRANCH   1   9
ATOM      9  C   UNL     1      44.071  61.412  13.731  1.00  0.00     0.000 C 
BRANCH   9  10
ATOM     10  C   UNL     1      44.271  60.073  13.003  1.00  0.00    -0.000 C 
BRANCH  10  11
ATOM     11  C   UNL     1      42.971  59.620  12.321  1.00  0.00    -0.000 C 
BRANCH  11  12
ATOM     12  C   UNL     1      42.905  60.013  10.834  1.00  0.00    -0.000 C 
BRANCH  12  13
ATOM     13  C   UNL     1      44.236  60.500  10.234  1.00  0.00    -0.003 C 
ATOM     14  C   UNL     1      44.818  59.530   9.206  1.00  0.00     0.004 C 
ENDBRANCH  12  13
ENDBRANCH  11  12
ENDBRANCH  10  11
ENDBRANCH   9  10
ENDBRANCH   1   9
TORSDOF 10
ENDMDL
MODEL 3
REMARK VINA RESULT:    -3.873      3.140      3.687
REMARK INTER + INTRA:          -7.659
REMARK INTER:                  -6.586
REMARK INTRA:                  -1.073
REMARK UNBOUND:                -1.522
REMARK SMILES CCCCCCCCCCCC(=O)[O-]
REMARK SMILES IDX 7 1 8 2 9 3 10 4 11 5 12 6 13 7 14 8 6 9 5 10 4 11 3 12 2 13
REMARK SMILES IDX 1 14
REMARK H PARENT
REMARK Flexibility Score: inf
ROOT
ATOM      1  C   UNL     1      44.278  63.760  12.305  1.00  0.00     0.000 C 
ENDROOT
BRANCH   1   2
ATOM      2  C   UNL     1      42.749  63.598  12.244  1.00  0.00     0.000 C 
BRANCH   2   3
ATOM      3  C   UNL     1      42.203  63.677  10.809  1.00  0.00     0.000 C 
BRANCH   3   4
ATOM      4  C   UNL     1      42.746  64.890  10.036  1.00  0.00     0.006 C 
BRANCH   4   5
ATOM      5  C   UNL     1      41.986  65.128   8.723  1.00  0.00     0.053 C 
BRANCH   5   6
ATOM      6  C   UNL     1      42.835  65.826   7.706  1.00  0.00     0.041 C 
ATOM      7  O   UNL     1      43.280  65.195   6.711  1.00  0.00    -0.550 OA
ATOM      8  O   UNL     1      43.110  67.182   7.840  1.00  0.00    -0.550 OA
ENDBRANCH   5   6
ENDBRANCH   4   5
ENDBRANCH   3   4
ENDBRANCH   2   3
ENDBRANCH   1   2
BRANCH   1   9
ATOM      9  C   UNL     1      44.949  62.694  13.184  1.00  0.00     0.000 C 
BRANCH   9  10
ATOM     10  C   UNL     1      44.035  61.488  13.453  1.00  0.00    -0.000 C 
BRANCH  10  11
ATOM     11  C   UNL     1      44.506  60.256  12.664  1.00  0.00    -0.000 C 
BRANCH  11  12
ATOM     12  C   UNL     1      43.983  60.235  11.216  1.00  0.00    -0.000 C 
BRANCH  12  13
ATOM     13  C   UNL     1      45.022  60.620  10.148  1.00  0.00    -0.003 C 
ATOM     14  C   UNL     1      44.393  60.940   8.792  1.00  0.00     0.004 C 
ENDBRANCH  12  13
ENDBRANCH  11  12
ENDBRANCH  10  11
ENDBRANCH   9  10
ENDBRANCH   1   9
TORSDOF 10
ENDMDL
MODEL 4
REMARK VINA RESULT:    -3.867      2.122      2.434
REMARK INTER + INTRA:          -7.650
REMARK INTER:                  -6.042
REMARK INTRA:                  -1.607
REMARK UNBOUND:                -1.522
REMARK SMILES CCCCCCCCCCCC(=O)[O-]
REMARK SMILES IDX 7 1 8 2 9 3 10 4 11 5 12 6 13 7 14 8 6 9 5 10 4 11 3 12 2 13
REMARK SMILES IDX 1 14
REMARK H PARENT
REMARK Flexibility Score: inf
ROOT
ATOM      1  C   UNL     1      43.163  63.690  12.271  1.00  0.00     0.000 C 
ENDROOT
BRANCH   1   2
ATOM      2  C   UNL     1      42.784  63.745  10.781  1.00  0.00     0.000 C 
BRANCH   2   3
ATOM      3  C   UNL     1      41.603  62.823  10.437  1.00  0.00     0.000 C 
BRANCH   3   4
ATOM      4  C   UNL     1      41.243  61.869  11.588  1.00  0.00     0.006 C 
BRANCH   4   5
ATOM      5  C   UNL     1      40.381  60.690  11.115  1.00  0.00     0.053 C 
BRANCH   5   6
ATOM      6  C   UNL     1      41.196  59.451  10.906  1.00  0.00     0.041 C 
ATOM      7  O   UNL     1      41.779  58.904  11.879  1.00  0.00    -0.550 OA
ATOM      8  O   UNL     1      41.289  58.883   9.641  1.00  0.00    -0.550 OA
ENDBRANCH   5   6
ENDBRANCH   4   5
ENDBRANCH   3   4
ENDBRANCH   2   3
ENDBRANCH   1   2
BRANCH   1   9
ATOM      9  C   UNL     1      44.631  63.295  12.493  1.00  0.00     0.000 C 
BRANCH   9  10
ATOM     10  C   UNL     1      44.778  62.012  13.327  1.00  0.00    -0.000 C 
BRANCH  10  11
ATOM     11  C   UNL     1      44.646  60.764  12.441  1.00  0.00    -0.000 C 
BRANCH  11  12
ATOM     12  C   UNL     1      45.310  60.933  11.063  1.00  0.00    -0.000 C 
BRANCH  12  13
ATOM     13  C   UNL     1      44.684  60.091   9.936  1.00  0.00    -0.003 C 
ATOM     14  C   UNL     1      44.352  60.913   8.691  1.00  0.00     0.004 C 
ENDBRANCH  12  13
ENDBRANCH  11  12
ENDBRANCH  10  11
ENDBRANCH   9  10
ENDBRANCH   1   9
TORSDOF 10
ENDMDL
MODEL 5
REMARK VINA RESULT:    -3.855      1.932      2.927
REMARK INTER + INTRA:          -7.631
REMARK INTER:                  -5.966
REMARK INTRA:                  -1.665
REMARK UNBOUND:                -1.522
REMARK SMILES CCCCCCCCCCCC(=O)[O-]
REMARK SMILES IDX 7 1 8 2 9 3 10 4 11 5 12 6 13 7 14 8 6 9 5 10 4 11 3 12 2 13
REMARK SMILES IDX 1 14
REMARK H PARENT
REMARK Flexibility Score: inf
ROOT
ATOM      1  C   UNL     1      42.822  60.453  13.230  1.00  0.00     0.000 C 
ENDROOT
BRANCH   1   2
ATOM      2  C   UNL     1      42.209  59.466  12.220  1.00  0.00     0.000 C 
BRANCH   2   3
ATOM      3  C   UNL     1      41.524  60.176  11.041  1.00  0.00     0.000 C 
BRANCH   3   4
ATOM      4  C   UNL     1      40.951  61.550  11.430  1.00  0.00     0.006 C 
BRANCH   4   5
ATOM      5  C   UNL     1      41.408  62.660  10.473  1.00  0.00     0.053 C 
BRANCH   5   6
ATOM      6  C   UNL     1      42.147  63.746  11.192  1.00  0.00     0.041 C 
ATOM      7  O   UNL     1      42.177  63.767  12.450  1.00  0.00    -0.550 OA
ATOM      8  O   UNL     1      42.829  64.719  10.471  1.00  0.00    -0.550 OA
ENDBRANCH   5   6
ENDBRANCH   4   5
ENDBRANCH   3   4
ENDBRANCH   2   3
ENDBRANCH   1   2
BRANCH   1   9
ATOM      9  C   UNL     1      44.357  60.401  13.247  1.00  0.00     0.000 C 
BRANCH   9  10
ATOM     10  C   UNL     1      44.998  61.664  12.650  1.00  0.00    -0.000 C 
BRANCH  10  11
ATOM     11  C   UNL     1      44.948  61.630  11.114  1.00  0.00    -0.000 C 
BRANCH  11  12
ATOM     12  C   UNL     1      45.426  60.290  10.528  1.00  0.00    -0.000 C 
BRANCH  12  13
ATOM     13  C   UNL     1      44.802  59.918   9.171  1.00  0.00    -0.003 C 
ATOM     14  C   UNL     1      44.121  61.101   8.482  1.00  0.00     0.004 C 
ENDBRANCH  12  13
ENDBRANCH  11  12
ENDBRANCH  10  11
ENDBRANCH   9  10
ENDBRANCH   1   9
TORSDOF 10
ENDMDL
MODEL 6
REMARK VINA RESULT:    -3.813      2.016      4.001
REMARK INTER + INTRA:          -7.564
REMARK INTER:                  -6.383
REMARK INTRA:                  -1.181
REMARK UNBOUND:                -1.522
REMARK SMILES CCCCCCCCCCCC(=O)[O-]
REMARK SMILES IDX 7 1 8 2 9 3 10 4 11 5 12 6 13 7 14 8 6 9 5 10 4 11 3 12 2 13
REMARK SMILES IDX 1 14
REMARK H PARENT
REMARK Flexibility Score: inf
ROOT
ATOM      1  C   UNL     1      45.348  60.960  10.893  1.00  0.00     0.000 C 
ENDROOT
BRANCH   1   2
ATOM      2  C   UNL     1      44.847  60.215   9.643  1.00  0.00     0.000 C 
BRANCH   2   3
ATOM      3  C   UNL     1      44.208  61.156   8.610  1.00  0.00     0.000 C 
BRANCH   3   4
ATOM      4  C   UNL     1      42.853  61.715   9.078  1.00  0.00     0.006 C 
BRANCH   4   5
ATOM      5  C   UNL     1      42.396  62.911   8.230  1.00  0.00     0.053 C 
BRANCH   5   6
ATOM      6  C   UNL     1      41.874  64.029   9.078  1.00  0.00     0.041 C 
ATOM      7  O   UNL     1      42.574  65.057   9.272  1.00  0.00    -0.550 OA
ATOM      8  O   UNL     1      40.601  63.949   9.631  1.00  0.00    -0.550 OA
ENDBRANCH   5   6
ENDBRANCH   4   5
ENDBRANCH   3   4
ENDBRANCH   2   3
ENDBRANCH   1   2
BRANCH   1   9
ATOM      9  C   UNL     1      44.759  60.393  12.194  1.00  0.00     0.000 C 
BRANCH   9  10
ATOM     10  C   UNL     1      44.468  61.485  13.236  1.00  0.00    -0.000 C 
BRANCH  10  11
ATOM     11  C   UNL     1      44.503  62.880  12.593  1.00  0.00    -0.000 C 
BRANCH  11  12
ATOM     12  C   UNL     1      43.104  63.503  12.435  1.00  0.00    -0.000 C 
BRANCH  12  13
ATOM     13  C   UNL     1      41.934  62.532  12.675  1.00  0.00    -0.003 C 
ATOM     14  C   UNL     1      40.862  63.106  13.602  1.00  0.00     0.004 C 
ENDBRANCH  12  13
ENDBRANCH  11  12
ENDBRANCH  10  11
ENDBRANCH   9  10
ENDBRANCH   1   9
TORSDOF 10
ENDMDL
MODEL 7
REMARK VINA RESULT:    -3.813      3.057      4.494
REMARK INTER + INTRA:          -7.564
REMARK INTER:                  -5.953
REMARK INTRA:                  -1.611
REMARK UNBOUND:                -1.522
REMARK SMILES CCCCCCCCCCCC(=O)[O-]
REMARK SMILES IDX 7 1 8 2 9 3 10 4 11 5 12 6 13 7 14 8 6 9 5 10 4 11 3 12 2 13
REMARK SMILES IDX 1 14
REMARK H PARENT
REMARK Flexibility Score: inf
ROOT
ATOM      1  C   UNL     1      43.854  60.004  12.112  1.00  0.00     0.000 C 
ENDROOT
BRANCH   1   2
ATOM      2  C   UNL     1      42.388  59.566  12.272  1.00  0.00     0.000 C 
BRANCH   2   3
ATOM      3  C   UNL     1      41.536  59.884  11.033  1.00  0.00     0.000 C 
BRANCH   3   4
ATOM      4  C   UNL     1      42.363  59.897   9.735  1.00  0.00     0.006 C 
BRANCH   4   5
ATOM      5  C   UNL     1      42.313  61.260   9.031  1.00  0.00     0.053 C 
BRANCH   5   6
ATOM      6  C   UNL     1      43.566  61.536   8.260  1.00  0.00     0.041 C 
ATOM      7  O   UNL     1      44.640  60.954   8.566  1.00  0.00    -0.550 OA
ATOM      8  O   UNL     1      43.543  62.416   7.184  1.00  0.00    -0.550 OA
ENDBRANCH   5   6
ENDBRANCH   4   5
ENDBRANCH   3   4
ENDBRANCH   2   3
ENDBRANCH   1   2
BRANCH   1   9
ATOM      9  C   UNL     1      44.465  60.512  13.426  1.00  0.00     0.000 C 
BRANCH   9  10
ATOM     10  C   UNL     1      44.998  61.950  13.314  1.00  0.00    -0.000 C 
BRANCH  10  11
ATOM     11  C   UNL     1      44.544  62.602  11.998  1.00  0.00    -0.000 C 
BRANCH  11  12
ATOM     12  C   UNL     1      43.558  63.764  12.213  1.00  0.00    -0.000 C 
BRANCH  12  13
ATOM     13  C   UNL     1      42.077  63.404  11.996  1.00  0.00    -0.003 C 
ATOM     14  C   UNL     1      41.357  63.030  13.292  1.00  0.00     0.004 C 
ENDBRANCH  12  13
ENDBRANCH  11  12
ENDBRANCH  10  11
ENDBRANCH   9  10
ENDBRANCH   1   9
TORSDOF 10
ENDMDL
MODEL 8
REMARK VINA RESULT:    -3.791      1.207      1.771
REMARK INTER + INTRA:          -7.529
REMARK INTER:                  -6.145
REMARK INTRA:                  -1.384
REMARK UNBOUND:                -1.522
REMARK SMILES CCCCCCCCCCCC(=O)[O-]
REMARK SMILES IDX 7 1 8 2 9 3 10 4 11 5 12 6 13 7 14 8 6 9 5 10 4 11 3 12 2 13
REMARK SMILES IDX 1 14
REMARK H PARENT
REMARK Flexibility Score: inf
ROOT
ATOM      1  C   UNL     1      44.674  62.888  12.429  1.00  0.00     0.000 C 
ENDROOT
BRANCH   1   2
ATOM      2  C   UNL     1      43.428  63.778  12.282  1.00  0.00     0.000 C 
BRANCH   2   3
ATOM      3  C   UNL     1      42.893  63.813  10.841  1.00  0.00     0.000 C 
BRANCH   3   4
ATOM      4  C   UNL     1      41.387  63.509  10.762  1.00  0.00     0.006 C 
BRANCH   4   5
ATOM      5  C   UNL     1      40.981  62.353  11.687  1.00  0.00     0.053 C 
BRANCH   5   6
ATOM      6  C   UNL     1      40.075  62.811  12.788  1.00  0.00     0.041 C 
ATOM      7  O   UNL     1      38.856  63.023  12.558  1.00  0.00    -0.550 OA
ATOM      8  O   UNL     1      40.571  62.976  14.076  1.00  0.00    -0.550 OA
ENDBRANCH   5   6
ENDBRANCH   4   5
ENDBRANCH   3   4
ENDBRANCH   2   3
ENDBRANCH   1   2
BRANCH   1   9
ATOM      9  C   UNL     1      44.325  61.444  12.823  1.00  0.00     0.000 C 
BRANCH   9  10
ATOM     10  C   UNL     1      44.195  60.515  11.606  1.00  0.00    -0.000 C 
BRANCH  10  11
ATOM     11  C   UNL     1      45.397  60.675  10.662  1.00  0.00    -0.000 C 
BRANCH  11  12
ATOM     12  C   UNL     1      44.996  60.678   9.176  1.00  0.00    -0.000 C 
BRANCH  12  13
ATOM     13  C   UNL     1      43.481  60.729   8.915  1.00  0.00    -0.003 C 
ATOM     14  C   UNL     1      43.101  61.689   7.787  1.00  0.00     0.004 C 
ENDBRANCH  12  13
ENDBRANCH  11  12
ENDBRANCH  10  11
ENDBRANCH   9  10
ENDBRANCH   1   9
TORSDOF 10
ENDMDL
MODEL 9
REMARK VINA RESULT:    -3.751      1.482      3.350
REMARK INTER + INTRA:          -7.466
REMARK INTER:                  -6.062
REMARK INTRA:                  -1.404
REMARK UNBOUND:                -1.522
REMARK SMILES CCCCCCCCCCCC(=O)[O-]
REMARK SMILES IDX 7 1 8 2 9 3 10 4 11 5 12 6 13 7 14 8 6 9 5 10 4 11 3 12 2 13
REMARK SMILES IDX 1 14
REMARK H PARENT
REMARK Flexibility Score: inf
ROOT
ATOM      1  C   UNL     1      44.704  60.119   9.757  1.00  0.00     0.000 C 
ENDROOT
BRANCH   1   2
ATOM      2  C   UNL     1      44.556  61.100   8.580  1.00  0.00     0.000 C 
BRANCH   2   3
ATOM      3  C   UNL     1      43.087  61.410   8.251  1.00  0.00     0.000 C 
BRANCH   3   4
ATOM      4  C   UNL     1      42.104  60.576   9.090  1.00  0.00     0.006 C 
BRANCH   4   5
ATOM      5  C   UNL     1      40.989  61.436   9.700  1.00  0.00     0.053 C 
BRANCH   5   6
ATOM      6  C   UNL     1      40.636  60.992  11.085  1.00  0.00     0.041 C 
ATOM      7  O   UNL     1      40.034  61.773  11.868  1.00  0.00    -0.550 OA
ATOM      8  O   UNL     1      40.945  59.703  11.504  1.00  0.00    -0.550 OA
ENDBRANCH   5   6
ENDBRANCH   4   5
ENDBRANCH   3   4
ENDBRANCH   2   3
ENDBRANCH   1   2
BRANCH   1   9
ATOM      9  C   UNL     1      45.369  60.764  10.982  1.00  0.00     0.000 C 
BRANCH   9  10
ATOM     10  C   UNL     1      44.467  60.736  12.227  1.00  0.00    -0.000 C 
BRANCH  10  11
ATOM     11  C   UNL     1      44.807  61.895  13.177  1.00  0.00    -0.000 C 
BRANCH  11  12
ATOM     12  C   UNL     1      44.557  63.278  12.550  1.00  0.00    -0.000 C 
BRANCH  12  13
ATOM     13  C   UNL     1      43.094  63.556  12.162  1.00  0.00    -0.003 C 
ATOM     14  C   UNL     1      42.961  64.364  10.871  1.00  0.00     0.004 C 
ENDBRANCH  12  13
ENDBRANCH  11  12
ENDBRANCH  10  11
ENDBRANCH   9  10
ENDBRANCH   1   9
TORSDOF 10
ENDMDL
