MODEL 1
REMARK VINA RESULT:    -4.389      0.000      0.000
REMARK INTER + INTRA:          -6.190
REMARK INTER:                  -5.928
REMARK INTRA:                  -0.261
REMARK UNBOUND:                -0.261
REMARK SMILES CCCCCCCC(=O)[O-]
REMARK SMILES IDX 5 1 6 2 7 3 8 4 9 5 10 6 4 7 3 8 2 9 1 10
REMARK H PARENT
REMARK Flexibility Score: inf
ROOT
ATOM      1  C   UNL     1      -5.341  -1.585  29.068  1.00  0.00     0.000 C 
ENDROOT
BRANCH   1   2
ATOM      2  C   UNL     1      -4.398  -0.853  28.090  1.00  0.00     0.006 C 
BRANCH   2   3
ATOM      3  C   UNL     1      -3.056  -0.421  28.700  1.00  0.00     0.053 C 
BRANCH   3   4
ATOM      4  C   UNL     1      -1.890  -0.967  27.935  1.00  0.00     0.041 C 
ATOM      5  O   UNL     1      -1.551  -0.446  26.840  1.00  0.00    -0.550 OA
ATOM      6  O   UNL     1      -1.197  -2.071  28.416  1.00  0.00    -0.550 OA
ENDBRANCH   3   4
ENDBRANCH   2   3
ENDBRANCH   1   2
BRANCH   1   7
ATOM      7  C   UNL     1      -4.741  -2.834  29.739  1.00  0.00     0.000 C 
BRANCH   7   8
ATOM      8  C   UNL     1      -5.648  -4.069  29.627  1.00  0.00    -0.000 C 
BRANCH   8   9
ATOM      9  C   UNL     1      -5.685  -4.593  28.187  1.00  0.00    -0.003 C 
ATOM     10  C   UNL     1      -5.732  -6.118  28.156  1.00  0.00     0.004 C 
ENDBRANCH   8   9
ENDBRANCH   7   8
ENDBRANCH   1   7
TORSDOF 6
ENDMDL
MODEL 2
REMARK VINA RESULT:    -4.383      0.270      1.056
REMARK INTER + INTRA:          -6.181
REMARK INTER:                  -5.944
REMARK INTRA:                  -0.238
REMARK UNBOUND:                -0.261
REMARK SMILES CCCCCCCC(=O)[O-]
REMARK SMILES IDX 5 1 6 2 7 3 8 4 9 5 10 6 4 7 3 8 2 9 1 10
REMARK H PARENT
REMARK Flexibility Score: inf
ROOT
ATOM      1  C   UNL     1      -5.322  -1.575  28.889  1.00  0.00     0.000 C 
ENDROOT
BRANCH   1   2
ATOM      2  C   UNL     1      -4.260  -1.048  27.902  1.00  0.00     0.006 C 
BRANCH   2   3
ATOM      3  C   UNL     1      -2.985  -0.506  28.566  1.00  0.00     0.053 C 
BRANCH   3   4
ATOM      4  C   UNL     1      -1.747  -0.940  27.842  1.00  0.00     0.041 C 
ATOM      5  O   UNL     1      -1.120  -1.964  28.220  1.00  0.00    -0.550 OA
ATOM      6  O   UNL     1      -1.268  -0.194  26.772  1.00  0.00    -0.550 OA
ENDBRANCH   3   4
ENDBRANCH   2   3
ENDBRANCH   1   2
BRANCH   1   7
ATOM      7  C   UNL     1      -4.884  -2.786  29.732  1.00  0.00     0.000 C 
BRANCH   7   8
ATOM      8  C   UNL     1      -5.729  -4.040  29.465  1.00  0.00    -0.000 C 
BRANCH   8   9
ATOM      9  C   UNL     1      -5.210  -4.801  28.239  1.00  0.00    -0.003 C 
ATOM     10  C   UNL     1      -5.804  -6.205  28.168  1.00  0.00     0.004 C 
ENDBRANCH   8   9
ENDBRANCH   7   8
ENDBRANCH   1   7
TORSDOF 6
ENDMDL
MODEL 3
REMARK VINA RESULT:    -4.211      0.967      1.407
REMARK INTER + INTRA:          -5.950
REMARK INTER:                  -5.560
REMARK INTRA:                  -0.389
REMARK UNBOUND:                -0.261
REMARK SMILES CCCCCCCC(=O)[O-]
REMARK SMILES IDX 5 1 6 2 7 3 8 4 9 5 10 6 4 7 3 8 2 9 1 10
REMARK H PARENT
REMARK Flexibility Score: inf
ROOT
ATOM      1  C   UNL     1      -4.423  -1.214  27.923  1.00  0.00     0.000 C 
ENDROOT
BRANCH   1   2
ATOM      2  C   UNL     1      -3.103  -0.763  28.584  1.00  0.00     0.006 C 
BRANCH   2   3
ATOM      3  C   UNL     1      -1.966  -0.461  27.596  1.00  0.00     0.053 C 
BRANCH   3   4
ATOM      4  C   UNL     1      -0.886  -1.498  27.648  1.00  0.00     0.041 C 
ATOM      5  O   UNL     1       0.136  -1.385  26.922  1.00  0.00    -0.550 OA
ATOM      6  O   UNL     1      -1.025  -2.606  28.475  1.00  0.00    -0.550 OA
ENDBRANCH   3   4
ENDBRANCH   2   3
ENDBRANCH   1   2
BRANCH   1   7
ATOM      7  C   UNL     1      -5.325  -2.094  28.806  1.00  0.00     0.000 C 
BRANCH   7   8
ATOM      8  C   UNL     1      -4.536  -3.117  29.637  1.00  0.00    -0.000 C 
BRANCH   8   9
ATOM      9  C   UNL     1      -4.229  -4.372  28.812  1.00  0.00    -0.003 C 
ATOM     10  C   UNL     1      -5.511  -5.025  28.302  1.00  0.00     0.004 C 
ENDBRANCH   8   9
ENDBRANCH   7   8
ENDBRANCH   1   7
TORSDOF 6
ENDMDL
MODEL 4
REMARK VINA RESULT:    -4.164      2.327      4.652
REMARK INTER + INTRA:          -5.886
REMARK INTER:                  -5.593
REMARK INTRA:                  -0.293
REMARK UNBOUND:                -0.261
REMARK SMILES CCCCCCCC(=O)[O-]
REMARK SMILES IDX 5 1 6 2 7 3 8 4 9 5 10 6 4 7 3 8 2 9 1 10
REMARK H PARENT
REMARK Flexibility Score: inf
ROOT
ATOM      1  C   UNL     1      -5.059  -0.816  28.960  1.00  0.00     0.000 C 
ENDROOT
BRANCH   1   2
ATOM      2  C   UNL     1      -5.207  -2.107  28.128  1.00  0.00     0.006 C 
BRANCH   2   3
ATOM      3  C   UNL     1      -5.773  -3.305  28.905  1.00  0.00     0.053 C 
BRANCH   3   4
ATOM      4  C   UNL     1      -5.059  -4.579  28.572  1.00  0.00     0.041 C 
ATOM      5  O   UNL     1      -5.714  -5.613  28.277  1.00  0.00    -0.550 OA
ATOM      6  O   UNL     1      -3.671  -4.633  28.619  1.00  0.00    -0.550 OA
ENDBRANCH   3   4
ENDBRANCH   2   3
ENDBRANCH   1   2
BRANCH   1   7
ATOM      7  C   UNL     1      -3.629  -0.249  29.032  1.00  0.00     0.000 C 
BRANCH   7   8
ATOM      8  C   UNL     1      -2.592  -1.147  28.343  1.00  0.00    -0.000 C 
BRANCH   8   9
ATOM      9  C   UNL     1      -1.877  -0.393  27.216  1.00  0.00    -0.003 C 
ATOM     10  C   UNL     1      -0.534  -1.039  26.886  1.00  0.00     0.004 C 
ENDBRANCH   8   9
ENDBRANCH   7   8
ENDBRANCH   1   7
TORSDOF 6
ENDMDL
MODEL 5
REMARK VINA RESULT:    -4.143      2.301      4.674
REMARK INTER + INTRA:          -5.858
REMARK INTER:                  -5.530
REMARK INTRA:                  -0.328
REMARK UNBOUND:                -0.261
REMARK SMILES CCCCCCCC(=O)[O-]
REMARK SMILES IDX 5 1 6 2 7 3 8 4 9 5 10 6 4 7 3 8 2 9 1 10
REMARK H PARENT
REMARK Flexibility Score: inf
ROOT
ATOM      1  C   UNL     1      -5.096  -0.940  28.591  1.00  0.00     0.000 C 
ENDROOT
BRANCH   1   2
ATOM      2  C   UNL     1      -5.451  -2.310  29.207  1.00  0.00     0.006 C 
BRANCH   2   3
ATOM      3  C   UNL     1      -5.830  -3.391  28.183  1.00  0.00     0.053 C 
BRANCH   3   4
ATOM      4  C   UNL     1      -4.972  -4.611  28.312  1.00  0.00     0.041 C 
ATOM      5  O   UNL     1      -3.753  -4.500  28.608  1.00  0.00    -0.550 OA
ATOM      6  O   UNL     1      -5.510  -5.869  28.072  1.00  0.00    -0.550 OA
ENDBRANCH   3   4
ENDBRANCH   2   3
ENDBRANCH   1   2
BRANCH   1   7
ATOM      7  C   UNL     1      -3.792  -0.913  27.773  1.00  0.00     0.000 C 
BRANCH   7   8
ATOM      8  C   UNL     1      -2.534  -0.870  28.652  1.00  0.00    -0.000 C 
BRANCH   8   9
ATOM      9  C   UNL     1      -1.297  -1.313  27.861  1.00  0.00    -0.003 C 
ATOM     10  C   UNL     1      -1.069  -0.416  26.647  1.00  0.00     0.004 C 
ENDBRANCH   8   9
ENDBRANCH   7   8
ENDBRANCH   1   7
TORSDOF 6
ENDMDL
MODEL 6
REMARK VINA RESULT:    -3.873      1.864      2.102
REMARK INTER + INTRA:          -5.493
REMARK INTER:                  -5.333
REMARK INTRA:                  -0.160
REMARK UNBOUND:                -0.261
REMARK SMILES CCCCCCCC(=O)[O-]
REMARK SMILES IDX 5 1 6 2 7 3 8 4 9 5 10 6 4 7 3 8 2 9 1 10
REMARK H PARENT
REMARK Flexibility Score: inf
ROOT
ATOM      1  C   UNL     1      -3.741  -1.588  28.743  1.00  0.00     0.000 C 
ENDROOT
BRANCH   1   2
ATOM      2  C   UNL     1      -3.004  -0.693  27.725  1.00  0.00     0.006 C 
BRANCH   2   3
ATOM      3  C   UNL     1      -1.694  -0.081  28.244  1.00  0.00     0.053 C 
BRANCH   3   4
ATOM      4  C   UNL     1      -1.904   1.284  28.825  1.00  0.00     0.041 C 
ATOM      5  O   UNL     1      -1.377   2.290  28.281  1.00  0.00    -0.550 OA
ATOM      6  O   UNL     1      -2.652   1.440  29.984  1.00  0.00    -0.550 OA
ENDBRANCH   3   4
ENDBRANCH   2   3
ENDBRANCH   1   2
BRANCH   1   7
ATOM      7  C   UNL     1      -5.146  -2.047  28.310  1.00  0.00     0.000 C 
BRANCH   7   8
ATOM      8  C   UNL     1      -5.593  -3.342  29.003  1.00  0.00    -0.000 C 
BRANCH   8   9
ATOM      9  C   UNL     1      -4.784  -4.542  28.498  1.00  0.00    -0.003 C 
ATOM     10  C   UNL     1      -5.701  -5.655  27.998  1.00  0.00     0.004 C 
ENDBRANCH   8   9
ENDBRANCH   7   8
ENDBRANCH   1   7
TORSDOF 6
ENDMDL
MODEL 7
REMARK VINA RESULT:    -3.863      2.997      4.981
REMARK INTER + INTRA:          -5.479
REMARK INTER:                  -5.322
REMARK INTRA:                  -0.158
REMARK UNBOUND:                -0.261
REMARK SMILES CCCCCCCC(=O)[O-]
REMARK SMILES IDX 5 1 6 2 7 3 8 4 9 5 10 6 4 7 3 8 2 9 1 10
REMARK H PARENT
REMARK Flexibility Score: inf
ROOT
ATOM      1  C   UNL     1      -3.519  -1.182  28.152  1.00  0.00     0.000 C 
ENDROOT
BRANCH   1   2
ATOM      2  C   UNL     1      -3.237  -2.531  28.845  1.00  0.00     0.006 C 
BRANCH   2   3
ATOM      3  C   UNL     1      -4.402  -3.071  29.689  1.00  0.00     0.053 C 
BRANCH   3   4
ATOM      4  C   UNL     1      -5.269  -4.013  28.913  1.00  0.00     0.041 C 
ATOM      5  O   UNL     1      -5.292  -5.238  29.204  1.00  0.00    -0.550 OA
ATOM      6  O   UNL     1      -6.027  -3.545  27.847  1.00  0.00    -0.550 OA
ENDBRANCH   3   4
ENDBRANCH   2   3
ENDBRANCH   1   2
BRANCH   1   7
ATOM      7  C   UNL     1      -3.910  -0.033  29.099  1.00  0.00     0.000 C 
BRANCH   7   8
ATOM      8  C   UNL     1      -5.423   0.231  29.128  1.00  0.00    -0.000 C 
BRANCH   8   9
ATOM      9  C   UNL     1      -5.737   1.537  29.867  1.00  0.00    -0.003 C 
ATOM     10  C   UNL     1      -7.086   2.105  29.434  1.00  0.00     0.004 C 
ENDBRANCH   8   9
ENDBRANCH   7   8
ENDBRANCH   1   7
TORSDOF 6
ENDMDL
MODEL 8
REMARK VINA RESULT:    -3.841      2.093      4.905
REMARK INTER + INTRA:          -5.449
REMARK INTER:                  -5.148
REMARK INTRA:                  -0.301
REMARK UNBOUND:                -0.261
REMARK SMILES CCCCCCCC(=O)[O-]
REMARK SMILES IDX 5 1 6 2 7 3 8 4 9 5 10 6 4 7 3 8 2 9 1 10
REMARK H PARENT
REMARK Flexibility Score: inf
ROOT
ATOM      1  C   UNL     1      -4.358  -1.238  27.906  1.00  0.00     0.000 C 
ENDROOT
BRANCH   1   2
ATOM      2  C   UNL     1      -5.313  -1.736  29.011  1.00  0.00     0.006 C 
BRANCH   2   3
ATOM      3  C   UNL     1      -4.805  -2.958  29.791  1.00  0.00     0.053 C 
BRANCH   3   4
ATOM      4  C   UNL     1      -4.294  -4.032  28.881  1.00  0.00     0.041 C 
ATOM      5  O   UNL     1      -5.097  -4.699  28.176  1.00  0.00    -0.550 OA
ATOM      6  O   UNL     1      -2.936  -4.320  28.837  1.00  0.00    -0.550 OA
ENDBRANCH   3   4
ENDBRANCH   2   3
ENDBRANCH   1   2
BRANCH   1   7
ATOM      7  C   UNL     1      -3.070  -0.563  28.414  1.00  0.00     0.000 C 
BRANCH   7   8
ATOM      8  C   UNL     1      -1.967  -0.499  27.348  1.00  0.00    -0.000 C 
BRANCH   8   9
ATOM      9  C   UNL     1      -1.166   0.803  27.466  1.00  0.00    -0.003 C 
ATOM     10  C   UNL     1      -1.572   1.589  28.710  1.00  0.00     0.004 C 
ENDBRANCH   8   9
ENDBRANCH   7   8
ENDBRANCH   1   7
TORSDOF 6
ENDMDL
MODEL 9
REMARK VINA RESULT:    -3.772      2.523      4.426
REMARK INTER + INTRA:          -5.356
REMARK INTER:                  -4.841
REMARK INTRA:                  -0.515
REMARK UNBOUND:                -0.261
REMARK SMILES CCCCCCCC(=O)[O-]
REMARK SMILES IDX 5 1 6 2 7 3 8 4 9 5 10 6 4 7 3 8 2 9 1 10
REMARK H PARENT
REMARK Flexibility Score: inf
ROOT
ATOM      1  C   UNL     1      -2.302   0.148  28.508  1.00  0.00     0.000 C 
ENDROOT
BRANCH   1   2
ATOM      2  C   UNL     1      -3.689  -0.302  29.012  1.00  0.00     0.006 C 
BRANCH   2   3
ATOM      3  C   UNL     1      -4.473  -1.180  28.024  1.00  0.00     0.053 C 
BRANCH   3   4
ATOM      4  C   UNL     1      -4.903  -2.474  28.642  1.00  0.00     0.041 C 
ATOM      5  O   UNL     1      -5.755  -3.199  28.064  1.00  0.00    -0.550 OA
ATOM      6  O   UNL     1      -4.388  -2.864  29.872  1.00  0.00    -0.550 OA
ENDBRANCH   3   4
ENDBRANCH   2   3
ENDBRANCH   1   2
BRANCH   1   7
ATOM      7  C   UNL     1      -1.887  -0.427  27.142  1.00  0.00     0.000 C 
BRANCH   7   8
ATOM      8  C   UNL     1      -0.564  -1.205  27.195  1.00  0.00    -0.000 C 
BRANCH   8   9
ATOM      9  C   UNL     1      -0.372  -1.865  28.566  1.00  0.00    -0.003 C 
ATOM     10  C   UNL     1      -1.026  -3.243  28.611  1.00  0.00     0.004 C 
ENDBRANCH   8   9
ENDBRANCH   7   8
ENDBRANCH   1   7
TORSDOF 6
ENDMDL
