MODEL 1
REMARK VINA RESULT:    -1.899      0.000      0.000
REMARK INTER + INTRA:          -2.753
REMARK INTER:                  -2.566
REMARK INTRA:                  -0.187
REMARK UNBOUND:                -0.187
REMARK SMILES CCCCCCCC(=O)[O-]
REMARK SMILES IDX 5 1 6 2 7 3 8 4 9 5 10 6 4 7 3 8 2 9 1 10
REMARK H PARENT
REMARK Flexibility Score: inf
ROOT
ATOM      1  C   UNL     1      58.051  -2.747  -4.781  1.00  0.00     0.000 C 
ENDROOT
BRANCH   1   2
ATOM      2  C   UNL     1      59.018  -3.478  -3.827  1.00  0.00     0.006 C 
BRANCH   2   3
ATOM      3  C   UNL     1      59.033  -5.008  -3.983  1.00  0.00     0.053 C 
BRANCH   3   4
ATOM      4  C   UNL     1      59.083  -5.705  -2.658  1.00  0.00     0.041 C 
ATOM      5  O   UNL     1      59.124  -6.962  -2.605  1.00  0.00    -0.550 OA
ATOM      6  O   UNL     1      59.118  -4.964  -1.483  1.00  0.00    -0.550 OA
ENDBRANCH   3   4
ENDBRANCH   2   3
ENDBRANCH   1   2
BRANCH   1   7
ATOM      7  C   UNL     1      58.481  -2.733  -6.259  1.00  0.00     0.000 C 
BRANCH   7   8
ATOM      8  C   UNL     1      58.759  -1.319  -6.789  1.00  0.00    -0.000 C 
BRANCH   8   9
ATOM      9  C   UNL     1      57.652  -0.347  -6.365  1.00  0.00    -0.003 C 
ATOM     10  C   UNL     1      57.816   1.008  -7.048  1.00  0.00     0.004 C 
ENDBRANCH   8   9
ENDBRANCH   7   8
ENDBRANCH   1   7
TORSDOF 6
ENDMDL
MODEL 2
REMARK VINA RESULT:    -1.848      3.371      6.113
REMARK INTER + INTRA:          -2.683
REMARK INTER:                  -2.579
REMARK INTRA:                  -0.104
REMARK UNBOUND:                -0.187
REMARK SMILES CCCCCCCC(=O)[O-]
REMARK SMILES IDX 5 1 6 2 7 3 8 4 9 5 10 6 4 7 3 8 2 9 1 10
REMARK H PARENT
REMARK Flexibility Score: inf
ROOT
ATOM      1  C   UNL     1      58.687  -3.107  -4.810  1.00  0.00     0.000 C 
ENDROOT
BRANCH   1   2
ATOM      2  C   UNL     1      58.362  -2.787  -6.283  1.00  0.00     0.006 C 
BRANCH   2   3
ATOM      3  C   UNL     1      59.033  -1.513  -6.823  1.00  0.00     0.053 C 
BRANCH   3   4
ATOM      4  C   UNL     1      58.243  -0.283  -6.497  1.00  0.00     0.041 C 
ATOM      5  O   UNL     1      57.023  -0.375  -6.194  1.00  0.00    -0.550 OA
ATOM      6  O   UNL     1      58.862   0.961  -6.493  1.00  0.00    -0.550 OA
ENDBRANCH   3   4
ENDBRANCH   2   3
ENDBRANCH   1   2
BRANCH   1   7
ATOM      7  C   UNL     1      58.917  -4.599  -4.504  1.00  0.00     0.000 C 
BRANCH   7   8
ATOM      8  C   UNL     1      59.125  -4.878  -3.008  1.00  0.00    -0.000 C 
BRANCH   8   9
ATOM      9  C   UNL     1      59.121  -6.385  -2.727  1.00  0.00    -0.003 C 
ATOM     10  C   UNL     1      59.092  -6.665  -1.227  1.00  0.00     0.004 C 
ENDBRANCH   8   9
ENDBRANCH   7   8
ENDBRANCH   1   7
TORSDOF 6
ENDMDL
MODEL 3
REMARK VINA RESULT:    -0.954      1.663      3.149
REMARK INTER + INTRA:          -1.476
REMARK INTER:                  -2.034
REMARK INTRA:                   0.557
REMARK UNBOUND:                -0.187
REMARK SMILES CCCCCCCC(=O)[O-]
REMARK SMILES IDX 5 1 6 2 7 3 8 4 9 5 10 6 4 7 3 8 2 9 1 10
REMARK H PARENT
REMARK Flexibility Score: inf
ROOT
ATOM      1  C   UNL     1      58.927  -5.015  -2.559  1.00  0.00     0.000 C 
ENDROOT
BRANCH   1   2
ATOM      2  C   UNL     1      59.125  -6.511  -2.238  1.00  0.00     0.006 C 
BRANCH   2   3
ATOM      3  C   UNL     1      59.125  -6.848  -0.738  1.00  0.00     0.053 C 
BRANCH   3   4
ATOM      4  C   UNL     1      58.544  -5.739   0.084  1.00  0.00     0.041 C 
ATOM      5  O   UNL     1      59.090  -4.604   0.095  1.00  0.00    -0.550 OA
ATOM      6  O   UNL     1      57.380  -5.950   0.812  1.00  0.00    -0.550 OA
ENDBRANCH   3   4
ENDBRANCH   2   3
ENDBRANCH   1   2
BRANCH   1   7
ATOM      7  C   UNL     1      59.063  -4.645  -4.047  1.00  0.00     0.000 C 
BRANCH   7   8
ATOM      8  C   UNL     1      59.085  -3.129  -4.287  1.00  0.00    -0.000 C 
BRANCH   8   9
ATOM      9  C   UNL     1      58.313  -2.764  -5.561  1.00  0.00    -0.003 C 
ATOM     10  C   UNL     1      58.633  -1.342  -6.011  1.00  0.00     0.004 C 
ENDBRANCH   8   9
ENDBRANCH   7   8
ENDBRANCH   1   7
TORSDOF 6
ENDMDL
MODEL 4
REMARK VINA RESULT:    -0.829      4.489      7.584
REMARK INTER + INTRA:          -1.307
REMARK INTER:                  -1.357
REMARK INTRA:                   0.050
REMARK UNBOUND:                -0.187
REMARK SMILES CCCCCCCC(=O)[O-]
REMARK SMILES IDX 5 1 6 2 7 3 8 4 9 5 10 6 4 7 3 8 2 9 1 10
REMARK H PARENT
REMARK Flexibility Score: inf
ROOT
ATOM      1  C   UNL     1      57.794  -4.877   0.502  1.00  0.00     0.000 C 
ENDROOT
BRANCH   1   2
ATOM      2  C   UNL     1      59.125  -5.119  -0.240  1.00  0.00     0.006 C 
BRANCH   2   3
ATOM      3  C   UNL     1      59.098  -6.292  -1.233  1.00  0.00     0.053 C 
BRANCH   3   4
ATOM      4  C   UNL     1      58.843  -5.833  -2.636  1.00  0.00     0.041 C 
ATOM      5  O   UNL     1      59.105  -4.648  -2.972  1.00  0.00    -0.550 OA
ATOM      6  O   UNL     1      58.348  -6.724  -3.580  1.00  0.00    -0.550 OA
ENDBRANCH   3   4
ENDBRANCH   2   3
ENDBRANCH   1   2
BRANCH   1   7
ATOM      7  C   UNL     1      57.436  -5.937   1.559  1.00  0.00     0.000 C 
BRANCH   7   8
ATOM      8  C   UNL     1      58.567  -6.947   1.802  1.00  0.00    -0.000 C 
BRANCH   8   9
ATOM      9  C   UNL     1      58.942  -7.003   3.288  1.00  0.00    -0.003 C 
ATOM     10  C   UNL     1      57.714  -6.815   4.174  1.00  0.00     0.004 C 
ENDBRANCH   8   9
ENDBRANCH   7   8
ENDBRANCH   1   7
TORSDOF 6
ENDMDL
MODEL 5
REMARK VINA RESULT:    -0.520      2.571      3.822
REMARK INTER + INTRA:          -0.889
REMARK INTER:                  -0.756
REMARK INTRA:                  -0.133
REMARK UNBOUND:                -0.187
REMARK SMILES CCCCCCCC(=O)[O-]
REMARK SMILES IDX 5 1 6 2 7 3 8 4 9 5 10 6 4 7 3 8 2 9 1 10
REMARK H PARENT
REMARK Flexibility Score: inf
ROOT
ATOM      1  C   UNL     1      58.562  -4.582  -1.897  1.00  0.00     0.000 C 
ENDROOT
BRANCH   1   2
ATOM      2  C   UNL     1      59.124  -5.620  -0.903  1.00  0.00     0.006 C 
BRANCH   2   3
ATOM      3  C   UNL     1      58.980  -5.229   0.577  1.00  0.00     0.053 C 
BRANCH   3   4
ATOM      4  C   UNL     1      58.046  -6.144   1.309  1.00  0.00     0.041 C 
ATOM      5  O   UNL     1      56.822  -6.169   1.013  1.00  0.00    -0.550 OA
ATOM      6  O   UNL     1      58.534  -6.993   2.295  1.00  0.00    -0.550 OA
ENDBRANCH   3   4
ENDBRANCH   2   3
ENDBRANCH   1   2
BRANCH   1   7
ATOM      7  C   UNL     1      59.029  -4.758  -3.353  1.00  0.00     0.000 C 
BRANCH   7   8
ATOM      8  C   UNL     1      59.123  -3.429  -4.116  1.00  0.00    -0.000 C 
BRANCH   8   9
ATOM      9  C   UNL     1      57.849  -3.172  -4.930  1.00  0.00    -0.003 C 
ATOM     10  C   UNL     1      58.064  -2.063  -5.956  1.00  0.00     0.004 C 
ENDBRANCH   8   9
ENDBRANCH   7   8
ENDBRANCH   1   7
TORSDOF 6
ENDMDL
MODEL 6
REMARK VINA RESULT:     0.015     27.147     28.013
REMARK INTER + INTRA:          -0.167
REMARK INTER:                   0.142
REMARK INTRA:                  -0.309
REMARK UNBOUND:                -0.187
REMARK SMILES CCCCCCCC(=O)[O-]
REMARK SMILES IDX 5 1 6 2 7 3 8 4 9 5 10 6 4 7 3 8 2 9 1 10
REMARK H PARENT
REMARK Flexibility Score: inf
ROOT
ATOM      1  C   UNL     1      40.598   6.402  11.655  1.00  0.00     0.000 C 
ENDROOT
BRANCH   1   2
ATOM      2  C   UNL     1      41.086   7.833  11.963  1.00  0.00     0.006 C 
BRANCH   2   3
ATOM      3  C   UNL     1      40.206   8.607  12.958  1.00  0.00     0.053 C 
BRANCH   3   4
ATOM      4  C   UNL     1      39.614   9.838  12.343  1.00  0.00     0.041 C 
ATOM      5  O   UNL     1      39.177  10.765  13.076  1.00  0.00    -0.550 OA
ATOM      6  O   UNL     1      39.578   9.977  10.961  1.00  0.00    -0.550 OA
ENDBRANCH   3   4
ENDBRANCH   2   3
ENDBRANCH   1   2
BRANCH   1   7
ATOM      7  C   UNL     1      39.107   6.148  11.938  1.00  0.00     0.000 C 
BRANCH   7   8
ATOM      8  C   UNL     1      38.875   5.201  13.125  1.00  0.00    -0.000 C 
BRANCH   8   9
ATOM      9  C   UNL     1      39.756   3.951  13.009  1.00  0.00    -0.003 C 
ATOM     10  C   UNL     1      38.919   2.678  13.092  1.00  0.00     0.004 C 
ENDBRANCH   8   9
ENDBRANCH   7   8
ENDBRANCH   1   7
TORSDOF 6
ENDMDL
MODEL 7
REMARK VINA RESULT:     0.665      5.038      6.941
REMARK INTER + INTRA:           0.711
REMARK INTER:                   0.867
REMARK INTRA:                  -0.156
REMARK UNBOUND:                -0.187
REMARK SMILES CCCCCCCC(=O)[O-]
REMARK SMILES IDX 5 1 6 2 7 3 8 4 9 5 10 6 4 7 3 8 2 9 1 10
REMARK H PARENT
REMARK Flexibility Score: inf
ROOT
ATOM      1  C   UNL     1      57.823  -5.329   0.856  1.00  0.00     0.000 C 
ENDROOT
BRANCH   1   2
ATOM      2  C   UNL     1      57.421  -6.478   1.803  1.00  0.00     0.006 C 
BRANCH   2   3
ATOM      3  C   UNL     1      58.570  -7.025   2.666  1.00  0.00     0.053 C 
BRANCH   3   4
ATOM      4  C   UNL     1      58.201  -7.083   4.117  1.00  0.00     0.041 C 
ATOM      5  O   UNL     1      59.099  -7.100   4.999  1.00  0.00    -0.550 OA
ATOM      6  O   UNL     1      56.864  -7.084   4.495  1.00  0.00    -0.550 OA
ENDBRANCH   3   4
ENDBRANCH   2   3
ENDBRANCH   1   2
BRANCH   1   7
ATOM      7  C   UNL     1      59.095  -5.584   0.025  1.00  0.00     0.000 C 
BRANCH   7   8
ATOM      8  C   UNL     1      58.983  -5.068  -1.416  1.00  0.00    -0.000 C 
BRANCH   8   9
ATOM      9  C   UNL     1      59.012  -6.228  -2.418  1.00  0.00    -0.003 C 
ATOM     10  C   UNL     1      58.981  -5.716  -3.855  1.00  0.00     0.004 C 
ENDBRANCH   8   9
ENDBRANCH   7   8
ENDBRANCH   1   7
TORSDOF 6
ENDMDL
