MODEL 1
REMARK VINA RESULT:     0.000      0.000      0.000
REMARK INTER + INTRA:           0.000
REMARK INTER:                   0.000
REMARK INTRA:                   0.000
REMARK UNBOUND:                 0.000
REMARK SMILES CC(=O)[O-]
REMARK SMILES IDX 1 1 2 2 3 3 4 4
REMARK H PARENT
REMARK Flexibility Score: inf
ROOT
ATOM      1  C   UNL     1     178.407 186.038 201.719  1.00  0.00     0.063 C 
ATOM      2  C   UNL     1     177.734 187.020 202.616  1.00  0.00     0.038 C 
ATOM      3  O   UNL     1     176.706 186.686 203.260  1.00  0.00    -0.550 OA
ATOM      4  O   UNL     1     178.269 188.291 202.784  1.00  0.00    -0.550 OA
ENDROOT
TORSDOF 0
ENDMDL
MODEL 2
REMARK VINA RESULT:     0.000      3.199      3.364
REMARK INTER + INTRA:           0.000
REMARK INTER:                   0.000
REMARK INTRA:                   0.000
REMARK UNBOUND:                 0.000
REMARK SMILES CC(=O)[O-]
REMARK SMILES IDX 1 1 2 2 3 3 4 4
REMARK H PARENT
REMARK Flexibility Score: inf
ROOT
ATOM      1  C   UNL     1     178.690 184.138 199.773  1.00  0.00     0.063 C 
ATOM      2  C   UNL     1     178.261 185.564 199.708  1.00  0.00     0.038 C 
ATOM      3  O   UNL     1     177.093 185.889 200.045  1.00  0.00    -0.550 OA
ATOM      4  O   UNL     1     179.165 186.547 199.323  1.00  0.00    -0.550 OA
ENDROOT
TORSDOF 0
ENDMDL
MODEL 3
REMARK VINA RESULT:     0.000      5.194      5.412
REMARK INTER + INTRA:           0.000
REMARK INTER:                   0.000
REMARK INTRA:                   0.000
REMARK UNBOUND:                 0.000
REMARK SMILES CC(=O)[O-]
REMARK SMILES IDX 1 1 2 2 3 3 4 4
REMARK H PARENT
REMARK Flexibility Score: inf
ROOT
ATOM      1  C   UNL     1     176.852 183.746 197.174  1.00  0.00     0.063 C 
ATOM      2  C   UNL     1     176.954 185.143 197.685  1.00  0.00     0.038 C 
ATOM      3  O   UNL     1     176.351 185.476 198.738  1.00  0.00    -0.550 OA
ATOM      4  O   UNL     1     177.757 186.068 197.029  1.00  0.00    -0.550 OA
ENDROOT
TORSDOF 0
ENDMDL
MODEL 4
REMARK VINA RESULT:     0.000      6.942      7.249
REMARK INTER + INTRA:           0.000
REMARK INTER:                   0.000
REMARK INTRA:                   0.000
REMARK UNBOUND:                 0.000
REMARK SMILES CC(=O)[O-]
REMARK SMILES IDX 1 1 2 2 3 3 4 4
REMARK H PARENT
REMARK Flexibility Score: inf
ROOT
ATOM      1  C   UNL     1     176.852 183.746 197.174  1.00  0.00     0.063 C 
ATOM      2  C   UNL     1     175.878 184.380 196.241  1.00  0.00     0.038 C 
ATOM      3  O   UNL     1     174.758 184.767 196.664  1.00  0.00    -0.550 OA
ATOM      4  O   UNL     1     176.223 184.593 194.912  1.00  0.00    -0.550 OA
ENDROOT
TORSDOF 0
ENDMDL
MODEL 5
REMARK VINA RESULT:     0.000     10.084     10.334
REMARK INTER + INTRA:           0.000
REMARK INTER:                   0.000
REMARK INTRA:                   0.000
REMARK UNBOUND:                 0.000
REMARK SMILES CC(=O)[O-]
REMARK SMILES IDX 1 1 2 2 3 3 4 4
REMARK H PARENT
REMARK Flexibility Score: inf
ROOT
ATOM      1  C   UNL     1     168.146 190.558 201.078  1.00  0.00     0.063 C 
ATOM      2  C   UNL     1     168.597 191.363 202.248  1.00  0.00     0.038 C 
ATOM      3  O   UNL     1     169.449 192.276 202.097  1.00  0.00    -0.550 OA
ATOM      4  O   UNL     1     168.038 191.142 203.501  1.00  0.00    -0.550 OA
ENDROOT
TORSDOF 0
ENDMDL
MODEL 6
REMARK VINA RESULT:     0.000      9.962     10.476
REMARK INTER + INTRA:           0.000
REMARK INTER:                   0.000
REMARK INTRA:                   0.000
REMARK UNBOUND:                 0.000
REMARK SMILES CC(=O)[O-]
REMARK SMILES IDX 1 1 2 2 3 3 4 4
REMARK H PARENT
REMARK Flexibility Score: inf
ROOT
ATOM      1  C   UNL     1     168.263 189.832 200.728  1.00  0.00     0.063 C 
ATOM      2  C   UNL     1     167.725 189.623 202.102  1.00  0.00     0.038 C 
ATOM      3  O   UNL     1     166.806 190.362 202.541  1.00  0.00    -0.550 OA
ATOM      4  O   UNL     1     168.200 188.577 202.884  1.00  0.00    -0.550 OA
ENDROOT
TORSDOF 0
ENDMDL
MODEL 7
REMARK VINA RESULT:     0.000     11.354     11.652
REMARK INTER + INTRA:           0.000
REMARK INTER:                   0.000
REMARK INTRA:                   0.000
REMARK UNBOUND:                 0.000
REMARK SMILES CC(=O)[O-]
REMARK SMILES IDX 1 1 2 2 3 3 4 4
REMARK H PARENT
REMARK Flexibility Score: inf
ROOT
ATOM      1  C   UNL     1     167.240 191.426 199.033  1.00  0.00     0.063 C 
ATOM      2  C   UNL     1     167.495 192.011 200.380  1.00  0.00     0.038 C 
ATOM      3  O   UNL     1     166.608 191.958 201.271  1.00  0.00    -0.550 OA
ATOM      4  O   UNL     1     168.733 192.570 200.673  1.00  0.00    -0.550 OA
ENDROOT
TORSDOF 0
ENDMDL
MODEL 8
REMARK VINA RESULT:     0.000     10.728     10.933
REMARK INTER + INTRA:           0.000
REMARK INTER:                   0.000
REMARK INTRA:                   0.000
REMARK UNBOUND:                 0.000
REMARK SMILES CC(=O)[O-]
REMARK SMILES IDX 1 1 2 2 3 3 4 4
REMARK H PARENT
REMARK Flexibility Score: inf
ROOT
ATOM      1  C   UNL     1     169.705 193.452 198.277  1.00  0.00     0.063 C 
ATOM      2  C   UNL     1     169.961 194.037 199.624  1.00  0.00     0.038 C 
ATOM      3  O   UNL     1     169.074 193.984 200.515  1.00  0.00    -0.550 OA
ATOM      4  O   UNL     1     171.199 194.596 199.917  1.00  0.00    -0.550 OA
ENDROOT
TORSDOF 0
ENDMDL
MODEL 9
REMARK VINA RESULT:     0.000     13.763     14.250
REMARK INTER + INTRA:           0.000
REMARK INTER:                   0.000
REMARK INTRA:                   0.000
REMARK UNBOUND:                 0.000
REMARK SMILES CC(=O)[O-]
REMARK SMILES IDX 1 1 2 2 3 3 4 4
REMARK H PARENT
REMARK Flexibility Score: inf
ROOT
ATOM      1  C   UNL     1     172.616 199.442 198.738  1.00  0.00     0.063 C 
ATOM      2  C   UNL     1     172.646 199.061 197.297  1.00  0.00     0.038 C 
ATOM      3  O   UNL     1     171.934 199.680 196.464  1.00  0.00    -0.550 OA
ATOM      4  O   UNL     1     173.500 198.055 196.860  1.00  0.00    -0.550 OA
ENDROOT
TORSDOF 0
ENDMDL
