MODEL 1
REMARK VINA RESULT:    -2.296      0.000      0.000
REMARK INTER + INTRA:          -2.587
REMARK INTER:                  -2.431
REMARK INTRA:                  -0.156
REMARK UNBOUND:                -0.156
REMARK SMILES CC1=CC=C(C(C)C)CC1
REMARK SMILES IDX 1 1 2 2 3 3 4 4 5 5 9 6 10 7 6 8 7 9 8 10
REMARK H PARENT
REMARK Flexibility Score: inf
ROOT
ATOM      1  C   UNL     1     -17.443   0.517  17.487  1.00  0.00     0.039 C 
ATOM      2  C   UNL     1     -16.542  -0.621  17.104  1.00  0.00    -0.073 C 
ATOM      3  C   UNL     1     -15.566  -1.010  17.938  1.00  0.00    -0.001 C 
ATOM      4  C   UNL     1     -14.672  -2.129  17.584  1.00  0.00    -0.001 C 
ATOM      5  C   UNL     1     -14.946  -2.931  16.538  1.00  0.00    -0.067 C 
ATOM      6  C   UNL     1     -16.247  -2.742  15.786  1.00  0.00     0.035 C 
ATOM      7  C   UNL     1     -16.662  -1.264  15.742  1.00  0.00     0.035 C 
ENDROOT
BRANCH   5   8
ATOM      8  C   UNL     1     -14.023  -4.073  16.156  1.00  0.00     0.009 C 
ATOM      9  C   UNL     1     -14.735  -5.078  15.241  1.00  0.00     0.012 C 
ATOM     10  C   UNL     1     -12.730  -3.559  15.511  1.00  0.00     0.012 C 
ENDBRANCH   5   8
TORSDOF 1
ENDMDL
MODEL 2
REMARK VINA RESULT:    -2.072      0.264      1.580
REMARK INTER + INTRA:          -2.350
REMARK INTER:                  -2.211
REMARK INTRA:                  -0.138
REMARK UNBOUND:                -0.156
REMARK SMILES CC1=CC=C(C(C)C)CC1
REMARK SMILES IDX 1 1 2 2 3 3 4 4 5 5 9 6 10 7 6 8 7 9 8 10
REMARK H PARENT
REMARK Flexibility Score: inf
ROOT
ATOM      1  C   UNL     1     -17.296   0.609  17.518  1.00  0.00     0.039 C 
ATOM      2  C   UNL     1     -16.509  -0.630  17.207  1.00  0.00    -0.073 C 
ATOM      3  C   UNL     1     -16.672  -1.247  16.027  1.00  0.00    -0.001 C 
ATOM      4  C   UNL     1     -15.904  -2.463  15.698  1.00  0.00    -0.001 C 
ATOM      5  C   UNL     1     -14.867  -2.855  16.462  1.00  0.00    -0.067 C 
ATOM      6  C   UNL     1     -14.420  -1.972  17.608  1.00  0.00     0.035 C 
ATOM      7  C   UNL     1     -15.609  -1.245  18.254  1.00  0.00     0.035 C 
ENDROOT
BRANCH   5   8
ATOM      8  C   UNL     1     -14.083  -4.115  16.142  1.00  0.00     0.009 C 
ATOM      9  C   UNL     1     -14.925  -5.096  15.315  1.00  0.00     0.012 C 
ATOM     10  C   UNL     1     -12.761  -3.790  15.436  1.00  0.00     0.012 C 
ENDBRANCH   5   8
TORSDOF 1
ENDMDL
MODEL 3
REMARK VINA RESULT:    -1.727      0.968      4.611
REMARK INTER + INTRA:          -1.984
REMARK INTER:                  -1.829
REMARK INTRA:                  -0.155
REMARK UNBOUND:                -0.156
REMARK SMILES CC1=CC=C(C(C)C)CC1
REMARK SMILES IDX 1 1 2 2 3 3 4 4 5 5 9 6 10 7 6 8 7 9 8 10
REMARK H PARENT
REMARK Flexibility Score: inf
ROOT
ATOM      1  C   UNL     1     -14.598  -4.772  15.609  1.00  0.00     0.039 C 
ATOM      2  C   UNL     1     -14.996  -3.431  16.153  1.00  0.00    -0.073 C 
ATOM      3  C   UNL     1     -16.075  -2.804  15.660  1.00  0.00    -0.001 C 
ATOM      4  C   UNL     1     -16.488  -1.488  16.183  1.00  0.00    -0.001 C 
ATOM      5  C   UNL     1     -15.943  -0.988  17.308  1.00  0.00    -0.067 C 
ATOM      6  C   UNL     1     -14.975  -1.841  18.100  1.00  0.00     0.035 C 
ATOM      7  C   UNL     1     -14.133  -2.738  17.180  1.00  0.00     0.035 C 
ENDROOT
BRANCH   5   8
ATOM      8  C   UNL     1     -16.349   0.373  17.844  1.00  0.00     0.009 C 
ATOM      9  C   UNL     1     -15.409   1.472  17.332  1.00  0.00     0.012 C 
ATOM     10  C   UNL     1     -17.811   0.696  17.510  1.00  0.00     0.012 C 
ENDBRANCH   5   8
TORSDOF 1
ENDMDL
MODEL 4
REMARK VINA RESULT:    -1.289      3.192      4.523
REMARK INTER + INTRA:          -1.521
REMARK INTER:                  -1.377
REMARK INTRA:                  -0.144
REMARK UNBOUND:                -0.156
REMARK SMILES CC1=CC=C(C(C)C)CC1
REMARK SMILES IDX 1 1 2 2 3 3 4 4 5 5 9 6 10 7 6 8 7 9 8 10
REMARK H PARENT
REMARK Flexibility Score: inf
ROOT
ATOM      1  C   UNL     1     -13.938  -1.595  23.439  1.00  0.00     0.039 C 
ATOM      2  C   UNL     1     -14.120  -1.904  21.982  1.00  0.00    -0.073 C 
ATOM      3  C   UNL     1     -15.313  -2.321  21.531  1.00  0.00    -0.001 C 
ATOM      4  C   UNL     1     -15.516  -2.624  20.102  1.00  0.00    -0.001 C 
ATOM      5  C   UNL     1     -14.594  -2.280  19.183  1.00  0.00    -0.067 C 
ATOM      6  C   UNL     1     -13.388  -1.473  19.615  1.00  0.00     0.035 C 
ATOM      7  C   UNL     1     -12.942  -1.846  21.037  1.00  0.00     0.035 C 
ENDROOT
BRANCH   5   8
ATOM      8  C   UNL     1     -14.786  -2.605  17.712  1.00  0.00     0.009 C 
ATOM      9  C   UNL     1     -15.721  -1.591  17.039  1.00  0.00     0.012 C 
ATOM     10  C   UNL     1     -13.443  -2.693  16.977  1.00  0.00     0.012 C 
ENDBRANCH   5   8
TORSDOF 1
ENDMDL
MODEL 5
REMARK VINA RESULT:    -1.197      3.263      4.596
REMARK INTER + INTRA:          -1.424
REMARK INTER:                  -1.266
REMARK INTRA:                  -0.158
REMARK UNBOUND:                -0.156
REMARK SMILES CC1=CC=C(C(C)C)CC1
REMARK SMILES IDX 1 1 2 2 3 3 4 4 5 5 9 6 10 7 6 8 7 9 8 10
REMARK H PARENT
REMARK Flexibility Score: inf
ROOT
ATOM      1  C   UNL     1     -13.489  -1.629  23.491  1.00  0.00     0.039 C 
ATOM      2  C   UNL     1     -13.897  -1.777  22.054  1.00  0.00    -0.073 C 
ATOM      3  C   UNL     1     -12.976  -1.677  21.084  1.00  0.00    -0.001 C 
ATOM      4  C   UNL     1     -13.354  -1.825  19.666  1.00  0.00    -0.001 C 
ATOM      5  C   UNL     1     -14.571  -2.284  19.317  1.00  0.00    -0.067 C 
ATOM      6  C   UNL     1     -15.518  -2.757  20.400  1.00  0.00     0.035 C 
ATOM      7  C   UNL     1     -15.354  -1.936  21.688  1.00  0.00     0.035 C 
ENDROOT
BRANCH   5   8
ATOM      8  C   UNL     1     -14.975  -2.421  17.860  1.00  0.00     0.009 C 
ATOM      9  C   UNL     1     -15.815  -1.221  17.403  1.00  0.00     0.012 C 
ATOM     10  C   UNL     1     -13.753  -2.619  16.955  1.00  0.00     0.012 C 
ENDBRANCH   5   8
TORSDOF 1
ENDMDL
MODEL 6
REMARK VINA RESULT:    -0.550      2.667      4.509
REMARK INTER + INTRA:          -0.738
REMARK INTER:                  -0.593
REMARK INTRA:                  -0.145
REMARK UNBOUND:                -0.156
REMARK SMILES CC1=CC=C(C(C)C)CC1
REMARK SMILES IDX 1 1 2 2 3 3 4 4 5 5 9 6 10 7 6 8 7 9 8 10
REMARK H PARENT
REMARK Flexibility Score: inf
ROOT
ATOM      1  C   UNL     1     -15.334  -2.740  15.653  1.00  0.00     0.039 C 
ATOM      2  C   UNL     1     -14.902  -2.435  17.058  1.00  0.00    -0.073 C 
ATOM      3  C   UNL     1     -15.812  -2.060  17.970  1.00  0.00    -0.001 C 
ATOM      4  C   UNL     1     -15.411  -1.760  19.357  1.00  0.00    -0.001 C 
ATOM      5  C   UNL     1     -14.180  -2.070  19.805  1.00  0.00    -0.067 C 
ATOM      6  C   UNL     1     -13.237  -2.834  18.900  1.00  0.00     0.035 C 
ATOM      7  C   UNL     1     -13.437  -2.449  17.426  1.00  0.00     0.035 C 
ENDROOT
BRANCH   5   8
ATOM      8  C   UNL     1     -13.753  -1.748  21.226  1.00  0.00     0.009 C 
ATOM      9  C   UNL     1     -14.925  -1.900  22.204  1.00  0.00     0.012 C 
ATOM     10  C   UNL     1     -12.556  -2.603  21.660  1.00  0.00     0.012 C 
ENDBRANCH   5   8
TORSDOF 1
ENDMDL
MODEL 7
REMARK VINA RESULT:    -0.475      1.972      3.465
REMARK INTER + INTRA:          -0.659
REMARK INTER:                  -0.498
REMARK INTRA:                  -0.161
REMARK UNBOUND:                -0.156
REMARK SMILES CC1=CC=C(C(C)C)CC1
REMARK SMILES IDX 1 1 2 2 3 3 4 4 5 5 9 6 10 7 6 8 7 9 8 10
REMARK H PARENT
REMARK Flexibility Score: inf
ROOT
ATOM      1  C   UNL     1     -13.818  -1.737  21.624  1.00  0.00     0.039 C 
ATOM      2  C   UNL     1     -14.175  -2.047  20.200  1.00  0.00    -0.073 C 
ATOM      3  C   UNL     1     -15.382  -1.707  19.724  1.00  0.00    -0.001 C 
ATOM      4  C   UNL     1     -15.752  -1.997  18.326  1.00  0.00    -0.001 C 
ATOM      5  C   UNL     1     -14.828  -2.397  17.433  1.00  0.00    -0.067 C 
ATOM      6  C   UNL     1     -13.372  -2.441  17.849  1.00  0.00     0.035 C 
ATOM      7  C   UNL     1     -13.221  -2.831  19.328  1.00  0.00     0.035 C 
ENDROOT
BRANCH   5   8
ATOM      8  C   UNL     1     -15.203  -2.716  15.997  1.00  0.00     0.009 C 
ATOM      9  C   UNL     1     -15.209  -4.230  15.750  1.00  0.00     0.012 C 
ATOM     10  C   UNL     1     -16.548  -2.087  15.615  1.00  0.00     0.012 C 
ENDBRANCH   5   8
TORSDOF 1
ENDMDL
MODEL 8
REMARK VINA RESULT:    -0.285      2.182      4.015
REMARK INTER + INTRA:          -0.458
REMARK INTER:                  -0.312
REMARK INTRA:                  -0.146
REMARK UNBOUND:                -0.156
REMARK SMILES CC1=CC=C(C(C)C)CC1
REMARK SMILES IDX 1 1 2 2 3 3 4 4 5 5 9 6 10 7 6 8 7 9 8 10
REMARK H PARENT
REMARK Flexibility Score: inf
ROOT
ATOM      1  C   UNL     1     -16.388  -1.628  15.237  1.00  0.00     0.039 C 
ATOM      2  C   UNL     1     -15.814  -1.831  16.608  1.00  0.00    -0.073 C 
ATOM      3  C   UNL     1     -14.772  -2.659  16.781  1.00  0.00    -0.001 C 
ATOM      4  C   UNL     1     -14.189  -2.870  18.120  1.00  0.00    -0.001 C 
ATOM      5  C   UNL     1     -14.527  -2.079  19.155  1.00  0.00    -0.067 C 
ATOM      6  C   UNL     1     -15.435  -0.892  18.910  1.00  0.00     0.035 C 
ATOM      7  C   UNL     1     -16.466  -1.189  17.811  1.00  0.00     0.035 C 
ENDROOT
BRANCH   5   8
ATOM      8  C   UNL     1     -13.946  -2.300  20.540  1.00  0.00     0.009 C 
ATOM      9  C   UNL     1     -12.976  -1.173  20.919  1.00  0.00     0.012 C 
ATOM     10  C   UNL     1     -15.049  -2.458  21.593  1.00  0.00     0.012 C 
ENDBRANCH   5   8
TORSDOF 1
ENDMDL
MODEL 9
REMARK VINA RESULT:     0.516      9.566     11.652
REMARK INTER + INTRA:           0.390
REMARK INTER:                   0.535
REMARK INTRA:                  -0.145
REMARK UNBOUND:                -0.156
REMARK SMILES CC1=CC=C(C(C)C)CC1
REMARK SMILES IDX 1 1 2 2 3 3 4 4 5 5 9 6 10 7 6 8 7 9 8 10
REMARK H PARENT
REMARK Flexibility Score: inf
ROOT
ATOM      1  C   UNL     1     -15.642   5.995  20.801  1.00  0.00     0.039 C 
ATOM      2  C   UNL     1     -17.106   6.319  20.749  1.00  0.00    -0.073 C 
ATOM      3  C   UNL     1     -17.998   5.471  21.283  1.00  0.00    -0.001 C 
ATOM      4  C   UNL     1     -19.442   5.772  21.248  1.00  0.00    -0.001 C 
ATOM      5  C   UNL     1     -19.887   6.992  20.892  1.00  0.00    -0.067 C 
ATOM      6  C   UNL     1     -18.883   8.095  20.632  1.00  0.00     0.035 C 
ATOM      7  C   UNL     1     -17.590   7.545  20.010  1.00  0.00     0.035 C 
ENDROOT
BRANCH   5   8
ATOM      8  C   UNL     1     -21.371   7.305  20.836  1.00  0.00     0.009 C 
ATOM      9  C   UNL     1     -21.810   8.125  22.056  1.00  0.00     0.012 C 
ATOM     10  C   UNL     1     -21.746   8.014  19.529  1.00  0.00     0.012 C 
ENDBRANCH   5   8
TORSDOF 1
ENDMDL
