MODEL 1
REMARK VINA RESULT:    -1.187      0.000      0.000
REMARK INTER + INTRA:          -2.710
REMARK INTER:                  -2.576
REMARK INTRA:                  -0.135
REMARK UNBOUND:                -0.135
REMARK SMILES CCCCCCCCCCCCCCCCCCCCCC(=O)[O-]
REMARK SMILES IDX 12 1 11 2 10 3 9 4 8 5 7 6 6 7 5 8 4 9 3 10 2 11 1 12 13 13
REMARK SMILES IDX 14 14 15 15 16 16 17 17 18 18 19 19 20 20 21 21 22 22 23 23
REMARK SMILES IDX 24 24
REMARK H PARENT
REMARK Flexibility Score: inf
ROOT
ATOM      1  C   UNL     1       3.358 -36.895  18.569  1.00  0.00     0.000 C 
ENDROOT
BRANCH   1   2
ATOM      2  C   UNL     1       2.383 -37.276  19.694  1.00  0.00     0.000 C 
BRANCH   2   3
ATOM      3  C   UNL     1       0.959 -37.444  19.149  1.00  0.00     0.000 C 
BRANCH   3   4
ATOM      4  C   UNL     1       0.733 -36.563  17.910  1.00  0.00    -0.000 C 
BRANCH   4   5
ATOM      5  C   UNL     1       1.763 -36.837  16.794  1.00  0.00    -0.000 C 
BRANCH   5   6
ATOM      6  C   UNL     1       1.859 -35.713  15.743  1.00  0.00    -0.000 C 
BRANCH   6   7
ATOM      7  C   UNL     1       3.288 -35.347  15.302  1.00  0.00    -0.000 C 
BRANCH   7   8
ATOM      8  C   UNL     1       3.673 -35.814  13.886  1.00  0.00    -0.000 C 
BRANCH   8   9
ATOM      9  C   UNL     1       4.889 -36.752  13.875  1.00  0.00    -0.000 C 
BRANCH   9  10
ATOM     10  C   UNL     1       4.509 -38.148  14.391  1.00  0.00    -0.000 C 
BRANCH  10  11
ATOM     11  C   UNL     1       5.468 -39.243  13.899  1.00  0.00    -0.003 C 
ATOM     12  C   UNL     1       5.067 -40.640  14.373  1.00  0.00     0.004 C 
ENDBRANCH  10  11
ENDBRANCH   9  10
ENDBRANCH   8   9
ENDBRANCH   7   8
ENDBRANCH   6   7
ENDBRANCH   5   6
ENDBRANCH   4   5
ENDBRANCH   3   4
ENDBRANCH   2   3
ENDBRANCH   1   2
BRANCH   1  13
ATOM     13  C   UNL     1       4.823 -37.227  18.905  1.00  0.00     0.000 C 
BRANCH  13  14
ATOM     14  C   UNL     1       5.443 -36.386  20.034  1.00  0.00     0.000 C 
BRANCH  14  15
ATOM     15  C   UNL     1       5.780 -34.951  19.593  1.00  0.00     0.000 C 
BRANCH  15  16
ATOM     16  C   UNL     1       5.187 -33.880  20.526  1.00  0.00     0.000 C 
BRANCH  16  17
ATOM     17  C   UNL     1       4.327 -34.417  21.690  1.00  0.00     0.000 C 
BRANCH  17  18
ATOM     18  C   UNL     1       4.705 -33.884  23.083  1.00  0.00     0.000 C 
BRANCH  18  19
ATOM     19  C   UNL     1       6.092 -34.353  23.547  1.00  0.00     0.000 C 
BRANCH  19  20
ATOM     20  C   UNL     1       6.004 -35.068  24.904  1.00  0.00     0.006 C 
BRANCH  20  21
ATOM     21  C   UNL     1       5.810 -36.582  24.752  1.00  0.00     0.053 C 
BRANCH  21  22
ATOM     22  C   UNL     1       5.118 -37.178  25.940  1.00  0.00     0.041 C 
ATOM     23  O   UNL     1       3.904 -36.927  26.157  1.00  0.00    -0.550 OA
ATOM     24  O   UNL     1       5.809 -38.032  26.791  1.00  0.00    -0.550 OA
ENDBRANCH  21  22
ENDBRANCH  20  21
ENDBRANCH  19  20
ENDBRANCH  18  19
ENDBRANCH  17  18
ENDBRANCH  16  17
ENDBRANCH  15  16
ENDBRANCH  14  15
ENDBRANCH  13  14
ENDBRANCH   1  13
TORSDOF 20
ENDMDL
MODEL 2
REMARK VINA RESULT:    -0.505      2.148      4.322
REMARK INTER + INTRA:          -1.230
REMARK INTER:                  -0.666
REMARK INTRA:                  -0.564
REMARK UNBOUND:                -0.135
REMARK SMILES CCCCCCCCCCCCCCCCCCCCCC(=O)[O-]
REMARK SMILES IDX 12 1 11 2 10 3 9 4 8 5 7 6 6 7 5 8 4 9 3 10 2 11 1 12 13 13
REMARK SMILES IDX 14 14 15 15 16 16 17 17 18 18 19 19 20 20 21 21 22 22 23 23
REMARK SMILES IDX 24 24
REMARK H PARENT
REMARK Flexibility Score: inf
ROOT
ATOM      1  C   UNL     1       4.981 -34.981  21.664  1.00  0.00     0.000 C 
ENDROOT
BRANCH   1   2
ATOM      2  C   UNL     1       5.283 -34.880  20.161  1.00  0.00     0.000 C 
BRANCH   2   3
ATOM      3  C   UNL     1       5.401 -36.274  19.532  1.00  0.00     0.000 C 
BRANCH   3   4
ATOM      4  C   UNL     1       4.117 -36.653  18.779  1.00  0.00    -0.000 C 
BRANCH   4   5
ATOM      5  C   UNL     1       2.936 -36.939  19.730  1.00  0.00    -0.000 C 
BRANCH   5   6
ATOM      6  C   UNL     1       1.683 -37.493  19.021  1.00  0.00    -0.000 C 
BRANCH   6   7
ATOM      7  C   UNL     1       0.891 -36.465  18.192  1.00  0.00    -0.000 C 
BRANCH   7   8
ATOM      8  C   UNL     1       1.092 -36.564  16.668  1.00  0.00    -0.000 C 
BRANCH   8   9
ATOM      9  C   UNL     1       1.826 -35.349  16.081  1.00  0.00    -0.000 C 
BRANCH   9  10
ATOM     10  C   UNL     1       2.699 -35.762  14.886  1.00  0.00    -0.000 C 
BRANCH  10  11
ATOM     11  C   UNL     1       3.865 -36.676  15.292  1.00  0.00    -0.003 C 
ATOM     12  C   UNL     1       4.321 -37.594  14.158  1.00  0.00     0.004 C 
ENDBRANCH  10  11
ENDBRANCH   9  10
ENDBRANCH   8   9
ENDBRANCH   7   8
ENDBRANCH   6   7
ENDBRANCH   5   6
ENDBRANCH   4   5
ENDBRANCH   3   4
ENDBRANCH   2   3
ENDBRANCH   1   2
BRANCH   1  13
ATOM     13  C   UNL     1       5.394 -33.721  22.446  1.00  0.00     0.000 C 
BRANCH  13  14
ATOM     14  C   UNL     1       6.073 -33.985  23.802  1.00  0.00     0.000 C 
BRANCH  14  15
ATOM     15  C   UNL     1       6.107 -35.478  24.172  1.00  0.00     0.000 C 
BRANCH  15  16
ATOM     16  C   UNL     1       5.665 -35.748  25.621  1.00  0.00     0.000 C 
BRANCH  16  17
ATOM     17  C   UNL     1       4.544 -36.794  25.789  1.00  0.00     0.000 C 
BRANCH  17  18
ATOM     18  C   UNL     1       5.024 -38.237  26.026  1.00  0.00     0.000 C 
BRANCH  18  19
ATOM     19  C   UNL     1       5.422 -38.955  24.727  1.00  0.00     0.000 C 
BRANCH  19  20
ATOM     20  C   UNL     1       4.858 -38.223  23.500  1.00  0.00     0.006 C 
BRANCH  20  21
ATOM     21  C   UNL     1       5.712 -38.448  22.246  1.00  0.00     0.053 C 
BRANCH  21  22
ATOM     22  C   UNL     1       5.915 -39.905  21.962  1.00  0.00     0.041 C 
ATOM     23  O   UNL     1       6.122 -40.298  20.784  1.00  0.00    -0.550 OA
ATOM     24  O   UNL     1       5.901 -40.824  23.004  1.00  0.00    -0.550 OA
ENDBRANCH  21  22
ENDBRANCH  20  21
ENDBRANCH  19  20
ENDBRANCH  18  19
ENDBRANCH  17  18
ENDBRANCH  16  17
ENDBRANCH  15  16
ENDBRANCH  14  15
ENDBRANCH  13  14
ENDBRANCH   1  13
TORSDOF 20
ENDMDL
MODEL 3
REMARK VINA RESULT:    -0.398      3.805      7.826
REMARK INTER + INTRA:          -0.999
REMARK INTER:                  -0.576
REMARK INTRA:                  -0.423
REMARK UNBOUND:                -0.135
REMARK SMILES CCCCCCCCCCCCCCCCCCCCCC(=O)[O-]
REMARK SMILES IDX 12 1 11 2 10 3 9 4 8 5 7 6 6 7 5 8 4 9 3 10 2 11 1 12 13 13
REMARK SMILES IDX 14 14 15 15 16 16 17 17 18 18 19 19 20 20 21 21 22 22 23 23
REMARK SMILES IDX 24 24
REMARK H PARENT
REMARK Flexibility Score: inf
ROOT
ATOM      1  C   UNL     1       6.117 -34.989  23.543  1.00  0.00     0.000 C 
ENDROOT
BRANCH   1   2
ATOM      2  C   UNL     1       6.053 -35.123  25.073  1.00  0.00     0.000 C 
BRANCH   2   3
ATOM      3  C   UNL     1       4.743 -35.793  25.508  1.00  0.00     0.000 C 
BRANCH   3   4
ATOM      4  C   UNL     1       4.852 -37.324  25.432  1.00  0.00    -0.000 C 
BRANCH   4   5
ATOM      5  C   UNL     1       5.773 -37.796  24.287  1.00  0.00    -0.000 C 
BRANCH   5   6
ATOM      6  C   UNL     1       5.395 -39.174  23.709  1.00  0.00    -0.000 C 
BRANCH   6   7
ATOM      7  C   UNL     1       5.393 -39.262  22.171  1.00  0.00    -0.000 C 
BRANCH   7   8
ATOM      8  C   UNL     1       5.804 -37.969  21.444  1.00  0.00    -0.000 C 
BRANCH   8   9
ATOM      9  C   UNL     1       5.085 -37.784  20.099  1.00  0.00    -0.000 C 
BRANCH   9  10
ATOM     10  C   UNL     1       3.565 -37.691  20.299  1.00  0.00    -0.000 C 
BRANCH  10  11
ATOM     11  C   UNL     1       2.859 -36.964  19.145  1.00  0.00    -0.003 C 
ATOM     12  C   UNL     1       1.355 -37.233  19.105  1.00  0.00     0.004 C 
ENDBRANCH  10  11
ENDBRANCH   9  10
ENDBRANCH   8   9
ENDBRANCH   7   8
ENDBRANCH   6   7
ENDBRANCH   5   6
ENDBRANCH   4   5
ENDBRANCH   3   4
ENDBRANCH   2   3
ENDBRANCH   1   2
BRANCH   1  13
ATOM     13  C   UNL     1       4.825 -34.415  22.936  1.00  0.00     0.000 C 
BRANCH  13  14
ATOM     14  C   UNL     1       4.753 -34.448  21.399  1.00  0.00     0.000 C 
BRANCH  14  15
ATOM     15  C   UNL     1       6.125 -34.248  20.733  1.00  0.00     0.000 C 
BRANCH  15  16
ATOM     16  C   UNL     1       6.085 -34.434  19.205  1.00  0.00     0.000 C 
BRANCH  16  17
ATOM     17  C   UNL     1       4.693 -34.283  18.556  1.00  0.00     0.000 C 
BRANCH  17  18
ATOM     18  C   UNL     1       4.309 -35.395  17.564  1.00  0.00     0.000 C 
BRANCH  18  19
ATOM     19  C   UNL     1       3.850 -34.851  16.203  1.00  0.00     0.000 C 
BRANCH  19  20
ATOM     20  C   UNL     1       2.480 -35.426  15.815  1.00  0.00     0.006 C 
BRANCH  20  21
ATOM     21  C   UNL     1       2.559 -36.335  14.582  1.00  0.00     0.053 C 
BRANCH  21  22
ATOM     22  C   UNL     1       3.971 -36.725  14.266  1.00  0.00     0.041 C 
ATOM     23  O   UNL     1       4.313 -37.937  14.286  1.00  0.00    -0.550 OA
ATOM     24  O   UNL     1       4.901 -35.751  13.924  1.00  0.00    -0.550 OA
ENDBRANCH  21  22
ENDBRANCH  20  21
ENDBRANCH  19  20
ENDBRANCH  18  19
ENDBRANCH  17  18
ENDBRANCH  16  17
ENDBRANCH  15  16
ENDBRANCH  14  15
ENDBRANCH  13  14
ENDBRANCH   1  13
TORSDOF 20
ENDMDL
MODEL 4
REMARK VINA RESULT:     0.101      2.421      4.339
REMARK INTER + INTRA:           0.085
REMARK INTER:                   0.573
REMARK INTRA:                  -0.488
REMARK UNBOUND:                -0.135
REMARK SMILES CCCCCCCCCCCCCCCCCCCCCC(=O)[O-]
REMARK SMILES IDX 12 1 11 2 10 3 9 4 8 5 7 6 6 7 5 8 4 9 3 10 2 11 1 12 13 13
REMARK SMILES IDX 14 14 15 15 16 16 17 17 18 18 19 19 20 20 21 21 22 22 23 23
REMARK SMILES IDX 24 24
REMARK H PARENT
REMARK Flexibility Score: inf
ROOT
ATOM      1  C   UNL     1       5.383 -37.766  21.763  1.00  0.00     0.000 C 
ENDROOT
BRANCH   1   2
ATOM      2  C   UNL     1       5.922 -37.528  20.344  1.00  0.00     0.000 C 
BRANCH   2   3
ATOM      3  C   UNL     1       4.842 -36.912  19.445  1.00  0.00     0.000 C 
BRANCH   3   4
ATOM      4  C   UNL     1       3.597 -36.529  20.260  1.00  0.00    -0.000 C 
BRANCH   4   5
ATOM      5  C   UNL     1       2.389 -37.441  19.959  1.00  0.00    -0.000 C 
BRANCH   5   6
ATOM      6  C   UNL     1       1.738 -37.182  18.586  1.00  0.00    -0.000 C 
BRANCH   6   7
ATOM      7  C   UNL     1       2.707 -36.747  17.471  1.00  0.00    -0.000 C 
BRANCH   7   8
ATOM      8  C   UNL     1       2.034 -36.279  16.168  1.00  0.00    -0.000 C 
BRANCH   8   9
ATOM      9  C   UNL     1       2.880 -35.260  15.389  1.00  0.00    -0.000 C 
BRANCH   9  10
ATOM     10  C   UNL     1       3.195 -35.776  13.977  1.00  0.00    -0.000 C 
BRANCH  10  11
ATOM     11  C   UNL     1       4.588 -36.416  13.878  1.00  0.00    -0.003 C 
ATOM     12  C   UNL     1       4.571 -37.920  14.151  1.00  0.00     0.004 C 
ENDBRANCH  10  11
ENDBRANCH   9  10
ENDBRANCH   8   9
ENDBRANCH   7   8
ENDBRANCH   6   7
ENDBRANCH   5   6
ENDBRANCH   4   5
ENDBRANCH   3   4
ENDBRANCH   2   3
ENDBRANCH   1   2
BRANCH   1  13
ATOM     13  C   UNL     1       5.580 -39.214  22.245  1.00  0.00     0.000 C 
BRANCH  13  14
ATOM     14  C   UNL     1       4.732 -39.621  23.463  1.00  0.00     0.000 C 
BRANCH  14  15
ATOM     15  C   UNL     1       5.470 -39.421  24.798  1.00  0.00     0.000 C 
BRANCH  15  16
ATOM     16  C   UNL     1       4.804 -38.366  25.701  1.00  0.00     0.000 C 
BRANCH  16  17
ATOM     17  C   UNL     1       5.666 -37.127  26.019  1.00  0.00     0.000 C 
BRANCH  17  18
ATOM     18  C   UNL     1       6.125 -36.315  24.795  1.00  0.00     0.000 C 
BRANCH  18  19
ATOM     19  C   UNL     1       5.038 -35.369  24.264  1.00  0.00     0.000 C 
BRANCH  19  20
ATOM     20  C   UNL     1       5.660 -34.201  23.485  1.00  0.00     0.006 C 
BRANCH  20  21
ATOM     21  C   UNL     1       6.112 -34.615  22.078  1.00  0.00     0.053 C 
BRANCH  21  22
ATOM     22  C   UNL     1       5.288 -33.960  21.012  1.00  0.00     0.041 C 
ATOM     23  O   UNL     1       4.112 -33.586  21.261  1.00  0.00    -0.550 OA
ATOM     24  O   UNL     1       5.831 -33.737  19.752  1.00  0.00    -0.550 OA
ENDBRANCH  21  22
ENDBRANCH  20  21
ENDBRANCH  19  20
ENDBRANCH  18  19
ENDBRANCH  17  18
ENDBRANCH  16  17
ENDBRANCH  15  16
ENDBRANCH  14  15
ENDBRANCH  13  14
ENDBRANCH   1  13
TORSDOF 20
ENDMDL
MODEL 5
REMARK VINA RESULT:     0.154      1.803      2.026
REMARK INTER + INTRA:           0.199
REMARK INTER:                   0.114
REMARK INTRA:                   0.085
REMARK UNBOUND:                -0.135
REMARK SMILES CCCCCCCCCCCCCCCCCCCCCC(=O)[O-]
REMARK SMILES IDX 12 1 11 2 10 3 9 4 8 5 7 6 6 7 5 8 4 9 3 10 2 11 1 12 13 13
REMARK SMILES IDX 14 14 15 15 16 16 17 17 18 18 19 19 20 20 21 21 22 22 23 23
REMARK SMILES IDX 24 24
REMARK H PARENT
REMARK Flexibility Score: inf
ROOT
ATOM      1  C   UNL     1       3.490 -36.336  18.771  1.00  0.00     0.000 C 
ENDROOT
BRANCH   1   2
ATOM      2  C   UNL     1       2.633 -37.299  19.608  1.00  0.00     0.000 C 
BRANCH   2   3
ATOM      3  C   UNL     1       1.292 -37.577  18.917  1.00  0.00     0.000 C 
BRANCH   3   4
ATOM      4  C   UNL     1       1.083 -36.642  17.716  1.00  0.00    -0.000 C 
BRANCH   4   5
ATOM      5  C   UNL     1       2.275 -36.660  16.737  1.00  0.00    -0.000 C 
BRANCH   5   6
ATOM      6  C   UNL     1       2.086 -35.752  15.505  1.00  0.00    -0.000 C 
BRANCH   6   7
ATOM      7  C   UNL     1       3.385 -35.350  14.782  1.00  0.00    -0.000 C 
BRANCH   7   8
ATOM      8  C   UNL     1       3.991 -36.439  13.877  1.00  0.00    -0.000 C 
BRANCH   8   9
ATOM      9  C   UNL     1       4.644 -37.580  14.670  1.00  0.00    -0.000 C 
BRANCH   9  10
ATOM     10  C   UNL     1       4.598 -38.895  13.876  1.00  0.00    -0.000 C 
BRANCH  10  11
ATOM     11  C   UNL     1       5.760 -39.837  14.223  1.00  0.00    -0.003 C 
ATOM     12  C   UNL     1       5.360 -41.313  14.181  1.00  0.00     0.004 C 
ENDBRANCH  10  11
ENDBRANCH   9  10
ENDBRANCH   8   9
ENDBRANCH   7   8
ENDBRANCH   6   7
ENDBRANCH   5   6
ENDBRANCH   4   5
ENDBRANCH   3   4
ENDBRANCH   2   3
ENDBRANCH   1   2
BRANCH   1  13
ATOM     13  C   UNL     1       4.988 -36.414  19.113  1.00  0.00     0.000 C 
BRANCH  13  14
ATOM     14  C   UNL     1       5.340 -36.129  20.584  1.00  0.00     0.000 C 
BRANCH  14  15
ATOM     15  C   UNL     1       6.080 -34.793  20.773  1.00  0.00     0.000 C 
BRANCH  15  16
ATOM     16  C   UNL     1       6.045 -34.286  22.226  1.00  0.00     0.000 C 
BRANCH  16  17
ATOM     17  C   UNL     1       4.747 -34.590  23.002  1.00  0.00     0.000 C 
BRANCH  17  18
ATOM     18  C   UNL     1       4.920 -35.483  24.244  1.00  0.00     0.000 C 
BRANCH  18  19
ATOM     19  C   UNL     1       6.123 -36.431  24.135  1.00  0.00     0.000 C 
BRANCH  19  20
ATOM     20  C   UNL     1       5.764 -37.835  24.645  1.00  0.00     0.006 C 
BRANCH  20  21
ATOM     21  C   UNL     1       4.749 -38.541  23.736  1.00  0.00     0.053 C 
BRANCH  21  22
ATOM     22  C   UNL     1       5.382 -39.646  22.946  1.00  0.00     0.041 C 
ATOM     23  O   UNL     1       5.603 -39.497  21.715  1.00  0.00    -0.550 OA
ATOM     24  O   UNL     1       5.752 -40.828  23.576  1.00  0.00    -0.550 OA
ENDBRANCH  21  22
ENDBRANCH  20  21
ENDBRANCH  19  20
ENDBRANCH  18  19
ENDBRANCH  17  18
ENDBRANCH  16  17
ENDBRANCH  15  16
ENDBRANCH  14  15
ENDBRANCH  13  14
ENDBRANCH   1  13
TORSDOF 20
ENDMDL
MODEL 6
REMARK VINA RESULT:     0.228      1.778      2.825
REMARK INTER + INTRA:           0.360
REMARK INTER:                   1.936
REMARK INTRA:                  -1.576
REMARK UNBOUND:                -0.135
REMARK SMILES CCCCCCCCCCCCCCCCCCCCCC(=O)[O-]
REMARK SMILES IDX 12 1 11 2 10 3 9 4 8 5 7 6 6 7 5 8 4 9 3 10 2 11 1 12 13 13
REMARK SMILES IDX 14 14 15 15 16 16 17 17 18 18 19 19 20 20 21 21 22 22 23 23
REMARK SMILES IDX 24 24
REMARK H PARENT
REMARK Flexibility Score: inf
ROOT
ATOM      1  C   UNL     1       2.061 -37.353  19.271  1.00  0.00     0.000 C 
ENDROOT
BRANCH   1   2
ATOM      2  C   UNL     1       1.106 -36.704  18.257  1.00  0.00     0.000 C 
BRANCH   2   3
ATOM      3  C   UNL     1       1.805 -36.489  16.909  1.00  0.00     0.000 C 
BRANCH   3   4
ATOM      4  C   UNL     1       1.413 -35.137  16.292  1.00  0.00    -0.000 C 
BRANCH   4   5
ATOM      5  C   UNL     1       1.544 -35.129  14.754  1.00  0.00    -0.000 C 
BRANCH   5   6
ATOM      6  C   UNL     1       2.569 -36.144  14.209  1.00  0.00    -0.000 C 
BRANCH   6   7
ATOM      7  C   UNL     1       4.043 -35.810  14.504  1.00  0.00    -0.000 C 
BRANCH   7   8
ATOM      8  C   UNL     1       5.046 -36.923  14.149  1.00  0.00    -0.000 C 
BRANCH   8   9
ATOM      9  C   UNL     1       4.370 -38.278  13.888  1.00  0.00    -0.000 C 
BRANCH   9  10
ATOM     10  C   UNL     1       5.046 -39.393  14.700  1.00  0.00    -0.000 C 
BRANCH  10  11
ATOM     11  C   UNL     1       6.067 -40.190  13.875  1.00  0.00    -0.003 C 
ATOM     12  C   UNL     1       5.996 -41.695  14.136  1.00  0.00     0.004 C 
ENDBRANCH  10  11
ENDBRANCH   9  10
ENDBRANCH   8   9
ENDBRANCH   7   8
ENDBRANCH   6   7
ENDBRANCH   5   6
ENDBRANCH   4   5
ENDBRANCH   3   4
ENDBRANCH   2   3
ENDBRANCH   1   2
BRANCH   1  13
ATOM     13  C   UNL     1       3.545 -37.130  18.927  1.00  0.00     0.000 C 
BRANCH  13  14
ATOM     14  C   UNL     1       4.284 -36.131  19.836  1.00  0.00     0.000 C 
BRANCH  14  15
ATOM     15  C   UNL     1       5.684 -36.621  20.246  1.00  0.00     0.000 C 
BRANCH  15  16
ATOM     16  C   UNL     1       5.787 -38.156  20.313  1.00  0.00     0.000 C 
BRANCH  16  17
ATOM     17  C   UNL     1       6.075 -38.740  21.712  1.00  0.00     0.000 C 
BRANCH  17  18
ATOM     18  C   UNL     1       4.860 -38.812  22.654  1.00  0.00     0.000 C 
BRANCH  18  19
ATOM     19  C   UNL     1       5.176 -38.323  24.075  1.00  0.00     0.000 C 
BRANCH  19  20
ATOM     20  C   UNL     1       6.065 -37.072  24.040  1.00  0.00     0.006 C 
BRANCH  20  21
ATOM     21  C   UNL     1       5.461 -35.906  24.834  1.00  0.00     0.053 C 
BRANCH  21  22
ATOM     22  C   UNL     1       5.497 -34.625  24.059  1.00  0.00     0.041 C 
ATOM     23  O   UNL     1       6.072 -33.612  24.536  1.00  0.00    -0.550 OA
ATOM     24  O   UNL     1       4.918 -34.559  22.797  1.00  0.00    -0.550 OA
ENDBRANCH  21  22
ENDBRANCH  20  21
ENDBRANCH  19  20
ENDBRANCH  18  19
ENDBRANCH  17  18
ENDBRANCH  16  17
ENDBRANCH  15  16
ENDBRANCH  14  15
ENDBRANCH  13  14
ENDBRANCH   1  13
TORSDOF 20
ENDMDL
MODEL 7
REMARK VINA RESULT:     0.475      2.669      5.216
REMARK INTER + INTRA:           0.895
REMARK INTER:                   2.396
REMARK INTRA:                  -1.502
REMARK UNBOUND:                -0.135
REMARK SMILES CCCCCCCCCCCCCCCCCCCCCC(=O)[O-]
REMARK SMILES IDX 12 1 11 2 10 3 9 4 8 5 7 6 6 7 5 8 4 9 3 10 2 11 1 12 13 13
REMARK SMILES IDX 14 14 15 15 16 16 17 17 18 18 19 19 20 20 21 21 22 22 23 23
REMARK SMILES IDX 24 24
REMARK H PARENT
REMARK Flexibility Score: inf
ROOT
ATOM      1  C   UNL     1       4.121 -34.242  22.480  1.00  0.00     0.000 C 
ENDROOT
BRANCH   1   2
ATOM      2  C   UNL     1       4.424 -34.119  20.979  1.00  0.00     0.000 C 
BRANCH   2   3
ATOM      3  C   UNL     1       5.894 -34.448  20.689  1.00  0.00     0.000 C 
BRANCH   3   4
ATOM      4  C   UNL     1       6.125 -34.677  19.187  1.00  0.00    -0.000 C 
BRANCH   4   5
ATOM      5  C   UNL     1       5.724 -33.455  18.334  1.00  0.00    -0.000 C 
BRANCH   5   6
ATOM      6  C   UNL     1       4.674 -33.768  17.249  1.00  0.00    -0.000 C 
BRANCH   6   7
ATOM      7  C   UNL     1       4.407 -35.266  17.008  1.00  0.00    -0.000 C 
BRANCH   7   8
ATOM      8  C   UNL     1       3.401 -35.575  15.883  1.00  0.00    -0.000 C 
BRANCH   8   9
ATOM      9  C   UNL     1       2.060 -36.109  16.409  1.00  0.00    -0.000 C 
BRANCH   9  10
ATOM     10  C   UNL     1       2.178 -36.528  17.882  1.00  0.00    -0.000 C 
BRANCH  10  11
ATOM     11  C   UNL     1       0.968 -37.344  18.363  1.00  0.00    -0.003 C 
ATOM     12  C   UNL     1       0.516 -36.959  19.773  1.00  0.00     0.004 C 
ENDBRANCH  10  11
ENDBRANCH   9  10
ENDBRANCH   8   9
ENDBRANCH   7   8
ENDBRANCH   6   7
ENDBRANCH   5   6
ENDBRANCH   4   5
ENDBRANCH   3   4
ENDBRANCH   2   3
ENDBRANCH   1   2
BRANCH   1  13
ATOM     13  C   UNL     1       5.361 -34.016  23.363  1.00  0.00     0.000 C 
BRANCH  13  14
ATOM     14  C   UNL     1       6.087 -35.296  23.813  1.00  0.00     0.000 C 
BRANCH  14  15
ATOM     15  C   UNL     1       6.072 -35.486  25.340  1.00  0.00     0.000 C 
BRANCH  15  16
ATOM     16  C   UNL     1       4.792 -36.173  25.847  1.00  0.00     0.000 C 
BRANCH  16  17
ATOM     17  C   UNL     1       4.827 -37.715  25.861  1.00  0.00     0.000 C 
BRANCH  17  18
ATOM     18  C   UNL     1       5.725 -38.359  24.790  1.00  0.00     0.000 C 
BRANCH  18  19
ATOM     19  C   UNL     1       5.025 -39.492  24.025  1.00  0.00     0.000 C 
BRANCH  19  20
ATOM     20  C   UNL     1       5.516 -39.558  22.571  1.00  0.00     0.006 C 
BRANCH  20  21
ATOM     21  C   UNL     1       5.946 -38.185  22.040  1.00  0.00     0.053 C 
BRANCH  21  22
ATOM     22  C   UNL     1       5.433 -37.938  20.653  1.00  0.00     0.041 C 
ATOM     23  O   UNL     1       6.118 -38.282  19.655  1.00  0.00    -0.550 OA
ATOM     24  O   UNL     1       4.187 -37.353  20.467  1.00  0.00    -0.550 OA
ENDBRANCH  21  22
ENDBRANCH  20  21
ENDBRANCH  19  20
ENDBRANCH  18  19
ENDBRANCH  17  18
ENDBRANCH  16  17
ENDBRANCH  15  16
ENDBRANCH  14  15
ENDBRANCH  13  14
ENDBRANCH   1  13
TORSDOF 20
ENDMDL
