MODEL 1
REMARK VINA RESULT:    -3.672      0.000      0.000
REMARK INTER + INTRA:          -5.677
REMARK INTER:                  -4.960
REMARK INTRA:                  -0.718
REMARK UNBOUND:                -0.718
REMARK SMILES O=C[C@H](O)[C@@H](O)[C@H](O)CO
REMARK SMILES IDX 7 1 9 2 10 3 5 5 3 6 2 7 1 8 4 9 6 11 8 13
REMARK H PARENT 10 4 4 10 6 12 8 14
REMARK Flexibility Score: inf
ROOT
ATOM      1  C   UNL     1      13.039  18.083  40.560  1.00  0.00     0.171 C 
ENDROOT
BRANCH   1   2
ATOM      2  C   UNL     1      12.562  18.086  42.023  1.00  0.00     0.190 C 
BRANCH   2   3
ATOM      3  O   UNL     1      13.289  19.019  42.776  1.00  0.00    -0.394 OA
ATOM      4  H   UNL     1      13.598  18.538  43.586  1.00  0.00     0.210 HD
ENDBRANCH   2   3
ENDBRANCH   1   2
BRANCH   1   5
ATOM      5  C   UNL     1      12.154  18.949  39.624  1.00  0.00     0.181 C 
BRANCH   5   6
ATOM      6  C   UNL     1      12.796  19.187  38.232  1.00  0.00     0.209 C 
BRANCH   6   7
ATOM      7  C   UNL     1      12.108  18.385  37.156  1.00  0.00     0.258 C 
ATOM      8  O   UNL     1      12.057  17.169  37.239  1.00  0.00    -0.300 OA
ENDBRANCH   6   7
BRANCH   6   9
ATOM      9  O   UNL     1      14.174  18.905  38.248  1.00  0.00    -0.383 OA
ATOM     10  H   UNL     1      14.542  19.150  37.359  1.00  0.00     0.211 HD
ENDBRANCH   6   9
ENDBRANCH   5   6
BRANCH   5  11
ATOM     11  O   UNL     1      10.908  18.318  39.454  1.00  0.00    -0.387 OA
ATOM     12  H   UNL     1      11.083  17.346  39.349  1.00  0.00     0.211 HD
ENDBRANCH   5  11
ENDBRANCH   1   5
BRANCH   1  13
ATOM     13  O   UNL     1      13.047  16.762  40.083  1.00  0.00    -0.388 OA
ATOM     14  H   UNL     1      13.401  16.191  40.814  1.00  0.00     0.211 HD
ENDBRANCH   1  13
TORSDOF 8
ENDMDL
MODEL 2
REMARK VINA RESULT:    -3.353      2.295      4.334
REMARK INTER + INTRA:          -5.246
REMARK INTER:                  -4.729
REMARK INTRA:                  -0.517
REMARK UNBOUND:                -0.718
REMARK SMILES O=C[C@H](O)[C@@H](O)[C@H](O)CO
REMARK SMILES IDX 7 1 9 2 10 3 5 5 3 6 2 7 1 8 4 9 6 11 8 13
REMARK H PARENT 10 4 4 10 6 12 8 14
REMARK Flexibility Score: inf
ROOT
ATOM      1  C   UNL     1      10.884  15.778  37.586  1.00  0.00     0.171 C 
ENDROOT
BRANCH   1   2
ATOM      2  C   UNL     1       9.518  15.560  36.911  1.00  0.00     0.190 C 
BRANCH   2   3
ATOM      3  O   UNL     1       9.684  15.040  35.620  1.00  0.00    -0.394 OA
ATOM      4  H   UNL     1       8.892  15.334  35.101  1.00  0.00     0.210 HD
ENDBRANCH   2   3
ENDBRANCH   1   2
BRANCH   1   5
ATOM      5  C   UNL     1      11.039  17.185  38.221  1.00  0.00     0.181 C 
BRANCH   5   6
ATOM      6  C   UNL     1      12.462  17.776  38.046  1.00  0.00     0.209 C 
BRANCH   6   7
ATOM      7  C   UNL     1      12.769  18.810  39.100  1.00  0.00     0.258 C 
ATOM      8  O   UNL     1      11.862  19.436  39.626  1.00  0.00    -0.300 OA
ENDBRANCH   6   7
BRANCH   6   9
ATOM      9  O   UNL     1      12.637  18.320  36.762  1.00  0.00    -0.383 OA
ATOM     10  H   UNL     1      13.068  19.208  36.866  1.00  0.00     0.211 HD
ENDBRANCH   6   9
ENDBRANCH   5   6
BRANCH   5  11
ATOM     11  O   UNL     1      10.103  18.059  37.637  1.00  0.00    -0.387 OA
ATOM     12  H   UNL     1      10.550  18.497  36.867  1.00  0.00     0.211 HD
ENDBRANCH   5  11
ENDBRANCH   1   5
BRANCH   1  13
ATOM     13  O   UNL     1      11.901  15.594  36.635  1.00  0.00    -0.388 OA
ATOM     14  H   UNL     1      12.606  15.043  37.066  1.00  0.00     0.211 HD
ENDBRANCH   1  13
TORSDOF 8
ENDMDL
MODEL 3
REMARK VINA RESULT:    -3.276      2.111      3.274
REMARK INTER + INTRA:          -5.143
REMARK INTER:                  -4.225
REMARK INTRA:                  -0.918
REMARK UNBOUND:                -0.718
REMARK SMILES O=C[C@H](O)[C@@H](O)[C@H](O)CO
REMARK SMILES IDX 7 1 9 2 10 3 5 5 3 6 2 7 1 8 4 9 6 11 8 13
REMARK H PARENT 10 4 4 10 6 12 8 14
REMARK Flexibility Score: inf
ROOT
ATOM      1  C   UNL     1      11.810  18.565  37.700  1.00  0.00     0.171 C 
ENDROOT
BRANCH   1   2
ATOM      2  C   UNL     1      12.373  18.946  39.081  1.00  0.00     0.190 C 
BRANCH   2   3
ATOM      3  O   UNL     1      13.229  17.944  39.557  1.00  0.00    -0.394 OA
ATOM      4  H   UNL     1      12.998  17.816  40.513  1.00  0.00     0.210 HD
ENDBRANCH   2   3
ENDBRANCH   1   2
BRANCH   1   5
ATOM      5  C   UNL     1      10.809  17.380  37.750  1.00  0.00     0.181 C 
BRANCH   5   6
ATOM      6  C   UNL     1      11.411  16.055  37.215  1.00  0.00     0.209 C 
BRANCH   6   7
ATOM      7  C   UNL     1      10.338  15.103  36.751  1.00  0.00     0.258 C 
ATOM      8  O   UNL     1       9.168  15.449  36.759  1.00  0.00    -0.300 OA
ENDBRANCH   6   7
BRANCH   6   9
ATOM      9  O   UNL     1      12.229  15.438  38.178  1.00  0.00    -0.383 OA
ATOM     10  H   UNL     1      12.803  14.778  37.709  1.00  0.00     0.211 HD
ENDBRANCH   6   9
ENDBRANCH   5   6
BRANCH   5  11
ATOM     11  O   UNL     1      10.386  17.191  39.078  1.00  0.00    -0.387 OA
ATOM     12  H   UNL     1      10.959  17.762  39.653  1.00  0.00     0.211 HD
ENDBRANCH   5  11
ENDBRANCH   1   5
BRANCH   1  13
ATOM     13  O   UNL     1      12.874  18.225  36.848  1.00  0.00    -0.388 OA
ATOM     14  H   UNL     1      13.713  18.369  37.359  1.00  0.00     0.211 HD
ENDBRANCH   1  13
TORSDOF 8
ENDMDL
MODEL 4
REMARK VINA RESULT:    -3.266      0.971      3.983
REMARK INTER + INTRA:          -5.129
REMARK INTER:                  -4.146
REMARK INTRA:                  -0.983
REMARK UNBOUND:                -0.718
REMARK SMILES O=C[C@H](O)[C@@H](O)[C@H](O)CO
REMARK SMILES IDX 7 1 9 2 10 3 5 5 3 6 2 7 1 8 4 9 6 11 8 13
REMARK H PARENT 10 4 4 10 6 12 8 14
REMARK Flexibility Score: inf
ROOT
ATOM      1  C   UNL     1      10.957  18.393  38.659  1.00  0.00     0.171 C 
ENDROOT
BRANCH   1   2
ATOM      2  C   UNL     1      11.609  18.232  37.274  1.00  0.00     0.190 C 
BRANCH   2   3
ATOM      3  O   UNL     1      12.284  17.007  37.187  1.00  0.00    -0.394 OA
ATOM      4  H   UNL     1      11.965  16.462  37.952  1.00  0.00     0.210 HD
ENDBRANCH   2   3
ENDBRANCH   1   2
BRANCH   1   5
ATOM      5  C   UNL     1      11.983  18.649  39.795  1.00  0.00     0.181 C 
BRANCH   5   6
ATOM      6  C   UNL     1      12.135  17.443  40.759  1.00  0.00     0.209 C 
BRANCH   6   7
ATOM      7  C   UNL     1      12.791  17.845  42.055  1.00  0.00     0.258 C 
ATOM      8  O   UNL     1      13.293  18.951  42.170  1.00  0.00    -0.300 OA
ENDBRANCH   6   7
BRANCH   6   9
ATOM      9  O   UNL     1      12.847  16.391  40.155  1.00  0.00    -0.383 OA
ATOM     10  H   UNL     1      13.814  16.562  40.297  1.00  0.00     0.211 HD
ENDBRANCH   6   9
ENDBRANCH   5   6
BRANCH   5  11
ATOM     11  O   UNL     1      13.235  18.945  39.227  1.00  0.00    -0.387 OA
ATOM     12  H   UNL     1      13.072  19.548  38.455  1.00  0.00     0.211 HD
ENDBRANCH   5  11
ENDBRANCH   1   5
BRANCH   1  13
ATOM     13  O   UNL     1      10.226  17.232  38.960  1.00  0.00    -0.388 OA
ATOM     14  H   UNL     1      10.883  16.536  39.226  1.00  0.00     0.211 HD
ENDBRANCH   1  13
TORSDOF 8
ENDMDL
MODEL 5
REMARK VINA RESULT:    -3.254      2.237      3.774
REMARK INTER + INTRA:          -5.113
REMARK INTER:                  -4.206
REMARK INTRA:                  -0.907
REMARK UNBOUND:                -0.718
REMARK SMILES O=C[C@H](O)[C@@H](O)[C@H](O)CO
REMARK SMILES IDX 7 1 9 2 10 3 5 5 3 6 2 7 1 8 4 9 6 11 8 13
REMARK H PARENT 10 4 4 10 6 12 8 14
REMARK Flexibility Score: inf
ROOT
ATOM      1  C   UNL     1      12.501  18.027  38.856  1.00  0.00     0.171 C 
ENDROOT
BRANCH   1   2
ATOM      2  C   UNL     1      13.319  18.642  37.706  1.00  0.00     0.190 C 
BRANCH   2   3
ATOM      3  O   UNL     1      12.475  19.039  36.660  1.00  0.00    -0.394 OA
ATOM      4  H   UNL     1      12.794  18.559  35.852  1.00  0.00     0.210 HD
ENDBRANCH   2   3
ENDBRANCH   1   2
BRANCH   1   5
ATOM      5  C   UNL     1      11.658  16.799  38.422  1.00  0.00     0.181 C 
BRANCH   5   6
ATOM      6  C   UNL     1      10.131  17.072  38.445  1.00  0.00     0.209 C 
BRANCH   6   7
ATOM      7  C   UNL     1       9.340  15.844  38.073  1.00  0.00     0.258 C 
ATOM      8  O   UNL     1       9.257  15.500  36.905  1.00  0.00    -0.300 OA
ENDBRANCH   6   7
BRANCH   6   9
ATOM      9  O   UNL     1       9.790  18.147  37.606  1.00  0.00    -0.383 OA
ATOM     10  H   UNL     1       9.284  18.806  38.149  1.00  0.00     0.211 HD
ENDBRANCH   6   9
ENDBRANCH   5   6
BRANCH   5  11
ATOM     11  O   UNL     1      12.038  16.415  37.123  1.00  0.00    -0.387 OA
ATOM     12  H   UNL     1      11.350  16.767  36.500  1.00  0.00     0.211 HD
ENDBRANCH   5  11
ENDBRANCH   1   5
BRANCH   1  13
ATOM     13  O   UNL     1      11.641  19.005  39.382  1.00  0.00    -0.388 OA
ATOM     14  H   UNL     1      10.726  18.617  39.385  1.00  0.00     0.211 HD
ENDBRANCH   1  13
TORSDOF 8
ENDMDL
MODEL 6
REMARK VINA RESULT:    -3.254      1.316      1.839
REMARK INTER + INTRA:          -5.113
REMARK INTER:                  -4.367
REMARK INTRA:                  -0.746
REMARK UNBOUND:                -0.718
REMARK SMILES O=C[C@H](O)[C@@H](O)[C@H](O)CO
REMARK SMILES IDX 7 1 9 2 10 3 5 5 3 6 2 7 1 8 4 9 6 11 8 13
REMARK H PARENT 10 4 4 10 6 12 8 14
REMARK Flexibility Score: inf
ROOT
ATOM      1  C   UNL     1      13.210  17.205  41.183  1.00  0.00     0.171 C 
ENDROOT
BRANCH   1   2
ATOM      2  C   UNL     1      12.548  17.899  42.387  1.00  0.00     0.190 C 
BRANCH   2   3
ATOM      3  O   UNL     1      13.264  19.048  42.748  1.00  0.00    -0.394 OA
ATOM      4  H   UNL     1      12.593  19.696  43.085  1.00  0.00     0.210 HD
ENDBRANCH   2   3
ENDBRANCH   1   2
BRANCH   1   5
ATOM      5  C   UNL     1      12.882  17.884  39.826  1.00  0.00     0.181 C 
BRANCH   5   6
ATOM      6  C   UNL     1      12.063  16.975  38.874  1.00  0.00     0.209 C 
BRANCH   6   7
ATOM      7  C   UNL     1      12.060  17.505  37.463  1.00  0.00     0.258 C 
ATOM      8  O   UNL     1      12.683  18.518  37.189  1.00  0.00    -0.300 OA
ENDBRANCH   6   7
BRANCH   6   9
ATOM      9  O   UNL     1      10.746  16.804  39.336  1.00  0.00    -0.383 OA
ATOM     10  H   UNL     1      10.213  17.581  39.023  1.00  0.00     0.211 HD
ENDBRANCH   6   9
ENDBRANCH   5   6
BRANCH   5  11
ATOM     11  O   UNL     1      12.161  19.068  40.067  1.00  0.00    -0.387 OA
ATOM     12  H   UNL     1      12.059  19.155  41.051  1.00  0.00     0.211 HD
ENDBRANCH   5  11
ENDBRANCH   1   5
BRANCH   1  13
ATOM     13  O   UNL     1      12.786  15.867  41.134  1.00  0.00    -0.388 OA
ATOM     14  H   UNL     1      12.189  15.779  40.345  1.00  0.00     0.211 HD
ENDBRANCH   1  13
TORSDOF 8
ENDMDL
MODEL 7
REMARK VINA RESULT:    -3.246      1.864      3.910
REMARK INTER + INTRA:          -5.103
REMARK INTER:                  -4.154
REMARK INTRA:                  -0.948
REMARK UNBOUND:                -0.718
REMARK SMILES O=C[C@H](O)[C@@H](O)[C@H](O)CO
REMARK SMILES IDX 7 1 9 2 10 3 5 5 3 6 2 7 1 8 4 9 6 11 8 13
REMARK H PARENT 10 4 4 10 6 12 8 14
REMARK Flexibility Score: inf
ROOT
ATOM      1  C   UNL     1       9.781  17.852  37.687  1.00  0.00     0.171 C 
ENDROOT
BRANCH   1   2
ATOM      2  C   UNL     1       9.399  16.374  37.490  1.00  0.00     0.190 C 
BRANCH   2   3
ATOM      3  O   UNL     1       9.713  15.628  38.634  1.00  0.00    -0.394 OA
ATOM      4  H   UNL     1      10.318  16.197  39.176  1.00  0.00     0.210 HD
ENDBRANCH   2   3
ENDBRANCH   1   2
BRANCH   1   5
ATOM      5  C   UNL     1      11.314  18.094  37.710  1.00  0.00     0.181 C 
BRANCH   5   6
ATOM      6  C   UNL     1      11.858  18.405  39.128  1.00  0.00     0.209 C 
BRANCH   6   7
ATOM      7  C   UNL     1      13.346  18.647  39.114  1.00  0.00     0.258 C 
ATOM      8  O   UNL     1      13.903  18.969  38.077  1.00  0.00    -0.300 OA
ENDBRANCH   6   7
BRANCH   6   9
ATOM      9  O   UNL     1      11.538  17.379  40.036  1.00  0.00    -0.383 OA
ATOM     10  H   UNL     1      12.342  17.205  40.591  1.00  0.00     0.211 HD
ENDBRANCH   6   9
ENDBRANCH   5   6
BRANCH   5  11
ATOM     11  O   UNL     1      11.966  16.954  37.205  1.00  0.00    -0.387 OA
ATOM     12  H   UNL     1      12.780  16.813  37.757  1.00  0.00     0.211 HD
ENDBRANCH   5  11
ENDBRANCH   1   5
BRANCH   1  13
ATOM     13  O   UNL     1       9.231  18.311  38.895  1.00  0.00    -0.388 OA
ATOM     14  H   UNL     1       8.258  18.439  38.742  1.00  0.00     0.211 HD
ENDBRANCH   1  13
TORSDOF 8
ENDMDL
MODEL 8
REMARK VINA RESULT:    -3.224      1.627      3.805
REMARK INTER + INTRA:          -5.073
REMARK INTER:                  -4.114
REMARK INTRA:                  -0.958
REMARK UNBOUND:                -0.718
REMARK SMILES O=C[C@H](O)[C@@H](O)[C@H](O)CO
REMARK SMILES IDX 7 1 9 2 10 3 5 5 3 6 2 7 1 8 4 9 6 11 8 13
REMARK H PARENT 10 4 4 10 6 12 8 14
REMARK Flexibility Score: inf
ROOT
ATOM      1  C   UNL     1      11.932  16.808  37.829  1.00  0.00     0.171 C 
ENDROOT
BRANCH   1   2
ATOM      2  C   UNL     1      10.433  16.632  37.531  1.00  0.00     0.190 C 
BRANCH   2   3
ATOM      3  O   UNL     1       9.748  17.840  37.720  1.00  0.00    -0.394 OA
ATOM      4  H   UNL     1      10.078  18.456  37.016  1.00  0.00     0.210 HD
ENDBRANCH   2   3
ENDBRANCH   1   2
BRANCH   1   5
ATOM      5  C   UNL     1      12.241  16.999  39.337  1.00  0.00     0.181 C 
BRANCH   5   6
ATOM      6  C   UNL     1      12.606  18.462  39.702  1.00  0.00     0.209 C 
BRANCH   6   7
ATOM      7  C   UNL     1      12.972  18.598  41.158  1.00  0.00     0.258 C 
ATOM      8  O   UNL     1      13.343  17.623  41.790  1.00  0.00    -0.300 OA
ENDBRANCH   6   7
BRANCH   6   9
ATOM      9  O   UNL     1      11.565  19.347  39.373  1.00  0.00    -0.383 OA
ATOM     10  H   UNL     1      11.227  19.743  40.218  1.00  0.00     0.211 HD
ENDBRANCH   6   9
ENDBRANCH   5   6
BRANCH   5  11
ATOM     11  O   UNL     1      11.121  16.602  40.090  1.00  0.00    -0.387 OA
ATOM     12  H   UNL     1      10.780  17.410  40.557  1.00  0.00     0.211 HD
ENDBRANCH   5  11
ENDBRANCH   1   5
BRANCH   1  13
ATOM     13  O   UNL     1      12.413  17.923  37.122  1.00  0.00    -0.388 OA
ATOM     14  H   UNL     1      11.730  18.639  37.209  1.00  0.00     0.211 HD
ENDBRANCH   1  13
TORSDOF 8
ENDMDL
MODEL 9
REMARK VINA RESULT:    -3.130      1.617      3.763
REMARK INTER + INTRA:          -4.945
REMARK INTER:                  -4.034
REMARK INTRA:                  -0.910
REMARK UNBOUND:                -0.718
REMARK SMILES O=C[C@H](O)[C@@H](O)[C@H](O)CO
REMARK SMILES IDX 7 1 9 2 10 3 5 5 3 6 2 7 1 8 4 9 6 11 8 13
REMARK H PARENT 10 4 4 10 6 12 8 14
REMARK Flexibility Score: inf
ROOT
ATOM      1  C   UNL     1      12.537  18.735  39.193  1.00  0.00     0.171 C 
ENDROOT
BRANCH   1   2
ATOM      2  C   UNL     1      13.161  19.282  37.897  1.00  0.00     0.190 C 
BRANCH   2   3
ATOM      3  O   UNL     1      12.759  18.516  36.795  1.00  0.00    -0.394 OA
ATOM      4  H   UNL     1      12.868  19.099  36.000  1.00  0.00     0.210 HD
ENDBRANCH   2   3
ENDBRANCH   1   2
BRANCH   1   5
ATOM      5  C   UNL     1      12.959  17.275  39.509  1.00  0.00     0.181 C 
BRANCH   5   6
ATOM      6  C   UNL     1      12.594  16.837  40.952  1.00  0.00     0.209 C 
BRANCH   6   7
ATOM      7  C   UNL     1      11.449  15.857  40.963  1.00  0.00     0.258 C 
ATOM      8  O   UNL     1      10.380  16.158  40.457  1.00  0.00    -0.300 OA
ENDBRANCH   6   7
BRANCH   6   9
ATOM      9  O   UNL     1      12.297  17.946  41.764  1.00  0.00    -0.383 OA
ATOM     10  H   UNL     1      12.383  17.658  42.711  1.00  0.00     0.211 HD
ENDBRANCH   6   9
ENDBRANCH   5   6
BRANCH   5  11
ATOM     11  O   UNL     1      12.338  16.407  38.593  1.00  0.00    -0.387 OA
ATOM     12  H   UNL     1      12.712  15.501  38.747  1.00  0.00     0.211 HD
ENDBRANCH   5  11
ENDBRANCH   1   5
BRANCH   1  13
ATOM     13  O   UNL     1      11.137  18.789  39.087  1.00  0.00    -0.388 OA
ATOM     14  H   UNL     1      10.923  18.919  38.126  1.00  0.00     0.211 HD
ENDBRANCH   1  13
TORSDOF 8
ENDMDL
