MODEL 1
REMARK VINA RESULT:    -5.183      0.000      0.000
REMARK INTER + INTRA:          -5.334
REMARK INTER:                  -5.334
REMARK INTRA:                   0.000
REMARK UNBOUND:                 0.000
REMARK SMILES O=c1ccc2ccc(O)cc2o1
REMARK SMILES IDX 6 1 7 2 8 3 10 4 11 5 5 6 4 7 3 8 2 9 1 10 12 11 9 12
REMARK H PARENT 9 13
REMARK Flexibility Score: inf
ROOT
ATOM      1  C   UNL     1      49.020  13.262  18.116  1.00  0.00     0.016 A 
ATOM      2  C   UNL     1      48.847  13.994  19.294  1.00  0.00     0.047 A 
ATOM      3  C   UNL     1      49.232  15.339  19.355  1.00  0.00     0.119 A 
ATOM      4  C   UNL     1      49.794  15.957  18.228  1.00  0.00     0.094 A 
ATOM      5  C   UNL     1      49.972  15.233  17.044  1.00  0.00     0.142 A 
ATOM      6  C   UNL     1      49.582  13.876  16.987  1.00  0.00     0.018 A 
ATOM      7  C   UNL     1      49.772  13.178  15.791  1.00  0.00     0.019 A 
ATOM      8  C   UNL     1      50.335  13.834  14.697  1.00  0.00     0.094 A 
ATOM      9  C   UNL     1      50.697  15.180  14.827  1.00  0.00     0.336 A 
ATOM     10  O   UNL     1      51.207  15.790  13.851  1.00  0.00    -0.246 OA
ATOM     11  O   UNL     1      50.506  15.821  15.977  1.00  0.00    -0.423 OA
ENDROOT
BRANCH   3  12
ATOM     12  O   UNL     1      49.051  16.052  20.538  1.00  0.00    -0.508 OA
ATOM     13  H   UNL     1      49.335  17.021  20.621  1.00  0.00     0.293 HD
ENDBRANCH   3  12
TORSDOF 1
ENDMDL
MODEL 2
REMARK VINA RESULT:    -5.021     17.462     18.231
REMARK INTER + INTRA:          -5.167
REMARK INTER:                  -5.167
REMARK INTRA:                   0.000
REMARK UNBOUND:                 0.000
REMARK SMILES O=c1ccc2ccc(O)cc2o1
REMARK SMILES IDX 6 1 7 2 8 3 10 4 11 5 5 6 4 7 3 8 2 9 1 10 12 11 9 12
REMARK H PARENT 9 13
REMARK Flexibility Score: inf
ROOT
ATOM      1  C   UNL     1      58.429  -3.244  17.546  1.00  0.00     0.016 A 
ATOM      2  C   UNL     1      57.759  -3.211  18.772  1.00  0.00     0.047 A 
ATOM      3  C   UNL     1      57.355  -1.990  19.326  1.00  0.00     0.119 A 
ATOM      4  C   UNL     1      57.623  -0.792  18.647  1.00  0.00     0.094 A 
ATOM      5  C   UNL     1      58.294  -0.815  17.419  1.00  0.00     0.142 A 
ATOM      6  C   UNL     1      58.699  -2.049  16.864  1.00  0.00     0.018 A 
ATOM      7  C   UNL     1      59.367  -2.040  15.636  1.00  0.00     0.019 A 
ATOM      8  C   UNL     1      59.612  -0.825  14.999  1.00  0.00     0.094 A 
ATOM      9  C   UNL     1      59.180   0.360  15.607  1.00  0.00     0.336 A 
ATOM     10  O   UNL     1      59.392   1.467  15.047  1.00  0.00    -0.246 OA
ATOM     11  O   UNL     1      58.547   0.323  16.777  1.00  0.00    -0.423 OA
ENDROOT
BRANCH   3  12
ATOM     12  O   UNL     1      56.688  -1.977  20.548  1.00  0.00    -0.508 OA
ATOM     13  H   UNL     1      55.744  -1.618  20.633  1.00  0.00     0.293 HD
ENDBRANCH   3  12
TORSDOF 1
ENDMDL
MODEL 3
REMARK VINA RESULT:    -4.900      2.918      4.140
REMARK INTER + INTRA:          -5.043
REMARK INTER:                  -5.043
REMARK INTRA:                   0.000
REMARK UNBOUND:                 0.000
REMARK SMILES O=c1ccc2ccc(O)cc2o1
REMARK SMILES IDX 6 1 7 2 8 3 10 4 11 5 5 6 4 7 3 8 2 9 1 10 12 11 9 12
REMARK H PARENT 9 13
REMARK Flexibility Score: inf
ROOT
ATOM      1  C   UNL     1      50.492  16.123  14.749  1.00  0.00     0.016 A 
ATOM      2  C   UNL     1      49.340  15.608  15.350  1.00  0.00     0.047 A 
ATOM      3  C   UNL     1      49.146  14.224  15.439  1.00  0.00     0.119 A 
ATOM      4  C   UNL     1      50.112  13.348  14.924  1.00  0.00     0.094 A 
ATOM      5  C   UNL     1      51.269  13.854  14.320  1.00  0.00     0.142 A 
ATOM      6  C   UNL     1      51.461  15.251  14.232  1.00  0.00     0.018 A 
ATOM      7  C   UNL     1      52.626  15.726  13.623  1.00  0.00     0.019 A 
ATOM      8  C   UNL     1      53.558  14.817  13.125  1.00  0.00     0.094 A 
ATOM      9  C   UNL     1      53.302  13.447  13.248  1.00  0.00     0.336 A 
ATOM     10  O   UNL     1      54.131  12.610  12.805  1.00  0.00    -0.246 OA
ATOM     11  O   UNL     1      52.185  13.021  13.832  1.00  0.00    -0.423 OA
ENDROOT
BRANCH   3  12
ATOM     12  O   UNL     1      47.992  13.731  16.042  1.00  0.00    -0.508 OA
ATOM     13  H   UNL     1      47.561  12.866  15.734  1.00  0.00     0.293 HD
ENDBRANCH   3  12
TORSDOF 1
ENDMDL
MODEL 4
REMARK VINA RESULT:    -4.802     12.718     13.697
REMARK INTER + INTRA:          -4.943
REMARK INTER:                  -4.943
REMARK INTRA:                   0.000
REMARK UNBOUND:                 0.000
REMARK SMILES O=c1ccc2ccc(O)cc2o1
REMARK SMILES IDX 6 1 7 2 8 3 10 4 11 5 5 6 4 7 3 8 2 9 1 10 12 11 9 12
REMARK H PARENT 9 13
REMARK Flexibility Score: inf
ROOT
ATOM      1  C   UNL     1      49.468   2.095  20.476  1.00  0.00     0.016 A 
ATOM      2  C   UNL     1      49.019   1.272  21.513  1.00  0.00     0.047 A 
ATOM      3  C   UNL     1      49.928   0.725  22.427  1.00  0.00     0.119 A 
ATOM      4  C   UNL     1      51.297   1.005  22.304  1.00  0.00     0.094 A 
ATOM      5  C   UNL     1      51.757   1.827  21.269  1.00  0.00     0.142 A 
ATOM      6  C   UNL     1      50.836   2.376  20.349  1.00  0.00     0.018 A 
ATOM      7  C   UNL     1      51.324   3.194  19.326  1.00  0.00     0.019 A 
ATOM      8  C   UNL     1      52.693   3.444  19.243  1.00  0.00     0.094 A 
ATOM      9  C   UNL     1      53.547   2.866  20.191  1.00  0.00     0.336 A 
ATOM     10  O   UNL     1      54.786   3.079  20.132  1.00  0.00    -0.246 OA
ATOM     11  O   UNL     1      53.056   2.091  21.154  1.00  0.00    -0.423 OA
ENDROOT
BRANCH   3  12
ATOM     12  O   UNL     1      49.462  -0.092  23.454  1.00  0.00    -0.508 OA
ATOM     13  H   UNL     1      49.033   0.295  24.286  1.00  0.00     0.293 HD
ENDBRANCH   3  12
TORSDOF 1
ENDMDL
MODEL 5
REMARK VINA RESULT:    -4.769      8.899      9.934
REMARK INTER + INTRA:          -4.909
REMARK INTER:                  -4.909
REMARK INTRA:                   0.000
REMARK UNBOUND:                 0.000
REMARK SMILES O=c1ccc2ccc(O)cc2o1
REMARK SMILES IDX 6 1 7 2 8 3 10 4 11 5 5 6 4 7 3 8 2 9 1 10 12 11 9 12
REMARK H PARENT 9 13
REMARK Flexibility Score: inf
ROOT
ATOM      1  C   UNL     1      49.626   6.808  21.067  1.00  0.00     0.016 A 
ATOM      2  C   UNL     1      49.898   8.083  20.563  1.00  0.00     0.047 A 
ATOM      3  C   UNL     1      50.821   8.251  19.524  1.00  0.00     0.119 A 
ATOM      4  C   UNL     1      51.476   7.135  18.982  1.00  0.00     0.094 A 
ATOM      5  C   UNL     1      51.210   5.854  19.480  1.00  0.00     0.142 A 
ATOM      6  C   UNL     1      50.278   5.689  20.529  1.00  0.00     0.018 A 
ATOM      7  C   UNL     1      50.034   4.398  21.005  1.00  0.00     0.019 A 
ATOM      8  C   UNL     1      50.709   3.319  20.437  1.00  0.00     0.094 A 
ATOM      9  C   UNL     1      51.618   3.558  19.399  1.00  0.00     0.336 A 
ATOM     10  O   UNL     1      52.237   2.597  18.873  1.00  0.00    -0.246 OA
ATOM     11  O   UNL     1      51.833   4.797  18.965  1.00  0.00    -0.423 OA
ENDROOT
BRANCH   3  12
ATOM     12  O   UNL     1      51.079   9.530  19.035  1.00  0.00    -0.508 OA
ATOM     13  H   UNL     1      50.836   9.794  18.088  1.00  0.00     0.293 HD
ENDBRANCH   3  12
TORSDOF 1
ENDMDL
MODEL 6
REMARK VINA RESULT:    -4.765      6.617      8.140
REMARK INTER + INTRA:          -4.904
REMARK INTER:                  -4.904
REMARK INTRA:                   0.000
REMARK UNBOUND:                 0.000
REMARK SMILES O=c1ccc2ccc(O)cc2o1
REMARK SMILES IDX 6 1 7 2 8 3 10 4 11 5 5 6 4 7 3 8 2 9 1 10 12 11 9 12
REMARK H PARENT 9 13
REMARK Flexibility Score: inf
ROOT
ATOM      1  C   UNL     1      51.034   7.498  19.882  1.00  0.00     0.016 A 
ATOM      2  C   UNL     1      51.301   7.403  18.513  1.00  0.00     0.047 A 
ATOM      3  C   UNL     1      50.395   7.917  17.577  1.00  0.00     0.119 A 
ATOM      4  C   UNL     1      49.214   8.534  18.014  1.00  0.00     0.094 A 
ATOM      5  C   UNL     1      48.937   8.634  19.383  1.00  0.00     0.142 A 
ATOM      6  C   UNL     1      49.854   8.113  20.323  1.00  0.00     0.018 A 
ATOM      7  C   UNL     1      49.550   8.227  21.683  1.00  0.00     0.019 A 
ATOM      8  C   UNL     1      48.364   8.848  22.070  1.00  0.00     0.094 A 
ATOM      9  C   UNL     1      47.503   9.341  21.082  1.00  0.00     0.336 A 
ATOM     10  O   UNL     1      46.426   9.904  21.411  1.00  0.00    -0.246 OA
ATOM     11  O   UNL     1      47.815   9.219  19.795  1.00  0.00    -0.423 OA
ENDROOT
BRANCH   3  12
ATOM     12  O   UNL     1      50.679   7.813  16.218  1.00  0.00    -0.508 OA
ATOM     13  H   UNL     1      51.293   7.093  15.858  1.00  0.00     0.293 HD
ENDBRANCH   3  12
TORSDOF 1
ENDMDL
MODEL 7
REMARK VINA RESULT:    -4.762     12.640     14.019
REMARK INTER + INTRA:          -4.901
REMARK INTER:                  -4.901
REMARK INTRA:                   0.000
REMARK UNBOUND:                 0.000
REMARK SMILES O=c1ccc2ccc(O)cc2o1
REMARK SMILES IDX 6 1 7 2 8 3 10 4 11 5 5 6 4 7 3 8 2 9 1 10 12 11 9 12
REMARK H PARENT 9 13
REMARK Flexibility Score: inf
ROOT
ATOM      1  C   UNL     1      51.275   3.410  19.281  1.00  0.00     0.016 A 
ATOM      2  C   UNL     1      52.653   3.617  19.177  1.00  0.00     0.047 A 
ATOM      3  C   UNL     1      53.539   2.918  20.006  1.00  0.00     0.119 A 
ATOM      4  C   UNL     1      53.042   2.002  20.944  1.00  0.00     0.094 A 
ATOM      5  C   UNL     1      51.664   1.787  21.056  1.00  0.00     0.142 A 
ATOM      6  C   UNL     1      50.774   2.495  20.218  1.00  0.00     0.018 A 
ATOM      7  C   UNL     1      49.402   2.260  20.353  1.00  0.00     0.019 A 
ATOM      8  C   UNL     1      48.955   1.340  21.301  1.00  0.00     0.094 A 
ATOM      9  C   UNL     1      49.895   0.675  22.096  1.00  0.00     0.336 A 
ATOM     10  O   UNL     1      49.511  -0.159  22.958  1.00  0.00    -0.246 OA
ATOM     11  O   UNL     1      51.195   0.917  21.948  1.00  0.00    -0.423 OA
ENDROOT
BRANCH   3  12
ATOM     12  O   UNL     1      54.909   3.138  19.887  1.00  0.00    -0.508 OA
ATOM     13  H   UNL     1      55.453   2.709  19.148  1.00  0.00     0.293 HD
ENDBRANCH   3  12
TORSDOF 1
ENDMDL
MODEL 8
REMARK VINA RESULT:    -4.736      6.752      7.212
REMARK INTER + INTRA:          -4.874
REMARK INTER:                  -4.874
REMARK INTRA:                   0.000
REMARK UNBOUND:                 0.000
REMARK SMILES O=c1ccc2ccc(O)cc2o1
REMARK SMILES IDX 6 1 7 2 8 3 10 4 11 5 5 6 4 7 3 8 2 9 1 10 12 11 9 12
REMARK H PARENT 9 13
REMARK Flexibility Score: inf
ROOT
ATOM      1  C   UNL     1      49.618   8.237  21.879  1.00  0.00     0.016 A 
ATOM      2  C   UNL     1      48.402   8.601  22.465  1.00  0.00     0.047 A 
ATOM      3  C   UNL     1      47.306   8.948  21.666  1.00  0.00     0.119 A 
ATOM      4  C   UNL     1      47.426   8.929  20.269  1.00  0.00     0.094 A 
ATOM      5  C   UNL     1      48.639   8.568  19.672  1.00  0.00     0.142 A 
ATOM      6  C   UNL     1      49.743   8.219  20.482  1.00  0.00     0.018 A 
ATOM      7  C   UNL     1      50.941   7.862  19.858  1.00  0.00     0.019 A 
ATOM      8  C   UNL     1      51.013   7.859  18.466  1.00  0.00     0.094 A 
ATOM      9  C   UNL     1      49.879   8.215  17.727  1.00  0.00     0.336 A 
ATOM     10  O   UNL     1      49.925   8.219  16.469  1.00  0.00    -0.246 OA
ATOM     11  O   UNL     1      48.751   8.552  18.346  1.00  0.00    -0.423 OA
ENDROOT
BRANCH   3  12
ATOM     12  O   UNL     1      46.103   9.306  22.269  1.00  0.00    -0.508 OA
ATOM     13  H   UNL     1      46.024   9.410  23.274  1.00  0.00     0.293 HD
ENDBRANCH   3  12
TORSDOF 1
ENDMDL
MODEL 9
REMARK VINA RESULT:    -4.707     17.716     18.574
REMARK INTER + INTRA:          -4.845
REMARK INTER:                  -4.845
REMARK INTRA:                   0.000
REMARK UNBOUND:                 0.000
REMARK SMILES O=c1ccc2ccc(O)cc2o1
REMARK SMILES IDX 6 1 7 2 8 3 10 4 11 5 5 6 4 7 3 8 2 9 1 10 12 11 9 12
REMARK H PARENT 9 13
REMARK Flexibility Score: inf
ROOT
ATOM      1  C   UNL     1      57.529  -0.504  18.411  1.00  0.00     0.016 A 
ATOM      2  C   UNL     1      57.062  -1.712  18.935  1.00  0.00     0.047 A 
ATOM      3  C   UNL     1      57.473  -2.931  18.381  1.00  0.00     0.119 A 
ATOM      4  C   UNL     1      58.360  -2.941  17.295  1.00  0.00     0.094 A 
ATOM      5  C   UNL     1      58.834  -1.736  16.762  1.00  0.00     0.142 A 
ATOM      6  C   UNL     1      58.415  -0.509  17.324  1.00  0.00     0.018 A 
ATOM      7  C   UNL     1      58.905   0.678  16.771  1.00  0.00     0.019 A 
ATOM      8  C   UNL     1      59.784   0.619  15.692  1.00  0.00     0.094 A 
ATOM      9  C   UNL     1      60.156  -0.633  15.187  1.00  0.00     0.336 A 
ATOM     10  O   UNL     1      60.949  -0.707  14.212  1.00  0.00    -0.246 OA
ATOM     11  O   UNL     1      59.675  -1.748  15.732  1.00  0.00    -0.423 OA
ENDROOT
BRANCH   3  12
ATOM     12  O   UNL     1      56.997  -4.125  18.917  1.00  0.00    -0.508 OA
ATOM     13  H   UNL     1      56.968  -4.282  19.917  1.00  0.00     0.293 HD
ENDBRANCH   3  12
TORSDOF 1
ENDMDL
