MODEL 1
REMARK VINA RESULT:    -3.132      0.000      0.000
REMARK INTER + INTRA:          -3.407
REMARK INTER:                  -3.407
REMARK INTRA:                   0.000
REMARK UNBOUND:                 0.000
REMARK SMILES [NH3+]CC(=O)[O-]
REMARK SMILES IDX 2 1 1 2 3 6 4 7 5 8
REMARK H PARENT 1 3 1 4 1 5
REMARK Flexibility Score: inf
ROOT
ATOM      1  C   UNL     1     165.947 174.431 212.801  1.00  0.00     0.312 C 
ENDROOT
BRANCH   1   2
ATOM      2  N   UNL     1     165.353 173.474 211.871  1.00  0.00    -0.353 N 
ATOM      3  H   UNL     1     165.141 173.944 210.960  1.00  0.00     0.344 HD
ATOM      4  H   UNL     1     164.474 173.076 212.275  1.00  0.00     0.344 HD
ATOM      5  H   UNL     1     166.031 172.696 211.701  1.00  0.00     0.344 HD
ENDBRANCH   1   2
BRANCH   1   6
ATOM      6  C   UNL     1     166.245 173.776 214.115  1.00  0.00     0.096 C 
ATOM      7  O   UNL     1     165.324 173.591 214.953  1.00  0.00    -0.544 OA
ATOM      8  O   UNL     1     167.528 173.322 214.391  1.00  0.00    -0.544 OA
ENDBRANCH   1   6
TORSDOF 2
ENDMDL
MODEL 2
REMARK VINA RESULT:    -3.093      2.406      2.666
REMARK INTER + INTRA:          -3.364
REMARK INTER:                  -3.364
REMARK INTRA:                   0.000
REMARK UNBOUND:                 0.000
REMARK SMILES [NH3+]CC(=O)[O-]
REMARK SMILES IDX 2 1 1 2 3 6 4 7 5 8
REMARK H PARENT 1 3 1 4 1 5
REMARK Flexibility Score: inf
ROOT
ATOM      1  C   UNL     1     166.015 174.234 214.274  1.00  0.00     0.312 C 
ENDROOT
BRANCH   1   2
ATOM      2  N   UNL     1     165.229 173.107 214.772  1.00  0.00    -0.353 N 
ATOM      3  H   UNL     1     164.890 172.525 213.971  1.00  0.00     0.344 HD
ATOM      4  H   UNL     1     164.413 173.454 215.327  1.00  0.00     0.344 HD
ATOM      5  H   UNL     1     165.832 172.517 215.390  1.00  0.00     0.344 HD
ENDBRANCH   1   2
BRANCH   1   6
ATOM      6  C   UNL     1     165.629 174.565 212.865  1.00  0.00     0.096 C 
ATOM      7  O   UNL     1     165.244 173.656 212.084  1.00  0.00    -0.544 OA
ATOM      8  O   UNL     1     165.644 175.885 212.432  1.00  0.00    -0.544 OA
ENDBRANCH   1   6
TORSDOF 2
ENDMDL
MODEL 3
REMARK VINA RESULT:    -3.070      6.023      6.476
REMARK INTER + INTRA:          -3.339
REMARK INTER:                  -3.339
REMARK INTRA:                   0.000
REMARK UNBOUND:                 0.000
REMARK SMILES [NH3+]CC(=O)[O-]
REMARK SMILES IDX 2 1 1 2 3 6 4 7 5 8
REMARK H PARENT 1 3 1 4 1 5
REMARK Flexibility Score: inf
ROOT
ATOM      1  C   UNL     1     169.783 172.989 208.394  1.00  0.00     0.312 C 
ENDROOT
BRANCH   1   2
ATOM      2  N   UNL     1     168.750 173.788 209.048  1.00  0.00    -0.353 N 
ATOM      3  H   UNL     1     169.138 174.243 209.907  1.00  0.00     0.344 HD
ATOM      4  H   UNL     1     167.936 173.183 209.306  1.00  0.00     0.344 HD
ATOM      5  H   UNL     1     168.424 174.531 208.388  1.00  0.00     0.344 HD
ENDBRANCH   1   2
BRANCH   1   6
ATOM      6  C   UNL     1     171.001 172.890 209.260  1.00  0.00     0.096 C 
ATOM      7  O   UNL     1     170.895 172.540 210.465  1.00  0.00    -0.544 OA
ATOM      8  O   UNL     1     172.259 173.131 208.722  1.00  0.00    -0.544 OA
ENDBRANCH   1   6
TORSDOF 2
ENDMDL
MODEL 4
REMARK VINA RESULT:    -3.055      8.602      9.003
REMARK INTER + INTRA:          -3.323
REMARK INTER:                  -3.323
REMARK INTRA:                   0.000
REMARK UNBOUND:                 0.000
REMARK SMILES [NH3+]CC(=O)[O-]
REMARK SMILES IDX 2 1 1 2 3 6 4 7 5 8
REMARK H PARENT 1 3 1 4 1 5
REMARK Flexibility Score: inf
ROOT
ATOM      1  C   UNL     1     173.622 170.740 208.270  1.00  0.00     0.312 C 
ENDROOT
BRANCH   1   2
ATOM      2  N   UNL     1     174.654 169.957 208.945  1.00  0.00    -0.353 N 
ATOM      3  H   UNL     1     174.257 169.044 209.270  1.00  0.00     0.344 HD
ATOM      4  H   UNL     1     175.032 170.488 209.763  1.00  0.00     0.344 HD
ATOM      5  H   UNL     1     175.433 169.768 208.275  1.00  0.00     0.344 HD
ENDBRANCH   1   2
BRANCH   1   6
ATOM      6  C   UNL     1     172.382 170.814 209.106  1.00  0.00     0.096 C 
ATOM      7  O   UNL     1     172.432 171.285 210.273  1.00  0.00    -0.544 OA
ATOM      8  O   UNL     1     171.162 170.411 208.578  1.00  0.00    -0.544 OA
ENDBRANCH   1   6
TORSDOF 2
ENDMDL
MODEL 5
REMARK VINA RESULT:    -3.007     12.427     12.575
REMARK INTER + INTRA:          -3.271
REMARK INTER:                  -3.271
REMARK INTRA:                   0.000
REMARK UNBOUND:                 0.000
REMARK SMILES [NH3+]CC(=O)[O-]
REMARK SMILES IDX 2 1 1 2 3 6 4 7 5 8
REMARK H PARENT 1 3 1 4 1 5
REMARK Flexibility Score: inf
ROOT
ATOM      1  C   UNL     1     177.549 169.414 214.323  1.00  0.00     0.312 C 
ENDROOT
BRANCH   1   2
ATOM      2  N   UNL     1     176.298 170.169 214.329  1.00  0.00    -0.353 N 
ATOM      3  H   UNL     1     175.963 170.314 213.348  1.00  0.00     0.344 HD
ATOM      4  H   UNL     1     176.439 171.095 214.795  1.00  0.00     0.344 HD
ATOM      5  H   UNL     1     175.576 169.629 214.858  1.00  0.00     0.344 HD
ENDBRANCH   1   2
BRANCH   1   6
ATOM      6  C   UNL     1     177.866 168.926 212.943  1.00  0.00     0.096 C 
ATOM      7  O   UNL     1     178.309 169.724 212.075  1.00  0.00    -0.544 OA
ATOM      8  O   UNL     1     177.721 167.581 212.631  1.00  0.00    -0.544 OA
ENDBRANCH   1   6
TORSDOF 2
ENDMDL
MODEL 6
REMARK VINA RESULT:    -2.967      6.561      7.093
REMARK INTER + INTRA:          -3.227
REMARK INTER:                  -3.227
REMARK INTRA:                   0.000
REMARK UNBOUND:                 0.000
REMARK SMILES [NH3+]CC(=O)[O-]
REMARK SMILES IDX 2 1 1 2 3 6 4 7 5 8
REMARK H PARENT 1 3 1 4 1 5
REMARK Flexibility Score: inf
ROOT
ATOM      1  C   UNL     1     170.246 172.897 209.299  1.00  0.00     0.312 C 
ENDROOT
BRANCH   1   2
ATOM      2  N   UNL     1     169.000 173.600 209.002  1.00  0.00    -0.353 N 
ATOM      3  H   UNL     1     169.034 173.996 208.033  1.00  0.00     0.344 HD
ATOM      4  H   UNL     1     168.848 174.371 209.693  1.00  0.00     0.344 HD
ATOM      5  H   UNL     1     168.203 172.926 209.065  1.00  0.00     0.344 HD
ENDBRANCH   1   2
BRANCH   1   6
ATOM      6  C   UNL     1     170.464 171.776 208.330  1.00  0.00     0.096 C 
ATOM      7  O   UNL     1     170.878 172.016 207.166  1.00  0.00    -0.544 OA
ATOM      8  O   UNL     1     170.260 170.461 208.730  1.00  0.00    -0.544 OA
ENDBRANCH   1   6
TORSDOF 2
ENDMDL
MODEL 7
REMARK VINA RESULT:    -2.946      9.383      9.843
REMARK INTER + INTRA:          -3.204
REMARK INTER:                  -3.204
REMARK INTRA:                   0.000
REMARK UNBOUND:                 0.000
REMARK SMILES [NH3+]CC(=O)[O-]
REMARK SMILES IDX 2 1 1 2 3 6 4 7 5 8
REMARK H PARENT 1 3 1 4 1 5
REMARK Flexibility Score: inf
ROOT
ATOM      1  C   UNL     1     173.225 170.658 208.834  1.00  0.00     0.312 C 
ENDROOT
BRANCH   1   2
ATOM      2  N   UNL     1     174.573 170.123 208.659  1.00  0.00    -0.353 N 
ATOM      3  H   UNL     1     175.248 170.644 209.266  1.00  0.00     0.344 HD
ATOM      4  H   UNL     1     174.865 170.202 207.657  1.00  0.00     0.344 HD
ATOM      5  H   UNL     1     174.578 169.114 208.934  1.00  0.00     0.344 HD
ENDBRANCH   1   2
BRANCH   1   6
ATOM      6  C   UNL     1     172.783 171.390 207.605  1.00  0.00     0.096 C 
ATOM      7  O   UNL     1     173.022 170.914 206.464  1.00  0.00    -0.544 OA
ATOM      8  O   UNL     1     172.060 172.570 207.720  1.00  0.00    -0.544 OA
ENDBRANCH   1   6
TORSDOF 2
ENDMDL
MODEL 8
REMARK VINA RESULT:    -2.940      6.243      6.529
REMARK INTER + INTRA:          -3.198
REMARK INTER:                  -3.198
REMARK INTRA:                   0.000
REMARK UNBOUND:                 0.000
REMARK SMILES [NH3+]CC(=O)[O-]
REMARK SMILES IDX 2 1 1 2 3 6 4 7 5 8
REMARK H PARENT 1 3 1 4 1 5
REMARK Flexibility Score: inf
ROOT
ATOM      1  C   UNL     1     170.035 172.946 208.438  1.00  0.00     0.312 C 
ENDROOT
BRANCH   1   2
ATOM      2  N   UNL     1     168.898 173.532 209.144  1.00  0.00    -0.353 N 
ATOM      3  H   UNL     1     169.171 174.454 209.560  1.00  0.00     0.344 HD
ATOM      4  H   UNL     1     168.571 172.887 209.900  1.00  0.00     0.344 HD
ATOM      5  H   UNL     1     168.116 173.684 208.466  1.00  0.00     0.344 HD
ENDBRANCH   1   2
BRANCH   1   6
ATOM      6  C   UNL     1     170.506 171.705 209.133  1.00  0.00     0.096 C 
ATOM      7  O   UNL     1     171.043 171.781 210.269  1.00  0.00    -0.544 OA
ATOM      8  O   UNL     1     170.303 170.461 208.549  1.00  0.00    -0.544 OA
ENDBRANCH   1   6
TORSDOF 2
ENDMDL
MODEL 9
REMARK VINA RESULT:    -2.775      6.892      7.318
REMARK INTER + INTRA:          -3.018
REMARK INTER:                  -3.018
REMARK INTRA:                   0.000
REMARK UNBOUND:                 0.000
REMARK SMILES [NH3+]CC(=O)[O-]
REMARK SMILES IDX 2 1 1 2 3 6 4 7 5 8
REMARK H PARENT 1 3 1 4 1 5
REMARK Flexibility Score: inf
ROOT
ATOM      1  C   UNL     1     170.573 170.980 208.794  1.00  0.00     0.312 C 
ENDROOT
BRANCH   1   2
ATOM      2  N   UNL     1     170.622 170.456 207.431  1.00  0.00    -0.353 N 
ATOM      3  H   UNL     1     170.664 169.410 207.450  1.00  0.00     0.344 HD
ATOM      4  H   UNL     1     171.459 170.834 206.930  1.00  0.00     0.344 HD
ATOM      5  H   UNL     1     169.759 170.751 206.920  1.00  0.00     0.344 HD
ENDBRANCH   1   2
BRANCH   1   6
ATOM      6  C   UNL     1     170.539 172.477 208.784  1.00  0.00     0.096 C 
ATOM      7  O   UNL     1     171.613 173.135 208.815  1.00  0.00    -0.544 OA
ATOM      8  O   UNL     1     169.326 173.145 208.686  1.00  0.00    -0.544 OA
ENDBRANCH   1   6
TORSDOF 2
ENDMDL
