MODEL 1
REMARK VINA RESULT:    -4.011      0.000      0.000
REMARK INTER + INTRA:          -9.249
REMARK INTER:                  -7.528
REMARK INTRA:                  -1.720
REMARK UNBOUND:                -1.720
REMARK SMILES O=C([O-])CCCCCCCCCCCCCCC(=O)[O-]
REMARK SMILES IDX 10 1 9 2 8 3 7 4 6 5 5 6 4 7 2 8 1 9 3 10 11 11 12 12 13 13
REMARK SMILES IDX 14 14 15 15 16 16 17 17 18 18 19 19 20 20
REMARK H PARENT
REMARK Flexibility Score: inf
ROOT
ATOM      1  C   UNL     1      40.761  21.574 224.243  1.00  0.00     0.000 C 
ENDROOT
BRANCH   1   2
ATOM      2  C   UNL     1      40.708  21.848 225.762  1.00  0.00     0.000 C 
BRANCH   2   3
ATOM      3  C   UNL     1      39.274  22.075 226.276  1.00  0.00     0.000 C 
BRANCH   3   4
ATOM      4  C   UNL     1      38.199  21.421 225.379  1.00  0.00     0.000 C 
BRANCH   4   5
ATOM      5  C   UNL     1      37.846  19.979 225.789  1.00  0.00     0.000 C 
BRANCH   5   6
ATOM      6  C   UNL     1      37.276  19.838 227.211  1.00  0.00     0.006 C 
BRANCH   6   7
ATOM      7  C   UNL     1      38.170  18.994 228.127  1.00  0.00     0.053 C 
BRANCH   7   8
ATOM      8  C   UNL     1      37.830  17.543 227.996  1.00  0.00     0.041 C 
ATOM      9  O   UNL     1      36.626  17.172 228.000  1.00  0.00    -0.550 OA
ATOM     10  O   UNL     1      38.842  16.596 227.915  1.00  0.00    -0.550 OA
ENDBRANCH   7   8
ENDBRANCH   6   7
ENDBRANCH   5   6
ENDBRANCH   4   5
ENDBRANCH   3   4
ENDBRANCH   2   3
ENDBRANCH   1   2
BRANCH   1  11
ATOM     11  C   UNL     1      41.606  22.592 223.454  1.00  0.00     0.000 C 
BRANCH  11  12
ATOM     12  C   UNL     1      40.926  23.965 223.261  1.00  0.00     0.000 C 
BRANCH  12  13
ATOM     13  C   UNL     1      39.410  23.924 222.978  1.00  0.00     0.000 C 
BRANCH  13  14
ATOM     14  C   UNL     1      38.558  24.944 223.756  1.00  0.00     0.000 C 
BRANCH  14  15
ATOM     15  C   UNL     1      37.048  24.693 223.629  1.00  0.00     0.000 C 
BRANCH  15  16
ATOM     16  C   UNL     1      36.762  23.504 222.703  1.00  0.00     0.006 C 
BRANCH  16  17
ATOM     17  C   UNL     1      35.785  23.897 221.592  1.00  0.00     0.053 C 
BRANCH  17  18
ATOM     18  C   UNL     1      36.493  23.983 220.277  1.00  0.00     0.041 C 
ATOM     19  O   UNL     1      36.038  24.714 219.359  1.00  0.00    -0.550 OA
ATOM     20  O   UNL     1      37.631  23.220 220.049  1.00  0.00    -0.550 OA
ENDBRANCH  17  18
ENDBRANCH  16  17
ENDBRANCH  15  16
ENDBRANCH  14  15
ENDBRANCH  13  14
ENDBRANCH  12  13
ENDBRANCH  11  12
ENDBRANCH   1  11
TORSDOF 15
ENDMDL
MODEL 2
REMARK VINA RESULT:    -3.981      1.635      6.821
REMARK INTER + INTRA:          -9.192
REMARK INTER:                  -7.882
REMARK INTRA:                  -1.310
REMARK UNBOUND:                -1.720
REMARK SMILES O=C([O-])CCCCCCCCCCCCCCC(=O)[O-]
REMARK SMILES IDX 10 1 9 2 8 3 7 4 6 5 5 6 4 7 2 8 1 9 3 10 11 11 12 12 13 13
REMARK SMILES IDX 14 14 15 15 16 16 17 17 18 18 19 19 20 20
REMARK H PARENT
REMARK Flexibility Score: inf
ROOT
ATOM      1  C   UNL     1      41.182  24.216 224.471  1.00  0.00     0.000 C 
ENDROOT
BRANCH   1   2
ATOM      2  C   UNL     1      40.091  24.276 223.379  1.00  0.00     0.000 C 
BRANCH   2   3
ATOM      3  C   UNL     1      38.764  24.862 223.896  1.00  0.00     0.000 C 
BRANCH   3   4
ATOM      4  C   UNL     1      37.608  23.836 223.896  1.00  0.00     0.000 C 
BRANCH   4   5
ATOM      5  C   UNL     1      36.217  24.472 223.716  1.00  0.00     0.000 C 
BRANCH   5   6
ATOM      6  C   UNL     1      35.483  24.054 222.431  1.00  0.00     0.006 C 
BRANCH   6   7
ATOM      7  C   UNL     1      36.442  23.749 221.273  1.00  0.00     0.053 C 
BRANCH   7   8
ATOM      8  C   UNL     1      35.837  24.165 219.970  1.00  0.00     0.041 C 
ATOM      9  O   UNL     1      36.573  24.565 219.029  1.00  0.00    -0.550 OA
ATOM     10  O   UNL     1      34.458  24.154 219.807  1.00  0.00    -0.550 OA
ENDBRANCH   7   8
ENDBRANCH   6   7
ENDBRANCH   5   6
ENDBRANCH   4   5
ENDBRANCH   3   4
ENDBRANCH   2   3
ENDBRANCH   1   2
BRANCH   1  11
ATOM     11  C   UNL     1      41.967  22.891 224.497  1.00  0.00     0.000 C 
BRANCH  11  12
ATOM     12  C   UNL     1      41.927  22.159 225.855  1.00  0.00     0.000 C 
BRANCH  12  13
ATOM     13  C   UNL     1      41.454  20.690 225.809  1.00  0.00     0.000 C 
BRANCH  13  14
ATOM     14  C   UNL     1      40.297  20.392 224.838  1.00  0.00     0.000 C 
BRANCH  14  15
ATOM     15  C   UNL     1      38.923  20.793 225.393  1.00  0.00     0.000 C 
BRANCH  15  16
ATOM     16  C   UNL     1      38.487  19.848 226.520  1.00  0.00     0.006 C 
BRANCH  16  17
ATOM     17  C   UNL     1      37.889  18.557 225.953  1.00  0.00     0.053 C 
BRANCH  17  18
ATOM     18  C   UNL     1      36.411  18.700 225.769  1.00  0.00     0.041 C 
ATOM     19  O   UNL     1      35.894  18.522 224.636  1.00  0.00    -0.550 OA
ATOM     20  O   UNL     1      35.610  19.075 226.841  1.00  0.00    -0.550 OA
ENDBRANCH  17  18
ENDBRANCH  16  17
ENDBRANCH  15  16
ENDBRANCH  14  15
ENDBRANCH  13  14
ENDBRANCH  12  13
ENDBRANCH  11  12
ENDBRANCH   1  11
TORSDOF 15
ENDMDL
MODEL 3
REMARK VINA RESULT:    -3.933      2.080      6.438
REMARK INTER + INTRA:          -9.102
REMARK INTER:                  -7.051
REMARK INTRA:                  -2.051
REMARK UNBOUND:                -1.720
REMARK SMILES O=C([O-])CCCCCCCCCCCCCCC(=O)[O-]
REMARK SMILES IDX 10 1 9 2 8 3 7 4 6 5 5 6 4 7 2 8 1 9 3 10 11 11 12 12 13 13
REMARK SMILES IDX 14 14 15 15 16 16 17 17 18 18 19 19 20 20
REMARK H PARENT
REMARK Flexibility Score: inf
ROOT
ATOM      1  C   UNL     1      40.391  25.954 226.772  1.00  0.00     0.000 C 
ENDROOT
BRANCH   1   2
ATOM      2  C   UNL     1      39.388  26.641 225.821  1.00  0.00     0.000 C 
BRANCH   2   3
ATOM      3  C   UNL     1      38.127  25.792 225.573  1.00  0.00     0.000 C 
BRANCH   3   4
ATOM      4  C   UNL     1      37.888  25.487 224.077  1.00  0.00     0.000 C 
BRANCH   4   5
ATOM      5  C   UNL     1      36.602  24.682 223.808  1.00  0.00     0.000 C 
BRANCH   5   6
ATOM      6  C   UNL     1      36.257  24.505 222.320  1.00  0.00     0.006 C 
BRANCH   6   7
ATOM      7  C   UNL     1      37.249  23.595 221.586  1.00  0.00     0.053 C 
BRANCH   7   8
ATOM      8  C   UNL     1      37.032  23.668 220.108  1.00  0.00     0.041 C 
ATOM      9  O   UNL     1      36.328  24.590 219.617  1.00  0.00    -0.550 OA
ATOM     10  O   UNL     1      37.569  22.695 219.276  1.00  0.00    -0.550 OA
ENDBRANCH   7   8
ENDBRANCH   6   7
ENDBRANCH   5   6
ENDBRANCH   4   5
ENDBRANCH   3   4
ENDBRANCH   2   3
ENDBRANCH   1   2
BRANCH   1  11
ATOM     11  C   UNL     1      41.866  26.144 226.367  1.00  0.00     0.000 C 
BRANCH  11  12
ATOM     12  C   UNL     1      42.499  24.910 225.689  1.00  0.00     0.000 C 
BRANCH  12  13
ATOM     13  C   UNL     1      41.585  23.673 225.564  1.00  0.00     0.000 C 
BRANCH  13  14
ATOM     14  C   UNL     1      41.295  23.200 224.127  1.00  0.00     0.000 C 
BRANCH  14  15
ATOM     15  C   UNL     1      39.952  22.467 223.991  1.00  0.00     0.000 C 
BRANCH  15  16
ATOM     16  C   UNL     1      39.366  22.129 225.367  1.00  0.00     0.006 C 
BRANCH  16  17
ATOM     17  C   UNL     1      37.917  21.651 225.243  1.00  0.00     0.053 C 
BRANCH  17  18
ATOM     18  C   UNL     1      37.805  20.210 225.631  1.00  0.00     0.041 C 
ATOM     19  O   UNL     1      36.685  19.720 225.932  1.00  0.00    -0.550 OA
ATOM     20  O   UNL     1      38.945  19.419 225.703  1.00  0.00    -0.550 OA
ENDBRANCH  17  18
ENDBRANCH  16  17
ENDBRANCH  15  16
ENDBRANCH  14  15
ENDBRANCH  13  14
ENDBRANCH  12  13
ENDBRANCH  11  12
ENDBRANCH   1  11
TORSDOF 15
ENDMDL
MODEL 4
REMARK VINA RESULT:    -3.910      3.410      4.718
REMARK INTER + INTRA:          -9.059
REMARK INTER:                  -7.407
REMARK INTRA:                  -1.652
REMARK UNBOUND:                -1.720
REMARK SMILES O=C([O-])CCCCCCCCCCCCCCC(=O)[O-]
REMARK SMILES IDX 10 1 9 2 8 3 7 4 6 5 5 6 4 7 2 8 1 9 3 10 11 11 12 12 13 13
REMARK SMILES IDX 14 14 15 15 16 16 17 17 18 18 19 19 20 20
REMARK H PARENT
REMARK Flexibility Score: inf
ROOT
ATOM      1  C   UNL     1      40.754  26.290 227.005  1.00  0.00     0.000 C 
ENDROOT
BRANCH   1   2
ATOM      2  C   UNL     1      42.049  26.137 226.180  1.00  0.00     0.000 C 
BRANCH   2   3
ATOM      3  C   UNL     1      42.590  24.695 226.183  1.00  0.00     0.000 C 
BRANCH   3   4
ATOM      4  C   UNL     1      42.065  23.849 225.001  1.00  0.00     0.000 C 
BRANCH   4   5
ATOM      5  C   UNL     1      41.035  22.781 225.415  1.00  0.00     0.000 C 
BRANCH   5   6
ATOM      6  C   UNL     1      40.901  21.605 224.433  1.00  0.00     0.006 C 
BRANCH   6   7
ATOM      7  C   UNL     1      41.490  21.917 223.052  1.00  0.00     0.053 C 
BRANCH   7   8
ATOM      8  C   UNL     1      42.234  20.733 222.521  1.00  0.00     0.041 C 
ATOM      9  O   UNL     1      41.819  19.568 222.755  1.00  0.00    -0.550 OA
ATOM     10  O   UNL     1      43.410  20.914 221.805  1.00  0.00    -0.550 OA
ENDBRANCH   7   8
ENDBRANCH   6   7
ENDBRANCH   5   6
ENDBRANCH   4   5
ENDBRANCH   3   4
ENDBRANCH   2   3
ENDBRANCH   1   2
BRANCH   1  11
ATOM     11  C   UNL     1      39.586  26.921 226.224  1.00  0.00     0.000 C 
BRANCH  11  12
ATOM     12  C   UNL     1      38.972  25.998 225.149  1.00  0.00     0.000 C 
BRANCH  12  13
ATOM     13  C   UNL     1      37.638  25.323 225.531  1.00  0.00     0.000 C 
BRANCH  13  14
ATOM     14  C   UNL     1      37.540  23.817 225.225  1.00  0.00     0.000 C 
BRANCH  14  15
ATOM     15  C   UNL     1      37.742  23.487 223.739  1.00  0.00     0.000 C 
BRANCH  15  16
ATOM     16  C   UNL     1      36.398  23.394 223.007  1.00  0.00     0.006 C 
BRANCH  16  17
ATOM     17  C   UNL     1      36.247  24.529 221.991  1.00  0.00     0.053 C 
BRANCH  17  18
ATOM     18  C   UNL     1      36.246  23.988 220.596  1.00  0.00     0.041 C 
ATOM     19  O   UNL     1      37.295  23.492 220.108  1.00  0.00    -0.550 OA
ATOM     20  O   UNL     1      35.097  24.072 219.819  1.00  0.00    -0.550 OA
ENDBRANCH  17  18
ENDBRANCH  16  17
ENDBRANCH  15  16
ENDBRANCH  14  15
ENDBRANCH  13  14
ENDBRANCH  12  13
ENDBRANCH  11  12
ENDBRANCH   1  11
TORSDOF 15
ENDMDL
MODEL 5
REMARK VINA RESULT:    -3.799      2.958      4.597
REMARK INTER + INTRA:          -8.850
REMARK INTER:                  -7.118
REMARK INTRA:                  -1.732
REMARK UNBOUND:                -1.720
REMARK SMILES O=C([O-])CCCCCCCCCCCCCCC(=O)[O-]
REMARK SMILES IDX 10 1 9 2 8 3 7 4 6 5 5 6 4 7 2 8 1 9 3 10 11 11 12 12 13 13
REMARK SMILES IDX 14 14 15 15 16 16 17 17 18 18 19 19 20 20
REMARK H PARENT
REMARK Flexibility Score: inf
ROOT
ATOM      1  C   UNL     1      37.599  19.626 226.595  1.00  0.00     0.000 C 
ENDROOT
BRANCH   1   2
ATOM      2  C   UNL     1      38.297  18.381 226.006  1.00  0.00     0.000 C 
BRANCH   2   3
ATOM      3  C   UNL     1      39.743  18.668 225.558  1.00  0.00     0.000 C 
BRANCH   3   4
ATOM      4  C   UNL     1      40.676  19.048 226.729  1.00  0.00     0.000 C 
BRANCH   4   5
ATOM      5  C   UNL     1      41.579  20.260 226.431  1.00  0.00     0.000 C 
BRANCH   5   6
ATOM      6  C   UNL     1      41.493  20.783 224.988  1.00  0.00     0.006 C 
BRANCH   6   7
ATOM      7  C   UNL     1      41.681  22.302 224.895  1.00  0.00     0.053 C 
BRANCH   7   8
ATOM      8  C   UNL     1      41.538  22.762 223.479  1.00  0.00     0.041 C 
ATOM      9  O   UNL     1      41.198  23.949 223.230  1.00  0.00    -0.550 OA
ATOM     10  O   UNL     1      41.738  21.870 222.434  1.00  0.00    -0.550 OA
ENDBRANCH   7   8
ENDBRANCH   6   7
ENDBRANCH   5   6
ENDBRANCH   4   5
ENDBRANCH   3   4
ENDBRANCH   2   3
ENDBRANCH   1   2
BRANCH   1  11
ATOM     11  C   UNL     1      37.692  20.877 225.700  1.00  0.00     0.000 C 
BRANCH  11  12
ATOM     12  C   UNL     1      38.213  22.136 226.426  1.00  0.00     0.000 C 
BRANCH  12  13
ATOM     13  C   UNL     1      38.275  23.421 225.573  1.00  0.00     0.000 C 
BRANCH  13  14
ATOM     14  C   UNL     1      37.837  23.268 224.105  1.00  0.00     0.000 C 
BRANCH  14  15
ATOM     15  C   UNL     1      36.407  23.766 223.845  1.00  0.00     0.000 C 
BRANCH  15  16
ATOM     16  C   UNL     1      35.957  23.429 222.418  1.00  0.00     0.006 C 
BRANCH  16  17
ATOM     17  C   UNL     1      36.376  24.527 221.437  1.00  0.00     0.053 C 
BRANCH  17  18
ATOM     18  C   UNL     1      36.110  24.100 220.027  1.00  0.00     0.041 C 
ATOM     19  O   UNL     1      36.992  23.483 219.375  1.00  0.00    -0.550 OA
ATOM     20  O   UNL     1      34.903  24.423 219.419  1.00  0.00    -0.550 OA
ENDBRANCH  17  18
ENDBRANCH  16  17
ENDBRANCH  15  16
ENDBRANCH  14  15
ENDBRANCH  13  14
ENDBRANCH  12  13
ENDBRANCH  11  12
ENDBRANCH   1  11
TORSDOF 15
ENDMDL
MODEL 6
REMARK VINA RESULT:    -3.794      1.838      6.634
REMARK INTER + INTRA:          -8.842
REMARK INTER:                  -7.015
REMARK INTRA:                  -1.827
REMARK UNBOUND:                -1.720
REMARK SMILES O=C([O-])CCCCCCCCCCCCCCC(=O)[O-]
REMARK SMILES IDX 10 1 9 2 8 3 7 4 6 5 5 6 4 7 2 8 1 9 3 10 11 11 12 12 13 13
REMARK SMILES IDX 14 14 15 15 16 16 17 17 18 18 19 19 20 20
REMARK H PARENT
REMARK Flexibility Score: inf
ROOT
ATOM      1  C   UNL     1      39.095  22.949 225.248  1.00  0.00     0.000 C 
ENDROOT
BRANCH   1   2
ATOM      2  C   UNL     1      39.611  24.339 225.680  1.00  0.00     0.000 C 
BRANCH   2   3
ATOM      3  C   UNL     1      38.472  25.306 226.053  1.00  0.00     0.000 C 
BRANCH   3   4
ATOM      4  C   UNL     1      37.068  24.686 225.875  1.00  0.00     0.000 C 
BRANCH   4   5
ATOM      5  C   UNL     1      36.209  25.396 224.812  1.00  0.00     0.000 C 
BRANCH   5   6
ATOM      6  C   UNL     1      36.652  25.147 223.360  1.00  0.00     0.006 C 
BRANCH   6   7
ATOM      7  C   UNL     1      35.858  24.023 222.683  1.00  0.00     0.053 C 
BRANCH   7   8
ATOM      8  C   UNL     1      36.249  23.900 221.244  1.00  0.00     0.041 C 
ATOM      9  O   UNL     1      35.403  24.116 220.337  1.00  0.00    -0.550 OA
ATOM     10  O   UNL     1      37.536  23.504 220.904  1.00  0.00    -0.550 OA
ENDBRANCH   7   8
ENDBRANCH   6   7
ENDBRANCH   5   6
ENDBRANCH   4   5
ENDBRANCH   3   4
ENDBRANCH   2   3
ENDBRANCH   1   2
BRANCH   1  11
ATOM     11  C   UNL     1      39.451  22.574 223.797  1.00  0.00     0.000 C 
BRANCH  11  12
ATOM     12  C   UNL     1      40.840  23.069 223.338  1.00  0.00     0.000 C 
BRANCH  12  13
ATOM     13  C   UNL     1      41.857  21.966 222.978  1.00  0.00     0.000 C 
BRANCH  13  14
ATOM     14  C   UNL     1      41.676  20.626 223.714  1.00  0.00     0.000 C 
BRANCH  14  15
ATOM     15  C   UNL     1      42.061  20.694 225.199  1.00  0.00     0.000 C 
BRANCH  15  16
ATOM     16  C   UNL     1      41.406  19.557 225.992  1.00  0.00     0.006 C 
BRANCH  16  17
ATOM     17  C   UNL     1      40.437  18.763 225.111  1.00  0.00     0.053 C 
BRANCH  17  18
ATOM     18  C   UNL     1      39.118  18.597 225.800  1.00  0.00     0.041 C 
ATOM     19  O   UNL     1      38.209  19.452 225.642  1.00  0.00    -0.550 OA
ATOM     20  O   UNL     1      38.911  17.520 226.653  1.00  0.00    -0.550 OA
ENDBRANCH  17  18
ENDBRANCH  16  17
ENDBRANCH  15  16
ENDBRANCH  14  15
ENDBRANCH  13  14
ENDBRANCH  12  13
ENDBRANCH  11  12
ENDBRANCH   1  11
TORSDOF 15
ENDMDL
MODEL 7
REMARK VINA RESULT:    -3.783      1.885      6.404
REMARK INTER + INTRA:          -8.821
REMARK INTER:                  -6.513
REMARK INTRA:                  -2.308
REMARK UNBOUND:                -1.720
REMARK SMILES O=C([O-])CCCCCCCCCCCCCCC(=O)[O-]
REMARK SMILES IDX 10 1 9 2 8 3 7 4 6 5 5 6 4 7 2 8 1 9 3 10 11 11 12 12 13 13
REMARK SMILES IDX 14 14 15 15 16 16 17 17 18 18 19 19 20 20
REMARK H PARENT
REMARK Flexibility Score: inf
ROOT
ATOM      1  C   UNL     1      39.846  24.976 225.826  1.00  0.00     0.000 C 
ENDROOT
BRANCH   1   2
ATOM      2  C   UNL     1      39.326  24.138 227.013  1.00  0.00     0.000 C 
BRANCH   2   3
ATOM      3  C   UNL     1      39.327  22.626 226.719  1.00  0.00     0.000 C 
BRANCH   3   4
ATOM      4  C   UNL     1      37.972  22.113 226.183  1.00  0.00     0.000 C 
BRANCH   4   5
ATOM      5  C   UNL     1      37.905  22.034 224.647  1.00  0.00     0.000 C 
BRANCH   5   6
ATOM      6  C   UNL     1      37.018  23.103 223.988  1.00  0.00     0.006 C 
BRANCH   6   7
ATOM      7  C   UNL     1      37.695  23.780 222.790  1.00  0.00     0.053 C 
BRANCH   7   8
ATOM      8  C   UNL     1      36.829  23.681 221.575  1.00  0.00     0.041 C 
ATOM      9  O   UNL     1      37.321  23.313 220.475  1.00  0.00    -0.550 OA
ATOM     10  O   UNL     1      35.489  24.036 221.644  1.00  0.00    -0.550 OA
ENDBRANCH   7   8
ENDBRANCH   6   7
ENDBRANCH   5   6
ENDBRANCH   4   5
ENDBRANCH   3   4
ENDBRANCH   2   3
ENDBRANCH   1   2
BRANCH   1  11
ATOM     11  C   UNL     1      41.381  24.985 225.692  1.00  0.00     0.000 C 
BRANCH  11  12
ATOM     12  C   UNL     1      41.951  23.818 224.857  1.00  0.00     0.000 C 
BRANCH  12  13
ATOM     13  C   UNL     1      41.260  23.569 223.499  1.00  0.00     0.000 C 
BRANCH  13  14
ATOM     14  C   UNL     1      41.201  22.101 223.040  1.00  0.00     0.000 C 
BRANCH  14  15
ATOM     15  C   UNL     1      41.906  21.136 224.004  1.00  0.00     0.000 C 
BRANCH  15  16
ATOM     16  C   UNL     1      40.998  19.952 224.361  1.00  0.00     0.006 C 
BRANCH  16  17
ATOM     17  C   UNL     1      41.289  19.445 225.776  1.00  0.00     0.053 C 
BRANCH  17  18
ATOM     18  C   UNL     1      40.240  18.470 226.210  1.00  0.00     0.041 C 
ATOM     19  O   UNL     1      40.389  17.240 225.990  1.00  0.00    -0.550 OA
ATOM     20  O   UNL     1      39.076  18.926 226.816  1.00  0.00    -0.550 OA
ENDBRANCH  17  18
ENDBRANCH  16  17
ENDBRANCH  15  16
ENDBRANCH  14  15
ENDBRANCH  13  14
ENDBRANCH  12  13
ENDBRANCH  11  12
ENDBRANCH   1  11
TORSDOF 15
ENDMDL
MODEL 8
REMARK VINA RESULT:    -3.772      1.435      6.900
REMARK INTER + INTRA:          -8.801
REMARK INTER:                  -7.124
REMARK INTRA:                  -1.677
REMARK UNBOUND:                -1.720
REMARK SMILES O=C([O-])CCCCCCCCCCCCCCC(=O)[O-]
REMARK SMILES IDX 10 1 9 2 8 3 7 4 6 5 5 6 4 7 2 8 1 9 3 10 11 11 12 12 13 13
REMARK SMILES IDX 14 14 15 15 16 16 17 17 18 18 19 19 20 20
REMARK H PARENT
REMARK Flexibility Score: inf
ROOT
ATOM      1  C   UNL     1      41.635  23.413 225.407  1.00  0.00     0.000 C 
ENDROOT
BRANCH   1   2
ATOM      2  C   UNL     1      41.221  22.809 224.047  1.00  0.00     0.000 C 
BRANCH   2   3
ATOM      3  C   UNL     1      40.727  23.874 223.050  1.00  0.00     0.000 C 
BRANCH   3   4
ATOM      4  C   UNL     1      39.436  23.458 222.309  1.00  0.00     0.000 C 
BRANCH   4   5
ATOM      5  C   UNL     1      38.161  23.602 223.161  1.00  0.00     0.000 C 
BRANCH   5   6
ATOM      6  C   UNL     1      36.858  23.243 222.428  1.00  0.00     0.006 C 
BRANCH   6   7
ATOM      7  C   UNL     1      36.250  24.436 221.681  1.00  0.00     0.053 C 
BRANCH   7   8
ATOM      8  C   UNL     1      36.134  24.134 220.221  1.00  0.00     0.041 C 
ATOM      9  O   UNL     1      37.158  23.830 219.553  1.00  0.00    -0.550 OA
ATOM     10  O   UNL     1      34.902  24.230 219.586  1.00  0.00    -0.550 OA
ENDBRANCH   7   8
ENDBRANCH   6   7
ENDBRANCH   5   6
ENDBRANCH   4   5
ENDBRANCH   3   4
ENDBRANCH   2   3
ENDBRANCH   1   2
BRANCH   1  11
ATOM     11  C   UNL     1      40.901  24.721 225.759  1.00  0.00     0.000 C 
BRANCH  11  12
ATOM     12  C   UNL     1      39.509  24.514 226.395  1.00  0.00     0.000 C 
BRANCH  12  13
ATOM     13  C   UNL     1      39.419  23.398 227.456  1.00  0.00     0.000 C 
BRANCH  13  14
ATOM     14  C   UNL     1      38.217  22.445 227.322  1.00  0.00     0.000 C 
BRANCH  14  15
ATOM     15  C   UNL     1      38.309  21.523 226.098  1.00  0.00     0.000 C 
BRANCH  15  16
ATOM     16  C   UNL     1      38.663  20.089 226.512  1.00  0.00     0.006 C 
BRANCH  16  17
ATOM     17  C   UNL     1      37.566  19.487 227.394  1.00  0.00     0.053 C 
BRANCH  17  18
ATOM     18  C   UNL     1      36.980  18.272 226.746  1.00  0.00     0.041 C 
ATOM     19  O   UNL     1      36.883  17.195 227.390  1.00  0.00    -0.550 OA
ATOM     20  O   UNL     1      36.583  18.317 225.415  1.00  0.00    -0.550 OA
ENDBRANCH  17  18
ENDBRANCH  16  17
ENDBRANCH  15  16
ENDBRANCH  14  15
ENDBRANCH  13  14
ENDBRANCH  12  13
ENDBRANCH  11  12
ENDBRANCH   1  11
TORSDOF 15
ENDMDL
MODEL 9
REMARK VINA RESULT:    -3.746      3.664      5.515
REMARK INTER + INTRA:          -8.750
REMARK INTER:                  -6.457
REMARK INTRA:                  -2.293
REMARK UNBOUND:                -1.720
REMARK SMILES O=C([O-])CCCCCCCCCCCCCCC(=O)[O-]
REMARK SMILES IDX 10 1 9 2 8 3 7 4 6 5 5 6 4 7 2 8 1 9 3 10 11 11 12 12 13 13
REMARK SMILES IDX 14 14 15 15 16 16 17 17 18 18 19 19 20 20
REMARK H PARENT
REMARK Flexibility Score: inf
ROOT
ATOM      1  C   UNL     1      39.675  21.657 226.463  1.00  0.00     0.000 C 
ENDROOT
BRANCH   1   2
ATOM      2  C   UNL     1      38.217  21.936 226.887  1.00  0.00     0.000 C 
BRANCH   2   3
ATOM      3  C   UNL     1      37.790  23.393 226.623  1.00  0.00     0.000 C 
BRANCH   3   4
ATOM      4  C   UNL     1      38.864  24.423 227.037  1.00  0.00     0.000 C 
BRANCH   4   5
ATOM      5  C   UNL     1      38.628  25.829 226.455  1.00  0.00     0.000 C 
BRANCH   5   6
ATOM      6  C   UNL     1      39.911  26.628 226.171  1.00  0.00     0.006 C 
BRANCH   6   7
ATOM      7  C   UNL     1      41.178  25.899 226.635  1.00  0.00     0.053 C 
BRANCH   7   8
ATOM      8  C   UNL     1      42.395  26.700 226.297  1.00  0.00     0.041 C 
ATOM      9  O   UNL     1      43.462  26.119 225.961  1.00  0.00    -0.550 OA
ATOM     10  O   UNL     1      42.367  28.085 226.394  1.00  0.00    -0.550 OA
ENDBRANCH   7   8
ENDBRANCH   6   7
ENDBRANCH   5   6
ENDBRANCH   4   5
ENDBRANCH   3   4
ENDBRANCH   2   3
ENDBRANCH   1   2
BRANCH   1  11
ATOM     11  C   UNL     1      39.842  21.357 224.961  1.00  0.00     0.000 C 
BRANCH  11  12
ATOM     12  C   UNL     1      41.045  22.066 224.303  1.00  0.00     0.000 C 
BRANCH  12  13
ATOM     13  C   UNL     1      40.823  23.545 223.923  1.00  0.00     0.000 C 
BRANCH  13  14
ATOM     14  C   UNL     1      39.868  23.794 222.741  1.00  0.00     0.000 C 
BRANCH  14  15
ATOM     15  C   UNL     1      38.510  24.368 223.171  1.00  0.00     0.000 C 
BRANCH  15  16
ATOM     16  C   UNL     1      37.380  23.363 222.913  1.00  0.00     0.006 C 
BRANCH  16  17
ATOM     17  C   UNL     1      36.012  24.049 222.978  1.00  0.00     0.053 C 
BRANCH  17  18
ATOM     18  C   UNL     1      35.331  23.987 221.646  1.00  0.00     0.041 C 
ATOM     19  O   UNL     1      35.991  24.158 220.589  1.00  0.00    -0.550 OA
ATOM     20  O   UNL     1      33.958  23.787 221.577  1.00  0.00    -0.550 OA
ENDBRANCH  17  18
ENDBRANCH  16  17
ENDBRANCH  15  16
ENDBRANCH  14  15
ENDBRANCH  13  14
ENDBRANCH  12  13
ENDBRANCH  11  12
ENDBRANCH   1  11
TORSDOF 15
ENDMDL
