MODEL 1
REMARK VINA RESULT:    -4.491      0.000      0.000
REMARK INTER + INTRA:          -5.726
REMARK INTER:                  -5.542
REMARK INTRA:                  -0.184
REMARK UNBOUND:                -0.184
REMARK SMILES CCCCC=CC(C)=O
REMARK SMILES IDX 4 1 3 2 2 3 1 4 5 5 6 6 7 7 9 8 8 9
REMARK H PARENT
REMARK Flexibility Score: inf
ROOT
ATOM      1  C   UNL     1       5.724  -3.171  28.275  1.00  0.00     0.027 C 
ENDROOT
BRANCH   1   2
ATOM      2  C   UNL     1       4.858  -4.372  27.871  1.00  0.00     0.004 C 
BRANCH   2   3
ATOM      3  C   UNL     1       4.151  -4.114  26.537  1.00  0.00    -0.003 C 
ATOM      4  C   UNL     1       5.089  -3.449  25.534  1.00  0.00     0.004 C 
ENDBRANCH   2   3
ENDBRANCH   1   2
BRANCH   1   5
ATOM      5  C   UNL     1       5.887  -3.095  29.765  1.00  0.00    -0.023 C 
ATOM      6  C   UNL     1       4.895  -3.440  30.595  1.00  0.00     0.042 C 
BRANCH   6   7
ATOM      7  C   UNL     1       5.005  -3.371  32.067  1.00  0.00     0.152 C 
ATOM      8  O   UNL     1       5.669  -2.430  32.578  1.00  0.00    -0.295 OA
ATOM      9  C   UNL     1       4.358  -4.378  32.970  1.00  0.00     0.093 C 
ENDBRANCH   6   7
ENDBRANCH   1   5
TORSDOF 4
ENDMDL
MODEL 2
REMARK VINA RESULT:    -4.426     11.482     12.333
REMARK INTER + INTRA:          -5.644
REMARK INTER:                  -5.505
REMARK INTRA:                  -0.139
REMARK UNBOUND:                -0.184
REMARK SMILES CCCCC=CC(C)=O
REMARK SMILES IDX 4 1 3 2 2 3 1 4 5 5 6 6 7 7 9 8 8 9
REMARK H PARENT
REMARK Flexibility Score: inf
ROOT
ATOM      1  C   UNL     1      -6.551  -4.271  29.052  1.00  0.00     0.027 C 
ENDROOT
BRANCH   1   2
ATOM      2  C   UNL     1      -5.284  -3.637  29.641  1.00  0.00     0.004 C 
BRANCH   2   3
ATOM      3  C   UNL     1      -5.553  -3.072  31.039  1.00  0.00    -0.003 C 
ATOM      4  C   UNL     1      -5.851  -1.576  30.982  1.00  0.00     0.004 C 
ENDBRANCH   2   3
ENDBRANCH   1   2
BRANCH   1   5
ATOM      5  C   UNL     1      -6.786  -5.643  29.616  1.00  0.00    -0.023 C 
ATOM      6  C   UNL     1      -6.507  -6.745  28.910  1.00  0.00     0.042 C 
BRANCH   6   7
ATOM      7  C   UNL     1      -6.732  -8.114  29.419  1.00  0.00     0.152 C 
ATOM      8  O   UNL     1      -7.157  -8.258  30.596  1.00  0.00    -0.295 OA
ATOM      9  C   UNL     1      -6.472  -9.334  28.586  1.00  0.00     0.093 C 
ENDBRANCH   6   7
ENDBRANCH   1   5
TORSDOF 4
ENDMDL
MODEL 3
REMARK VINA RESULT:    -4.173      2.279      5.333
REMARK INTER + INTRA:          -5.333
REMARK INTER:                  -5.195
REMARK INTRA:                  -0.138
REMARK UNBOUND:                -0.184
REMARK SMILES CCCCC=CC(C)=O
REMARK SMILES IDX 4 1 3 2 2 3 1 4 5 5 6 6 7 7 9 8 8 9
REMARK H PARENT
REMARK Flexibility Score: inf
ROOT
ATOM      1  C   UNL     1       5.183  -3.740  30.211  1.00  0.00     0.027 C 
ENDROOT
BRANCH   1   2
ATOM      2  C   UNL     1       6.085  -3.056  31.246  1.00  0.00     0.004 C 
BRANCH   2   3
ATOM      3  C   UNL     1       5.444  -3.087  32.638  1.00  0.00    -0.003 C 
ATOM      4  C   UNL     1       4.379  -4.176  32.731  1.00  0.00     0.004 C 
ENDBRANCH   2   3
ENDBRANCH   1   2
BRANCH   1   5
ATOM      5  C   UNL     1       5.568  -3.351  28.813  1.00  0.00    -0.023 C 
ATOM      6  C   UNL     1       4.855  -3.753  27.755  1.00  0.00     0.042 C 
BRANCH   6   7
ATOM      7  C   UNL     1       5.201  -3.405  26.361  1.00  0.00     0.152 C 
ATOM      8  O   UNL     1       6.184  -2.643  26.156  1.00  0.00    -0.295 OA
ATOM      9  C   UNL     1       4.427  -3.924  25.186  1.00  0.00     0.093 C 
ENDBRANCH   6   7
ENDBRANCH   1   5
TORSDOF 4
ENDMDL
MODEL 4
REMARK VINA RESULT:    -4.125     11.244     11.777
REMARK INTER + INTRA:          -5.274
REMARK INTER:                  -5.180
REMARK INTRA:                  -0.094
REMARK UNBOUND:                -0.184
REMARK SMILES CCCCC=CC(C)=O
REMARK SMILES IDX 4 1 3 2 2 3 1 4 5 5 6 6 7 7 9 8 8 9
REMARK H PARENT
REMARK Flexibility Score: inf
ROOT
ATOM      1  C   UNL     1      -5.607  -4.439  29.738  1.00  0.00     0.027 C 
ENDROOT
BRANCH   1   2
ATOM      2  C   UNL     1      -6.823  -5.288  29.345  1.00  0.00     0.004 C 
BRANCH   2   3
ATOM      3  C   UNL     1      -6.435  -6.761  29.183  1.00  0.00    -0.003 C 
ATOM      4  C   UNL     1      -7.288  -7.658  30.076  1.00  0.00     0.004 C 
ENDBRANCH   2   3
ENDBRANCH   1   2
BRANCH   1   5
ATOM      5  C   UNL     1      -5.977  -2.991  29.878  1.00  0.00    -0.023 C 
ATOM      6  C   UNL     1      -5.579  -2.268  30.932  1.00  0.00     0.042 C 
BRANCH   6   7
ATOM      7  C   UNL     1      -5.928  -0.844  31.118  1.00  0.00     0.152 C 
ATOM      8  O   UNL     1      -7.030  -0.559  31.658  1.00  0.00    -0.295 OA
ATOM      9  C   UNL     1      -5.020   0.269  30.689  1.00  0.00     0.093 C 
ENDBRANCH   6   7
ENDBRANCH   1   5
TORSDOF 4
ENDMDL
MODEL 5
REMARK VINA RESULT:    -3.714     17.164     18.961
REMARK INTER + INTRA:          -4.766
REMARK INTER:                  -4.498
REMARK INTRA:                  -0.268
REMARK UNBOUND:                -0.184
REMARK SMILES CCCCC=CC(C)=O
REMARK SMILES IDX 4 1 3 2 2 3 1 4 5 5 6 6 7 7 9 8 8 9
REMARK H PARENT
REMARK Flexibility Score: inf
ROOT
ATOM      1  C   UNL     1      -8.673  -4.866  20.530  1.00  0.00     0.027 C 
ENDROOT
BRANCH   1   2
ATOM      2  C   UNL     1      -9.431  -3.621  21.008  1.00  0.00     0.004 C 
BRANCH   2   3
ATOM      3  C   UNL     1      -9.791  -3.735  22.493  1.00  0.00    -0.003 C 
ATOM      4  C   UNL     1     -10.568  -5.017  22.776  1.00  0.00     0.004 C 
ENDBRANCH   2   3
ENDBRANCH   1   2
BRANCH   1   5
ATOM      5  C   UNL     1      -9.295  -5.436  19.288  1.00  0.00    -0.023 C 
ATOM      6  C   UNL     1     -10.600  -5.291  19.030  1.00  0.00     0.042 C 
BRANCH   6   7
ATOM      7  C   UNL     1     -11.257  -5.844  17.828  1.00  0.00     0.152 C 
ATOM      8  O   UNL     1     -10.549  -6.107  16.820  1.00  0.00    -0.295 OA
ATOM      9  C   UNL     1     -12.733  -6.102  17.766  1.00  0.00     0.093 C 
ENDBRANCH   6   7
ENDBRANCH   1   5
TORSDOF 4
ENDMDL
MODEL 6
REMARK VINA RESULT:    -3.695     16.446     17.361
REMARK INTER + INTRA:          -4.743
REMARK INTER:                  -4.573
REMARK INTRA:                  -0.170
REMARK UNBOUND:                -0.184
REMARK SMILES CCCCC=CC(C)=O
REMARK SMILES IDX 4 1 3 2 2 3 1 4 5 5 6 6 7 7 9 8 8 9
REMARK H PARENT
REMARK Flexibility Score: inf
ROOT
ATOM      1  C   UNL     1      -9.547  -5.875  18.190  1.00  0.00     0.027 C 
ENDROOT
BRANCH   1   2
ATOM      2  C   UNL     1      -8.225  -6.650  18.272  1.00  0.00     0.004 C 
BRANCH   2   3
ATOM      3  C   UNL     1      -8.240  -7.861  17.333  1.00  0.00    -0.003 C 
ATOM      4  C   UNL     1      -7.494  -9.043  17.944  1.00  0.00     0.004 C 
ENDBRANCH   2   3
ENDBRANCH   1   2
BRANCH   1   5
ATOM      5  C   UNL     1      -9.888  -5.241  19.507  1.00  0.00    -0.023 C 
ATOM      6  C   UNL     1      -8.941  -4.938  20.403  1.00  0.00     0.042 C 
BRANCH   6   7
ATOM      7  C   UNL     1      -9.230  -4.324  21.715  1.00  0.00     0.152 C 
ATOM      8  O   UNL     1      -8.505  -3.373  22.109  1.00  0.00    -0.295 OA
ATOM      9  C   UNL     1     -10.352  -4.794  22.592  1.00  0.00     0.093 C 
ENDBRANCH   6   7
ENDBRANCH   1   5
TORSDOF 4
ENDMDL
MODEL 7
REMARK VINA RESULT:    -3.659      8.578      8.927
REMARK INTER + INTRA:          -4.699
REMARK INTER:                  -4.506
REMARK INTRA:                  -0.193
REMARK UNBOUND:                -0.184
REMARK SMILES CCCCC=CC(C)=O
REMARK SMILES IDX 4 1 3 2 2 3 1 4 5 5 6 6 7 7 9 8 8 9
REMARK H PARENT
REMARK Flexibility Score: inf
ROOT
ATOM      1  C   UNL     1       3.185   3.354  28.098  1.00  0.00     0.027 C 
ENDROOT
BRANCH   1   2
ATOM      2  C   UNL     1       4.583   3.231  28.718  1.00  0.00     0.004 C 
BRANCH   2   3
ATOM      3  C   UNL     1       5.633   2.918  27.647  1.00  0.00    -0.003 C 
ATOM      4  C   UNL     1       5.029   2.979  26.247  1.00  0.00     0.004 C 
ENDBRANCH   2   3
ENDBRANCH   1   2
BRANCH   1   5
ATOM      5  C   UNL     1       2.242   4.071  29.020  1.00  0.00    -0.023 C 
ATOM      6  C   UNL     1       1.932   5.360  28.838  1.00  0.00     0.042 C 
BRANCH   6   7
ATOM      7  C   UNL     1       1.019   6.109  29.725  1.00  0.00     0.152 C 
ATOM      8  O   UNL     1       0.213   6.928  29.209  1.00  0.00    -0.295 OA
ATOM      9  C   UNL     1       1.019   5.931  31.214  1.00  0.00     0.093 C 
ENDBRANCH   6   7
ENDBRANCH   1   5
TORSDOF 4
ENDMDL
MODEL 8
REMARK VINA RESULT:    -3.553     17.125     18.066
REMARK INTER + INTRA:          -4.568
REMARK INTER:                  -4.438
REMARK INTRA:                  -0.130
REMARK UNBOUND:                -0.184
REMARK SMILES CCCCC=CC(C)=O
REMARK SMILES IDX 4 1 3 2 2 3 1 4 5 5 6 6 7 7 9 8 8 9
REMARK H PARENT
REMARK Flexibility Score: inf
ROOT
ATOM      1  C   UNL     1      -8.673  -5.053  18.975  1.00  0.00     0.027 C 
ENDROOT
BRANCH   1   2
ATOM      2  C   UNL     1      -9.796  -4.913  20.010  1.00  0.00     0.004 C 
BRANCH   2   3
ATOM      3  C   UNL     1      -9.229  -4.585  21.395  1.00  0.00    -0.003 C 
ATOM      4  C   UNL     1     -10.288  -4.753  22.480  1.00  0.00     0.004 C 
ENDBRANCH   2   3
ENDBRANCH   1   2
BRANCH   1   5
ATOM      5  C   UNL     1      -8.675  -6.419  18.351  1.00  0.00    -0.023 C 
ATOM      6  C   UNL     1      -7.585  -7.195  18.364  1.00  0.00     0.042 C 
BRANCH   6   7
ATOM      7  C   UNL     1      -7.537  -8.539  17.753  1.00  0.00     0.152 C 
ATOM      8  O   UNL     1      -7.635  -8.638  16.501  1.00  0.00    -0.295 OA
ATOM      9  C   UNL     1      -7.376  -9.787  18.570  1.00  0.00     0.093 C 
ENDBRANCH   6   7
ENDBRANCH   1   5
TORSDOF 4
ENDMDL
MODEL 9
REMARK VINA RESULT:    -3.546     16.359     17.193
REMARK INTER + INTRA:          -4.559
REMARK INTER:                  -4.367
REMARK INTRA:                  -0.191
REMARK UNBOUND:                -0.184
REMARK SMILES CCCCC=CC(C)=O
REMARK SMILES IDX 4 1 3 2 2 3 1 4 5 5 6 6 7 7 9 8 8 9
REMARK H PARENT
REMARK Flexibility Score: inf
ROOT
ATOM      1  C   UNL     1      -8.564  -5.214  18.709  1.00  0.00     0.027 C 
ENDROOT
BRANCH   1   2
ATOM      2  C   UNL     1      -9.664  -4.959  19.747  1.00  0.00     0.004 C 
BRANCH   2   3
ATOM      3  C   UNL     1      -9.064  -4.519  21.086  1.00  0.00    -0.003 C 
ATOM      4  C   UNL     1     -10.046  -4.746  22.232  1.00  0.00     0.004 C 
ENDBRANCH   2   3
ENDBRANCH   1   2
BRANCH   1   5
ATOM      5  C   UNL     1      -8.121  -6.649  18.727  1.00  0.00    -0.023 C 
ATOM      6  C   UNL     1      -6.859  -6.987  19.017  1.00  0.00     0.042 C 
BRANCH   6   7
ATOM      7  C   UNL     1      -6.376  -8.383  19.036  1.00  0.00     0.152 C 
ATOM      8  O   UNL     1      -5.255  -8.626  19.557  1.00  0.00    -0.295 OA
ATOM      9  C   UNL     1      -7.170  -9.517  18.459  1.00  0.00     0.093 C 
ENDBRANCH   6   7
ENDBRANCH   1   5
TORSDOF 4
ENDMDL
