MODEL 1
REMARK VINA RESULT:    -4.031      0.000      0.000
REMARK INTER + INTRA:          -9.809
REMARK INTER:                  -7.565
REMARK INTRA:                  -2.244
REMARK UNBOUND:                -2.244
REMARK SMILES O=C([O-])CCCCCCCCCCCCCCC(=O)[O-]
REMARK SMILES IDX 10 1 9 2 8 3 7 4 6 5 5 6 4 7 2 8 1 9 3 10 11 11 12 12 13 13
REMARK SMILES IDX 14 14 15 15 16 16 17 17 18 18 19 19 20 20
REMARK H PARENT
REMARK Flexibility Score: inf
ROOT
ATOM      1  C   UNL     1       1.469  13.977  10.905  1.00  0.00     0.000 C 
ENDROOT
BRANCH   1   2
ATOM      2  C   UNL     1       2.549  13.644  11.949  1.00  0.00     0.000 C 
BRANCH   2   3
ATOM      3  C   UNL     1       3.670  14.695  11.998  1.00  0.00     0.000 C 
BRANCH   3   4
ATOM      4  C   UNL     1       5.043  14.078  12.317  1.00  0.00     0.000 C 
BRANCH   4   5
ATOM      5  C   UNL     1       5.894  13.848  11.057  1.00  0.00     0.000 C 
BRANCH   5   6
ATOM      6  C   UNL     1       6.813  12.620  11.180  1.00  0.00     0.006 C 
BRANCH   6   7
ATOM      7  C   UNL     1       6.680  11.931  12.546  1.00  0.00     0.053 C 
BRANCH   7   8
ATOM      8  C   UNL     1       8.002  11.800  13.236  1.00  0.00     0.041 C 
ATOM      9  O   UNL     1       8.136  12.188  14.427  1.00  0.00    -0.550 OA
ATOM     10  O   UNL     1       9.094  11.276  12.555  1.00  0.00    -0.550 OA
ENDBRANCH   7   8
ENDBRANCH   6   7
ENDBRANCH   5   6
ENDBRANCH   4   5
ENDBRANCH   3   4
ENDBRANCH   2   3
ENDBRANCH   1   2
BRANCH   1  11
ATOM     11  C   UNL     1       1.739  15.305  10.181  1.00  0.00     0.000 C 
BRANCH  11  12
ATOM     12  C   UNL     1       1.695  15.162   8.650  1.00  0.00     0.000 C 
BRANCH  12  13
ATOM     13  C   UNL     1       1.557  13.699   8.198  1.00  0.00     0.000 C 
BRANCH  13  14
ATOM     14  C   UNL     1       2.783  13.206   7.410  1.00  0.00     0.000 C 
BRANCH  14  15
ATOM     15  C   UNL     1       3.900  12.678   8.324  1.00  0.00     0.000 C 
BRANCH  15  16
ATOM     16  C   UNL     1       3.807  11.162   8.554  1.00  0.00     0.006 C 
BRANCH  16  17
ATOM     17  C   UNL     1       3.498  10.848  10.022  1.00  0.00     0.053 C 
BRANCH  17  18
ATOM     18  C   UNL     1       2.284   9.981  10.128  1.00  0.00     0.041 C 
ATOM     19  O   UNL     1       1.427  10.196  11.024  1.00  0.00    -0.550 OA
ATOM     20  O   UNL     1       2.123   8.901   9.268  1.00  0.00    -0.550 OA
ENDBRANCH  17  18
ENDBRANCH  16  17
ENDBRANCH  15  16
ENDBRANCH  14  15
ENDBRANCH  13  14
ENDBRANCH  12  13
ENDBRANCH  11  12
ENDBRANCH   1  11
TORSDOF 15
ENDMDL
MODEL 2
REMARK VINA RESULT:    -3.969      1.851      5.318
REMARK INTER + INTRA:          -9.694
REMARK INTER:                  -7.552
REMARK INTRA:                  -2.141
REMARK UNBOUND:                -2.244
REMARK SMILES O=C([O-])CCCCCCCCCCCCCCC(=O)[O-]
REMARK SMILES IDX 10 1 9 2 8 3 7 4 6 5 5 6 4 7 2 8 1 9 3 10 11 11 12 12 13 13
REMARK SMILES IDX 14 14 15 15 16 16 17 17 18 18 19 19 20 20
REMARK H PARENT
REMARK Flexibility Score: inf
ROOT
ATOM      1  C   UNL     1       1.884  15.777  10.497  1.00  0.00     0.000 C 
ENDROOT
BRANCH   1   2
ATOM      2  C   UNL     1       1.026  15.289   9.316  1.00  0.00     0.000 C 
BRANCH   2   3
ATOM      3  C   UNL     1       1.404  13.873   8.854  1.00  0.00     0.000 C 
BRANCH   3   4
ATOM      4  C   UNL     1       2.502  13.876   7.776  1.00  0.00     0.000 C 
BRANCH   4   5
ATOM      5  C   UNL     1       3.757  13.102   8.209  1.00  0.00     0.000 C 
BRANCH   5   6
ATOM      6  C   UNL     1       3.461  12.055   9.297  1.00  0.00     0.006 C 
BRANCH   6   7
ATOM      7  C   UNL     1       3.845  10.636   8.853  1.00  0.00     0.053 C 
BRANCH   7   8
ATOM      8  C   UNL     1       2.687   9.911   8.241  1.00  0.00     0.041 C 
ATOM      9  O   UNL     1       2.886   8.917   7.493  1.00  0.00    -0.550 OA
ATOM     10  O   UNL     1       1.389  10.349   8.471  1.00  0.00    -0.550 OA
ENDBRANCH   7   8
ENDBRANCH   6   7
ENDBRANCH   5   6
ENDBRANCH   4   5
ENDBRANCH   3   4
ENDBRANCH   2   3
ENDBRANCH   1   2
BRANCH   1  11
ATOM     11  C   UNL     1       2.282  14.635  11.445  1.00  0.00     0.000 C 
BRANCH  11  12
ATOM     12  C   UNL     1       3.605  14.914  12.181  1.00  0.00     0.000 C 
BRANCH  12  13
ATOM     13  C   UNL     1       3.993  13.783  13.147  1.00  0.00     0.000 C 
BRANCH  13  14
ATOM     14  C   UNL     1       5.293  13.073  12.731  1.00  0.00     0.000 C 
BRANCH  14  15
ATOM     15  C   UNL     1       5.937  13.702  11.486  1.00  0.00     0.000 C 
BRANCH  15  16
ATOM     16  C   UNL     1       7.019  12.807  10.864  1.00  0.00     0.006 C 
BRANCH  16  17
ATOM     17  C   UNL     1       6.721  11.327  11.122  1.00  0.00     0.053 C 
BRANCH  17  18
ATOM     18  C   UNL     1       7.500  10.463  10.182  1.00  0.00     0.041 C 
ATOM     19  O   UNL     1       8.019  10.958   9.148  1.00  0.00    -0.550 OA
ATOM     20  O   UNL     1       7.613   9.099  10.422  1.00  0.00    -0.550 OA
ENDBRANCH  17  18
ENDBRANCH  16  17
ENDBRANCH  15  16
ENDBRANCH  14  15
ENDBRANCH  13  14
ENDBRANCH  12  13
ENDBRANCH  11  12
ENDBRANCH   1  11
TORSDOF 15
ENDMDL
MODEL 3
REMARK VINA RESULT:    -3.961      2.064      3.708
REMARK INTER + INTRA:          -9.678
REMARK INTER:                  -7.606
REMARK INTRA:                  -2.072
REMARK UNBOUND:                -2.244
REMARK SMILES O=C([O-])CCCCCCCCCCCCCCC(=O)[O-]
REMARK SMILES IDX 10 1 9 2 8 3 7 4 6 5 5 6 4 7 2 8 1 9 3 10 11 11 12 12 13 13
REMARK SMILES IDX 14 14 15 15 16 16 17 17 18 18 19 19 20 20
REMARK H PARENT
REMARK Flexibility Score: inf
ROOT
ATOM      1  C   UNL     1       5.679  14.183  11.254  1.00  0.00     0.000 C 
ENDROOT
BRANCH   1   2
ATOM      2  C   UNL     1       6.583  12.938  11.250  1.00  0.00     0.000 C 
BRANCH   2   3
ATOM      3  C   UNL     1       6.527  12.159  12.574  1.00  0.00     0.000 C 
BRANCH   3   4
ATOM      4  C   UNL     1       7.921  11.936  13.187  1.00  0.00     0.000 C 
BRANCH   4   5
ATOM      5  C   UNL     1       9.039  11.941  12.131  1.00  0.00     0.000 C 
BRANCH   5   6
ATOM      6  C   UNL     1       9.248  10.559  11.486  1.00  0.00     0.006 C 
BRANCH   6   7
ATOM      7  C   UNL     1       9.337  10.643   9.955  1.00  0.00     0.053 C 
BRANCH   7   8
ATOM      8  C   UNL     1       8.047  10.258   9.300  1.00  0.00     0.041 C 
ATOM      9  O   UNL     1       7.844  10.536   8.089  1.00  0.00    -0.550 OA
ATOM     10  O   UNL     1       7.056   9.618  10.035  1.00  0.00    -0.550 OA
ENDBRANCH   7   8
ENDBRANCH   6   7
ENDBRANCH   5   6
ENDBRANCH   4   5
ENDBRANCH   3   4
ENDBRANCH   2   3
ENDBRANCH   1   2
BRANCH   1  11
ATOM     11  C   UNL     1       4.646  14.155  12.392  1.00  0.00     0.000 C 
BRANCH  11  12
ATOM     12  C   UNL     1       3.327  14.849  12.008  1.00  0.00     0.000 C 
BRANCH  12  13
ATOM     13  C   UNL     1       2.115  13.910  12.113  1.00  0.00     0.000 C 
BRANCH  13  14
ATOM     14  C   UNL     1       1.458  13.642  10.748  1.00  0.00     0.000 C 
BRANCH  14  15
ATOM     15  C   UNL     1       2.245  14.259   9.581  1.00  0.00     0.000 C 
BRANCH  15  16
ATOM     16  C   UNL     1       2.506  13.257   8.448  1.00  0.00     0.006 C 
BRANCH  16  17
ATOM     17  C   UNL     1       3.944  12.732   8.501  1.00  0.00     0.053 C 
BRANCH  17  18
ATOM     18  C   UNL     1       3.976  11.345   9.059  1.00  0.00     0.041 C 
ATOM     19  O   UNL     1       3.784  11.151  10.288  1.00  0.00    -0.550 OA
ATOM     20  O   UNL     1       4.267  10.268   8.230  1.00  0.00    -0.550 OA
ENDBRANCH  17  18
ENDBRANCH  16  17
ENDBRANCH  15  16
ENDBRANCH  14  15
ENDBRANCH  13  14
ENDBRANCH  12  13
ENDBRANCH  11  12
ENDBRANCH   1  11
TORSDOF 15
ENDMDL
MODEL 4
REMARK VINA RESULT:    -3.919      2.249      4.363
REMARK INTER + INTRA:          -9.600
REMARK INTER:                  -7.596
REMARK INTRA:                  -2.005
REMARK UNBOUND:                -2.244
REMARK SMILES O=C([O-])CCCCCCCCCCCCCCC(=O)[O-]
REMARK SMILES IDX 10 1 9 2 8 3 7 4 6 5 5 6 4 7 2 8 1 9 3 10 11 11 12 12 13 13
REMARK SMILES IDX 14 14 15 15 16 16 17 17 18 18 19 19 20 20
REMARK H PARENT
REMARK Flexibility Score: inf
ROOT
ATOM      1  C   UNL     1       4.903  10.063   8.615  1.00  0.00     0.000 C 
ENDROOT
BRANCH   1   2
ATOM      2  C   UNL     1       6.384   9.877   8.245  1.00  0.00     0.000 C 
BRANCH   2   3
ATOM      3  C   UNL     1       7.183   9.151   9.340  1.00  0.00     0.000 C 
BRANCH   3   4
ATOM      4  C   UNL     1       7.382  10.015  10.597  1.00  0.00     0.000 C 
BRANCH   4   5
ATOM      5  C   UNL     1       8.008  11.383  10.281  1.00  0.00     0.000 C 
BRANCH   5   6
ATOM      6  C   UNL     1       7.740  12.425  11.381  1.00  0.00     0.006 C 
BRANCH   6   7
ATOM      7  C   UNL     1       8.214  11.945  12.760  1.00  0.00     0.053 C 
BRANCH   7   8
ATOM      8  C   UNL     1       7.105  11.952  13.765  1.00  0.00     0.041 C 
ATOM      9  O   UNL     1       7.365  11.928  14.997  1.00  0.00    -0.550 OA
ATOM     10  O   UNL     1       5.781  11.956  13.342  1.00  0.00    -0.550 OA
ENDBRANCH   7   8
ENDBRANCH   6   7
ENDBRANCH   5   6
ENDBRANCH   4   5
ENDBRANCH   3   4
ENDBRANCH   2   3
ENDBRANCH   1   2
BRANCH   1  11
ATOM     11  C   UNL     1       4.495  11.543   8.683  1.00  0.00     0.000 C 
BRANCH  11  12
ATOM     12  C   UNL     1       4.220  12.015  10.122  1.00  0.00     0.000 C 
BRANCH  12  13
ATOM     13  C   UNL     1       4.459  13.522  10.305  1.00  0.00     0.000 C 
BRANCH  13  14
ATOM     14  C   UNL     1       3.679  14.103  11.497  1.00  0.00     0.000 C 
BRANCH  14  15
ATOM     15  C   UNL     1       2.180  14.265  11.199  1.00  0.00     0.000 C 
BRANCH  15  16
ATOM     16  C   UNL     1       1.899  15.361  10.162  1.00  0.00     0.006 C 
BRANCH  16  17
ATOM     17  C   UNL     1       0.883  14.883   9.120  1.00  0.00     0.053 C 
BRANCH  17  18
ATOM     18  C   UNL     1       1.512  13.896   8.189  1.00  0.00     0.041 C 
ATOM     19  O   UNL     1       1.146  12.692   8.200  1.00  0.00    -0.550 OA
ATOM     20  O   UNL     1       2.538  14.295   7.341  1.00  0.00    -0.550 OA
ENDBRANCH  17  18
ENDBRANCH  16  17
ENDBRANCH  15  16
ENDBRANCH  14  15
ENDBRANCH  13  14
ENDBRANCH  12  13
ENDBRANCH  11  12
ENDBRANCH   1  11
TORSDOF 15
ENDMDL
MODEL 5
REMARK VINA RESULT:    -3.919      2.157      2.617
REMARK INTER + INTRA:          -9.599
REMARK INTER:                  -7.323
REMARK INTRA:                  -2.276
REMARK UNBOUND:                -2.244
REMARK SMILES O=C([O-])CCCCCCCCCCCCCCC(=O)[O-]
REMARK SMILES IDX 10 1 9 2 8 3 7 4 6 5 5 6 4 7 2 8 1 9 3 10 11 11 12 12 13 13
REMARK SMILES IDX 14 14 15 15 16 16 17 17 18 18 19 19 20 20
REMARK H PARENT
REMARK Flexibility Score: inf
ROOT
ATOM      1  C   UNL     1       3.081  15.140  11.928  1.00  0.00     0.000 C 
ENDROOT
BRANCH   1   2
ATOM      2  C   UNL     1       4.116  14.434  12.821  1.00  0.00     0.000 C 
BRANCH   2   3
ATOM      3  C   UNL     1       4.826  13.275  12.102  1.00  0.00     0.000 C 
BRANCH   3   4
ATOM      4  C   UNL     1       5.979  13.756  11.203  1.00  0.00     0.000 C 
BRANCH   4   5
ATOM      5  C   UNL     1       7.086  12.701  11.048  1.00  0.00     0.000 C 
BRANCH   5   6
ATOM      6  C   UNL     1       6.559  11.263  11.195  1.00  0.00     0.006 C 
BRANCH   6   7
ATOM      7  C   UNL     1       7.604  10.218  10.780  1.00  0.00     0.053 C 
BRANCH   7   8
ATOM      8  C   UNL     1       7.264   9.578   9.470  1.00  0.00     0.041 C 
ATOM      9  O   UNL     1       7.100  10.288   8.442  1.00  0.00    -0.550 OA
ATOM     10  O   UNL     1       7.099   8.201   9.388  1.00  0.00    -0.550 OA
ENDBRANCH   7   8
ENDBRANCH   6   7
ENDBRANCH   5   6
ENDBRANCH   4   5
ENDBRANCH   3   4
ENDBRANCH   2   3
ENDBRANCH   1   2
BRANCH   1  11
ATOM     11  C   UNL     1       2.173  14.149  11.183  1.00  0.00     0.000 C 
BRANCH  11  12
ATOM     12  C   UNL     1       1.870  14.596   9.742  1.00  0.00     0.000 C 
BRANCH  12  13
ATOM     13  C   UNL     1       1.987  13.444   8.731  1.00  0.00     0.000 C 
BRANCH  13  14
ATOM     14  C   UNL     1       3.334  13.446   7.988  1.00  0.00     0.000 C 
BRANCH  14  15
ATOM     15  C   UNL     1       4.203  12.228   8.337  1.00  0.00     0.000 C 
BRANCH  15  16
ATOM     16  C   UNL     1       3.469  11.213   9.224  1.00  0.00     0.006 C 
BRANCH  16  17
ATOM     17  C   UNL     1       3.564   9.801   8.638  1.00  0.00     0.053 C 
BRANCH  17  18
ATOM     18  C   UNL     1       2.290   9.433   7.946  1.00  0.00     0.041 C 
ATOM     19  O   UNL     1       1.194   9.910   8.340  1.00  0.00    -0.550 OA
ATOM     20  O   UNL     1       2.307   8.522   6.896  1.00  0.00    -0.550 OA
ENDBRANCH  17  18
ENDBRANCH  16  17
ENDBRANCH  15  16
ENDBRANCH  14  15
ENDBRANCH  13  14
ENDBRANCH  12  13
ENDBRANCH  11  12
ENDBRANCH   1  11
TORSDOF 15
ENDMDL
MODEL 6
REMARK VINA RESULT:    -3.851      2.031      5.208
REMARK INTER + INTRA:          -9.472
REMARK INTER:                  -7.910
REMARK INTRA:                  -1.562
REMARK UNBOUND:                -2.244
REMARK SMILES O=C([O-])CCCCCCCCCCCCCCC(=O)[O-]
REMARK SMILES IDX 10 1 9 2 8 3 7 4 6 5 5 6 4 7 2 8 1 9 3 10 11 11 12 12 13 13
REMARK SMILES IDX 14 14 15 15 16 16 17 17 18 18 19 19 20 20
REMARK H PARENT
REMARK Flexibility Score: inf
ROOT
ATOM      1  C   UNL     1       2.227  14.344  11.257  1.00  0.00     0.000 C 
ENDROOT
BRANCH   1   2
ATOM      2  C   UNL     1       1.882  15.695  10.608  1.00  0.00     0.000 C 
BRANCH   2   3
ATOM      3  C   UNL     1       1.094  15.539   9.297  1.00  0.00     0.000 C 
BRANCH   3   4
ATOM      4  C   UNL     1       1.335  14.178   8.622  1.00  0.00     0.000 C 
BRANCH   4   5
ATOM      5  C   UNL     1       2.433  14.238   7.547  1.00  0.00     0.000 C 
BRANCH   5   6
ATOM      6  C   UNL     1       3.300  12.967   7.515  1.00  0.00     0.006 C 
BRANCH   6   7
ATOM      7  C   UNL     1       4.178  12.834   8.768  1.00  0.00     0.053 C 
BRANCH   7   8
ATOM      8  C   UNL     1       4.221  11.425   9.272  1.00  0.00     0.041 C 
ATOM      9  O   UNL     1       3.763  11.145  10.411  1.00  0.00    -0.550 OA
ATOM     10  O   UNL     1       4.794  10.424   8.495  1.00  0.00    -0.550 OA
ENDBRANCH   7   8
ENDBRANCH   6   7
ENDBRANCH   5   6
ENDBRANCH   4   5
ENDBRANCH   3   4
ENDBRANCH   2   3
ENDBRANCH   1   2
BRANCH   1  11
ATOM     11  C   UNL     1       3.152  14.495  12.475  1.00  0.00     0.000 C 
BRANCH  11  12
ATOM     12  C   UNL     1       4.643  14.445  12.093  1.00  0.00     0.000 C 
BRANCH  12  13
ATOM     13  C   UNL     1       5.368  13.238  12.709  1.00  0.00     0.000 C 
BRANCH  13  14
ATOM     14  C   UNL     1       6.621  12.834  11.913  1.00  0.00     0.000 C 
BRANCH  14  15
ATOM     15  C   UNL     1       7.498  11.821  12.666  1.00  0.00     0.000 C 
BRANCH  15  16
ATOM     16  C   UNL     1       8.369  10.978  11.723  1.00  0.00     0.006 C 
BRANCH  16  17
ATOM     17  C   UNL     1       7.503  10.194  10.731  1.00  0.00     0.053 C 
BRANCH  17  18
ATOM     18  C   UNL     1       8.362   9.405   9.795  1.00  0.00     0.041 C 
ATOM     19  O   UNL     1       9.308   8.704  10.240  1.00  0.00    -0.550 OA
ATOM     20  O   UNL     1       8.150   9.483   8.424  1.00  0.00    -0.550 OA
ENDBRANCH  17  18
ENDBRANCH  16  17
ENDBRANCH  15  16
ENDBRANCH  14  15
ENDBRANCH  13  14
ENDBRANCH  12  13
ENDBRANCH  11  12
ENDBRANCH   1  11
TORSDOF 15
ENDMDL
MODEL 7
REMARK VINA RESULT:    -3.827      1.772      5.593
REMARK INTER + INTRA:          -9.427
REMARK INTER:                  -7.205
REMARK INTRA:                  -2.223
REMARK UNBOUND:                -2.244
REMARK SMILES O=C([O-])CCCCCCCCCCCCCCC(=O)[O-]
REMARK SMILES IDX 10 1 9 2 8 3 7 4 6 5 5 6 4 7 2 8 1 9 3 10 11 11 12 12 13 13
REMARK SMILES IDX 14 14 15 15 16 16 17 17 18 18 19 19 20 20
REMARK H PARENT
REMARK Flexibility Score: inf
ROOT
ATOM      1  C   UNL     1       2.890  13.983  10.021  1.00  0.00     0.000 C 
ENDROOT
BRANCH   1   2
ATOM      2  C   UNL     1       2.663  14.820  11.291  1.00  0.00     0.000 C 
BRANCH   2   3
ATOM      3  C   UNL     1       3.815  14.692  12.300  1.00  0.00     0.000 C 
BRANCH   3   4
ATOM      4  C   UNL     1       3.386  13.984  13.598  1.00  0.00     0.000 C 
BRANCH   4   5
ATOM      5  C   UNL     1       2.312  12.912  13.359  1.00  0.00     0.000 C 
BRANCH   5   6
ATOM      6  C   UNL     1       2.896  11.601  12.803  1.00  0.00     0.006 C 
BRANCH   6   7
ATOM      7  C   UNL     1       1.806  10.561  12.505  1.00  0.00     0.053 C 
BRANCH   7   8
ATOM      8  C   UNL     1       1.469  10.508  11.048  1.00  0.00     0.041 C 
ATOM      9  O   UNL     1       2.026   9.662  10.299  1.00  0.00    -0.550 OA
ATOM     10  O   UNL     1       0.560  11.411  10.509  1.00  0.00    -0.550 OA
ENDBRANCH   7   8
ENDBRANCH   6   7
ENDBRANCH   5   6
ENDBRANCH   4   5
ENDBRANCH   3   4
ENDBRANCH   2   3
ENDBRANCH   1   2
BRANCH   1  11
ATOM     11  C   UNL     1       4.337  13.481   9.898  1.00  0.00     0.000 C 
BRANCH  11  12
ATOM     12  C   UNL     1       4.415  11.994   9.508  1.00  0.00     0.000 C 
BRANCH  12  13
ATOM     13  C   UNL     1       5.586  11.267  10.188  1.00  0.00     0.000 C 
BRANCH  13  14
ATOM     14  C   UNL     1       6.267  12.127  11.267  1.00  0.00     0.000 C 
BRANCH  14  15
ATOM     15  C   UNL     1       7.405  11.382  11.984  1.00  0.00     0.000 C 
BRANCH  15  16
ATOM     16  C   UNL     1       7.636  11.893  13.413  1.00  0.00     0.006 C 
BRANCH  16  17
ATOM     17  C   UNL     1       6.307  12.073  14.154  1.00  0.00     0.053 C 
BRANCH  17  18
ATOM     18  C   UNL     1       6.527  12.073  15.633  1.00  0.00     0.041 C 
ATOM     19  O   UNL     1       5.760  12.725  16.389  1.00  0.00    -0.550 OA
ATOM     20  O   UNL     1       7.611  11.392  16.175  1.00  0.00    -0.550 OA
ENDBRANCH  17  18
ENDBRANCH  16  17
ENDBRANCH  15  16
ENDBRANCH  14  15
ENDBRANCH  13  14
ENDBRANCH  12  13
ENDBRANCH  11  12
ENDBRANCH   1  11
TORSDOF 15
ENDMDL
MODEL 8
REMARK VINA RESULT:    -3.807      2.064      4.213
REMARK INTER + INTRA:          -9.389
REMARK INTER:                  -7.493
REMARK INTRA:                  -1.896
REMARK UNBOUND:                -2.244
REMARK SMILES O=C([O-])CCCCCCCCCCCCCCC(=O)[O-]
REMARK SMILES IDX 10 1 9 2 8 3 7 4 6 5 5 6 4 7 2 8 1 9 3 10 11 11 12 12 13 13
REMARK SMILES IDX 14 14 15 15 16 16 17 17 18 18 19 19 20 20
REMARK H PARENT
REMARK Flexibility Score: inf
ROOT
ATOM      1  C   UNL     1       6.864  13.049  11.042  1.00  0.00     0.000 C 
ENDROOT
BRANCH   1   2
ATOM      2  C   UNL     1       6.458  11.604  11.380  1.00  0.00     0.000 C 
BRANCH   2   3
ATOM      3  C   UNL     1       7.638  10.623  11.302  1.00  0.00     0.000 C 
BRANCH   3   4
ATOM      4  C   UNL     1       9.002  11.333  11.375  1.00  0.00     0.000 C 
BRANCH   4   5
ATOM      5  C   UNL     1       9.695  11.142  12.734  1.00  0.00     0.000 C 
BRANCH   5   6
ATOM      6  C   UNL     1       9.436  12.311  13.700  1.00  0.00     0.006 C 
BRANCH   6   7
ATOM      7  C   UNL     1       8.283  12.017  14.671  1.00  0.00     0.053 C 
BRANCH   7   8
ATOM      8  C   UNL     1       8.781  11.661  16.037  1.00  0.00     0.041 C 
ATOM      9  O   UNL     1       9.992  11.363  16.213  1.00  0.00    -0.550 OA
ATOM     10  O   UNL     1       7.901  11.631  17.113  1.00  0.00    -0.550 OA
ENDBRANCH   7   8
ENDBRANCH   6   7
ENDBRANCH   5   6
ENDBRANCH   4   5
ENDBRANCH   3   4
ENDBRANCH   2   3
ENDBRANCH   1   2
BRANCH   1  11
ATOM     11  C   UNL     1       5.716  14.048  11.257  1.00  0.00     0.000 C 
BRANCH  11  12
ATOM     12  C   UNL     1       5.000  13.843  12.603  1.00  0.00     0.000 C 
BRANCH  12  13
ATOM     13  C   UNL     1       3.820  14.809  12.797  1.00  0.00     0.000 C 
BRANCH  13  14
ATOM     14  C   UNL     1       2.887  14.853  11.574  1.00  0.00     0.000 C 
BRANCH  14  15
ATOM     15  C   UNL     1       1.951  13.637  11.501  1.00  0.00     0.000 C 
BRANCH  15  16
ATOM     16  C   UNL     1       1.927  12.991  10.109  1.00  0.00     0.006 C 
BRANCH  16  17
ATOM     17  C   UNL     1       3.036  11.943   9.971  1.00  0.00     0.053 C 
BRANCH  17  18
ATOM     18  C   UNL     1       3.844  12.193   8.738  1.00  0.00     0.041 C 
ATOM     19  O   UNL     1       3.793  13.310   8.162  1.00  0.00    -0.550 OA
ATOM     20  O   UNL     1       4.618  11.174   8.195  1.00  0.00    -0.550 OA
ENDBRANCH  17  18
ENDBRANCH  16  17
ENDBRANCH  15  16
ENDBRANCH  14  15
ENDBRANCH  13  14
ENDBRANCH  12  13
ENDBRANCH  11  12
ENDBRANCH   1  11
TORSDOF 15
ENDMDL
MODEL 9
REMARK VINA RESULT:    -3.796      1.794      3.065
REMARK INTER + INTRA:          -9.368
REMARK INTER:                  -6.924
REMARK INTRA:                  -2.444
REMARK UNBOUND:                -2.244
REMARK SMILES O=C([O-])CCCCCCCCCCCCCCC(=O)[O-]
REMARK SMILES IDX 10 1 9 2 8 3 7 4 6 5 5 6 4 7 2 8 1 9 3 10 11 11 12 12 13 13
REMARK SMILES IDX 14 14 15 15 16 16 17 17 18 18 19 19 20 20
REMARK H PARENT
REMARK Flexibility Score: inf
ROOT
ATOM      1  C   UNL     1       3.906  11.669   8.660  1.00  0.00     0.000 C 
ENDROOT
BRANCH   1   2
ATOM      2  C   UNL     1       4.343  11.911  10.115  1.00  0.00     0.000 C 
BRANCH   2   3
ATOM      3  C   UNL     1       4.561  13.400  10.429  1.00  0.00     0.000 C 
BRANCH   3   4
ATOM      4  C   UNL     1       5.391  13.618  11.707  1.00  0.00     0.000 C 
BRANCH   4   5
ATOM      5  C   UNL     1       5.738  12.300  12.418  1.00  0.00     0.000 C 
BRANCH   5   6
ATOM      6  C   UNL     1       7.254  12.110  12.604  1.00  0.00     0.006 C 
BRANCH   6   7
ATOM      7  C   UNL     1       8.026  12.291  11.289  1.00  0.00     0.053 C 
BRANCH   7   8
ATOM      8  C   UNL     1       8.221  10.992  10.572  1.00  0.00     0.041 C 
ATOM      9  O   UNL     1       7.550  10.732   9.539  1.00  0.00    -0.550 OA
ATOM     10  O   UNL     1       9.122  10.054  11.062  1.00  0.00    -0.550 OA
ENDBRANCH   7   8
ENDBRANCH   6   7
ENDBRANCH   5   6
ENDBRANCH   4   5
ENDBRANCH   3   4
ENDBRANCH   2   3
ENDBRANCH   1   2
BRANCH   1  11
ATOM     11  C   UNL     1       3.775  12.974   7.860  1.00  0.00     0.000 C 
BRANCH  11  12
ATOM     12  C   UNL     1       2.314  13.307   7.509  1.00  0.00     0.000 C 
BRANCH  12  13
ATOM     13  C   UNL     1       1.786  14.528   8.279  1.00  0.00     0.000 C 
BRANCH  13  14
ATOM     14  C   UNL     1       0.926  14.134   9.492  1.00  0.00     0.000 C 
BRANCH  14  15
ATOM     15  C   UNL     1       0.348  12.715   9.371  1.00  0.00     0.000 C 
BRANCH  15  16
ATOM     16  C   UNL     1       0.658  11.844  10.596  1.00  0.00     0.006 C 
BRANCH  16  17
ATOM     17  C   UNL     1       1.068  12.707  11.793  1.00  0.00     0.053 C 
BRANCH  17  18
ATOM     18  C   UNL     1       1.869  11.904  12.769  1.00  0.00     0.041 C 
ATOM     19  O   UNL     1       2.419  12.465  13.752  1.00  0.00    -0.550 OA
ATOM     20  O   UNL     1       2.050  10.541  12.565  1.00  0.00    -0.550 OA
ENDBRANCH  17  18
ENDBRANCH  16  17
ENDBRANCH  15  16
ENDBRANCH  14  15
ENDBRANCH  13  14
ENDBRANCH  12  13
ENDBRANCH  11  12
ENDBRANCH   1  11
TORSDOF 15
ENDMDL
