MODEL 1
REMARK VINA RESULT:    -3.368      0.000      0.000
REMARK INTER + INTRA:          -3.771
REMARK INTER:                  -3.762
REMARK INTRA:                  -0.009
REMARK UNBOUND:                -0.009
REMARK SMILES CCCC(=O)[O-]
REMARK SMILES IDX 3 1 4 2 5 3 6 4 2 5 1 6
REMARK H PARENT
REMARK Flexibility Score: inf
ROOT
ATOM      1  C   UNL     1      62.340 -28.138  -1.917  1.00  0.00     0.052 C 
ENDROOT
BRANCH   1   2
ATOM      2  C   UNL     1      62.492 -28.766  -0.565  1.00  0.00     0.041 C 
ATOM      3  O   UNL     1      63.640 -28.999  -0.103  1.00  0.00    -0.550 OA
ATOM      4  O   UNL     1      61.368 -29.125   0.167  1.00  0.00    -0.550 OA
ENDBRANCH   1   2
BRANCH   1   5
ATOM      5  C   UNL     1      63.423 -27.085  -2.182  1.00  0.00     0.003 C 
ATOM      6  C   UNL     1      62.889 -25.883  -2.960  1.00  0.00     0.004 C 
ENDBRANCH   1   5
TORSDOF 2
ENDMDL
MODEL 2
REMARK VINA RESULT:    -3.327      0.149      1.328
REMARK INTER + INTRA:          -3.724
REMARK INTER:                  -3.715
REMARK INTRA:                  -0.009
REMARK UNBOUND:                -0.009
REMARK SMILES CCCC(=O)[O-]
REMARK SMILES IDX 3 1 4 2 5 3 6 4 2 5 1 6
REMARK H PARENT
REMARK Flexibility Score: inf
ROOT
ATOM      1  C   UNL     1      62.171 -28.075  -1.925  1.00  0.00     0.052 C 
ENDROOT
BRANCH   1   2
ATOM      2  C   UNL     1      62.300 -28.775  -0.607  1.00  0.00     0.041 C 
ATOM      3  O   UNL     1      61.272 -29.163   0.006  1.00  0.00    -0.550 OA
ATOM      4  O   UNL     1      63.554 -28.966  -0.039  1.00  0.00    -0.550 OA
ENDBRANCH   1   2
BRANCH   1   5
ATOM      5  C   UNL     1      63.363 -27.150  -2.199  1.00  0.00     0.003 C 
ATOM      6  C   UNL     1      62.956 -25.882  -2.949  1.00  0.00     0.004 C 
ENDBRANCH   1   5
TORSDOF 2
ENDMDL
MODEL 3
REMARK VINA RESULT:    -3.317      2.634      3.466
REMARK INTER + INTRA:          -3.714
REMARK INTER:                  -3.684
REMARK INTRA:                  -0.030
REMARK UNBOUND:                -0.009
REMARK SMILES CCCC(=O)[O-]
REMARK SMILES IDX 3 1 4 2 5 3 6 4 2 5 1 6
REMARK H PARENT
REMARK Flexibility Score: inf
ROOT
ATOM      1  C   UNL     1      63.569 -27.084  -2.033  1.00  0.00     0.052 C 
ENDROOT
BRANCH   1   2
ATOM      2  C   UNL     1      62.528 -26.325  -2.798  1.00  0.00     0.041 C 
ATOM      3  O   UNL     1      62.861 -25.611  -3.780  1.00  0.00    -0.550 OA
ATOM      4  O   UNL     1      61.197 -26.378  -2.404  1.00  0.00    -0.550 OA
ENDBRANCH   1   2
BRANCH   1   5
ATOM      5  C   UNL     1      63.131 -28.527  -1.753  1.00  0.00     0.003 C 
ATOM      6  C   UNL     1      63.224 -28.886  -0.270  1.00  0.00     0.004 C 
ENDBRANCH   1   5
TORSDOF 2
ENDMDL
MODEL 4
REMARK VINA RESULT:    -3.306      2.663      3.652
REMARK INTER + INTRA:          -3.702
REMARK INTER:                  -3.665
REMARK INTRA:                  -0.036
REMARK UNBOUND:                -0.009
REMARK SMILES CCCC(=O)[O-]
REMARK SMILES IDX 3 1 4 2 5 3 6 4 2 5 1 6
REMARK H PARENT
REMARK Flexibility Score: inf
ROOT
ATOM      1  C   UNL     1      63.602 -27.022  -2.010  1.00  0.00     0.052 C 
ENDROOT
BRANCH   1   2
ATOM      2  C   UNL     1      62.501 -26.341  -2.765  1.00  0.00     0.041 C 
ATOM      3  O   UNL     1      61.307 -26.455  -2.382  1.00  0.00    -0.550 OA
ATOM      4  O   UNL     1      62.790 -25.611  -3.911  1.00  0.00    -0.550 OA
ENDBRANCH   1   2
BRANCH   1   5
ATOM      5  C   UNL     1      63.296 -28.505  -1.770  1.00  0.00     0.003 C 
ATOM      6  C   UNL     1      63.258 -28.859  -0.284  1.00  0.00     0.004 C 
ENDBRANCH   1   5
TORSDOF 2
ENDMDL
MODEL 5
REMARK VINA RESULT:    -3.291      1.333      1.629
REMARK INTER + INTRA:          -3.685
REMARK INTER:                  -3.649
REMARK INTRA:                  -0.036
REMARK UNBOUND:                -0.009
REMARK SMILES CCCC(=O)[O-]
REMARK SMILES IDX 3 1 4 2 5 3 6 4 2 5 1 6
REMARK H PARENT
REMARK Flexibility Score: inf
ROOT
ATOM      1  C   UNL     1      62.843 -29.152  -1.268  1.00  0.00     0.052 C 
ENDROOT
BRANCH   1   2
ATOM      2  C   UNL     1      61.452 -29.020  -0.726  1.00  0.00     0.041 C 
ATOM      3  O   UNL     1      61.246 -29.109   0.513  1.00  0.00    -0.550 OA
ATOM      4  O   UNL     1      60.382 -28.835  -1.592  1.00  0.00    -0.550 OA
ENDBRANCH   1   2
BRANCH   1   5
ATOM      5  C   UNL     1      63.541 -27.791  -1.385  1.00  0.00     0.003 C 
ATOM      6  C   UNL     1      63.223 -27.086  -2.704  1.00  0.00     0.004 C 
ENDBRANCH   1   5
TORSDOF 2
ENDMDL
MODEL 6
REMARK VINA RESULT:    -3.183      1.754      2.223
REMARK INTER + INTRA:          -3.564
REMARK INTER:                  -3.553
REMARK INTRA:                  -0.011
REMARK UNBOUND:                -0.009
REMARK SMILES CCCC(=O)[O-]
REMARK SMILES IDX 3 1 4 2 5 3 6 4 2 5 1 6
REMARK H PARENT
REMARK Flexibility Score: inf
ROOT
ATOM      1  C   UNL     1      61.434 -27.738  -2.057  1.00  0.00     0.052 C 
ENDROOT
BRANCH   1   2
ATOM      2  C   UNL     1      62.796 -28.202  -1.638  1.00  0.00     0.041 C 
ATOM      3  O   UNL     1      62.959 -29.372  -1.202  1.00  0.00    -0.550 OA
ATOM      4  O   UNL     1      63.877 -27.331  -1.695  1.00  0.00    -0.550 OA
ENDBRANCH   1   2
BRANCH   1   5
ATOM      5  C   UNL     1      61.484 -26.362  -2.733  1.00  0.00     0.003 C 
ATOM      6  C   UNL     1      60.132 -25.650  -2.701  1.00  0.00     0.004 C 
ENDBRANCH   1   5
TORSDOF 2
ENDMDL
MODEL 7
REMARK VINA RESULT:    -3.176      3.386      4.185
REMARK INTER + INTRA:          -3.556
REMARK INTER:                  -3.549
REMARK INTRA:                  -0.007
REMARK UNBOUND:                -0.009
REMARK SMILES CCCC(=O)[O-]
REMARK SMILES IDX 3 1 4 2 5 3 6 4 2 5 1 6
REMARK H PARENT
REMARK Flexibility Score: inf
ROOT
ATOM      1  C   UNL     1      62.591 -26.119  -2.934  1.00  0.00     0.052 C 
ENDROOT
BRANCH   1   2
ATOM      2  C   UNL     1      61.327 -25.553  -3.505  1.00  0.00     0.041 C 
ATOM      3  O   UNL     1      60.343 -25.321  -2.755  1.00  0.00    -0.550 OA
ATOM      4  O   UNL     1      61.225 -25.315  -4.870  1.00  0.00    -0.550 OA
ENDBRANCH   1   2
BRANCH   1   5
ATOM      5  C   UNL     1      62.340 -27.435  -2.187  1.00  0.00     0.003 C 
ATOM      6  C   UNL     1      63.627 -28.042  -1.629  1.00  0.00     0.004 C 
ENDBRANCH   1   5
TORSDOF 2
ENDMDL
MODEL 8
REMARK VINA RESULT:    -3.107      2.268      3.430
REMARK INTER + INTRA:          -3.479
REMARK INTER:                  -3.470
REMARK INTRA:                  -0.009
REMARK UNBOUND:                -0.009
REMARK SMILES CCCC(=O)[O-]
REMARK SMILES IDX 3 1 4 2 5 3 6 4 2 5 1 6
REMARK H PARENT
REMARK Flexibility Score: inf
ROOT
ATOM      1  C   UNL     1      61.482 -27.699  -2.042  1.00  0.00     0.052 C 
ENDROOT
BRANCH   1   2
ATOM      2  C   UNL     1      62.763 -26.941  -2.214  1.00  0.00     0.041 C 
ATOM      3  O   UNL     1      62.770 -25.841  -2.827  1.00  0.00    -0.550 OA
ATOM      4  O   UNL     1      63.954 -27.467  -1.730  1.00  0.00    -0.550 OA
ENDBRANCH   1   2
BRANCH   1   5
ATOM      5  C   UNL     1      61.619 -28.823  -1.008  1.00  0.00     0.003 C 
ATOM      6  C   UNL     1      60.264 -29.300  -0.484  1.00  0.00     0.004 C 
ENDBRANCH   1   5
TORSDOF 2
ENDMDL
MODEL 9
REMARK VINA RESULT:    -3.005      3.232      3.978
REMARK INTER + INTRA:          -3.366
REMARK INTER:                  -3.358
REMARK INTRA:                  -0.008
REMARK UNBOUND:                -0.009
REMARK SMILES CCCC(=O)[O-]
REMARK SMILES IDX 3 1 4 2 5 3 6 4 2 5 1 6
REMARK H PARENT
REMARK Flexibility Score: inf
ROOT
ATOM      1  C   UNL     1      60.969 -26.851  -2.416  1.00  0.00     0.052 C 
ENDROOT
BRANCH   1   2
ATOM      2  C   UNL     1      61.803 -25.928  -3.252  1.00  0.00     0.041 C 
ATOM      3  O   UNL     1      62.945 -25.577  -2.857  1.00  0.00    -0.550 OA
ATOM      4  O   UNL     1      61.304 -25.429  -4.448  1.00  0.00    -0.550 OA
ENDBRANCH   1   2
BRANCH   1   5
ATOM      5  C   UNL     1      61.793 -28.021  -1.863  1.00  0.00     0.003 C 
ATOM      6  C   UNL     1      60.960 -28.957  -0.988  1.00  0.00     0.004 C 
ENDBRANCH   1   5
TORSDOF 2
ENDMDL
