MODEL 1
REMARK VINA RESULT:    -4.051      0.000      0.000
REMARK INTER + INTRA:          -9.385
REMARK INTER:                  -7.129
REMARK INTRA:                  -2.256
REMARK UNBOUND:                -2.256
REMARK SMILES CCCCCCC=CCCCCCCCC(=O)[O-]
REMARK SMILES IDX 10 1 11 2 12 3 13 4 14 5 15 6 16 7 17 8 18 9 9 10 8 11 7 12
REMARK SMILES IDX 6 13 5 14 4 15 3 16 2 17 1 18
REMARK H PARENT
REMARK Flexibility Score: inf
ROOT
ATOM      1  C   UNL     1      37.647  32.811  31.452  1.00  0.00     0.004 C 
ENDROOT
BRANCH   1   2
ATOM      2  C   UNL     1      37.369  34.316  31.303  1.00  0.00     0.000 C 
BRANCH   2   3
ATOM      3  C   UNL     1      38.610  35.177  31.596  1.00  0.00     0.000 C 
BRANCH   3   4
ATOM      4  C   UNL     1      38.253  36.641  31.901  1.00  0.00     0.000 C 
BRANCH   4   5
ATOM      5  C   UNL     1      38.959  37.175  33.157  1.00  0.00     0.006 C 
BRANCH   5   6
ATOM      6  C   UNL     1      40.255  36.404  33.427  1.00  0.00     0.053 C 
BRANCH   6   7
ATOM      7  C   UNL     1      41.300  37.316  33.989  1.00  0.00     0.041 C 
ATOM      8  O   UNL     1      42.305  36.838  34.578  1.00  0.00    -0.550 OA
ATOM      9  O   UNL     1      41.190  38.690  33.818  1.00  0.00    -0.550 OA
ENDBRANCH   6   7
ENDBRANCH   5   6
ENDBRANCH   4   5
ENDBRANCH   3   4
ENDBRANCH   2   3
ENDBRANCH   1   2
BRANCH   1  10
ATOM     10  C   UNL     1      38.554  32.491  32.649  1.00  0.00     0.027 C 
BRANCH  10  11
ATOM     11  C   UNL     1      37.786  32.550  33.942  1.00  0.00    -0.031 C 
ATOM     12  C   UNL     1      38.074  33.476  34.866  1.00  0.00    -0.031 C 
BRANCH  12  13
ATOM     13  C   UNL     1      37.317  33.557  36.167  1.00  0.00     0.027 C 
BRANCH  13  14
ATOM     14  C   UNL     1      36.080  34.461  36.068  1.00  0.00     0.004 C 
BRANCH  14  15
ATOM     15  C   UNL     1      36.292  35.628  35.087  1.00  0.00     0.000 C 
BRANCH  15  16
ATOM     16  C   UNL     1      35.181  35.727  34.027  1.00  0.00    -0.000 C 
BRANCH  16  17
ATOM     17  C   UNL     1      34.962  37.136  33.446  1.00  0.00    -0.003 C 
ATOM     18  C   UNL     1      35.604  38.237  34.291  1.00  0.00     0.004 C 
ENDBRANCH  16  17
ENDBRANCH  15  16
ENDBRANCH  14  15
ENDBRANCH  13  14
ENDBRANCH  12  13
ENDBRANCH  10  11
ENDBRANCH   1  10
TORSDOF 13
ENDMDL
MODEL 2
REMARK VINA RESULT:    -3.880      2.938      5.296
REMARK INTER + INTRA:          -9.085
REMARK INTER:                  -6.774
REMARK INTRA:                  -2.312
REMARK UNBOUND:                -2.256
REMARK SMILES CCCCCCC=CCCCCCCCC(=O)[O-]
REMARK SMILES IDX 10 1 11 2 12 3 13 4 14 5 15 6 16 7 17 8 18 9 9 10 8 11 7 12
REMARK SMILES IDX 6 13 5 14 4 15 3 16 2 17 1 18
REMARK H PARENT
REMARK Flexibility Score: inf
ROOT
ATOM      1  C   UNL     1      36.247  34.637  36.152  1.00  0.00     0.004 C 
ENDROOT
BRANCH   1   2
ATOM      2  C   UNL     1      36.894  33.330  35.664  1.00  0.00     0.000 C 
BRANCH   2   3
ATOM      3  C   UNL     1      38.345  33.530  35.192  1.00  0.00     0.000 C 
BRANCH   3   4
ATOM      4  C   UNL     1      38.454  34.519  34.021  1.00  0.00     0.000 C 
BRANCH   4   5
ATOM      5  C   UNL     1      38.625  33.817  32.664  1.00  0.00     0.006 C 
BRANCH   5   6
ATOM      6  C   UNL     1      37.269  33.403  32.088  1.00  0.00     0.053 C 
BRANCH   6   7
ATOM      7  C   UNL     1      37.178  31.913  31.978  1.00  0.00     0.041 C 
ATOM      8  O   UNL     1      37.960  31.182  32.641  1.00  0.00    -0.550 OA
ATOM      9  O   UNL     1      36.199  31.332  31.184  1.00  0.00    -0.550 OA
ENDBRANCH   6   7
ENDBRANCH   5   6
ENDBRANCH   4   5
ENDBRANCH   3   4
ENDBRANCH   2   3
ENDBRANCH   1   2
BRANCH   1  10
ATOM     10  C   UNL     1      34.975  34.997  35.372  1.00  0.00     0.027 C 
BRANCH  10  11
ATOM     11  C   UNL     1      35.297  35.848  34.174  1.00  0.00    -0.031 C 
ATOM     12  C   UNL     1      35.760  37.096  34.326  1.00  0.00    -0.031 C 
BRANCH  12  13
ATOM     13  C   UNL     1      36.093  37.966  33.142  1.00  0.00     0.027 C 
BRANCH  13  14
ATOM     14  C   UNL     1      36.189  37.164  31.836  1.00  0.00     0.004 C 
BRANCH  14  15
ATOM     15  C   UNL     1      37.590  37.250  31.206  1.00  0.00     0.000 C 
BRANCH  15  16
ATOM     16  C   UNL     1      38.596  38.012  32.087  1.00  0.00    -0.000 C 
BRANCH  16  17
ATOM     17  C   UNL     1      39.980  37.351  32.212  1.00  0.00    -0.003 C 
ATOM     18  C   UNL     1      40.586  37.494  33.609  1.00  0.00     0.004 C 
ENDBRANCH  16  17
ENDBRANCH  15  16
ENDBRANCH  14  15
ENDBRANCH  13  14
ENDBRANCH  12  13
ENDBRANCH  10  11
ENDBRANCH   1  10
TORSDOF 13
ENDMDL
MODEL 3
REMARK VINA RESULT:    -3.859      1.634      3.768
REMARK INTER + INTRA:          -9.047
REMARK INTER:                  -7.049
REMARK INTRA:                  -1.998
REMARK UNBOUND:                -2.256
REMARK SMILES CCCCCCC=CCCCCCCCC(=O)[O-]
REMARK SMILES IDX 10 1 11 2 12 3 13 4 14 5 15 6 16 7 17 8 18 9 9 10 8 11 7 12
REMARK SMILES IDX 6 13 5 14 4 15 3 16 2 17 1 18
REMARK H PARENT
REMARK Flexibility Score: inf
ROOT
ATOM      1  C   UNL     1      36.461  35.038  36.115  1.00  0.00     0.004 C 
ENDROOT
BRANCH   1   2
ATOM      2  C   UNL     1      35.292  35.123  35.120  1.00  0.00     0.000 C 
BRANCH   2   3
ATOM      3  C   UNL     1      35.384  36.356  34.205  1.00  0.00     0.000 C 
BRANCH   3   4
ATOM      4  C   UNL     1      36.789  36.548  33.612  1.00  0.00     0.000 C 
BRANCH   4   5
ATOM      5  C   UNL     1      36.957  37.903  32.906  1.00  0.00     0.006 C 
BRANCH   5   6
ATOM      6  C   UNL     1      38.412  38.123  32.483  1.00  0.00     0.053 C 
BRANCH   6   7
ATOM      7  C   UNL     1      39.075  39.118  33.383  1.00  0.00     0.041 C 
ATOM      8  O   UNL     1      40.250  38.918  33.789  1.00  0.00    -0.550 OA
ATOM      9  O   UNL     1      38.415  40.289  33.732  1.00  0.00    -0.550 OA
ENDBRANCH   6   7
ENDBRANCH   5   6
ENDBRANCH   4   5
ENDBRANCH   3   4
ENDBRANCH   2   3
ENDBRANCH   1   2
BRANCH   1  10
ATOM     10  C   UNL     1      37.034  33.618  36.238  1.00  0.00     0.027 C 
BRANCH  10  11
ATOM     11  C   UNL     1      37.290  33.019  34.882  1.00  0.00    -0.031 C 
ATOM     12  C   UNL     1      38.421  33.290  34.217  1.00  0.00    -0.031 C 
BRANCH  12  13
ATOM     13  C   UNL     1      38.702  32.700  32.860  1.00  0.00     0.027 C 
BRANCH  13  14
ATOM     14  C   UNL     1      37.754  31.540  32.519  1.00  0.00     0.004 C 
BRANCH  14  15
ATOM     15  C   UNL     1      36.732  31.927  31.436  1.00  0.00     0.000 C 
BRANCH  15  16
ATOM     16  C   UNL     1      36.875  33.388  30.973  1.00  0.00    -0.000 C 
BRANCH  16  17
ATOM     17  C   UNL     1      35.572  34.206  30.994  1.00  0.00    -0.003 C 
ATOM     18  C   UNL     1      34.494  33.591  31.888  1.00  0.00     0.004 C 
ENDBRANCH  16  17
ENDBRANCH  15  16
ENDBRANCH  14  15
ENDBRANCH  13  14
ENDBRANCH  12  13
ENDBRANCH  10  11
ENDBRANCH   1  10
TORSDOF 13
ENDMDL
MODEL 4
REMARK VINA RESULT:    -3.811      1.838      3.871
REMARK INTER + INTRA:          -8.964
REMARK INTER:                  -6.817
REMARK INTRA:                  -2.147
REMARK UNBOUND:                -2.256
REMARK SMILES CCCCCCC=CCCCCCCCC(=O)[O-]
REMARK SMILES IDX 10 1 11 2 12 3 13 4 14 5 15 6 16 7 17 8 18 9 9 10 8 11 7 12
REMARK SMILES IDX 6 13 5 14 4 15 3 16 2 17 1 18
REMARK H PARENT
REMARK Flexibility Score: inf
ROOT
ATOM      1  C   UNL     1      36.464  37.860  33.446  1.00  0.00     0.004 C 
ENDROOT
BRANCH   1   2
ATOM      2  C   UNL     1      36.831  37.064  32.183  1.00  0.00     0.000 C 
BRANCH   2   3
ATOM      3  C   UNL     1      38.279  36.547  32.210  1.00  0.00     0.000 C 
BRANCH   3   4
ATOM      4  C   UNL     1      39.126  37.219  33.303  1.00  0.00     0.000 C 
BRANCH   4   5
ATOM      5  C   UNL     1      39.979  38.379  32.767  1.00  0.00     0.006 C 
BRANCH   5   6
ATOM      6  C   UNL     1      40.217  39.431  33.854  1.00  0.00     0.053 C 
BRANCH   6   7
ATOM      7  C   UNL     1      39.292  40.593  33.671  1.00  0.00     0.041 C 
ATOM      8  O   UNL     1      39.467  41.397  32.718  1.00  0.00    -0.550 OA
ATOM      9  O   UNL     1      38.207  40.759  34.522  1.00  0.00    -0.550 OA
ENDBRANCH   6   7
ENDBRANCH   5   6
ENDBRANCH   4   5
ENDBRANCH   3   4
ENDBRANCH   2   3
ENDBRANCH   1   2
BRANCH   1  10
ATOM     10  C   UNL     1      35.275  37.253  34.205  1.00  0.00     0.027 C 
BRANCH  10  11
ATOM     11  C   UNL     1      35.484  35.784  34.455  1.00  0.00    -0.031 C 
ATOM     12  C   UNL     1      36.257  35.366  35.467  1.00  0.00    -0.031 C 
BRANCH  12  13
ATOM     13  C   UNL     1      36.479  33.901  35.739  1.00  0.00     0.027 C 
BRANCH  13  14
ATOM     14  C   UNL     1      37.968  33.525  35.730  1.00  0.00     0.004 C 
BRANCH  14  15
ATOM     15  C   UNL     1      38.560  33.536  34.310  1.00  0.00     0.000 C 
BRANCH  15  16
ATOM     16  C   UNL     1      38.000  32.413  33.419  1.00  0.00    -0.000 C 
BRANCH  16  17
ATOM     17  C   UNL     1      37.509  32.868  32.033  1.00  0.00    -0.003 C 
ATOM     18  C   UNL     1      36.008  33.161  31.998  1.00  0.00     0.004 C 
ENDBRANCH  16  17
ENDBRANCH  15  16
ENDBRANCH  14  15
ENDBRANCH  13  14
ENDBRANCH  12  13
ENDBRANCH  10  11
ENDBRANCH   1  10
TORSDOF 13
ENDMDL
MODEL 5
REMARK VINA RESULT:    -3.670      1.071      3.273
REMARK INTER + INTRA:          -8.715
REMARK INTER:                  -6.383
REMARK INTRA:                  -2.332
REMARK UNBOUND:                -2.256
REMARK SMILES CCCCCCC=CCCCCCCCC(=O)[O-]
REMARK SMILES IDX 10 1 11 2 12 3 13 4 14 5 15 6 16 7 17 8 18 9 9 10 8 11 7 12
REMARK SMILES IDX 6 13 5 14 4 15 3 16 2 17 1 18
REMARK H PARENT
REMARK Flexibility Score: inf
ROOT
ATOM      1  C   UNL     1      35.635  36.776  31.817  1.00  0.00     0.004 C 
ENDROOT
BRANCH   1   2
ATOM      2  C   UNL     1      36.903  37.153  31.033  1.00  0.00     0.000 C 
BRANCH   2   3
ATOM      3  C   UNL     1      38.064  37.567  31.953  1.00  0.00     0.000 C 
BRANCH   3   4
ATOM      4  C   UNL     1      39.027  36.405  32.248  1.00  0.00     0.000 C 
BRANCH   4   5
ATOM      5  C   UNL     1      39.882  36.646  33.502  1.00  0.00     0.006 C 
BRANCH   5   6
ATOM      6  C   UNL     1      41.117  37.487  33.168  1.00  0.00     0.053 C 
BRANCH   6   7
ATOM      7  C   UNL     1      41.145  38.731  33.999  1.00  0.00     0.041 C 
ATOM      8  O   UNL     1      42.197  39.065  34.604  1.00  0.00    -0.550 OA
ATOM      9  O   UNL     1      40.023  39.548  34.066  1.00  0.00    -0.550 OA
ENDBRANCH   6   7
ENDBRANCH   5   6
ENDBRANCH   4   5
ENDBRANCH   3   4
ENDBRANCH   2   3
ENDBRANCH   1   2
BRANCH   1  10
ATOM     10  C   UNL     1      35.591  37.410  33.215  1.00  0.00     0.027 C 
BRANCH  10  11
ATOM     11  C   UNL     1      35.299  36.377  34.269  1.00  0.00    -0.031 C 
ATOM     12  C   UNL     1      36.297  35.731  34.887  1.00  0.00    -0.031 C 
BRANCH  12  13
ATOM     13  C   UNL     1      36.031  34.695  35.948  1.00  0.00     0.027 C 
BRANCH  13  14
ATOM     14  C   UNL     1      37.020  33.522  35.881  1.00  0.00     0.004 C 
BRANCH  14  15
ATOM     15  C   UNL     1      38.076  33.717  34.779  1.00  0.00     0.000 C 
BRANCH  15  16
ATOM     16  C   UNL     1      37.996  32.645  33.677  1.00  0.00    -0.000 C 
BRANCH  16  17
ATOM     17  C   UNL     1      37.480  33.150  32.318  1.00  0.00    -0.003 C 
ATOM     18  C   UNL     1      35.953  33.170  32.228  1.00  0.00     0.004 C 
ENDBRANCH  16  17
ENDBRANCH  15  16
ENDBRANCH  14  15
ENDBRANCH  13  14
ENDBRANCH  12  13
ENDBRANCH  10  11
ENDBRANCH   1  10
TORSDOF 13
ENDMDL
MODEL 6
REMARK VINA RESULT:    -3.648      3.094      5.430
REMARK INTER + INTRA:          -8.676
REMARK INTER:                  -6.693
REMARK INTRA:                  -1.983
REMARK UNBOUND:                -2.256
REMARK SMILES CCCCCCC=CCCCCCCCC(=O)[O-]
REMARK SMILES IDX 10 1 11 2 12 3 13 4 14 5 15 6 16 7 17 8 18 9 9 10 8 11 7 12
REMARK SMILES IDX 6 13 5 14 4 15 3 16 2 17 1 18
REMARK H PARENT
REMARK Flexibility Score: inf
ROOT
ATOM      1  C   UNL     1      36.247  35.304  35.515  1.00  0.00     0.004 C 
ENDROOT
BRANCH   1   2
ATOM      2  C   UNL     1      36.504  33.905  36.098  1.00  0.00     0.000 C 
BRANCH   2   3
ATOM      3  C   UNL     1      37.965  33.454  35.931  1.00  0.00     0.000 C 
BRANCH   3   4
ATOM      4  C   UNL     1      38.551  33.848  34.566  1.00  0.00     0.000 C 
BRANCH   4   5
ATOM      5  C   UNL     1      38.312  32.782  33.485  1.00  0.00     0.006 C 
BRANCH   5   6
ATOM      6  C   UNL     1      37.941  33.431  32.149  1.00  0.00     0.053 C 
BRANCH   6   7
ATOM      7  C   UNL     1      36.769  32.732  31.534  1.00  0.00     0.041 C 
ATOM      8  O   UNL     1      35.850  33.398  30.989  1.00  0.00    -0.550 OA
ATOM      9  O   UNL     1      36.717  31.344  31.517  1.00  0.00    -0.550 OA
ENDBRANCH   6   7
ENDBRANCH   5   6
ENDBRANCH   4   5
ENDBRANCH   3   4
ENDBRANCH   2   3
ENDBRANCH   1   2
BRANCH   1  10
ATOM     10  C   UNL     1      35.008  35.352  34.609  1.00  0.00     0.027 C 
BRANCH  10  11
ATOM     11  C   UNL     1      35.343  35.936  33.264  1.00  0.00    -0.031 C 
ATOM     12  C   UNL     1      36.477  36.627  33.082  1.00  0.00    -0.031 C 
BRANCH  12  13
ATOM     13  C   UNL     1      36.836  37.220  31.745  1.00  0.00     0.027 C 
BRANCH  13  14
ATOM     14  C   UNL     1      38.226  37.872  31.748  1.00  0.00     0.004 C 
BRANCH  14  15
ATOM     15  C   UNL     1      39.049  37.476  32.987  1.00  0.00     0.000 C 
BRANCH  15  16
ATOM     16  C   UNL     1      39.923  38.626  33.516  1.00  0.00    -0.000 C 
BRANCH  16  17
ATOM     17  C   UNL     1      39.436  40.037  33.141  1.00  0.00    -0.003 C 
ATOM     18  C   UNL     1      38.567  40.677  34.224  1.00  0.00     0.004 C 
ENDBRANCH  16  17
ENDBRANCH  15  16
ENDBRANCH  14  15
ENDBRANCH  13  14
ENDBRANCH  12  13
ENDBRANCH  10  11
ENDBRANCH   1  10
TORSDOF 13
ENDMDL
MODEL 7
REMARK VINA RESULT:    -3.546     11.013     12.801
REMARK INTER + INTRA:          -8.496
REMARK INTER:                  -5.956
REMARK INTRA:                  -2.540
REMARK UNBOUND:                -2.256
REMARK SMILES CCCCCCC=CCCCCCCCC(=O)[O-]
REMARK SMILES IDX 10 1 11 2 12 3 13 4 14 5 15 6 16 7 17 8 18 9 9 10 8 11 7 12
REMARK SMILES IDX 6 13 5 14 4 15 3 16 2 17 1 18
REMARK H PARENT
REMARK Flexibility Score: inf
ROOT
ATOM      1  C   UNL     1      29.761  25.516  37.224  1.00  0.00     0.004 C 
ENDROOT
BRANCH   1   2
ATOM      2  C   UNL     1      29.374  26.777  38.013  1.00  0.00     0.000 C 
BRANCH   2   3
ATOM      3  C   UNL     1      30.112  28.033  37.520  1.00  0.00     0.000 C 
BRANCH   3   4
ATOM      4  C   UNL     1      29.152  29.181  37.165  1.00  0.00     0.000 C 
BRANCH   4   5
ATOM      5  C   UNL     1      29.309  29.661  35.714  1.00  0.00     0.006 C 
BRANCH   5   6
ATOM      6  C   UNL     1      28.215  30.667  35.349  1.00  0.00     0.053 C 
BRANCH   6   7
ATOM      7  C   UNL     1      28.705  31.620  34.304  1.00  0.00     0.041 C 
ATOM      8  O   UNL     1      29.424  31.205  33.358  1.00  0.00    -0.550 OA
ATOM      9  O   UNL     1      28.326  32.955  34.348  1.00  0.00    -0.550 OA
ENDBRANCH   6   7
ENDBRANCH   5   6
ENDBRANCH   4   5
ENDBRANCH   3   4
ENDBRANCH   2   3
ENDBRANCH   1   2
BRANCH   1  10
ATOM     10  C   UNL     1      30.424  25.840  35.877  1.00  0.00     0.027 C 
BRANCH  10  11
ATOM     11  C   UNL     1      29.419  25.815  34.758  1.00  0.00    -0.031 C 
ATOM     12  C   UNL     1      29.349  26.824  33.879  1.00  0.00    -0.031 C 
BRANCH  12  13
ATOM     13  C   UNL     1      28.353  26.820  32.749  1.00  0.00     0.027 C 
BRANCH  13  14
ATOM     14  C   UNL     1      27.294  27.923  32.899  1.00  0.00     0.004 C 
BRANCH  14  15
ATOM     15  C   UNL     1      26.018  27.410  33.590  1.00  0.00     0.000 C 
BRANCH  15  16
ATOM     16  C   UNL     1      25.785  28.052  34.969  1.00  0.00    -0.000 C 
BRANCH  16  17
ATOM     17  C   UNL     1      26.236  27.198  36.167  1.00  0.00    -0.003 C 
ATOM     18  C   UNL     1      25.963  25.706  35.974  1.00  0.00     0.004 C 
ENDBRANCH  16  17
ENDBRANCH  15  16
ENDBRANCH  14  15
ENDBRANCH  13  14
ENDBRANCH  12  13
ENDBRANCH  10  11
ENDBRANCH   1  10
TORSDOF 13
ENDMDL
MODEL 8
REMARK VINA RESULT:    -3.541      1.654      4.249
REMARK INTER + INTRA:          -8.488
REMARK INTER:                  -6.645
REMARK INTRA:                  -1.843
REMARK UNBOUND:                -2.256
REMARK SMILES CCCCCCC=CCCCCCCCC(=O)[O-]
REMARK SMILES IDX 10 1 11 2 12 3 13 4 14 5 15 6 16 7 17 8 18 9 9 10 8 11 7 12
REMARK SMILES IDX 6 13 5 14 4 15 3 16 2 17 1 18
REMARK H PARENT
REMARK Flexibility Score: inf
ROOT
ATOM      1  C   UNL     1      35.631  36.284  34.574  1.00  0.00     0.004 C 
ENDROOT
BRANCH   1   2
ATOM      2  C   UNL     1      35.670  37.744  34.093  1.00  0.00     0.000 C 
BRANCH   2   3
ATOM      3  C   UNL     1      36.783  37.996  33.062  1.00  0.00     0.000 C 
BRANCH   3   4
ATOM      4  C   UNL     1      38.032  37.138  33.319  1.00  0.00     0.000 C 
BRANCH   4   5
ATOM      5  C   UNL     1      39.339  37.938  33.200  1.00  0.00     0.006 C 
BRANCH   5   6
ATOM      6  C   UNL     1      39.053  39.406  32.872  1.00  0.00     0.053 C 
BRANCH   6   7
ATOM      7  C   UNL     1      39.247  40.262  34.084  1.00  0.00     0.041 C 
ATOM      8  O   UNL     1      40.394  40.399  34.585  1.00  0.00    -0.550 OA
ATOM      9  O   UNL     1      38.170  40.947  34.632  1.00  0.00    -0.550 OA
ENDBRANCH   6   7
ENDBRANCH   5   6
ENDBRANCH   4   5
ENDBRANCH   3   4
ENDBRANCH   2   3
ENDBRANCH   1   2
BRANCH   1  10
ATOM     10  C   UNL     1      34.583  35.442  33.830  1.00  0.00     0.027 C 
BRANCH  10  11
ATOM     11  C   UNL     1      35.235  34.338  33.044  1.00  0.00    -0.031 C 
ATOM     12  C   UNL     1      35.951  34.612  31.945  1.00  0.00    -0.031 C 
BRANCH  12  13
ATOM     13  C   UNL     1      36.616  33.524  31.142  1.00  0.00     0.027 C 
BRANCH  13  14
ATOM     14  C   UNL     1      38.129  33.452  31.394  1.00  0.00     0.004 C 
BRANCH  14  15
ATOM     15  C   UNL     1      38.525  32.193  32.185  1.00  0.00     0.000 C 
BRANCH  15  16
ATOM     16  C   UNL     1      38.044  32.230  33.647  1.00  0.00    -0.000 C 
BRANCH  16  17
ATOM     17  C   UNL     1      38.461  33.484  34.436  1.00  0.00    -0.003 C 
ATOM     18  C   UNL     1      37.850  33.539  35.836  1.00  0.00     0.004 C 
ENDBRANCH  16  17
ENDBRANCH  15  16
ENDBRANCH  14  15
ENDBRANCH  13  14
ENDBRANCH  12  13
ENDBRANCH  10  11
ENDBRANCH   1  10
TORSDOF 13
ENDMDL
MODEL 9
REMARK VINA RESULT:    -3.538      1.833      2.358
REMARK INTER + INTRA:          -8.483
REMARK INTER:                  -6.342
REMARK INTRA:                  -2.142
REMARK UNBOUND:                -2.256
REMARK SMILES CCCCCCC=CCCCCCCCC(=O)[O-]
REMARK SMILES IDX 10 1 11 2 12 3 13 4 14 5 15 6 16 7 17 8 18 9 9 10 8 11 7 12
REMARK SMILES IDX 6 13 5 14 4 15 3 16 2 17 1 18
REMARK H PARENT
REMARK Flexibility Score: inf
ROOT
ATOM      1  C   UNL     1      38.922  34.135  32.036  1.00  0.00     0.004 C 
ENDROOT
BRANCH   1   2
ATOM      2  C   UNL     1      37.994  34.955  31.124  1.00  0.00     0.000 C 
BRANCH   2   3
ATOM      3  C   UNL     1      38.225  36.470  31.256  1.00  0.00     0.000 C 
BRANCH   3   4
ATOM      4  C   UNL     1      38.430  36.912  32.714  1.00  0.00     0.000 C 
BRANCH   4   5
ATOM      5  C   UNL     1      37.982  38.360  32.965  1.00  0.00     0.006 C 
BRANCH   5   6
ATOM      6  C   UNL     1      39.114  39.344  32.657  1.00  0.00     0.053 C 
BRANCH   6   7
ATOM      7  C   UNL     1      39.169  40.422  33.694  1.00  0.00     0.041 C 
ATOM      8  O   UNL     1      40.198  41.138  33.809  1.00  0.00    -0.550 OA
ATOM      9  O   UNL     1      38.064  40.669  34.500  1.00  0.00    -0.550 OA
ENDBRANCH   6   7
ENDBRANCH   5   6
ENDBRANCH   4   5
ENDBRANCH   3   4
ENDBRANCH   2   3
ENDBRANCH   1   2
BRANCH   1  10
ATOM     10  C   UNL     1      38.390  32.720  32.305  1.00  0.00     0.027 C 
BRANCH  10  11
ATOM     11  C   UNL     1      37.841  32.604  33.701  1.00  0.00    -0.031 C 
ATOM     12  C   UNL     1      38.112  33.539  34.622  1.00  0.00    -0.031 C 
BRANCH  12  13
ATOM     13  C   UNL     1      37.571  33.447  36.025  1.00  0.00     0.027 C 
BRANCH  13  14
ATOM     14  C   UNL     1      36.231  34.180  36.185  1.00  0.00     0.004 C 
BRANCH  14  15
ATOM     15  C   UNL     1      36.125  35.401  35.254  1.00  0.00     0.000 C 
BRANCH  15  16
ATOM     16  C   UNL     1      34.843  35.394  34.402  1.00  0.00    -0.000 C 
BRANCH  16  17
ATOM     17  C   UNL     1      35.074  35.301  32.883  1.00  0.00    -0.003 C 
ATOM     18  C   UNL     1      34.711  33.933  32.306  1.00  0.00     0.004 C 
ENDBRANCH  16  17
ENDBRANCH  15  16
ENDBRANCH  14  15
ENDBRANCH  13  14
ENDBRANCH  12  13
ENDBRANCH  10  11
ENDBRANCH   1  10
TORSDOF 13
ENDMDL
