MODEL 1
REMARK VINA RESULT:    84.023      0.000      0.000
REMARK INTER + INTRA:          88.935
REMARK INTER:                  88.935
REMARK INTRA:                   0.000
REMARK UNBOUND:                 0.000
REMARK SMILES CC1(C)[C@H](O)CC[C@@]2(C)[C@@H]1CC[C@@]1(C)[C@@H]2C=CC2=C(O)C(=O)C(=O)[C@@]21C
REMARK SMILES IDX 1 1 2 2 10 3 11 4 12 5 13 6 15 7 8 8 7 9 6 10 4 11 9 12
REMARK SMILES IDX 16 13 17 14 18 15 19 16 21 17 22 18 23 19 24 20 25 21 26 22
REMARK SMILES IDX 14 23 3 24 5 25 20 27
REMARK H PARENT 5 26 20 28
REMARK Flexibility Score: inf
ROOT
ATOM      1  C   UNL     1      18.645  15.814  19.040  1.00  0.00     0.014 C 
ATOM      2  C   UNL     1      17.488  14.814  18.747  1.00  0.00    -0.006 C 
ATOM      3  C   UNL     1      17.217  13.887  20.020  1.00  0.00     0.004 C 
ATOM      4  C   UNL     1      15.778  13.323  20.101  1.00  0.00     0.005 C 
ATOM      5  C   UNL     1      15.454  12.951  21.548  1.00  0.00     0.009 C 
ATOM      6  C   UNL     1      16.406  11.863  22.142  1.00  0.00    -0.009 C 
ATOM      7  C   UNL     1      17.652  11.544  21.195  1.00  0.00     0.025 C 
ATOM      8  C   UNL     1      18.266  12.713  20.264  1.00  0.00    -0.022 C 
ATOM      9  C   UNL     1      18.637  12.034  18.894  1.00  0.00     0.010 C 
ATOM     10  C   UNL     1      18.979  12.993  17.751  1.00  0.00     0.033 C 
ATOM     11  C   UNL     1      17.830  13.971  17.487  1.00  0.00     0.120 C 
ATOM     12  C   UNL     1      19.585  13.309  20.878  1.00  0.00     0.012 C 
ATOM     13  C   UNL     1      18.711  10.674  21.878  1.00  0.00    -0.022 C 
ATOM     14  C   UNL     1      18.784  10.491  23.203  1.00  0.00     0.005 C 
ATOM     15  C   UNL     1      17.791  11.110  24.089  1.00  0.00     0.012 C 
ATOM     16  C   UNL     1      17.396  10.605  25.256  1.00  0.00     0.171 C 
ATOM     17  C   UNL     1      16.185  11.271  25.687  1.00  0.00     0.264 C 
ATOM     18  O   UNL     1      15.536  11.034  26.740  1.00  0.00    -0.282 OA
ATOM     19  C   UNL     1      15.833  12.229  24.661  1.00  0.00     0.217 C 
ATOM     20  O   UNL     1      14.815  12.970  24.681  1.00  0.00    -0.289 OA
ATOM     21  C   UNL     1      16.907  12.236  23.600  1.00  0.00     0.069 C 
ATOM     22  C   UNL     1      17.709  13.552  23.732  1.00  0.00     0.026 C 
ATOM     23  C   UNL     1      15.544  10.552  22.224  1.00  0.00     0.013 C 
ATOM     24  C   UNL     1      16.270  15.724  18.412  1.00  0.00     0.014 C 
ENDROOT
BRANCH  11  25
ATOM     25  O   UNL     1      16.698  13.256  17.054  1.00  0.00    -0.393 OA
ATOM     26  H   UNL     1      16.624  12.450  17.628  1.00  0.00     0.210 HD
ENDBRANCH  11  25
BRANCH  16  27
ATOM     27  O   UNL     1      18.007   9.538  25.908  1.00  0.00    -0.504 OA
ATOM     28  H   UNL     1      18.261   8.698  25.403  1.00  0.00     0.293 HD
ENDBRANCH  16  27
TORSDOF 2
ENDMDL
