MODEL 1
REMARK VINA RESULT:    -3.946      0.000      0.000
REMARK INTER + INTRA:          -4.949
REMARK INTER:                  -4.869
REMARK INTRA:                  -0.080
REMARK UNBOUND:                -0.080
REMARK SMILES CCCCCC(C)=O
REMARK SMILES IDX 4 1 3 2 2 3 1 4 5 5 6 6 8 7 7 8
REMARK H PARENT
REMARK Flexibility Score: inf
ROOT
ATOM      1  C   UNL     1      25.128  57.833  -8.358  1.00  0.00     0.008 C 
ENDROOT
BRANCH   1   2
ATOM      2  C   UNL     1      26.360  58.196  -9.209  1.00  0.00     0.000 C 
BRANCH   2   3
ATOM      3  C   UNL     1      26.880  59.632  -9.017  1.00  0.00    -0.003 C 
ATOM      4  C   UNL     1      28.188  59.898  -9.761  1.00  0.00     0.004 C 
ENDBRANCH   2   3
ENDBRANCH   1   2
BRANCH   1   5
ATOM      5  C   UNL     1      24.466  56.499  -8.740  1.00  0.00     0.075 C 
BRANCH   5   6
ATOM      6  C   UNL     1      24.581  55.471  -7.645  1.00  0.00     0.129 C 
ATOM      7  O   UNL     1      25.676  55.009  -7.360  1.00  0.00    -0.300 OA
ATOM      8  C   UNL     1      23.361  55.001  -6.913  1.00  0.00     0.087 C 
ENDBRANCH   5   6
ENDBRANCH   1   5
TORSDOF 4
ENDMDL
MODEL 2
REMARK VINA RESULT:    -3.795      2.094      5.111
REMARK INTER + INTRA:          -4.763
REMARK INTER:                  -4.713
REMARK INTRA:                  -0.050
REMARK UNBOUND:                -0.080
REMARK SMILES CCCCCC(C)=O
REMARK SMILES IDX 4 1 3 2 2 3 1 4 5 5 6 6 8 7 7 8
REMARK H PARENT
REMARK Flexibility Score: inf
ROOT
ATOM      1  C   UNL     1      25.749  58.011  -8.528  1.00  0.00     0.008 C 
ENDROOT
BRANCH   1   2
ATOM      2  C   UNL     1      25.107  56.623  -8.716  1.00  0.00     0.000 C 
BRANCH   2   3
ATOM      3  C   UNL     1      25.031  55.765  -7.440  1.00  0.00    -0.003 C 
ATOM      4  C   UNL     1      23.637  55.194  -7.186  1.00  0.00     0.004 C 
ENDBRANCH   2   3
ENDBRANCH   1   2
BRANCH   1   5
ATOM      5  C   UNL     1      26.632  58.464  -9.703  1.00  0.00     0.075 C 
BRANCH   5   6
ATOM      6  C   UNL     1      27.509  59.633  -9.338  1.00  0.00     0.129 C 
ATOM      7  O   UNL     1      27.170  60.389  -8.440  1.00  0.00    -0.300 OA
ATOM      8  C   UNL     1      28.787  59.883 -10.079  1.00  0.00     0.087 C 
ENDBRANCH   5   6
ENDBRANCH   1   5
TORSDOF 4
ENDMDL
MODEL 3
REMARK VINA RESULT:    -3.583     16.655     17.729
REMARK INTER + INTRA:          -4.501
REMARK INTER:                  -4.236
REMARK INTRA:                  -0.266
REMARK UNBOUND:                -0.080
REMARK SMILES CCCCCC(C)=O
REMARK SMILES IDX 4 1 3 2 2 3 1 4 5 5 6 6 8 7 7 8
REMARK H PARENT
REMARK Flexibility Score: inf
ROOT
ATOM      1  C   UNL     1      19.379  45.024   0.343  1.00  0.00     0.008 C 
ENDROOT
BRANCH   1   2
ATOM      2  C   UNL     1      19.673  44.544   1.778  1.00  0.00     0.000 C 
BRANCH   2   3
ATOM      3  C   UNL     1      20.103  43.071   1.892  1.00  0.00    -0.003 C 
ATOM      4  C   UNL     1      20.940  42.598   0.704  1.00  0.00     0.004 C 
ENDBRANCH   2   3
ENDBRANCH   1   2
BRANCH   1   5
ATOM      5  C   UNL     1      17.928  45.479   0.113  1.00  0.00     0.075 C 
BRANCH   5   6
ATOM      6  C   UNL     1      16.930  44.429   0.525  1.00  0.00     0.129 C 
ATOM      7  O   UNL     1      16.962  43.324   0.003  1.00  0.00    -0.300 OA
ATOM      8  C   UNL     1      15.888  44.735   1.557  1.00  0.00     0.087 C 
ENDBRANCH   5   6
ENDBRANCH   1   5
TORSDOF 4
ENDMDL
MODEL 4
REMARK VINA RESULT:    -3.538     16.252     18.455
REMARK INTER + INTRA:          -4.446
REMARK INTER:                  -4.054
REMARK INTRA:                  -0.392
REMARK UNBOUND:                -0.080
REMARK SMILES CCCCCC(C)=O
REMARK SMILES IDX 4 1 3 2 2 3 1 4 5 5 6 6 8 7 7 8
REMARK H PARENT
REMARK Flexibility Score: inf
ROOT
ATOM      1  C   UNL     1      18.454  42.319   0.305  1.00  0.00     0.008 C 
ENDROOT
BRANCH   1   2
ATOM      2  C   UNL     1      17.321  42.376   1.348  1.00  0.00     0.000 C 
BRANCH   2   3
ATOM      3  C   UNL     1      16.102  43.221   0.934  1.00  0.00    -0.003 C 
ATOM      4  C   UNL     1      16.032  44.564   1.660  1.00  0.00     0.004 C 
ENDBRANCH   2   3
ENDBRANCH   1   2
BRANCH   1   5
ATOM      5  C   UNL     1      19.810  42.834   0.815  1.00  0.00     0.075 C 
BRANCH   5   6
ATOM      6  C   UNL     1      19.752  44.280   1.230  1.00  0.00     0.129 C 
ATOM      7  O   UNL     1      19.942  44.584   2.399  1.00  0.00    -0.300 OA
ATOM      8  C   UNL     1      19.447  45.348   0.224  1.00  0.00     0.087 C 
ENDBRANCH   5   6
ENDBRANCH   1   5
TORSDOF 4
ENDMDL
MODEL 5
REMARK VINA RESULT:    -3.516     16.047     17.832
REMARK INTER + INTRA:          -4.418
REMARK INTER:                  -4.150
REMARK INTRA:                  -0.268
REMARK UNBOUND:                -0.080
REMARK SMILES CCCCCC(C)=O
REMARK SMILES IDX 4 1 3 2 2 3 1 4 5 5 6 6 8 7 7 8
REMARK H PARENT
REMARK Flexibility Score: inf
ROOT
ATOM      1  C   UNL     1      17.083  43.773   1.210  1.00  0.00     0.008 C 
ENDROOT
BRANCH   1   2
ATOM      2  C   UNL     1      16.029  44.764   1.741  1.00  0.00     0.000 C 
BRANCH   2   3
ATOM      3  C   UNL     1      15.146  45.412   0.659  1.00  0.00    -0.003 C 
ATOM      4  C   UNL     1      15.912  45.731  -0.625  1.00  0.00     0.004 C 
ENDBRANCH   2   3
ENDBRANCH   1   2
BRANCH   1   5
ATOM      5  C   UNL     1      18.458  43.889   1.889  1.00  0.00     0.075 C 
BRANCH   5   6
ATOM      6  C   UNL     1      19.552  44.218   0.908  1.00  0.00     0.129 C 
ATOM      7  O   UNL     1      20.480  43.438   0.751  1.00  0.00    -0.300 OA
ATOM      8  C   UNL     1      19.519  45.500   0.134  1.00  0.00     0.087 C 
ENDBRANCH   5   6
ENDBRANCH   1   5
TORSDOF 4
ENDMDL
MODEL 6
REMARK VINA RESULT:    -3.494     16.758     18.028
REMARK INTER + INTRA:          -4.391
REMARK INTER:                  -4.205
REMARK INTRA:                  -0.186
REMARK UNBOUND:                -0.080
REMARK SMILES CCCCCC(C)=O
REMARK SMILES IDX 4 1 3 2 2 3 1 4 5 5 6 6 8 7 7 8
REMARK H PARENT
REMARK Flexibility Score: inf
ROOT
ATOM      1  C   UNL     1      18.941  45.065   0.309  1.00  0.00     0.008 C 
ENDROOT
BRANCH   1   2
ATOM      2  C   UNL     1      17.405  45.194   0.272  1.00  0.00     0.000 C 
BRANCH   2   3
ATOM      3  C   UNL     1      16.663  44.414   1.372  1.00  0.00    -0.003 C 
ATOM      4  C   UNL     1      15.325  45.045   1.753  1.00  0.00     0.004 C 
ENDBRANCH   2   3
ENDBRANCH   1   2
BRANCH   1   5
ATOM      5  C   UNL     1      19.464  44.021   1.310  1.00  0.00     0.075 C 
BRANCH   5   6
ATOM      6  C   UNL     1      19.910  42.754   0.631  1.00  0.00     0.129 C 
ATOM      7  O   UNL     1      19.091  42.055   0.052  1.00  0.00    -0.300 OA
ATOM      8  C   UNL     1      21.348  42.335   0.672  1.00  0.00     0.087 C 
ENDBRANCH   5   6
ENDBRANCH   1   5
TORSDOF 4
ENDMDL
MODEL 7
REMARK VINA RESULT:    -3.447     16.363     17.851
REMARK INTER + INTRA:          -4.333
REMARK INTER:                  -4.080
REMARK INTRA:                  -0.253
REMARK UNBOUND:                -0.080
REMARK SMILES CCCCCC(C)=O
REMARK SMILES IDX 4 1 3 2 2 3 1 4 5 5 6 6 8 7 7 8
REMARK H PARENT
REMARK Flexibility Score: inf
ROOT
ATOM      1  C   UNL     1      17.217  43.854   1.121  1.00  0.00     0.008 C 
ENDROOT
BRANCH   1   2
ATOM      2  C   UNL     1      18.478  43.879   2.007  1.00  0.00     0.000 C 
BRANCH   2   3
ATOM      3  C   UNL     1      19.765  44.319   1.288  1.00  0.00    -0.003 C 
ATOM      4  C   UNL     1      19.515  45.364   0.200  1.00  0.00     0.004 C 
ENDBRANCH   2   3
ENDBRANCH   1   2
BRANCH   1   5
ATOM      5  C   UNL     1      16.020  44.625   1.704  1.00  0.00     0.075 C 
BRANCH   5   6
ATOM      6  C   UNL     1      15.372  45.525   0.685  1.00  0.00     0.129 C 
ATOM      7  O   UNL     1      14.331  46.103   0.962  1.00  0.00    -0.300 OA
ATOM      8  C   UNL     1      15.985  45.705  -0.670  1.00  0.00     0.087 C 
ENDBRANCH   5   6
ENDBRANCH   1   5
TORSDOF 4
ENDMDL
MODEL 8
REMARK VINA RESULT:    -3.362     16.366     18.217
REMARK INTER + INTRA:          -4.228
REMARK INTER:                  -3.903
REMARK INTRA:                  -0.325
REMARK UNBOUND:                -0.080
REMARK SMILES CCCCCC(C)=O
REMARK SMILES IDX 4 1 3 2 2 3 1 4 5 5 6 6 8 7 7 8
REMARK H PARENT
REMARK Flexibility Score: inf
ROOT
ATOM      1  C   UNL     1      18.750  42.388   0.313  1.00  0.00     0.008 C 
ENDROOT
BRANCH   1   2
ATOM      2  C   UNL     1      19.951  43.020   1.042  1.00  0.00     0.000 C 
BRANCH   2   3
ATOM      3  C   UNL     1      19.776  44.503   1.414  1.00  0.00    -0.003 C 
ATOM      4  C   UNL     1      19.510  45.396   0.203  1.00  0.00     0.004 C 
ENDBRANCH   2   3
ENDBRANCH   1   2
BRANCH   1   5
ATOM      5  C   UNL     1      17.462  42.326   1.151  1.00  0.00     0.075 C 
BRANCH   5   6
ATOM      6  C   UNL     1      16.427  43.314   0.680  1.00  0.00     0.129 C 
ATOM      7  O   UNL     1      15.932  43.190  -0.431  1.00  0.00    -0.300 OA
ATOM      8  C   UNL     1      16.011  44.455   1.557  1.00  0.00     0.087 C 
ENDBRANCH   5   6
ENDBRANCH   1   5
TORSDOF 4
ENDMDL
MODEL 9
REMARK VINA RESULT:    -3.132      5.131      7.187
REMARK INTER + INTRA:          -3.945
REMARK INTER:                  -3.846
REMARK INTRA:                  -0.099
REMARK UNBOUND:                -0.080
REMARK SMILES CCCCCC(C)=O
REMARK SMILES IDX 4 1 3 2 2 3 1 4 5 5 6 6 8 7 7 8
REMARK H PARENT
REMARK Flexibility Score: inf
ROOT
ATOM      1  C   UNL     1      30.379  58.809 -11.787  1.00  0.00     0.008 C 
ENDROOT
BRANCH   1   2
ATOM      2  C   UNL     1      30.246  59.541 -10.437  1.00  0.00     0.000 C 
BRANCH   2   3
ATOM      3  C   UNL     1      28.917  60.291 -10.235  1.00  0.00    -0.003 C 
ATOM      4  C   UNL     1      27.770  59.373  -9.815  1.00  0.00     0.004 C 
ENDBRANCH   2   3
ENDBRANCH   1   2
BRANCH   1   5
ATOM      5  C   UNL     1      31.827  58.488 -12.192  1.00  0.00     0.075 C 
BRANCH   5   6
ATOM      6  C   UNL     1      31.920  57.247 -13.040  1.00  0.00     0.129 C 
ATOM      7  O   UNL     1      32.972  56.971 -13.597  1.00  0.00    -0.300 OA
ATOM      8  C   UNL     1      30.728  56.358 -13.219  1.00  0.00     0.087 C 
ENDBRANCH   5   6
ENDBRANCH   1   5
TORSDOF 4
ENDMDL
