MODEL 1
REMARK VINA RESULT:    -2.450      0.000      0.000
REMARK INTER + INTRA:          -2.450
REMARK INTER:                  -2.450
REMARK INTRA:                   0.000
REMARK UNBOUND:                 0.000
REMARK SMILES CC(=O)[O-]
REMARK SMILES IDX 1 1 2 2 3 3 4 4
REMARK H PARENT
REMARK Flexibility Score: inf
ROOT
ATOM      1  C   UNL     1      -1.693  36.799  16.360  1.00  0.00     0.063 C 
ATOM      2  C   UNL     1      -2.703  37.879  16.549  1.00  0.00     0.038 C 
ATOM      3  O   UNL     1      -3.097  38.181  17.705  1.00  0.00    -0.550 OA
ATOM      4  O   UNL     1      -3.172  38.594  15.453  1.00  0.00    -0.550 OA
ENDROOT
TORSDOF 0
ENDMDL
MODEL 2
REMARK VINA RESULT:    -2.383      1.506      1.998
REMARK INTER + INTRA:          -2.383
REMARK INTER:                  -2.383
REMARK INTRA:                   0.000
REMARK UNBOUND:                 0.000
REMARK SMILES CC(=O)[O-]
REMARK SMILES IDX 1 1 2 2 3 3 4 4
REMARK H PARENT
REMARK Flexibility Score: inf
ROOT
ATOM      1  C   UNL     1      -3.089  37.869  15.041  1.00  0.00     0.063 C 
ATOM      2  C   UNL     1      -2.498  37.493  16.357  1.00  0.00     0.038 C 
ATOM      3  O   UNL     1      -1.573  36.642  16.414  1.00  0.00    -0.550 OA
ATOM      4  O   UNL     1      -2.929  38.120  17.519  1.00  0.00    -0.550 OA
ENDROOT
TORSDOF 0
ENDMDL
MODEL 3
REMARK VINA RESULT:    -2.362      1.979      2.095
REMARK INTER + INTRA:          -2.362
REMARK INTER:                  -2.362
REMARK INTRA:                   0.000
REMARK UNBOUND:                 0.000
REMARK SMILES CC(=O)[O-]
REMARK SMILES IDX 1 1 2 2 3 3 4 4
REMARK H PARENT
REMARK Flexibility Score: inf
ROOT
ATOM      1  C   UNL     1      -0.803  38.265  18.787  1.00  0.00     0.063 C 
ATOM      2  C   UNL     1      -1.884  37.858  17.845  1.00  0.00     0.038 C 
ATOM      3  O   UNL     1      -3.073  38.213  18.055  1.00  0.00    -0.550 OA
ATOM      4  O   UNL     1      -1.575  37.130  16.702  1.00  0.00    -0.550 OA
ENDROOT
TORSDOF 0
ENDMDL
MODEL 4
REMARK VINA RESULT:    -2.362      1.470      2.087
REMARK INTER + INTRA:          -2.362
REMARK INTER:                  -2.362
REMARK INTRA:                   0.000
REMARK UNBOUND:                 0.000
REMARK SMILES CC(=O)[O-]
REMARK SMILES IDX 1 1 2 2 3 3 4 4
REMARK H PARENT
REMARK Flexibility Score: inf
ROOT
ATOM      1  C   UNL     1      -1.662  37.018  16.499  1.00  0.00     0.063 C 
ATOM      2  C   UNL     1      -1.942  37.813  17.729  1.00  0.00     0.038 C 
ATOM      3  O   UNL     1      -3.119  38.166  17.998  1.00  0.00    -0.550 OA
ATOM      4  O   UNL     1      -0.912  38.120  18.609  1.00  0.00    -0.550 OA
ENDROOT
TORSDOF 0
ENDMDL
MODEL 5
REMARK VINA RESULT:    -2.354      1.808      2.193
REMARK INTER + INTRA:          -2.354
REMARK INTER:                  -2.354
REMARK INTRA:                   0.000
REMARK UNBOUND:                 0.000
REMARK SMILES CC(=O)[O-]
REMARK SMILES IDX 1 1 2 2 3 3 4 4
REMARK H PARENT
REMARK Flexibility Score: inf
ROOT
ATOM      1  C   UNL     1      -1.666  37.521  17.055  1.00  0.00     0.063 C 
ATOM      2  C   UNL     1      -2.180  38.200  18.279  1.00  0.00     0.038 C 
ATOM      3  O   UNL     1      -1.383  38.776  19.064  1.00  0.00    -0.550 OA
ATOM      4  O   UNL     1      -3.546  38.245  18.529  1.00  0.00    -0.550 OA
ENDROOT
TORSDOF 0
ENDMDL
MODEL 6
REMARK VINA RESULT:    -2.351     17.049     17.355
REMARK INTER + INTRA:          -2.351
REMARK INTER:                  -2.351
REMARK INTRA:                   0.000
REMARK UNBOUND:                 0.000
REMARK SMILES CC(=O)[O-]
REMARK SMILES IDX 1 1 2 2 3 3 4 4
REMARK H PARENT
REMARK Flexibility Score: inf
ROOT
ATOM      1  C   UNL     1      -5.601  27.943  29.371  1.00  0.00     0.063 C 
ATOM      2  C   UNL     1      -5.101  26.539  29.333  1.00  0.00     0.038 C 
ATOM      3  O   UNL     1      -4.147  26.188  30.075  1.00  0.00    -0.550 OA
ATOM      4  O   UNL     1      -5.721  25.600  28.518  1.00  0.00    -0.550 OA
ENDROOT
TORSDOF 0
ENDMDL
MODEL 7
REMARK VINA RESULT:    -2.178      3.167      3.450
REMARK INTER + INTRA:          -2.178
REMARK INTER:                  -2.178
REMARK INTRA:                   0.000
REMARK UNBOUND:                 0.000
REMARK SMILES CC(=O)[O-]
REMARK SMILES IDX 1 1 2 2 3 3 4 4
REMARK H PARENT
REMARK Flexibility Score: inf
ROOT
ATOM      1  C   UNL     1      -3.152  37.560  18.528  1.00  0.00     0.063 C 
ATOM      2  C   UNL     1      -3.884  36.368  19.043  1.00  0.00     0.038 C 
ATOM      3  O   UNL     1      -4.147  36.268  20.270  1.00  0.00    -0.550 OA
ATOM      4  O   UNL     1      -4.328  35.388  18.163  1.00  0.00    -0.550 OA
ENDROOT
TORSDOF 0
ENDMDL
MODEL 8
REMARK VINA RESULT:    -2.164      2.926      3.527
REMARK INTER + INTRA:          -2.164
REMARK INTER:                  -2.164
REMARK INTRA:                   0.000
REMARK UNBOUND:                 0.000
REMARK SMILES CC(=O)[O-]
REMARK SMILES IDX 1 1 2 2 3 3 4 4
REMARK H PARENT
REMARK Flexibility Score: inf
ROOT
ATOM      1  C   UNL     1      -3.866  36.395  19.783  1.00  0.00     0.063 C 
ATOM      2  C   UNL     1      -4.088  37.790  19.307  1.00  0.00     0.038 C 
ATOM      3  O   UNL     1      -3.374  38.264  18.385  1.00  0.00    -0.550 OA
ATOM      4  O   UNL     1      -5.117  38.555  19.844  1.00  0.00    -0.550 OA
ENDROOT
TORSDOF 0
ENDMDL
MODEL 9
REMARK VINA RESULT:    -2.143      7.553      8.073
REMARK INTER + INTRA:          -2.143
REMARK INTER:                  -2.143
REMARK INTRA:                   0.000
REMARK UNBOUND:                 0.000
REMARK SMILES CC(=O)[O-]
REMARK SMILES IDX 1 1 2 2 3 3 4 4
REMARK H PARENT
REMARK Flexibility Score: inf
ROOT
ATOM      1  C   UNL     1      -4.677  38.267  25.543  1.00  0.00     0.063 C 
ATOM      2  C   UNL     1      -4.674  38.644  24.101  1.00  0.00     0.038 C 
ATOM      3  O   UNL     1      -4.569  39.852  23.764  1.00  0.00    -0.550 OA
ATOM      4  O   UNL     1      -4.734  37.659  23.123  1.00  0.00    -0.550 OA
ENDROOT
TORSDOF 0
ENDMDL
