MODEL 1
REMARK VINA RESULT:    -6.755      0.000      0.000
REMARK INTER + INTRA:          -9.357
REMARK INTER:                  -8.334
REMARK INTRA:                  -1.023
REMARK UNBOUND:                -1.023
REMARK SMILES CC(C)=CCC[C@H](C)c1ccc(C)cc1
REMARK SMILES IDX 6 1 7 2 8 3 9 4 13 5 12 6 11 7 14 8 10 9 15 10 5 11 4 12
REMARK SMILES IDX 2 13 1 14 3 15
REMARK H PARENT
REMARK Flexibility Score: inf
ROOT
ATOM      1  C   UNL     1      20.478  26.200  32.361  1.00  0.00     0.012 C 
ENDROOT
BRANCH   1   2
ATOM      2  C   UNL     1      20.545  26.799  33.787  1.00  0.00     0.016 C 
ATOM      3  C   UNL     1      19.196  27.373  34.249  1.00  0.00     0.013 C 
BRANCH   2   4
ATOM      4  C   UNL     1      21.624  27.866  33.856  1.00  0.00    -0.045 A 
ATOM      5  C   UNL     1      24.669  30.924  34.046  1.00  0.00     0.044 C 
ATOM      6  C   UNL     1      23.609  29.863  34.011  1.00  0.00    -0.051 A 
ATOM      7  C   UNL     1      23.962  28.509  34.083  1.00  0.00     0.004 A 
ATOM      8  C   UNL     1      22.263  30.216  33.838  1.00  0.00     0.004 A 
ATOM      9  C   UNL     1      22.978  27.519  34.014  1.00  0.00     0.004 A 
ATOM     10  C   UNL     1      21.277  29.226  33.768  1.00  0.00     0.004 A 
ENDBRANCH   2   4
ENDBRANCH   1   2
BRANCH   1  11
ATOM     11  C   UNL     1      20.875  24.712  32.293  1.00  0.00     0.028 C 
BRANCH  11  12
ATOM     12  C   UNL     1      22.373  24.515  32.315  1.00  0.00    -0.028 C 
ATOM     13  C   UNL     1      23.074  24.103  33.395  1.00  0.00    -0.080 C 
ATOM     14  C   UNL     1      24.570  23.968  33.270  1.00  0.00     0.039 C 
ATOM     15  C   UNL     1      22.402  23.745  34.700  1.00  0.00     0.039 C 
ENDBRANCH  11  12
ENDBRANCH   1  11
TORSDOF 4
ENDMDL
MODEL 2
REMARK VINA RESULT:    -6.492      2.253      4.409
REMARK INTER + INTRA:          -9.033
REMARK INTER:                  -8.389
REMARK INTRA:                  -0.644
REMARK UNBOUND:                -1.023
REMARK SMILES CC(C)=CCC[C@H](C)c1ccc(C)cc1
REMARK SMILES IDX 6 1 7 2 8 3 9 4 13 5 12 6 11 7 14 8 10 9 15 10 5 11 4 12
REMARK SMILES IDX 2 13 1 14 3 15
REMARK H PARENT
REMARK Flexibility Score: inf
ROOT
ATOM      1  C   UNL     1      24.364  22.898  33.770  1.00  0.00     0.012 C 
ENDROOT
BRANCH   1   2
ATOM      2  C   UNL     1      23.694  23.572  34.991  1.00  0.00     0.016 C 
ATOM      3  C   UNL     1      22.445  22.816  35.471  1.00  0.00     0.013 C 
BRANCH   2   4
ATOM      4  C   UNL     1      23.345  25.015  34.666  1.00  0.00    -0.045 A 
ATOM      5  C   UNL     1      22.385  29.126  33.752  1.00  0.00     0.044 C 
ATOM      6  C   UNL     1      22.724  27.693  34.038  1.00  0.00    -0.051 A 
ATOM      7  C   UNL     1      21.718  26.717  34.045  1.00  0.00     0.004 A 
ATOM      8  C   UNL     1      24.036  27.330  34.370  1.00  0.00     0.004 A 
ATOM      9  C   UNL     1      22.026  25.388  34.348  1.00  0.00     0.004 A 
ATOM     10  C   UNL     1      24.347  26.001  34.674  1.00  0.00     0.004 A 
ENDBRANCH   2   4
ENDBRANCH   1   2
BRANCH   1  11
ATOM     11  C   UNL     1      25.895  22.762  33.896  1.00  0.00     0.028 C 
BRANCH  11  12
ATOM     12  C   UNL     1      26.631  23.636  32.907  1.00  0.00    -0.028 C 
ATOM     13  C   UNL     1      27.726  23.250  32.214  1.00  0.00    -0.080 C 
ATOM     14  C   UNL     1      28.364  24.240  31.272  1.00  0.00     0.039 C 
ATOM     15  C   UNL     1      28.302  21.858  32.331  1.00  0.00     0.039 C 
ENDBRANCH  11  12
ENDBRANCH   1  11
TORSDOF 4
ENDMDL
MODEL 3
REMARK VINA RESULT:    -6.488      1.803      3.314
REMARK INTER + INTRA:          -9.027
REMARK INTER:                  -8.296
REMARK INTRA:                  -0.731
REMARK UNBOUND:                -1.023
REMARK SMILES CC(C)=CCC[C@H](C)c1ccc(C)cc1
REMARK SMILES IDX 6 1 7 2 8 3 9 4 13 5 12 6 11 7 14 8 10 9 15 10 5 11 4 12
REMARK SMILES IDX 2 13 1 14 3 15
REMARK H PARENT
REMARK Flexibility Score: inf
ROOT
ATOM      1  C   UNL     1      22.738  24.827  35.173  1.00  0.00     0.012 C 
ENDROOT
BRANCH   1   2
ATOM      2  C   UNL     1      23.538  25.798  34.271  1.00  0.00     0.016 C 
ATOM      3  C   UNL     1      24.951  26.072  34.806  1.00  0.00     0.013 C 
BRANCH   2   4
ATOM      4  C   UNL     1      22.776  27.101  34.100  1.00  0.00    -0.045 A 
ATOM      5  C   UNL     1      20.637  30.823  33.619  1.00  0.00     0.044 C 
ATOM      6  C   UNL     1      21.381  29.528  33.755  1.00  0.00    -0.051 A 
ATOM      7  C   UNL     1      20.681  28.316  33.838  1.00  0.00     0.004 A 
ATOM      8  C   UNL     1      22.778  29.525  33.869  1.00  0.00     0.004 A 
ATOM      9  C   UNL     1      21.372  27.112  34.001  1.00  0.00     0.004 A 
ATOM     10  C   UNL     1      23.471  28.321  34.032  1.00  0.00     0.004 A 
ENDBRANCH   2   4
ENDBRANCH   1   2
BRANCH   1  11
ATOM     11  C   UNL     1      22.462  23.457  34.521  1.00  0.00     0.028 C 
BRANCH  11  12
ATOM     12  C   UNL     1      23.114  22.321  35.276  1.00  0.00    -0.028 C 
ATOM     13  C   UNL     1      24.243  21.690  34.881  1.00  0.00    -0.080 C 
ATOM     14  C   UNL     1      24.767  20.560  35.731  1.00  0.00     0.039 C 
ATOM     15  C   UNL     1      25.004  22.104  33.643  1.00  0.00     0.039 C 
ENDBRANCH  11  12
ENDBRANCH   1  11
TORSDOF 4
ENDMDL
MODEL 4
REMARK VINA RESULT:    -6.474      2.214      4.246
REMARK INTER + INTRA:          -9.010
REMARK INTER:                  -8.356
REMARK INTRA:                  -0.655
REMARK UNBOUND:                -1.023
REMARK SMILES CC(C)=CCC[C@H](C)c1ccc(C)cc1
REMARK SMILES IDX 6 1 7 2 8 3 9 4 13 5 12 6 11 7 14 8 10 9 15 10 5 11 4 12
REMARK SMILES IDX 2 13 1 14 3 15
REMARK H PARENT
REMARK Flexibility Score: inf
ROOT
ATOM      1  C   UNL     1      24.187  22.915  33.766  1.00  0.00     0.012 C 
ENDROOT
BRANCH   1   2
ATOM      2  C   UNL     1      23.723  23.679  35.029  1.00  0.00     0.016 C 
ATOM      3  C   UNL     1      22.542  22.992  35.733  1.00  0.00     0.013 C 
BRANCH   2   4
ATOM      4  C   UNL     1      23.364  25.111  34.672  1.00  0.00    -0.045 A 
ATOM      5  C   UNL     1      22.313  29.174  33.650  1.00  0.00     0.044 C 
ATOM      6  C   UNL     1      22.673  27.770  34.036  1.00  0.00    -0.051 A 
ATOM      7  C   UNL     1      24.005  27.433  34.312  1.00  0.00     0.004 A 
ATOM      8  C   UNL     1      21.692  26.769  34.055  1.00  0.00     0.004 A 
ATOM      9  C   UNL     1      24.347  26.117  34.635  1.00  0.00     0.004 A 
ATOM     10  C   UNL     1      22.032  25.452  34.378  1.00  0.00     0.004 A 
ENDBRANCH   2   4
ENDBRANCH   1   2
BRANCH   1  11
ATOM     11  C   UNL     1      25.696  22.595  33.751  1.00  0.00     0.028 C 
BRANCH  11  12
ATOM     12  C   UNL     1      26.475  23.544  32.869  1.00  0.00    -0.028 C 
ATOM     13  C   UNL     1      27.637  23.233  32.251  1.00  0.00    -0.080 C 
ATOM     14  C   UNL     1      28.309  24.292  31.414  1.00  0.00     0.039 C 
ATOM     15  C   UNL     1      28.256  21.858  32.348  1.00  0.00     0.039 C 
ENDBRANCH  11  12
ENDBRANCH   1  11
TORSDOF 4
ENDMDL
MODEL 5
REMARK VINA RESULT:    -6.380      1.911      3.980
REMARK INTER + INTRA:          -8.894
REMARK INTER:                  -8.332
REMARK INTRA:                  -0.562
REMARK UNBOUND:                -1.023
REMARK SMILES CC(C)=CCC[C@H](C)c1ccc(C)cc1
REMARK SMILES IDX 6 1 7 2 8 3 9 4 13 5 12 6 11 7 14 8 10 9 15 10 5 11 4 12
REMARK SMILES IDX 2 13 1 14 3 15
REMARK H PARENT
REMARK Flexibility Score: inf
ROOT
ATOM      1  C   UNL     1      19.209  26.958  33.644  1.00  0.00     0.012 C 
ENDROOT
BRANCH   1   2
ATOM      2  C   UNL     1      20.493  26.792  32.795  1.00  0.00     0.016 C 
ATOM      3  C   UNL     1      21.052  25.362  32.844  1.00  0.00     0.013 C 
BRANCH   2   4
ATOM      4  C   UNL     1      21.549  27.788  33.243  1.00  0.00    -0.045 A 
ATOM      5  C   UNL     1      24.532  30.644  34.509  1.00  0.00     0.044 C 
ATOM      6  C   UNL     1      23.488  29.648  34.099  1.00  0.00    -0.051 A 
ATOM      7  C   UNL     1      23.803  28.285  34.023  1.00  0.00     0.004 A 
ATOM      8  C   UNL     1      22.209  30.082  33.724  1.00  0.00     0.004 A 
ATOM      9  C   UNL     1      22.840  27.361  33.606  1.00  0.00     0.004 A 
ATOM     10  C   UNL     1      21.244  29.159  33.306  1.00  0.00     0.004 A 
ENDBRANCH   2   4
ENDBRANCH   1   2
BRANCH   1  11
ATOM     11  C   UNL     1      19.449  26.850  35.163  1.00  0.00     0.028 C 
BRANCH  11  12
ATOM     12  C   UNL     1      18.202  27.144  35.963  1.00  0.00    -0.028 C 
ATOM     13  C   UNL     1      18.047  26.848  37.274  1.00  0.00    -0.080 C 
ATOM     14  C   UNL     1      16.735  27.187  37.935  1.00  0.00     0.039 C 
ATOM     15  C   UNL     1      19.153  26.224  38.093  1.00  0.00     0.039 C 
ENDBRANCH  11  12
ENDBRANCH   1  11
TORSDOF 4
ENDMDL
MODEL 6
REMARK VINA RESULT:    -6.338      2.409      6.428
REMARK INTER + INTRA:          -8.843
REMARK INTER:                  -8.255
REMARK INTRA:                  -0.588
REMARK UNBOUND:                -1.023
REMARK SMILES CC(C)=CCC[C@H](C)c1ccc(C)cc1
REMARK SMILES IDX 6 1 7 2 8 3 9 4 13 5 12 6 11 7 14 8 10 9 15 10 5 11 4 12
REMARK SMILES IDX 2 13 1 14 3 15
REMARK H PARENT
REMARK Flexibility Score: inf
ROOT
ATOM      1  C   UNL     1      23.231  24.163  33.681  1.00  0.00     0.012 C 
ENDROOT
BRANCH   1   2
ATOM      2  C   UNL     1      23.866  22.882  34.273  1.00  0.00     0.016 C 
ATOM      3  C   UNL     1      23.994  22.939  35.803  1.00  0.00     0.013 C 
BRANCH   2   4
ATOM      4  C   UNL     1      25.223  22.629  33.639  1.00  0.00    -0.045 A 
ATOM      5  C   UNL     1      29.082  21.942  31.825  1.00  0.00     0.044 C 
ATOM      6  C   UNL     1      27.757  22.185  32.483  1.00  0.00    -0.051 A 
ATOM      7  C   UNL     1      27.034  21.118  33.034  1.00  0.00     0.004 A 
ATOM      8  C   UNL     1      27.198  23.471  32.491  1.00  0.00     0.004 A 
ATOM      9  C   UNL     1      25.782  21.338  33.614  1.00  0.00     0.004 A 
ATOM     10  C   UNL     1      25.945  23.693  33.071  1.00  0.00     0.004 A 
ENDBRANCH   2   4
ENDBRANCH   1   2
BRANCH   1  11
ATOM     11  C   UNL     1      22.693  25.141  34.746  1.00  0.00     0.028 C 
BRANCH  11  12
ATOM     12  C   UNL     1      22.887  26.586  34.348  1.00  0.00    -0.028 C 
ATOM     13  C   UNL     1      21.893  27.404  33.934  1.00  0.00    -0.080 C 
ATOM     14  C   UNL     1      22.243  28.821  33.554  1.00  0.00     0.039 C 
ATOM     15  C   UNL     1      20.452  26.952  33.874  1.00  0.00     0.039 C 
ENDBRANCH  11  12
ENDBRANCH   1  11
TORSDOF 4
ENDMDL
MODEL 7
REMARK VINA RESULT:    -6.306      2.133      6.301
REMARK INTER + INTRA:          -8.803
REMARK INTER:                  -8.289
REMARK INTRA:                  -0.514
REMARK UNBOUND:                -1.023
REMARK SMILES CC(C)=CCC[C@H](C)c1ccc(C)cc1
REMARK SMILES IDX 6 1 7 2 8 3 9 4 13 5 12 6 11 7 14 8 10 9 15 10 5 11 4 12
REMARK SMILES IDX 2 13 1 14 3 15
REMARK H PARENT
REMARK Flexibility Score: inf
ROOT
ATOM      1  C   UNL     1      23.628  24.843  35.135  1.00  0.00     0.012 C 
ENDROOT
BRANCH   1   2
ATOM      2  C   UNL     1      23.425  23.543  34.319  1.00  0.00     0.016 C 
ATOM      3  C   UNL     1      22.751  22.432  35.139  1.00  0.00     0.013 C 
BRANCH   2   4
ATOM      4  C   UNL     1      24.754  23.059  33.767  1.00  0.00    -0.045 A 
ATOM      5  C   UNL     1      28.541  21.713  32.183  1.00  0.00     0.044 C 
ATOM      6  C   UNL     1      27.239  22.183  32.762  1.00  0.00    -0.051 A 
ATOM      7  C   UNL     1      26.317  21.258  33.270  1.00  0.00     0.004 A 
ATOM      8  C   UNL     1      26.906  23.544  32.736  1.00  0.00     0.004 A 
ATOM      9  C   UNL     1      25.088  21.692  33.775  1.00  0.00     0.004 A 
ATOM     10  C   UNL     1      25.677  23.980  33.241  1.00  0.00     0.004 A 
ENDBRANCH   2   4
ENDBRANCH   1   2
BRANCH   1  11
ATOM     11  C   UNL     1      23.105  26.109  34.428  1.00  0.00     0.028 C 
BRANCH  11  12
ATOM     12  C   UNL     1      21.596  26.196  34.446  1.00  0.00    -0.028 C 
ATOM     13  C   UNL     1      20.886  27.260  34.008  1.00  0.00    -0.080 C 
ATOM     14  C   UNL     1      19.383  27.207  34.106  1.00  0.00     0.039 C 
ATOM     15  C   UNL     1      21.550  28.473  33.398  1.00  0.00     0.039 C 
ENDBRANCH  11  12
ENDBRANCH   1  11
TORSDOF 4
ENDMDL
MODEL 8
REMARK VINA RESULT:    -6.224      3.536      7.032
REMARK INTER + INTRA:          -8.702
REMARK INTER:                  -7.581
REMARK INTRA:                  -1.121
REMARK UNBOUND:                -1.023
REMARK SMILES CC(C)=CCC[C@H](C)c1ccc(C)cc1
REMARK SMILES IDX 6 1 7 2 8 3 9 4 13 5 12 6 11 7 14 8 10 9 15 10 5 11 4 12
REMARK SMILES IDX 2 13 1 14 3 15
REMARK H PARENT
REMARK Flexibility Score: inf
ROOT
ATOM      1  C   UNL     1      25.019  21.343  33.577  1.00  0.00     0.012 C 
ENDROOT
BRANCH   1   2
ATOM      2  C   UNL     1      26.544  21.152  33.760  1.00  0.00     0.016 C 
ATOM      3  C   UNL     1      26.986  21.307  35.223  1.00  0.00     0.013 C 
BRANCH   2   4
ATOM      4  C   UNL     1      27.303  22.124  32.874  1.00  0.00    -0.045 A 
ATOM      5  C   UNL     1      29.437  24.911  30.356  1.00  0.00     0.044 C 
ATOM      6  C   UNL     1      28.714  23.952  31.255  1.00  0.00    -0.051 A 
ATOM      7  C   UNL     1      29.187  22.644  31.420  1.00  0.00     0.004 A 
ATOM      8  C   UNL     1      27.520  24.337  31.882  1.00  0.00     0.004 A 
ATOM      9  C   UNL     1      28.493  21.739  32.228  1.00  0.00     0.004 A 
ATOM     10  C   UNL     1      26.824  23.434  32.691  1.00  0.00     0.004 A 
ENDBRANCH   2   4
ENDBRANCH   1   2
BRANCH   1  11
ATOM     11  C   UNL     1      24.295  21.830  34.848  1.00  0.00     0.028 C 
BRANCH  11  12
ATOM     12  C   UNL     1      23.519  23.106  34.614  1.00  0.00    -0.028 C 
ATOM     13  C   UNL     1      23.925  24.332  35.015  1.00  0.00    -0.080 C 
ATOM     14  C   UNL     1      23.034  25.513  34.724  1.00  0.00     0.039 C 
ATOM     15  C   UNL     1      25.249  24.552  35.711  1.00  0.00     0.039 C 
ENDBRANCH  11  12
ENDBRANCH   1  11
TORSDOF 4
ENDMDL
MODEL 9
REMARK VINA RESULT:    -6.133      2.213      4.512
REMARK INTER + INTRA:          -8.589
REMARK INTER:                  -8.039
REMARK INTRA:                  -0.550
REMARK UNBOUND:                -1.023
REMARK SMILES CC(C)=CCC[C@H](C)c1ccc(C)cc1
REMARK SMILES IDX 6 1 7 2 8 3 9 4 13 5 12 6 11 7 14 8 10 9 15 10 5 11 4 12
REMARK SMILES IDX 2 13 1 14 3 15
REMARK H PARENT
REMARK Flexibility Score: inf
ROOT
ATOM      1  C   UNL     1      22.438  25.727  34.687  1.00  0.00     0.012 C 
ENDROOT
BRANCH   1   2
ATOM      2  C   UNL     1      21.223  26.398  34.003  1.00  0.00     0.016 C 
ATOM      3  C   UNL     1      21.568  27.769  33.401  1.00  0.00     0.013 C 
BRANCH   2   4
ATOM      4  C   UNL     1      20.073  26.528  34.988  1.00  0.00    -0.045 A 
ATOM      5  C   UNL     1      16.791  26.920  37.768  1.00  0.00     0.044 C 
ATOM      6  C   UNL     1      17.917  26.759  36.790  1.00  0.00    -0.051 A 
ATOM      7  C   UNL     1      19.031  25.974  37.118  1.00  0.00     0.004 A 
ATOM      8  C   UNL     1      17.895  27.447  35.569  1.00  0.00     0.004 A 
ATOM      9  C   UNL     1      20.096  25.852  36.222  1.00  0.00     0.004 A 
ATOM     10  C   UNL     1      18.961  27.327  34.671  1.00  0.00     0.004 A 
ENDBRANCH   2   4
ENDBRANCH   1   2
BRANCH   1  11
ATOM     11  C   UNL     1      22.938  24.460  33.964  1.00  0.00     0.028 C 
BRANCH  11  12
ATOM     12  C   UNL     1      23.064  23.278  34.897  1.00  0.00    -0.028 C 
ATOM     13  C   UNL     1      23.958  22.275  34.743  1.00  0.00    -0.080 C 
ATOM     14  C   UNL     1      23.954  21.152  35.749  1.00  0.00     0.039 C 
ATOM     15  C   UNL     1      24.972  22.267  33.623  1.00  0.00     0.039 C 
ENDBRANCH  11  12
ENDBRANCH   1  11
TORSDOF 4
ENDMDL
