MODEL 1
REMARK VINA RESULT:    -4.120      0.000      0.000
REMARK INTER + INTRA:          -8.910
REMARK INTER:                  -7.734
REMARK INTRA:                  -1.176
REMARK UNBOUND:                -1.176
REMARK SMILES CCCCCCCCC=CCCCCCCCC(=O)[O-]
REMARK SMILES IDX 10 1 9 2 11 3 12 4 13 5 14 6 15 7 16 8 17 9 18 10 19 11
REMARK SMILES IDX 20 12 8 13 7 14 6 15 5 16 4 17 3 18 2 19 1 20
REMARK H PARENT
REMARK Flexibility Score: inf
ROOT
ATOM      1  C   UNL     1      59.658  25.555  49.933  1.00  0.00    -0.031 C 
ATOM      2  C   UNL     1      59.058  26.662  49.457  1.00  0.00    -0.031 C 
ENDROOT
BRANCH   1   3
ATOM      3  C   UNL     1      61.080  25.499  50.431  1.00  0.00     0.027 C 
BRANCH   3   4
ATOM      4  C   UNL     1      61.592  24.055  50.455  1.00  0.00     0.004 C 
BRANCH   4   5
ATOM      5  C   UNL     1      60.524  23.085  49.937  1.00  0.00     0.000 C 
BRANCH   5   6
ATOM      6  C   UNL     1      61.089  22.185  48.832  1.00  0.00     0.000 C 
BRANCH   6   7
ATOM      7  C   UNL     1      60.262  20.901  48.692  1.00  0.00     0.000 C 
BRANCH   7   8
ATOM      8  C   UNL     1      60.184  20.148  50.029  1.00  0.00     0.006 C 
BRANCH   8   9
ATOM      9  C   UNL     1      59.973  18.641  49.835  1.00  0.00     0.053 C 
BRANCH   9  10
ATOM     10  C   UNL     1      58.519  18.292  49.747  1.00  0.00     0.041 C 
ATOM     11  O   UNL     1      58.149  17.270  49.111  1.00  0.00    -0.550 OA
ATOM     12  O   UNL     1      57.570  19.113  50.343  1.00  0.00    -0.550 OA
ENDBRANCH   9  10
ENDBRANCH   8   9
ENDBRANCH   7   8
ENDBRANCH   6   7
ENDBRANCH   5   6
ENDBRANCH   4   5
ENDBRANCH   3   4
ENDBRANCH   1   3
BRANCH   2  13
ATOM     13  C   UNL     1      59.743  27.992  49.267  1.00  0.00     0.027 C 
BRANCH  13  14
ATOM     14  C   UNL     1      58.778  29.148  49.556  1.00  0.00     0.004 C 
BRANCH  14  15
ATOM     15  C   UNL     1      57.810  28.782  50.691  1.00  0.00     0.000 C 
BRANCH  15  16
ATOM     16  C   UNL     1      56.346  29.101  50.347  1.00  0.00     0.000 C 
BRANCH  16  17
ATOM     17  C   UNL     1      55.379  27.994  50.795  1.00  0.00    -0.000 C 
BRANCH  17  18
ATOM     18  C   UNL     1      55.564  26.727  49.947  1.00  0.00    -0.000 C 
BRANCH  18  19
ATOM     19  C   UNL     1      54.370  25.765  50.054  1.00  0.00    -0.003 C 
ATOM     20  C   UNL     1      53.448  25.828  48.836  1.00  0.00     0.004 C 
ENDBRANCH  18  19
ENDBRANCH  17  18
ENDBRANCH  16  17
ENDBRANCH  15  16
ENDBRANCH  14  15
ENDBRANCH  13  14
ENDBRANCH   2  13
TORSDOF 15
ENDMDL
MODEL 2
REMARK VINA RESULT:    -4.100      2.851      5.056
REMARK INTER + INTRA:          -8.871
REMARK INTER:                  -6.622
REMARK INTRA:                  -2.249
REMARK UNBOUND:                -1.176
REMARK SMILES CCCCCCCCC=CCCCCCCCC(=O)[O-]
REMARK SMILES IDX 10 1 9 2 11 3 12 4 13 5 14 6 15 7 16 8 17 9 18 10 19 11
REMARK SMILES IDX 20 12 8 13 7 14 6 15 5 16 4 17 3 18 2 19 1 20
REMARK H PARENT
REMARK Flexibility Score: inf
ROOT
ATOM      1  C   UNL     1      57.791  28.453  51.387  1.00  0.00    -0.031 C 
ATOM      2  C   UNL     1      57.439  27.178  51.637  1.00  0.00    -0.031 C 
ENDROOT
BRANCH   1   3
ATOM      3  C   UNL     1      57.672  29.126  50.043  1.00  0.00     0.027 C 
BRANCH   3   4
ATOM      4  C   UNL     1      59.056  29.459  49.476  1.00  0.00     0.004 C 
BRANCH   4   5
ATOM      5  C   UNL     1      59.837  28.181  49.148  1.00  0.00     0.000 C 
BRANCH   5   6
ATOM      6  C   UNL     1      61.335  28.367  49.416  1.00  0.00     0.000 C 
BRANCH   6   7
ATOM      7  C   UNL     1      61.847  27.327  50.420  1.00  0.00     0.000 C 
BRANCH   7   8
ATOM      8  C   UNL     1      60.857  26.162  50.560  1.00  0.00     0.006 C 
BRANCH   8   9
ATOM      9  C   UNL     1      61.507  24.807  50.254  1.00  0.00     0.053 C 
BRANCH   9  10
ATOM     10  C   UNL     1      60.516  23.687  50.327  1.00  0.00     0.041 C 
ATOM     11  O   UNL     1      60.568  22.738  49.502  1.00  0.00    -0.550 OA
ATOM     12  O   UNL     1      59.514  23.708  51.289  1.00  0.00    -0.550 OA
ENDBRANCH   9  10
ENDBRANCH   8   9
ENDBRANCH   7   8
ENDBRANCH   6   7
ENDBRANCH   5   6
ENDBRANCH   4   5
ENDBRANCH   3   4
ENDBRANCH   1   3
BRANCH   2  13
ATOM     13  C   UNL     1      56.955  26.204  50.592  1.00  0.00     0.027 C 
BRANCH  13  14
ATOM     14  C   UNL     1      55.449  25.955  50.737  1.00  0.00     0.004 C 
BRANCH  14  15
ATOM     15  C   UNL     1      54.730  26.145  49.393  1.00  0.00     0.000 C 
BRANCH  15  16
ATOM     16  C   UNL     1      53.601  27.186  49.467  1.00  0.00     0.000 C 
BRANCH  16  17
ATOM     17  C   UNL     1      53.675  28.050  50.735  1.00  0.00    -0.000 C 
BRANCH  17  18
ATOM     18  C   UNL     1      54.059  29.497  50.392  1.00  0.00    -0.000 C 
BRANCH  18  19
ATOM     19  C   UNL     1      54.548  30.285  51.617  1.00  0.00    -0.003 C 
ATOM     20  C   UNL     1      53.634  31.457  51.972  1.00  0.00     0.004 C 
ENDBRANCH  18  19
ENDBRANCH  17  18
ENDBRANCH  16  17
ENDBRANCH  15  16
ENDBRANCH  14  15
ENDBRANCH  13  14
ENDBRANCH   2  13
TORSDOF 15
ENDMDL
MODEL 3
REMARK VINA RESULT:    -4.080      5.874      8.855
REMARK INTER + INTRA:          -8.834
REMARK INTER:                  -6.104
REMARK INTRA:                  -2.730
REMARK UNBOUND:                -1.176
REMARK SMILES CCCCCCCCC=CCCCCCCCC(=O)[O-]
REMARK SMILES IDX 10 1 9 2 11 3 12 4 13 5 14 6 15 7 16 8 17 9 18 10 19 11
REMARK SMILES IDX 20 12 8 13 7 14 6 15 5 16 4 17 3 18 2 19 1 20
REMARK H PARENT
REMARK Flexibility Score: inf
ROOT
ATOM      1  C   UNL     1      57.312  25.988  51.246  1.00  0.00    -0.031 C 
ATOM      2  C   UNL     1      58.629  25.761  51.089  1.00  0.00    -0.031 C 
ENDROOT
BRANCH   1   3
ATOM      3  C   UNL     1      56.380  26.422  50.143  1.00  0.00     0.027 C 
BRANCH   3   4
ATOM      4  C   UNL     1      55.609  27.683  50.546  1.00  0.00     0.004 C 
BRANCH   4   5
ATOM      5  C   UNL     1      54.222  27.711  49.893  1.00  0.00     0.000 C 
BRANCH   5   6
ATOM      6  C   UNL     1      53.526  29.055  50.136  1.00  0.00     0.000 C 
BRANCH   6   7
ATOM      7  C   UNL     1      54.387  29.971  51.014  1.00  0.00     0.000 C 
BRANCH   7   8
ATOM      8  C   UNL     1      53.735  30.189  52.387  1.00  0.00     0.006 C 
BRANCH   8   9
ATOM      9  C   UNL     1      54.718  30.769  53.412  1.00  0.00     0.053 C 
BRANCH   9  10
ATOM     10  C   UNL     1      54.889  32.247  53.243  1.00  0.00     0.041 C 
ATOM     11  O   UNL     1      53.888  32.981  53.029  1.00  0.00    -0.550 OA
ATOM     12  O   UNL     1      56.158  32.809  53.290  1.00  0.00    -0.550 OA
ENDBRANCH   9  10
ENDBRANCH   8   9
ENDBRANCH   7   8
ENDBRANCH   6   7
ENDBRANCH   5   6
ENDBRANCH   4   5
ENDBRANCH   3   4
ENDBRANCH   1   3
BRANCH   2  13
ATOM     13  C   UNL     1      59.389  25.991  49.807  1.00  0.00     0.027 C 
BRANCH  13  14
ATOM     14  C   UNL     1      60.731  26.680  50.086  1.00  0.00     0.004 C 
BRANCH  14  15
ATOM     15  C   UNL     1      60.662  28.173  49.735  1.00  0.00     0.000 C 
BRANCH  15  16
ATOM     16  C   UNL     1      59.384  28.543  48.964  1.00  0.00     0.000 C 
BRANCH  16  17
ATOM     17  C   UNL     1      58.595  29.677  49.635  1.00  0.00    -0.000 C 
BRANCH  17  18
ATOM     18  C   UNL     1      59.127  29.953  51.049  1.00  0.00    -0.000 C 
BRANCH  18  19
ATOM     19  C   UNL     1      58.006  30.033  52.096  1.00  0.00    -0.003 C 
ATOM     20  C   UNL     1      58.168  29.007  53.218  1.00  0.00     0.004 C 
ENDBRANCH  18  19
ENDBRANCH  17  18
ENDBRANCH  16  17
ENDBRANCH  15  16
ENDBRANCH  14  15
ENDBRANCH  13  14
ENDBRANCH   2  13
TORSDOF 15
ENDMDL
MODEL 4
REMARK VINA RESULT:    -4.068      4.704      6.924
REMARK INTER + INTRA:          -8.812
REMARK INTER:                  -6.101
REMARK INTRA:                  -2.711
REMARK UNBOUND:                -1.176
REMARK SMILES CCCCCCCCC=CCCCCCCCC(=O)[O-]
REMARK SMILES IDX 10 1 9 2 11 3 12 4 13 5 14 6 15 7 16 8 17 9 18 10 19 11
REMARK SMILES IDX 20 12 8 13 7 14 6 15 5 16 4 17 3 18 2 19 1 20
REMARK H PARENT
REMARK Flexibility Score: inf
ROOT
ATOM      1  C   UNL     1      56.047  29.846  52.965  1.00  0.00    -0.031 C 
ATOM      2  C   UNL     1      54.802  29.738  52.464  1.00  0.00    -0.031 C 
ENDROOT
BRANCH   1   3
ATOM      3  C   UNL     1      57.200  30.510  52.255  1.00  0.00     0.027 C 
BRANCH   3   4
ATOM      4  C   UNL     1      58.085  29.470  51.561  1.00  0.00     0.004 C 
BRANCH   4   5
ATOM      5  C   UNL     1      57.791  29.414  50.057  1.00  0.00     0.000 C 
BRANCH   5   6
ATOM      6  C   UNL     1      59.050  29.046  49.264  1.00  0.00     0.000 C 
BRANCH   6   7
ATOM      7  C   UNL     1      59.330  27.540  49.343  1.00  0.00     0.000 C 
BRANCH   7   8
ATOM      8  C   UNL     1      60.707  27.268  49.964  1.00  0.00     0.006 C 
BRANCH   8   9
ATOM      9  C   UNL     1      61.721  28.371  49.636  1.00  0.00     0.053 C 
BRANCH   9  10
ATOM     10  C   UNL     1      63.032  27.802  49.186  1.00  0.00     0.041 C 
ATOM     11  O   UNL     1      63.623  28.285  48.185  1.00  0.00    -0.550 OA
ATOM     12  O   UNL     1      63.585  26.719  49.855  1.00  0.00    -0.550 OA
ENDBRANCH   9  10
ENDBRANCH   8   9
ENDBRANCH   7   8
ENDBRANCH   6   7
ENDBRANCH   5   6
ENDBRANCH   4   5
ENDBRANCH   3   4
ENDBRANCH   1   3
BRANCH   2  13
ATOM     13  C   UNL     1      54.393  30.185  51.084  1.00  0.00     0.027 C 
BRANCH  13  14
ATOM     14  C   UNL     1      53.600  29.085  50.368  1.00  0.00     0.004 C 
BRANCH  14  15
ATOM     15  C   UNL     1      54.051  27.693  50.833  1.00  0.00     0.000 C 
BRANCH  15  16
ATOM     16  C   UNL     1      54.781  26.908  49.731  1.00  0.00     0.000 C 
BRANCH  16  17
ATOM     17  C   UNL     1      56.047  26.205  50.245  1.00  0.00    -0.000 C 
BRANCH  17  18
ATOM     18  C   UNL     1      56.040  26.115  51.778  1.00  0.00    -0.000 C 
BRANCH  18  19
ATOM     19  C   UNL     1      57.453  26.181  52.379  1.00  0.00    -0.003 C 
ATOM     20  C   UNL     1      58.301  24.957  52.033  1.00  0.00     0.004 C 
ENDBRANCH  18  19
ENDBRANCH  17  18
ENDBRANCH  16  17
ENDBRANCH  15  16
ENDBRANCH  14  15
ENDBRANCH  13  14
ENDBRANCH   2  13
TORSDOF 15
ENDMDL
MODEL 5
REMARK VINA RESULT:    -4.055      2.533      4.987
REMARK INTER + INTRA:          -8.787
REMARK INTER:                  -6.378
REMARK INTRA:                  -2.409
REMARK UNBOUND:                -1.176
REMARK SMILES CCCCCCCCC=CCCCCCCCC(=O)[O-]
REMARK SMILES IDX 10 1 9 2 11 3 12 4 13 5 14 6 15 7 16 8 17 9 18 10 19 11
REMARK SMILES IDX 20 12 8 13 7 14 6 15 5 16 4 17 3 18 2 19 1 20
REMARK H PARENT
REMARK Flexibility Score: inf
ROOT
ATOM      1  C   UNL     1      56.736  29.120  51.399  1.00  0.00    -0.031 C 
ATOM      2  C   UNL     1      55.460  29.543  51.471  1.00  0.00    -0.031 C 
ENDROOT
BRANCH   1   3
ATOM      3  C   UNL     1      57.369  28.512  50.173  1.00  0.00     0.027 C 
BRANCH   3   4
ATOM      4  C   UNL     1      58.512  29.392  49.657  1.00  0.00     0.004 C 
BRANCH   4   5
ATOM      5  C   UNL     1      59.645  28.537  49.078  1.00  0.00     0.000 C 
BRANCH   5   6
ATOM      6  C   UNL     1      59.388  27.045  49.321  1.00  0.00     0.000 C 
BRANCH   6   7
ATOM      7  C   UNL     1      60.518  26.420  50.149  1.00  0.00     0.000 C 
BRANCH   7   8
ATOM      8  C   UNL     1      60.238  24.936  50.428  1.00  0.00     0.006 C 
BRANCH   8   9
ATOM      9  C   UNL     1      61.524  24.100  50.462  1.00  0.00     0.053 C 
BRANCH   9  10
ATOM     10  C   UNL     1      61.297  22.714  49.940  1.00  0.00     0.041 C 
ATOM     11  O   UNL     1      60.889  22.539  48.762  1.00  0.00    -0.550 OA
ATOM     12  O   UNL     1      61.508  21.618  50.766  1.00  0.00    -0.550 OA
ENDBRANCH   9  10
ENDBRANCH   8   9
ENDBRANCH   7   8
ENDBRANCH   6   7
ENDBRANCH   5   6
ENDBRANCH   4   5
ENDBRANCH   3   4
ENDBRANCH   1   3
BRANCH   2  13
ATOM     13  C   UNL     1      54.446  29.393  50.365  1.00  0.00     0.027 C 
BRANCH  13  14
ATOM     14  C   UNL     1      53.620  28.115  50.554  1.00  0.00     0.004 C 
BRANCH  14  15
ATOM     15  C   UNL     1      54.123  26.996  49.631  1.00  0.00     0.000 C 
BRANCH  15  16
ATOM     16  C   UNL     1      54.822  25.863  50.401  1.00  0.00     0.000 C 
BRANCH  16  17
ATOM     17  C   UNL     1      54.324  25.736  51.848  1.00  0.00    -0.000 C 
BRANCH  17  18
ATOM     18  C   UNL     1      55.480  25.385  52.797  1.00  0.00    -0.000 C 
BRANCH  18  19
ATOM     19  C   UNL     1      56.855  25.500  52.120  1.00  0.00    -0.003 C 
ATOM     20  C   UNL     1      57.925  26.080  53.046  1.00  0.00     0.004 C 
ENDBRANCH  18  19
ENDBRANCH  17  18
ENDBRANCH  16  17
ENDBRANCH  15  16
ENDBRANCH  14  15
ENDBRANCH  13  14
ENDBRANCH   2  13
TORSDOF 15
ENDMDL
MODEL 6
REMARK VINA RESULT:    -4.019      1.579      3.294
REMARK INTER + INTRA:          -8.719
REMARK INTER:                  -7.920
REMARK INTRA:                  -0.799
REMARK UNBOUND:                -1.176
REMARK SMILES CCCCCCCCC=CCCCCCCCC(=O)[O-]
REMARK SMILES IDX 10 1 9 2 11 3 12 4 13 5 14 6 15 7 16 8 17 9 18 10 19 11
REMARK SMILES IDX 20 12 8 13 7 14 6 15 5 16 4 17 3 18 2 19 1 20
REMARK H PARENT
REMARK Flexibility Score: inf
ROOT
ATOM      1  C   UNL     1      61.601  22.855  50.339  1.00  0.00    -0.031 C 
ATOM      2  C   UNL     1      61.744  24.125  50.763  1.00  0.00    -0.031 C 
ENDROOT
BRANCH   1   3
ATOM      3  C   UNL     1      60.690  22.425  49.216  1.00  0.00     0.027 C 
BRANCH   3   4
ATOM      4  C   UNL     1      61.253  21.192  48.501  1.00  0.00     0.004 C 
BRANCH   4   5
ATOM      5  C   UNL     1      60.811  19.902  49.201  1.00  0.00     0.000 C 
BRANCH   5   6
ATOM      6  C   UNL     1      59.704  19.197  48.408  1.00  0.00     0.000 C 
BRANCH   6   7
ATOM      7  C   UNL     1      59.662  17.699  48.735  1.00  0.00     0.000 C 
BRANCH   7   8
ATOM      8  C   UNL     1      58.218  17.225  48.958  1.00  0.00     0.006 C 
BRANCH   8   9
ATOM      9  C   UNL     1      57.814  17.267  50.437  1.00  0.00     0.053 C 
BRANCH   9  10
ATOM     10  C   UNL     1      57.030  18.501  50.763  1.00  0.00     0.041 C 
ATOM     11  O   UNL     1      57.597  19.491  51.296  1.00  0.00    -0.550 OA
ATOM     12  O   UNL     1      55.666  18.544  50.506  1.00  0.00    -0.550 OA
ENDBRANCH   9  10
ENDBRANCH   8   9
ENDBRANCH   7   8
ENDBRANCH   6   7
ENDBRANCH   5   6
ENDBRANCH   4   5
ENDBRANCH   3   4
ENDBRANCH   1   3
BRANCH   2  13
ATOM     13  C   UNL     1      60.950  25.295  50.241  1.00  0.00     0.027 C 
BRANCH  13  14
ATOM     14  C   UNL     1      61.747  26.598  50.380  1.00  0.00     0.004 C 
BRANCH  14  15
ATOM     15  C   UNL     1      61.008  27.766  49.711  1.00  0.00     0.000 C 
BRANCH  15  16
ATOM     16  C   UNL     1      59.577  27.396  49.285  1.00  0.00     0.000 C 
BRANCH  16  17
ATOM     17  C   UNL     1      58.563  28.510  49.588  1.00  0.00    -0.000 C 
BRANCH  17  18
ATOM     18  C   UNL     1      57.372  27.964  50.390  1.00  0.00    -0.000 C 
BRANCH  18  19
ATOM     19  C   UNL     1      56.350  29.055  50.745  1.00  0.00    -0.003 C 
ATOM     20  C   UNL     1      54.916  28.663  50.385  1.00  0.00     0.004 C 
ENDBRANCH  18  19
ENDBRANCH  17  18
ENDBRANCH  16  17
ENDBRANCH  15  16
ENDBRANCH  14  15
ENDBRANCH  13  14
ENDBRANCH   2  13
TORSDOF 15
ENDMDL
MODEL 7
REMARK VINA RESULT:    -3.893      6.029      8.463
REMARK INTER + INTRA:          -8.484
REMARK INTER:                  -6.129
REMARK INTRA:                  -2.355
REMARK UNBOUND:                -1.176
REMARK SMILES CCCCCCCCC=CCCCCCCCC(=O)[O-]
REMARK SMILES IDX 10 1 9 2 11 3 12 4 13 5 14 6 15 7 16 8 17 9 18 10 19 11
REMARK SMILES IDX 20 12 8 13 7 14 6 15 5 16 4 17 3 18 2 19 1 20
REMARK H PARENT
REMARK Flexibility Score: inf
ROOT
ATOM      1  C   UNL     1      59.661  26.326  49.713  1.00  0.00    -0.031 C 
ATOM      2  C   UNL     1      58.835  25.599  50.488  1.00  0.00    -0.031 C 
ENDROOT
BRANCH   1   3
ATOM      3  C   UNL     1      60.078  27.746  50.003  1.00  0.00     0.027 C 
BRANCH   3   4
ATOM      4  C   UNL     1      59.448  28.715  48.996  1.00  0.00     0.004 C 
BRANCH   4   5
ATOM      5  C   UNL     1      58.460  29.660  49.688  1.00  0.00     0.000 C 
BRANCH   5   6
ATOM      6  C   UNL     1      58.772  29.783  51.184  1.00  0.00     0.000 C 
BRANCH   6   7
ATOM      7  C   UNL     1      57.485  29.770  52.018  1.00  0.00     0.000 C 
BRANCH   7   8
ATOM      8  C   UNL     1      57.502  30.883  53.075  1.00  0.00     0.006 C 
BRANCH   8   9
ATOM      9  C   UNL     1      58.706  31.820  52.912  1.00  0.00     0.053 C 
BRANCH   9  10
ATOM     10  C   UNL     1      58.364  33.231  53.282  1.00  0.00     0.041 C 
ATOM     11  O   UNL     1      57.342  33.475  53.976  1.00  0.00    -0.550 OA
ATOM     12  O   UNL     1      59.157  34.278  52.831  1.00  0.00    -0.550 OA
ENDBRANCH   9  10
ENDBRANCH   8   9
ENDBRANCH   7   8
ENDBRANCH   6   7
ENDBRANCH   5   6
ENDBRANCH   4   5
ENDBRANCH   3   4
ENDBRANCH   1   3
BRANCH   2  13
ATOM     13  C   UNL     1      58.133  26.122  51.715  1.00  0.00     0.027 C 
BRANCH  13  14
ATOM     14  C   UNL     1      56.621  25.885  51.619  1.00  0.00     0.004 C 
BRANCH  14  15
ATOM     15  C   UNL     1      56.095  26.260  50.226  1.00  0.00     0.000 C 
BRANCH  15  16
ATOM     16  C   UNL     1      55.393  27.628  50.207  1.00  0.00     0.000 C 
BRANCH  16  17
ATOM     17  C   UNL     1      53.945  27.543  49.701  1.00  0.00    -0.000 C 
BRANCH  17  18
ATOM     18  C   UNL     1      53.044  28.541  50.444  1.00  0.00    -0.000 C 
BRANCH  18  19
ATOM     19  C   UNL     1      53.805  29.336  51.517  1.00  0.00    -0.003 C 
ATOM     20  C   UNL     1      53.890  30.829  51.199  1.00  0.00     0.004 C 
ENDBRANCH  18  19
ENDBRANCH  17  18
ENDBRANCH  16  17
ENDBRANCH  15  16
ENDBRANCH  14  15
ENDBRANCH  13  14
ENDBRANCH   2  13
TORSDOF 15
ENDMDL
MODEL 8
REMARK VINA RESULT:    -3.862      3.950      6.622
REMARK INTER + INTRA:          -8.424
REMARK INTER:                  -5.227
REMARK INTRA:                  -3.197
REMARK UNBOUND:                -1.176
REMARK SMILES CCCCCCCCC=CCCCCCCCC(=O)[O-]
REMARK SMILES IDX 10 1 9 2 11 3 12 4 13 5 14 6 15 7 16 8 17 9 18 10 19 11
REMARK SMILES IDX 20 12 8 13 7 14 6 15 5 16 4 17 3 18 2 19 1 20
REMARK H PARENT
REMARK Flexibility Score: inf
ROOT
ATOM      1  C   UNL     1      59.540  24.631  51.296  1.00  0.00    -0.031 C 
ATOM      2  C   UNL     1      59.814  25.292  50.156  1.00  0.00    -0.031 C 
ENDROOT
BRANCH   1   3
ATOM      3  C   UNL     1      58.311  24.855  52.141  1.00  0.00     0.027 C 
BRANCH   3   4
ATOM      4  C   UNL     1      58.588  25.887  53.241  1.00  0.00     0.004 C 
BRANCH   4   5
ATOM      5  C   UNL     1      57.348  26.746  53.511  1.00  0.00     0.000 C 
BRANCH   5   6
ATOM      6  C   UNL     1      56.386  26.717  52.318  1.00  0.00     0.000 C 
BRANCH   6   7
ATOM      7  C   UNL     1      56.143  28.129  51.771  1.00  0.00     0.000 C 
BRANCH   7   8
ATOM      8  C   UNL     1      55.585  28.077  50.341  1.00  0.00     0.006 C 
BRANCH   8   9
ATOM      9  C   UNL     1      55.209  26.652  49.916  1.00  0.00     0.053 C 
BRANCH   9  10
ATOM     10  C   UNL     1      53.832  26.594  49.331  1.00  0.00     0.041 C 
ATOM     11  O   UNL     1      53.486  25.616  48.618  1.00  0.00    -0.550 OA
ATOM     12  O   UNL     1      52.940  27.636  49.549  1.00  0.00    -0.550 OA
ENDBRANCH   9  10
ENDBRANCH   8   9
ENDBRANCH   7   8
ENDBRANCH   6   7
ENDBRANCH   5   6
ENDBRANCH   4   5
ENDBRANCH   3   4
ENDBRANCH   1   3
BRANCH   2  13
ATOM     13  C   UNL     1      58.980  26.418  49.598  1.00  0.00     0.027 C 
BRANCH  13  14
ATOM     14  C   UNL     1      59.857  27.629  49.259  1.00  0.00     0.004 C 
BRANCH  14  15
ATOM     15  C   UNL     1      59.037  28.927  49.295  1.00  0.00     0.000 C 
BRANCH  15  16
ATOM     16  C   UNL     1      59.720  30.037  50.110  1.00  0.00     0.000 C 
BRANCH  16  17
ATOM     17  C   UNL     1      59.058  30.258  51.478  1.00  0.00    -0.000 C 
BRANCH  17  18
ATOM     18  C   UNL     1      59.729  29.397  52.559  1.00  0.00    -0.000 C 
BRANCH  18  19
ATOM     19  C   UNL     1      61.235  29.213  52.316  1.00  0.00    -0.003 C 
ATOM     20  C   UNL     1      61.688  27.762  52.477  1.00  0.00     0.004 C 
ENDBRANCH  18  19
ENDBRANCH  17  18
ENDBRANCH  16  17
ENDBRANCH  15  16
ENDBRANCH  14  15
ENDBRANCH  13  14
ENDBRANCH   2  13
TORSDOF 15
ENDMDL
MODEL 9
REMARK VINA RESULT:    -3.850      1.976      2.947
REMARK INTER + INTRA:          -8.402
REMARK INTER:                  -5.830
REMARK INTRA:                  -2.572
REMARK UNBOUND:                -1.176
REMARK SMILES CCCCCCCCC=CCCCCCCCC(=O)[O-]
REMARK SMILES IDX 10 1 9 2 11 3 12 4 13 5 14 6 15 7 16 8 17 9 18 10 19 11
REMARK SMILES IDX 20 12 8 13 7 14 6 15 5 16 4 17 3 18 2 19 1 20
REMARK H PARENT
REMARK Flexibility Score: inf
ROOT
ATOM      1  C   UNL     1      58.484  25.757  50.949  1.00  0.00    -0.031 C 
ATOM      2  C   UNL     1      58.808  26.269  49.747  1.00  0.00    -0.031 C 
ENDROOT
BRANCH   1   3
ATOM      3  C   UNL     1      58.896  26.351  52.272  1.00  0.00     0.027 C 
BRANCH   3   4
ATOM      4  C   UNL     1      59.849  25.411  53.019  1.00  0.00     0.004 C 
BRANCH   4   5
ATOM      5  C   UNL     1      59.236  24.014  53.168  1.00  0.00     0.000 C 
BRANCH   5   6
ATOM      6  C   UNL     1      60.178  22.938  52.614  1.00  0.00     0.000 C 
BRANCH   6   7
ATOM      7  C   UNL     1      61.521  23.546  52.191  1.00  0.00     0.000 C 
BRANCH   7   8
ATOM      8  C   UNL     1      61.867  23.163  50.745  1.00  0.00     0.006 C 
BRANCH   8   9
ATOM      9  C   UNL     1      60.615  22.900  49.898  1.00  0.00     0.053 C 
BRANCH   9  10
ATOM     10  C   UNL     1      60.586  21.497  49.372  1.00  0.00     0.041 C 
ATOM     11  O   UNL     1      60.100  20.569  50.070  1.00  0.00    -0.550 OA
ATOM     12  O   UNL     1      61.124  21.213  48.124  1.00  0.00    -0.550 OA
ENDBRANCH   9  10
ENDBRANCH   8   9
ENDBRANCH   7   8
ENDBRANCH   6   7
ENDBRANCH   5   6
ENDBRANCH   4   5
ENDBRANCH   3   4
ENDBRANCH   1   3
BRANCH   2  13
ATOM     13  C   UNL     1      59.704  27.464  49.540  1.00  0.00     0.027 C 
BRANCH  13  14
ATOM     14  C   UNL     1      58.876  28.721  49.248  1.00  0.00     0.004 C 
BRANCH  14  15
ATOM     15  C   UNL     1      58.912  29.690  50.438  1.00  0.00     0.000 C 
BRANCH  15  16
ATOM     16  C   UNL     1      57.687  29.548  51.356  1.00  0.00     0.000 C 
BRANCH  16  17
ATOM     17  C   UNL     1      56.385  29.323  50.573  1.00  0.00    -0.000 C 
BRANCH  17  18
ATOM     18  C   UNL     1      55.651  28.071  51.076  1.00  0.00    -0.000 C 
BRANCH  18  19
ATOM     19  C   UNL     1      54.752  27.441  50.000  1.00  0.00    -0.003 C 
ATOM     20  C   UNL     1      54.846  25.916  49.968  1.00  0.00     0.004 C 
ENDBRANCH  18  19
ENDBRANCH  17  18
ENDBRANCH  16  17
ENDBRANCH  15  16
ENDBRANCH  14  15
ENDBRANCH  13  14
ENDBRANCH   2  13
TORSDOF 15
ENDMDL
