MODEL 1
REMARK VINA RESULT:    -2.872      0.000      0.000
REMARK INTER + INTRA:          -3.765
REMARK INTER:                  -3.627
REMARK INTRA:                  -0.138
REMARK UNBOUND:                -0.138
REMARK SMILES CCCCCCO
REMARK SMILES IDX 4 1 3 2 2 3 1 4 5 5 6 6 7 7
REMARK H PARENT 7 8
REMARK Flexibility Score: inf
ROOT
ATOM      1  C   UNL     1     149.472 150.093 144.599  1.00  0.00     0.002 C 
ENDROOT
BRANCH   1   2
ATOM      2  C   UNL     1     150.387 151.320 144.729  1.00  0.00    -0.000 C 
BRANCH   2   3
ATOM      3  C   UNL     1     149.601 152.639 144.796  1.00  0.00    -0.003 C 
ATOM      4  C   UNL     1     150.275 153.685 145.682  1.00  0.00     0.004 C 
ENDBRANCH   2   3
ENDBRANCH   1   2
BRANCH   1   5
ATOM      5  C   UNL     1     149.006 149.607 145.976  1.00  0.00     0.028 C 
BRANCH   5   6
ATOM      6  C   UNL     1     147.480 149.507 146.039  1.00  0.00     0.156 C 
BRANCH   6   7
ATOM      7  O   UNL     1     146.894 150.560 145.324  1.00  0.00    -0.396 OA
ATOM      8  H   UNL     1     147.598 150.925 144.727  1.00  0.00     0.210 HD
ENDBRANCH   6   7
ENDBRANCH   5   6
ENDBRANCH   1   5
TORSDOF 5
ENDMDL
MODEL 2
REMARK VINA RESULT:    -2.804      3.358      4.130
REMARK INTER + INTRA:          -3.680
REMARK INTER:                  -3.571
REMARK INTRA:                  -0.109
REMARK UNBOUND:                -0.138
REMARK SMILES CCCCCCO
REMARK SMILES IDX 4 1 3 2 2 3 1 4 5 5 6 6 7 7
REMARK H PARENT 7 8
REMARK Flexibility Score: inf
ROOT
ATOM      1  C   UNL     1     151.548 151.382 144.660  1.00  0.00     0.002 C 
ENDROOT
BRANCH   1   2
ATOM      2  C   UNL     1     150.027 151.560 144.774  1.00  0.00    -0.000 C 
BRANCH   2   3
ATOM      3  C   UNL     1     149.601 152.161 146.122  1.00  0.00    -0.003 C 
ATOM      4  C   UNL     1     149.438 153.680 146.067  1.00  0.00     0.004 C 
ENDBRANCH   2   3
ENDBRANCH   1   2
BRANCH   1   5
ATOM      5  C   UNL     1     152.170 151.086 146.029  1.00  0.00     0.028 C 
BRANCH   5   6
ATOM      6  C   UNL     1     153.648 151.483 146.063  1.00  0.00     0.156 C 
BRANCH   6   7
ATOM      7  O   UNL     1     154.390 150.664 145.202  1.00  0.00    -0.396 OA
ATOM      8  H   UNL     1     154.073 150.857 144.281  1.00  0.00     0.210 HD
ENDBRANCH   6   7
ENDBRANCH   5   6
ENDBRANCH   1   5
TORSDOF 5
ENDMDL
MODEL 3
REMARK VINA RESULT:    -2.746      2.865      3.241
REMARK INTER + INTRA:          -3.606
REMARK INTER:                  -3.495
REMARK INTRA:                  -0.111
REMARK UNBOUND:                -0.138
REMARK SMILES CCCCCCO
REMARK SMILES IDX 4 1 3 2 2 3 1 4 5 5 6 6 7 7
REMARK H PARENT 7 8
REMARK Flexibility Score: inf
ROOT
ATOM      1  C   UNL     1     150.838 150.239 145.305  1.00  0.00     0.002 C 
ENDROOT
BRANCH   1   2
ATOM      2  C   UNL     1     151.533 151.608 145.246  1.00  0.00    -0.000 C 
BRANCH   2   3
ATOM      3  C   UNL     1     153.054 151.492 145.068  1.00  0.00    -0.003 C 
ATOM      4  C   UNL     1     153.835 152.273 146.125  1.00  0.00     0.004 C 
ENDBRANCH   2   3
ENDBRANCH   1   2
BRANCH   1   5
ATOM      5  C   UNL     1     151.821 149.143 145.733  1.00  0.00     0.028 C 
BRANCH   5   6
ATOM      6  C   UNL     1     151.208 147.751 145.558  1.00  0.00     0.156 C 
BRANCH   6   7
ATOM      7  O   UNL     1     149.823 147.851 145.373  1.00  0.00    -0.396 OA
ATOM      8  H   UNL     1     149.643 148.775 145.060  1.00  0.00     0.210 HD
ENDBRANCH   6   7
ENDBRANCH   5   6
ENDBRANCH   1   5
TORSDOF 5
ENDMDL
MODEL 4
REMARK VINA RESULT:    -2.691      2.534      4.018
REMARK INTER + INTRA:          -3.537
REMARK INTER:                  -3.429
REMARK INTRA:                  -0.108
REMARK UNBOUND:                -0.138
REMARK SMILES CCCCCCO
REMARK SMILES IDX 4 1 3 2 2 3 1 4 5 5 6 6 7 7
REMARK H PARENT 7 8
REMARK Flexibility Score: inf
ROOT
ATOM      1  C   UNL     1     149.989 151.884 144.868  1.00  0.00     0.002 C 
ENDROOT
BRANCH   1   2
ATOM      2  C   UNL     1     148.756 151.831 145.782  1.00  0.00    -0.000 C 
BRANCH   2   3
ATOM      3  C   UNL     1     147.991 150.504 145.666  1.00  0.00    -0.003 C 
ATOM      4  C   UNL     1     148.891 149.334 145.269  1.00  0.00     0.004 C 
ENDBRANCH   2   3
ENDBRANCH   1   2
BRANCH   1   5
ATOM      5  C   UNL     1     151.224 152.362 145.639  1.00  0.00     0.028 C 
BRANCH   5   6
ATOM      6  C   UNL     1     152.503 151.733 145.079  1.00  0.00     0.156 C 
BRANCH   6   7
ATOM      7  O   UNL     1     152.328 151.395 143.731  1.00  0.00    -0.396 OA
ATOM      8  H   UNL     1     153.234 151.251 143.353  1.00  0.00     0.210 HD
ENDBRANCH   6   7
ENDBRANCH   5   6
ENDBRANCH   1   5
TORSDOF 5
ENDMDL
MODEL 5
REMARK VINA RESULT:    -2.676      1.794      2.289
REMARK INTER + INTRA:          -3.518
REMARK INTER:                  -3.474
REMARK INTRA:                  -0.044
REMARK UNBOUND:                -0.138
REMARK SMILES CCCCCCO
REMARK SMILES IDX 4 1 3 2 2 3 1 4 5 5 6 6 7 7
REMARK H PARENT 7 8
REMARK Flexibility Score: inf
ROOT
ATOM      1  C   UNL     1     150.132 150.781 144.763  1.00  0.00     0.002 C 
ENDROOT
BRANCH   1   2
ATOM      2  C   UNL     1     151.575 150.269 144.635  1.00  0.00    -0.000 C 
BRANCH   2   3
ATOM      3  C   UNL     1     152.385 150.457 145.927  1.00  0.00    -0.003 C 
ATOM      4  C   UNL     1     153.700 151.202 145.698  1.00  0.00     0.004 C 
ENDBRANCH   2   3
ENDBRANCH   1   2
BRANCH   1   5
ATOM      5  C   UNL     1     149.202 149.677 145.279  1.00  0.00     0.028 C 
BRANCH   5   6
ATOM      6  C   UNL     1     147.924 150.267 145.882  1.00  0.00     0.156 C 
BRANCH   6   7
ATOM      7  O   UNL     1     146.941 150.405 144.894  1.00  0.00    -0.396 OA
ATOM      8  H   UNL     1     146.322 151.115 145.205  1.00  0.00     0.210 HD
ENDBRANCH   6   7
ENDBRANCH   5   6
ENDBRANCH   1   5
TORSDOF 5
ENDMDL
MODEL 6
REMARK VINA RESULT:    -2.675      2.400      3.765
REMARK INTER + INTRA:          -3.517
REMARK INTER:                  -3.418
REMARK INTRA:                  -0.098
REMARK UNBOUND:                -0.138
REMARK SMILES CCCCCCO
REMARK SMILES IDX 4 1 3 2 2 3 1 4 5 5 6 6 7 7
REMARK H PARENT 7 8
REMARK Flexibility Score: inf
ROOT
ATOM      1  C   UNL     1     151.100 151.653 145.123  1.00  0.00     0.002 C 
ENDROOT
BRANCH   1   2
ATOM      2  C   UNL     1     151.327 150.257 144.524  1.00  0.00    -0.000 C 
BRANCH   2   3
ATOM      3  C   UNL     1     151.951 149.277 145.528  1.00  0.00    -0.003 C 
ATOM      4  C   UNL     1     151.232 147.929 145.566  1.00  0.00     0.004 C 
ENDBRANCH   2   3
ENDBRANCH   1   2
BRANCH   1   5
ATOM      5  C   UNL     1     149.652 151.818 145.596  1.00  0.00     0.028 C 
BRANCH   5   6
ATOM      6  C   UNL     1     149.120 153.217 145.271  1.00  0.00     0.156 C 
BRANCH   6   7
ATOM      7  O   UNL     1     149.509 153.596 143.980  1.00  0.00    -0.396 OA
ATOM      8  H   UNL     1     148.679 153.823 143.487  1.00  0.00     0.210 HD
ENDBRANCH   6   7
ENDBRANCH   5   6
ENDBRANCH   1   5
TORSDOF 5
ENDMDL
MODEL 7
REMARK VINA RESULT:    -2.609      1.956      3.730
REMARK INTER + INTRA:          -3.433
REMARK INTER:                  -3.339
REMARK INTRA:                  -0.095
REMARK UNBOUND:                -0.138
REMARK SMILES CCCCCCO
REMARK SMILES IDX 4 1 3 2 2 3 1 4 5 5 6 6 7 7
REMARK H PARENT 7 8
REMARK Flexibility Score: inf
ROOT
ATOM      1  C   UNL     1     150.678 150.710 145.614  1.00  0.00     0.002 C 
ENDROOT
BRANCH   1   2
ATOM      2  C   UNL     1     149.896 149.619 144.866  1.00  0.00    -0.000 C 
BRANCH   2   3
ATOM      3  C   UNL     1     148.853 148.925 145.755  1.00  0.00    -0.003 C 
ATOM      4  C   UNL     1     147.619 149.792 146.005  1.00  0.00     0.004 C 
ENDBRANCH   2   3
ENDBRANCH   1   2
BRANCH   1   5
ATOM      5  C   UNL     1     150.386 152.095 145.027  1.00  0.00     0.028 C 
BRANCH   5   6
ATOM      6  C   UNL     1     150.337 153.161 146.125  1.00  0.00     0.156 C 
BRANCH   6   7
ATOM      7  O   UNL     1     149.843 154.366 145.608  1.00  0.00    -0.396 OA
ATOM      8  H   UNL     1     150.513 154.689 144.950  1.00  0.00     0.210 HD
ENDBRANCH   6   7
ENDBRANCH   5   6
ENDBRANCH   1   5
TORSDOF 5
ENDMDL
MODEL 8
REMARK VINA RESULT:    -2.605      2.571      3.530
REMARK INTER + INTRA:          -3.428
REMARK INTER:                  -3.226
REMARK INTRA:                  -0.203
REMARK UNBOUND:                -0.138
REMARK SMILES CCCCCCO
REMARK SMILES IDX 4 1 3 2 2 3 1 4 5 5 6 6 7 7
REMARK H PARENT 7 8
REMARK Flexibility Score: inf
ROOT
ATOM      1  C   UNL     1     151.504 151.761 145.703  1.00  0.00     0.002 C 
ENDROOT
BRANCH   1   2
ATOM      2  C   UNL     1     151.858 151.167 144.332  1.00  0.00    -0.000 C 
BRANCH   2   3
ATOM      3  C   UNL     1     150.630 150.616 143.591  1.00  0.00    -0.003 C 
ATOM      4  C   UNL     1     150.655 150.924 142.094  1.00  0.00     0.004 C 
ENDBRANCH   2   3
ENDBRANCH   1   2
BRANCH   1   5
ATOM      5  C   UNL     1     150.018 152.130 145.774  1.00  0.00     0.028 C 
BRANCH   5   6
ATOM      6  C   UNL     1     149.814 153.637 145.601  1.00  0.00     0.156 C 
BRANCH   6   7
ATOM      7  O   UNL     1     149.512 153.935 144.266  1.00  0.00    -0.396 OA
ATOM      8  H   UNL     1     150.372 153.926 143.770  1.00  0.00     0.210 HD
ENDBRANCH   6   7
ENDBRANCH   5   6
ENDBRANCH   1   5
TORSDOF 5
ENDMDL
MODEL 9
REMARK VINA RESULT:    -2.258      2.322      2.636
REMARK INTER + INTRA:          -2.990
REMARK INTER:                  -2.895
REMARK INTRA:                  -0.095
REMARK UNBOUND:                -0.138
REMARK SMILES CCCCCCO
REMARK SMILES IDX 4 1 3 2 2 3 1 4 5 5 6 6 7 7
REMARK H PARENT 7 8
REMARK Flexibility Score: inf
ROOT
ATOM      1  C   UNL     1     150.034 150.367 144.783  1.00  0.00     0.002 C 
ENDROOT
BRANCH   1   2
ATOM      2  C   UNL     1     149.981 151.125 146.118  1.00  0.00    -0.000 C 
BRANCH   2   3
ATOM      3  C   UNL     1     150.875 152.374 146.125  1.00  0.00    -0.003 C 
ATOM      4  C   UNL     1     150.148 153.626 145.635  1.00  0.00     0.004 C 
ENDBRANCH   2   3
ENDBRANCH   1   2
BRANCH   1   5
ATOM      5  C   UNL     1     151.190 149.361 144.768  1.00  0.00     0.028 C 
BRANCH   5   6
ATOM      6  C   UNL     1     151.010 148.297 145.854  1.00  0.00     0.156 C 
BRANCH   6   7
ATOM      7  O   UNL     1     150.250 147.227 145.364  1.00  0.00    -0.396 OA
ATOM      8  H   UNL     1     149.318 147.557 145.276  1.00  0.00     0.210 HD
ENDBRANCH   6   7
ENDBRANCH   5   6
ENDBRANCH   1   5
TORSDOF 5
ENDMDL
