MODEL 1
REMARK VINA RESULT:    -5.056      0.000      0.000
REMARK INTER + INTRA:          -8.438
REMARK INTER:                  -7.717
REMARK INTRA:                  -0.722
REMARK UNBOUND:                -0.722
REMARK SMILES O=C([O-])CCCCCCCCC(=O)[O-]
REMARK SMILES IDX 7 1 6 2 5 3 4 4 2 5 1 6 3 7 8 8 9 9 10 10 11 11 12 12 13 13
REMARK SMILES IDX 14 14
REMARK H PARENT
REMARK Flexibility Score: inf
ROOT
ATOM      1  C   UNL     1      -8.034  62.810  54.339  1.00  0.00     0.000 C 
ENDROOT
BRANCH   1   2
ATOM      2  C   UNL     1      -7.711  61.540  53.527  1.00  0.00     0.000 C 
BRANCH   2   3
ATOM      3  C   UNL     1      -6.463  60.771  53.996  1.00  0.00     0.006 C 
BRANCH   3   4
ATOM      4  C   UNL     1      -6.080  61.082  55.448  1.00  0.00     0.053 C 
BRANCH   4   5
ATOM      5  C   UNL     1      -5.749  59.821  56.183  1.00  0.00     0.041 C 
ATOM      6  O   UNL     1      -4.694  59.744  56.866  1.00  0.00    -0.550 OA
ATOM      7  O   UNL     1      -6.631  58.748  56.154  1.00  0.00    -0.550 OA
ENDBRANCH   4   5
ENDBRANCH   3   4
ENDBRANCH   2   3
ENDBRANCH   1   2
BRANCH   1   8
ATOM      8  C   UNL     1      -7.904  64.133  53.559  1.00  0.00     0.000 C 
BRANCH   8   9
ATOM      9  C   UNL     1      -6.472  64.486  53.108  1.00  0.00     0.000 C 
BRANCH   9  10
ATOM     10  C   UNL     1      -6.330  64.852  51.616  1.00  0.00     0.006 C 
BRANCH  10  11
ATOM     11  C   UNL     1      -6.473  63.663  50.654  1.00  0.00     0.053 C 
BRANCH  11  12
ATOM     12  C   UNL     1      -7.667  63.802  49.761  1.00  0.00     0.041 C 
ATOM     13  O   UNL     1      -8.439  64.791  49.885  1.00  0.00    -0.550 OA
ATOM     14  O   UNL     1      -7.948  62.824  48.816  1.00  0.00    -0.550 OA
ENDBRANCH  11  12
ENDBRANCH  10  11
ENDBRANCH   9  10
ENDBRANCH   8   9
ENDBRANCH   1   8
TORSDOF 9
ENDMDL
MODEL 2
REMARK VINA RESULT:    -4.989      0.711      6.361
REMARK INTER + INTRA:          -8.335
REMARK INTER:                  -7.736
REMARK INTRA:                  -0.600
REMARK UNBOUND:                -0.722
REMARK SMILES O=C([O-])CCCCCCCCC(=O)[O-]
REMARK SMILES IDX 7 1 6 2 5 3 4 4 2 5 1 6 3 7 8 8 9 9 10 10 11 11 12 12 13 13
REMARK SMILES IDX 14 14
REMARK H PARENT
REMARK Flexibility Score: inf
ROOT
ATOM      1  C   UNL     1      -8.010  64.185  53.548  1.00  0.00     0.000 C 
ENDROOT
BRANCH   1   2
ATOM      2  C   UNL     1      -6.608  64.721  53.196  1.00  0.00     0.000 C 
BRANCH   2   3
ATOM      3  C   UNL     1      -6.391  65.043  51.706  1.00  0.00     0.006 C 
BRANCH   3   4
ATOM      4  C   UNL     1      -7.628  64.754  50.848  1.00  0.00     0.053 C 
BRANCH   4   5
ATOM      5  C   UNL     1      -7.302  63.758  49.780  1.00  0.00     0.041 C 
ATOM      6  O   UNL     1      -6.105  63.446  49.548  1.00  0.00    -0.550 OA
ATOM      7  O   UNL     1      -8.325  63.137  49.074  1.00  0.00    -0.550 OA
ENDBRANCH   4   5
ENDBRANCH   3   4
ENDBRANCH   2   3
ENDBRANCH   1   2
BRANCH   1   8
ATOM      8  C   UNL     1      -8.023  62.870  54.352  1.00  0.00     0.000 C 
BRANCH   8   9
ATOM      9  C   UNL     1      -7.700  61.603  53.534  1.00  0.00     0.000 C 
BRANCH   9  10
ATOM     10  C   UNL     1      -6.464  60.816  54.015  1.00  0.00     0.006 C 
BRANCH  10  11
ATOM     11  C   UNL     1      -6.124  61.012  55.501  1.00  0.00     0.053 C 
BRANCH  11  12
ATOM     12  C   UNL     1      -5.772  59.721  56.171  1.00  0.00     0.041 C 
ATOM     13  O   UNL     1      -6.600  58.772  56.194  1.00  0.00    -0.550 OA
ATOM     14  O   UNL     1      -4.542  59.576  56.801  1.00  0.00    -0.550 OA
ENDBRANCH  11  12
ENDBRANCH  10  11
ENDBRANCH   9  10
ENDBRANCH   8   9
ENDBRANCH   1   8
TORSDOF 9
ENDMDL
MODEL 3
REMARK VINA RESULT:    -4.889     12.245     15.190
REMARK INTER + INTRA:          -8.183
REMARK INTER:                  -7.546
REMARK INTRA:                  -0.637
REMARK UNBOUND:                -0.722
REMARK SMILES O=C([O-])CCCCCCCCC(=O)[O-]
REMARK SMILES IDX 7 1 6 2 5 3 4 4 2 5 1 6 3 7 8 8 9 9 10 10 11 11 12 12 13 13
REMARK SMILES IDX 14 14
REMARK H PARENT
REMARK Flexibility Score: inf
ROOT
ATOM      1  C   UNL     1     -12.029  60.818  40.555  1.00  0.00     0.000 C 
ENDROOT
BRANCH   1   2
ATOM      2  C   UNL     1     -12.609  59.642  39.744  1.00  0.00     0.000 C 
BRANCH   2   3
ATOM      3  C   UNL     1     -13.536  60.048  38.584  1.00  0.00     0.006 C 
BRANCH   3   4
ATOM      4  C   UNL     1     -14.852  60.673  39.063  1.00  0.00     0.053 C 
BRANCH   4   5
ATOM      5  C   UNL     1     -15.020  62.043  38.486  1.00  0.00     0.041 C 
ATOM      6  O   UNL     1     -16.115  62.381  37.964  1.00  0.00    -0.550 OA
ATOM      7  O   UNL     1     -13.984  62.965  38.570  1.00  0.00    -0.550 OA
ENDBRANCH   4   5
ENDBRANCH   3   4
ENDBRANCH   2   3
ENDBRANCH   1   2
BRANCH   1   8
ATOM      8  C   UNL     1     -10.597  61.236  40.165  1.00  0.00     0.000 C 
BRANCH   8   9
ATOM      9  C   UNL     1     -10.504  62.195  38.961  1.00  0.00     0.000 C 
BRANCH   9  10
ATOM     10  C   UNL     1     -10.205  63.665  39.322  1.00  0.00     0.006 C 
BRANCH  10  11
ATOM     11  C   UNL     1      -9.037  63.854  40.302  1.00  0.00     0.053 C 
BRANCH  11  12
ATOM     12  C   UNL     1      -9.465  64.546  41.559  1.00  0.00     0.041 C 
ATOM     13  O   UNL     1      -9.792  63.873  42.573  1.00  0.00    -0.550 OA
ATOM     14  O   UNL     1      -9.536  65.932  41.601  1.00  0.00    -0.550 OA
ENDBRANCH  11  12
ENDBRANCH  10  11
ENDBRANCH   9  10
ENDBRANCH   8   9
ENDBRANCH   1   8
TORSDOF 9
ENDMDL
MODEL 4
REMARK VINA RESULT:    -4.852     13.117     15.537
REMARK INTER + INTRA:          -8.127
REMARK INTER:                  -7.556
REMARK INTRA:                  -0.571
REMARK UNBOUND:                -0.722
REMARK SMILES O=C([O-])CCCCCCCCC(=O)[O-]
REMARK SMILES IDX 7 1 6 2 5 3 4 4 2 5 1 6 3 7 8 8 9 9 10 10 11 11 12 12 13 13
REMARK SMILES IDX 14 14
REMARK H PARENT
REMARK Flexibility Score: inf
ROOT
ATOM      1  C   UNL     1     -11.994  60.804  40.608  1.00  0.00     0.000 C 
ENDROOT
BRANCH   1   2
ATOM      2  C   UNL     1     -10.550  61.179  40.220  1.00  0.00     0.000 C 
BRANCH   2   3
ATOM      3  C   UNL     1     -10.430  62.248  39.118  1.00  0.00     0.006 C 
BRANCH   3   4
ATOM      4  C   UNL     1     -10.720  63.664  39.629  1.00  0.00     0.053 C 
BRANCH   4   5
ATOM      5  C   UNL     1      -9.703  64.071  40.648  1.00  0.00     0.041 C 
ATOM      6  O   UNL     1     -10.070  64.542  41.756  1.00  0.00    -0.550 OA
ATOM      7  O   UNL     1      -8.350  63.883  40.393  1.00  0.00    -0.550 OA
ENDBRANCH   4   5
ENDBRANCH   3   4
ENDBRANCH   2   3
ENDBRANCH   1   2
BRANCH   1   8
ATOM      8  C   UNL     1     -12.600  59.631  39.815  1.00  0.00     0.000 C 
BRANCH   8   9
ATOM      9  C   UNL     1     -13.503  60.040  38.633  1.00  0.00     0.000 C 
BRANCH   9  10
ATOM     10  C   UNL     1     -14.429  61.243  38.907  1.00  0.00     0.006 C 
BRANCH  10  11
ATOM     11  C   UNL     1     -15.669  61.309  38.003  1.00  0.00     0.053 C 
BRANCH  11  12
ATOM     12  C   UNL     1     -16.887  60.761  38.679  1.00  0.00     0.041 C 
ATOM     13  O   UNL     1     -16.928  59.551  39.027  1.00  0.00    -0.550 OA
ATOM     14  O   UNL     1     -17.990  61.576  38.894  1.00  0.00    -0.550 OA
ENDBRANCH  11  12
ENDBRANCH  10  11
ENDBRANCH   9  10
ENDBRANCH   8   9
ENDBRANCH   1   8
TORSDOF 9
ENDMDL
MODEL 5
REMARK VINA RESULT:    -4.808     12.324     14.815
REMARK INTER + INTRA:          -8.059
REMARK INTER:                  -7.396
REMARK INTRA:                  -0.663
REMARK UNBOUND:                -0.722
REMARK SMILES O=C([O-])CCCCCCCCC(=O)[O-]
REMARK SMILES IDX 7 1 6 2 5 3 4 4 2 5 1 6 3 7 8 8 9 9 10 10 11 11 12 12 13 13
REMARK SMILES IDX 14 14
REMARK H PARENT
REMARK Flexibility Score: inf
ROOT
ATOM      1  C   UNL     1     -10.848  61.254  40.642  1.00  0.00     0.000 C 
ENDROOT
BRANCH   1   2
ATOM      2  C   UNL     1     -10.524  61.937  39.299  1.00  0.00     0.000 C 
BRANCH   2   3
ATOM      3  C   UNL     1     -10.227  63.445  39.392  1.00  0.00     0.006 C 
BRANCH   3   4
ATOM      4  C   UNL     1      -8.990  63.757  40.242  1.00  0.00     0.053 C 
BRANCH   4   5
ATOM      5  C   UNL     1      -9.371  64.562  41.445  1.00  0.00     0.041 C 
ATOM      6  O   UNL     1      -9.692  63.986  42.517  1.00  0.00    -0.550 OA
ATOM      7  O   UNL     1      -9.325  65.950  41.396  1.00  0.00    -0.550 OA
ENDBRANCH   4   5
ENDBRANCH   3   4
ENDBRANCH   2   3
ENDBRANCH   1   2
BRANCH   1   8
ATOM      8  C   UNL     1     -12.259  60.641  40.739  1.00  0.00     0.000 C 
BRANCH   8   9
ATOM      9  C   UNL     1     -12.599  59.611  39.642  1.00  0.00     0.000 C 
BRANCH   9  10
ATOM     10  C   UNL     1     -13.687  60.059  38.643  1.00  0.00     0.006 C 
BRANCH  10  11
ATOM     11  C   UNL     1     -14.796  60.926  39.259  1.00  0.00     0.053 C 
BRANCH  11  12
ATOM     12  C   UNL     1     -14.850  62.289  38.642  1.00  0.00     0.041 C 
ATOM     13  O   UNL     1     -15.848  62.634  37.954  1.00  0.00    -0.550 OA
ATOM     14  O   UNL     1     -13.786  63.167  38.797  1.00  0.00    -0.550 OA
ENDBRANCH  11  12
ENDBRANCH  10  11
ENDBRANCH   9  10
ENDBRANCH   8   9
ENDBRANCH   1   8
TORSDOF 9
ENDMDL
MODEL 6
REMARK VINA RESULT:    -4.793      1.032      1.739
REMARK INTER + INTRA:          -8.037
REMARK INTER:                  -7.357
REMARK INTRA:                  -0.680
REMARK UNBOUND:                -0.722
REMARK SMILES O=C([O-])CCCCCCCCC(=O)[O-]
REMARK SMILES IDX 7 1 6 2 5 3 4 4 2 5 1 6 3 7 8 8 9 9 10 10 11 11 12 12 13 13
REMARK SMILES IDX 14 14
REMARK H PARENT
REMARK Flexibility Score: inf
ROOT
ATOM      1  C   UNL     1      -8.115  64.129  53.449  1.00  0.00     0.000 C 
ENDROOT
BRANCH   1   2
ATOM      2  C   UNL     1      -7.938  62.923  54.392  1.00  0.00     0.000 C 
BRANCH   2   3
ATOM      3  C   UNL     1      -7.683  61.578  53.687  1.00  0.00     0.006 C 
BRANCH   3   4
ATOM      4  C   UNL     1      -6.199  61.195  53.650  1.00  0.00     0.053 C 
BRANCH   4   5
ATOM      5  C   UNL     1      -5.727  60.804  55.015  1.00  0.00     0.041 C 
ATOM      6  O   UNL     1      -4.631  61.240  55.456  1.00  0.00    -0.550 OA
ATOM      7  O   UNL     1      -6.521  59.997  55.821  1.00  0.00    -0.550 OA
ENDBRANCH   4   5
ENDBRANCH   3   4
ENDBRANCH   2   3
ENDBRANCH   1   2
BRANCH   1   8
ATOM      8  C   UNL     1      -6.848  64.978  53.229  1.00  0.00     0.000 C 
BRANCH   8   9
ATOM      9  C   UNL     1      -6.300  64.970  51.787  1.00  0.00     0.000 C 
BRANCH   9  10
ATOM     10  C   UNL     1      -7.012  63.997  50.825  1.00  0.00     0.006 C 
BRANCH  10  11
ATOM     11  C   UNL     1      -7.554  64.651  49.545  1.00  0.00     0.053 C 
BRANCH  11  12
ATOM     12  C   UNL     1      -8.665  63.856  48.934  1.00  0.00     0.041 C 
ATOM     13  O   UNL     1      -8.510  62.628  48.697  1.00  0.00    -0.550 OA
ATOM     14  O   UNL     1      -9.860  64.476  48.594  1.00  0.00    -0.550 OA
ENDBRANCH  11  12
ENDBRANCH  10  11
ENDBRANCH   9  10
ENDBRANCH   8   9
ENDBRANCH   1   8
TORSDOF 9
ENDMDL
MODEL 7
REMARK VINA RESULT:    -4.788      1.709      2.188
REMARK INTER + INTRA:          -8.029
REMARK INTER:                  -7.617
REMARK INTRA:                  -0.413
REMARK UNBOUND:                -0.722
REMARK SMILES O=C([O-])CCCCCCCCC(=O)[O-]
REMARK SMILES IDX 7 1 6 2 5 3 4 4 2 5 1 6 3 7 8 8 9 9 10 10 11 11 12 12 13 13
REMARK SMILES IDX 14 14
REMARK H PARENT
REMARK Flexibility Score: inf
ROOT
ATOM      1  C   UNL     1      -7.350  61.474  53.576  1.00  0.00     0.000 C 
ENDROOT
BRANCH   1   2
ATOM      2  C   UNL     1      -6.144  60.801  54.261  1.00  0.00     0.000 C 
BRANCH   2   3
ATOM      3  C   UNL     1      -6.304  60.569  55.774  1.00  0.00     0.006 C 
BRANCH   3   4
ATOM      4  C   UNL     1      -5.941  59.141  56.200  1.00  0.00     0.053 C 
BRANCH   4   5
ATOM      5  C   UNL     1      -4.512  59.074  56.638  1.00  0.00     0.041 C 
ATOM      6  O   UNL     1      -4.067  59.898  57.479  1.00  0.00    -0.550 OA
ATOM      7  O   UNL     1      -3.682  58.069  56.153  1.00  0.00    -0.550 OA
ENDBRANCH   4   5
ENDBRANCH   3   4
ENDBRANCH   2   3
ENDBRANCH   1   2
BRANCH   1   8
ATOM      8  C   UNL     1      -7.928  62.693  54.322  1.00  0.00     0.000 C 
BRANCH   8   9
ATOM      9  C   UNL     1      -7.728  64.047  53.611  1.00  0.00     0.000 C 
BRANCH   9  10
ATOM     10  C   UNL     1      -6.702  64.033  52.459  1.00  0.00     0.006 C 
BRANCH  10  11
ATOM     11  C   UNL     1      -7.156  64.778  51.195  1.00  0.00     0.053 C 
BRANCH  11  12
ATOM     12  C   UNL     1      -6.085  65.675  50.657  1.00  0.00     0.041 C 
ATOM     13  O   UNL     1      -5.816  66.760  51.237  1.00  0.00    -0.550 OA
ATOM     14  O   UNL     1      -5.406  65.330  49.495  1.00  0.00    -0.550 OA
ENDBRANCH  11  12
ENDBRANCH  10  11
ENDBRANCH   9  10
ENDBRANCH   8   9
ENDBRANCH   1   8
TORSDOF 9
ENDMDL
MODEL 8
REMARK VINA RESULT:    -4.787      1.755      6.970
REMARK INTER + INTRA:          -8.027
REMARK INTER:                  -7.613
REMARK INTRA:                  -0.414
REMARK UNBOUND:                -0.722
REMARK SMILES O=C([O-])CCCCCCCCC(=O)[O-]
REMARK SMILES IDX 7 1 6 2 5 3 4 4 2 5 1 6 3 7 8 8 9 9 10 10 11 11 12 12 13 13
REMARK SMILES IDX 14 14
REMARK H PARENT
REMARK Flexibility Score: inf
ROOT
ATOM      1  C   UNL     1      -7.850  62.896  54.347  1.00  0.00     0.000 C 
ENDROOT
BRANCH   1   2
ATOM      2  C   UNL     1      -7.841  64.070  53.347  1.00  0.00     0.000 C 
BRANCH   2   3
ATOM      3  C   UNL     1      -6.451  64.451  52.806  1.00  0.00     0.006 C 
BRANCH   3   4
ATOM      4  C   UNL     1      -6.349  64.325  51.282  1.00  0.00     0.053 C 
BRANCH   4   5
ATOM      5  C   UNL     1      -5.869  65.609  50.682  1.00  0.00     0.041 C 
ATOM      6  O   UNL     1      -5.439  65.635  49.499  1.00  0.00    -0.550 OA
ATOM      7  O   UNL     1      -5.942  66.788  51.414  1.00  0.00    -0.550 OA
ENDBRANCH   4   5
ENDBRANCH   3   4
ENDBRANCH   2   3
ENDBRANCH   1   2
BRANCH   1   8
ATOM      8  C   UNL     1      -7.577  61.511  53.731  1.00  0.00     0.000 C 
BRANCH   8   9
ATOM      9  C   UNL     1      -6.321  60.795  54.268  1.00  0.00     0.000 C 
BRANCH   9  10
ATOM     10  C   UNL     1      -6.325  60.523  55.787  1.00  0.00     0.006 C 
BRANCH  10  11
ATOM     11  C   UNL     1      -5.698  59.181  56.194  1.00  0.00     0.053 C 
BRANCH  11  12
ATOM     12  C   UNL     1      -4.298  59.345  56.698  1.00  0.00     0.041 C 
ATOM     13  O   UNL     1      -3.749  58.422  57.356  1.00  0.00    -0.550 OA
ATOM     14  O   UNL     1      -3.611  60.531  56.470  1.00  0.00    -0.550 OA
ENDBRANCH  11  12
ENDBRANCH  10  11
ENDBRANCH   9  10
ENDBRANCH   8   9
ENDBRANCH   1   8
TORSDOF 9
ENDMDL
MODEL 9
REMARK VINA RESULT:    -4.683      0.900      6.291
REMARK INTER + INTRA:          -7.868
REMARK INTER:                  -7.391
REMARK INTRA:                  -0.477
REMARK UNBOUND:                -0.722
REMARK SMILES O=C([O-])CCCCCCCCC(=O)[O-]
REMARK SMILES IDX 7 1 6 2 5 3 4 4 2 5 1 6 3 7 8 8 9 9 10 10 11 11 12 12 13 13
REMARK SMILES IDX 14 14
REMARK H PARENT
REMARK Flexibility Score: inf
ROOT
ATOM      1  C   UNL     1      -6.615  64.072  52.536  1.00  0.00     0.000 C 
ENDROOT
BRANCH   1   2
ATOM      2  C   UNL     1      -6.472  65.374  51.722  1.00  0.00     0.000 C 
BRANCH   2   3
ATOM      3  C   UNL     1      -6.421  65.183  50.195  1.00  0.00     0.006 C 
BRANCH   3   4
ATOM      4  C   UNL     1      -6.753  63.749  49.763  1.00  0.00     0.053 C 
BRANCH   4   5
ATOM      5  C   UNL     1      -8.125  63.687  49.170  1.00  0.00     0.041 C 
ATOM      6  O   UNL     1      -8.892  64.683  49.241  1.00  0.00    -0.550 OA
ATOM      7  O   UNL     1      -8.540  62.545  48.495  1.00  0.00    -0.550 OA
ENDBRANCH   4   5
ENDBRANCH   3   4
ENDBRANCH   2   3
ENDBRANCH   1   2
BRANCH   1   8
ATOM      8  C   UNL     1      -7.701  64.102  53.629  1.00  0.00     0.000 C 
BRANCH   8   9
ATOM      9  C   UNL     1      -7.770  62.840  54.514  1.00  0.00     0.000 C 
BRANCH   9  10
ATOM     10  C   UNL     1      -7.715  61.503  53.747  1.00  0.00     0.006 C 
BRANCH  10  11
ATOM     11  C   UNL     1      -6.352  60.795  53.801  1.00  0.00     0.053 C 
BRANCH  11  12
ATOM     12  C   UNL     1      -5.844  60.662  55.203  1.00  0.00     0.041 C 
ATOM     13  O   UNL     1      -4.762  61.212  55.540  1.00  0.00    -0.550 OA
ATOM     14  O   UNL     1      -6.547  59.903  56.130  1.00  0.00    -0.550 OA
ENDBRANCH  11  12
ENDBRANCH  10  11
ENDBRANCH   9  10
ENDBRANCH   8   9
ENDBRANCH   1   8
TORSDOF 9
ENDMDL
